# generated using pymatgen
data_Ti10ZnGeSb4
_symmetry_space_group_name_H-M   'P 1'
_cell_length_a   5.18636160
_cell_length_b   7.84035124
_cell_length_c   7.84035240
_cell_angle_alpha   83.73955663
_cell_angle_beta   70.68230007
_cell_angle_gamma   70.68229068
_symmetry_Int_Tables_number   1
_chemical_formula_structural   Ti10ZnGeSb4
_chemical_formula_sum   'Ti10 Zn1 Ge1 Sb4'
_cell_volume   283.92304192
_cell_formula_units_Z   1
loop_
 _symmetry_equiv_pos_site_id
 _symmetry_equiv_pos_as_xyz
  1  'x, y, z'
loop_
 _atom_site_type_symbol
 _atom_site_label
 _atom_site_symmetry_multiplicity
 _atom_site_fract_x
 _atom_site_fract_y
 _atom_site_fract_z
 _atom_site_occupancy
  Ti  Ti0  1  0.250000  0.500021  0.499979  1
  Ti  Ti1  1  0.750000  0.500149  0.499851  1
  Ti  Ti2  1  0.073026  0.141730  0.711197  1
  Ti  Ti3  1  0.924984  0.858263  0.288939  1
  Ti  Ti4  1  0.783471  0.289070  0.141625  1
  Ti  Ti5  1  0.426974  0.288803  0.858270  1
  Ti  Ti6  1  0.214694  0.710862  0.858238  1
  Ti  Ti7  1  0.575016  0.711061  0.141737  1
  Ti  Ti8  1  0.716529  0.858375  0.710930  1
  Ti  Ti9  1  0.285306  0.141762  0.289138  1
  Zn  Zn10  1  0.250000  0.000013  0.999987  1
  Ge  Ge11  1  0.750000  0.999735  0.000265  1
  Sb  Sb12  1  0.164341  0.500110  0.171372  1
  Sb  Sb13  1  0.835444  0.499994  0.828575  1
  Sb  Sb14  1  0.335659  0.828628  0.499890  1
  Sb  Sb15  1  0.664556  0.171425  0.500006  1
