# generated using pymatgen
data_Tm8Mg4Sc8Si15Ge
_symmetry_space_group_name_H-M   'P 1'
_cell_length_a   6.92422488
_cell_length_b   7.40404225
_cell_length_c   13.86139240
_cell_angle_alpha   90.01648127
_cell_angle_beta   89.93550129
_cell_angle_gamma   90.01519903
_symmetry_Int_Tables_number   1
_chemical_formula_structural   Tm8Mg4Sc8Si15Ge
_chemical_formula_sum   'Tm8 Mg4 Sc8 Si15 Ge1'
_cell_volume   710.63501413
_cell_formula_units_Z   1
loop_
 _symmetry_equiv_pos_site_id
 _symmetry_equiv_pos_as_xyz
  1  'x, y, z'
loop_
 _atom_site_type_symbol
 _atom_site_label
 _atom_site_symmetry_multiplicity
 _atom_site_fract_x
 _atom_site_fract_y
 _atom_site_fract_z
 _atom_site_occupancy
  Tm  Tm0  1  0.011899  0.179143  0.095936  1
  Tm  Tm1  1  0.988327  0.820969  0.904038  1
  Tm  Tm2  1  0.488460  0.678720  0.903991  1
  Tm  Tm3  1  0.987856  0.822359  0.596140  1
  Tm  Tm4  1  0.511544  0.321364  0.096042  1
  Tm  Tm5  1  0.010712  0.178184  0.403366  1
  Tm  Tm6  1  0.512171  0.319700  0.402777  1
  Tm  Tm7  1  0.491005  0.680737  0.596499  1
  Mg  Mg8  1  0.159381  0.505555  0.751241  1
  Mg  Mg9  1  0.840543  0.494652  0.249943  1
  Mg  Mg10  1  0.340699  0.005510  0.249788  1
  Mg  Mg11  1  0.659440  0.994499  0.750344  1
  Sc  Sc12  1  0.332433  0.177349  0.626602  1
  Sc  Sc13  1  0.668656  0.820627  0.373744  1
  Sc  Sc14  1  0.168142  0.680531  0.373849  1
  Sc  Sc15  1  0.669335  0.819729  0.125577  1
  Sc  Sc16  1  0.829532  0.320051  0.625595  1
  Sc  Sc17  1  0.330463  0.180027  0.874471  1
  Sc  Sc18  1  0.830535  0.320015  0.874436  1
  Sc  Sc19  1  0.169208  0.680008  0.125639  1
  Si  Si20  1  0.033731  0.103039  0.750091  1
  Si  Si21  1  0.966179  0.897216  0.249550  1
  Si  Si22  1  0.465769  0.603144  0.249893  1
  Si  Si23  1  0.533692  0.396996  0.750139  1
  Si  Si24  1  0.282087  0.876013  0.750331  1
  Si  Si25  1  0.717624  0.123399  0.249462  1
  Si  Si26  1  0.217290  0.376680  0.249962  1
  Si  Si27  1  0.782875  0.623343  0.750124  1
  Si  Si28  1  0.833404  0.537393  0.465018  1
  Si  Si29  1  0.337599  0.963493  0.465764  1
  Si  Si30  1  0.838275  0.536237  0.034237  1
  Si  Si31  1  0.662157  0.036858  0.533706  1
  Si  Si32  1  0.161975  0.463632  0.966006  1
  Si  Si33  1  0.661696  0.036263  0.965773  1
  Si  Si34  1  0.338459  0.963702  0.034352  1
  Ge  Ge35  1  0.166850  0.462861  0.535576  1
