# generated using pymatgen
data_Yb3Er2(Ni2Sn5)2
_symmetry_space_group_name_H-M   'P 1'
_cell_length_a   13.90364600
_cell_length_b   13.90364600
_cell_length_c   4.44051700
_cell_angle_alpha   90.00000000
_cell_angle_beta   90.00000000
_cell_angle_gamma   90.00000000
_symmetry_Int_Tables_number   1
_chemical_formula_structural   Yb3Er2(Ni2Sn5)2
_chemical_formula_sum   'Yb6 Er4 Ni8 Sn20'
_cell_volume   858.40243407
_cell_formula_units_Z   2
loop_
 _symmetry_equiv_pos_site_id
 _symmetry_equiv_pos_as_xyz
  1  'x, y, z'
loop_
 _atom_site_type_symbol
 _atom_site_label
 _atom_site_symmetry_multiplicity
 _atom_site_fract_x
 _atom_site_fract_y
 _atom_site_fract_z
 _atom_site_occupancy
  Yb  Yb0  1  0.000000  0.000000  0.000000  1
  Yb  Yb1  1  0.500000  0.500000  0.000000  1
  Yb  Yb2  1  0.892486  0.607514  0.500000  1
  Yb  Yb3  1  0.107514  0.392486  0.500000  1
  Yb  Yb4  1  0.392486  0.892486  0.500000  1
  Yb  Yb5  1  0.607514  0.107514  0.500000  1
  Er  Er6  1  0.179505  0.679505  0.500000  1
  Er  Er7  1  0.820495  0.320495  0.500000  1
  Er  Er8  1  0.679505  0.820495  0.500000  1
  Er  Er9  1  0.320495  0.179505  0.500000  1
  Ni  Ni10  1  0.253765  0.535677  0.000000  1
  Ni  Ni11  1  0.746235  0.464323  0.000000  1
  Ni  Ni12  1  0.753765  0.964323  0.000000  1
  Ni  Ni13  1  0.246235  0.035677  0.000000  1
  Ni  Ni14  1  0.464323  0.253765  0.000000  1
  Ni  Ni15  1  0.535677  0.746235  0.000000  1
  Ni  Ni16  1  0.035677  0.753765  0.000000  1
  Ni  Ni17  1  0.964323  0.246235  0.000000  1
  Sn  Sn18  1  0.352225  0.700571  0.000000  1
  Sn  Sn19  1  0.647775  0.299429  0.000000  1
  Sn  Sn20  1  0.852225  0.799429  0.000000  1
  Sn  Sn21  1  0.147775  0.200571  0.000000  1
  Sn  Sn22  1  0.299429  0.352225  0.000000  1
  Sn  Sn23  1  0.700571  0.647775  0.000000  1
  Sn  Sn24  1  0.200571  0.852225  0.000000  1
  Sn  Sn25  1  0.799429  0.147775  0.000000  1
  Sn  Sn26  1  0.337134  0.513160  0.500000  1
  Sn  Sn27  1  0.662866  0.486840  0.500000  1
  Sn  Sn28  1  0.837134  0.986840  0.500000  1
  Sn  Sn29  1  0.162866  0.013160  0.500000  1
  Sn  Sn30  1  0.486840  0.337134  0.500000  1
  Sn  Sn31  1  0.513160  0.662866  0.500000  1
  Sn  Sn32  1  0.013160  0.837134  0.500000  1
  Sn  Sn33  1  0.986840  0.162866  0.500000  1
  Sn  Sn34  1  0.071256  0.571256  0.000000  1
  Sn  Sn35  1  0.928744  0.428744  0.000000  1
  Sn  Sn36  1  0.571256  0.928744  0.000000  1
  Sn  Sn37  1  0.428744  0.071256  0.000000  1
