# generated using pymatgen
data_Li5Sc4(P4Rh5)3
_symmetry_space_group_name_H-M   'P 1'
_cell_length_a   3.86633600
_cell_length_b   10.57166602
_cell_length_c   12.76282611
_cell_angle_alpha   90.32561568
_cell_angle_beta   90.00000000
_cell_angle_gamma   90.00000000
_symmetry_Int_Tables_number   1
_chemical_formula_structural   Li5Sc4(P4Rh5)3
_chemical_formula_sum   'Li5 Sc4 P12 Rh15'
_cell_volume   521.65438966
_cell_formula_units_Z   1
loop_
 _symmetry_equiv_pos_site_id
 _symmetry_equiv_pos_as_xyz
  1  'x, y, z'
loop_
 _atom_site_type_symbol
 _atom_site_label
 _atom_site_symmetry_multiplicity
 _atom_site_fract_x
 _atom_site_fract_y
 _atom_site_fract_z
 _atom_site_occupancy
  Li  Li0  1  0.250000  0.710723  0.994783  1
  Li  Li1  1  0.250000  0.790214  0.492580  1
  Li  Li2  1  0.750000  0.289247  0.006810  1
  Li  Li3  1  0.750000  0.209464  0.510568  1
  Li  Li4  1  0.250000  0.407750  0.492560  1
  Sc  Sc5  1  0.250000  0.577318  0.707645  1
  Sc  Sc6  1  0.250000  0.924898  0.203160  1
  Sc  Sc7  1  0.750000  0.428387  0.294510  1
  Sc  Sc8  1  0.750000  0.072194  0.795404  1
  P  P9  1  0.250000  0.429119  0.116776  1
  P  P10  1  0.250000  0.073848  0.616466  1
  P  P11  1  0.750000  0.571744  0.883141  1
  P  P12  1  0.750000  0.933231  0.381633  1
  P  P13  1  0.250000  0.255037  0.855513  1
  P  P14  1  0.250000  0.246475  0.345349  1
  P  P15  1  0.750000  0.742158  0.147443  1
  P  P16  1  0.750000  0.753899  0.641792  1
  P  P17  1  0.250000  0.599195  0.391377  1
  P  P18  1  0.250000  0.896933  0.886081  1
  P  P19  1  0.750000  0.401667  0.619938  1
  P  P20  1  0.750000  0.097637  0.107060  1
  Rh  Rh21  1  0.250000  0.090623  0.970577  1
  Rh  Rh22  1  0.750000  0.584982  0.520123  1
  Rh  Rh23  1  0.750000  0.901778  0.027567  1
  Rh  Rh24  1  0.250000  0.225693  0.164510  1
  Rh  Rh25  1  0.250000  0.276283  0.671050  1
  Rh  Rh26  1  0.750000  0.771469  0.825886  1
  Rh  Rh27  1  0.750000  0.732167  0.329722  1
  Rh  Rh28  1  0.250000  0.877812  0.699440  1
  Rh  Rh29  1  0.250000  0.621447  0.205676  1
  Rh  Rh30  1  0.750000  0.124697  0.294445  1
  Rh  Rh31  1  0.750000  0.373708  0.801497  1
  Rh  Rh32  1  0.250000  0.459898  0.933774  1
  Rh  Rh33  1  0.250000  0.047046  0.431315  1
  Rh  Rh34  1  0.750000  0.541550  0.068416  1
  Rh  Rh35  1  0.750000  0.959710  0.565411  1
