# generated using pymatgen
data_LiHf6Zn22C
_symmetry_space_group_name_H-M   'P 1'
_cell_length_a   8.69071046
_cell_length_b   8.69062291
_cell_length_c   8.69019600
_cell_angle_alpha   60.00102355
_cell_angle_beta   59.99905017
_cell_angle_gamma   60.00069451
_symmetry_Int_Tables_number   1
_chemical_formula_structural   LiHf6Zn22C
_chemical_formula_sum   'Li1 Hf6 Zn22 C1'
_cell_volume   464.11251794
_cell_formula_units_Z   1
loop_
 _symmetry_equiv_pos_site_id
 _symmetry_equiv_pos_as_xyz
  1  'x, y, z'
loop_
 _atom_site_type_symbol
 _atom_site_label
 _atom_site_symmetry_multiplicity
 _atom_site_fract_x
 _atom_site_fract_y
 _atom_site_fract_z
 _atom_site_occupancy
  Li  Li0  1  0.000000  0.000000  0.000000  1
  Hf  Hf1  1  0.687222  0.312889  0.312792  1
  Hf  Hf2  1  0.312778  0.687111  0.687208  1
  Hf  Hf3  1  0.312734  0.687265  0.312747  1
  Hf  Hf4  1  0.687266  0.312735  0.687253  1
  Hf  Hf5  1  0.312676  0.312790  0.687322  1
  Hf  Hf6  1  0.687324  0.687210  0.312678  1
  Zn  Zn7  1  0.117947  0.118009  0.118009  1
  Zn  Zn8  1  0.882053  0.881991  0.881991  1
  Zn  Zn9  1  0.117997  0.117974  0.645991  1
  Zn  Zn10  1  0.118004  0.646048  0.117942  1
  Zn  Zn11  1  0.882003  0.882026  0.354009  1
  Zn  Zn12  1  0.881996  0.353952  0.882058  1
  Zn  Zn13  1  0.646012  0.118028  0.117990  1
  Zn  Zn14  1  0.353988  0.881972  0.882010  1
  Zn  Zn15  1  0.500000  0.000000  0.000000  1
  Zn  Zn16  1  0.000000  0.500000  0.500000  1
  Zn  Zn17  1  0.000000  0.500000  0.000000  1
  Zn  Zn18  1  0.500000  0.000000  0.500000  1
  Zn  Zn19  1  0.000000  0.000000  0.500000  1
  Zn  Zn20  1  0.500000  0.500000  0.000000  1
  Zn  Zn21  1  0.331014  0.331067  0.331103  1
  Zn  Zn22  1  0.668986  0.668933  0.668897  1
  Zn  Zn23  1  0.331093  0.330998  0.006830  1
  Zn  Zn24  1  0.331086  0.006814  0.331028  1
  Zn  Zn25  1  0.668907  0.669002  0.993170  1
  Zn  Zn26  1  0.668914  0.993186  0.668972  1
  Zn  Zn27  1  0.006832  0.331065  0.331103  1
  Zn  Zn28  1  0.993168  0.668935  0.668897  1
  C  C29  1  0.500000  0.500000  0.500000  1
