# generated using pymatgen
data_Ca2SmU3(TaSb5)2
_symmetry_space_group_name_H-M   'P 1'
_cell_length_a   9.40326933
_cell_length_b   9.42807827
_cell_length_c   6.11603200
_cell_angle_alpha   90.00000000
_cell_angle_beta   90.00000000
_cell_angle_gamma   121.29727327
_symmetry_Int_Tables_number   1
_chemical_formula_structural   Ca2SmU3(TaSb5)2
_chemical_formula_sum   'Ca2 Sm1 U3 Ta2 Sb10'
_cell_volume   463.31409402
_cell_formula_units_Z   1
loop_
 _symmetry_equiv_pos_site_id
 _symmetry_equiv_pos_as_xyz
  1  'x, y, z'
loop_
 _atom_site_type_symbol
 _atom_site_label
 _atom_site_symmetry_multiplicity
 _atom_site_fract_x
 _atom_site_fract_y
 _atom_site_fract_z
 _atom_site_occupancy
  Ca  Ca0  1  0.614171  0.999829  0.750000  1
  Ca  Ca1  1  0.380924  0.998840  0.250000  1
  Sm  Sm2  1  0.005305  0.627631  0.750000  1
  U  U3  1  0.993719  0.369361  0.250000  1
  U  U4  1  0.390380  0.382861  0.750000  1
  U  U5  1  0.613617  0.617907  0.250000  1
  Ta  Ta6  1  0.000354  0.001008  0.502315  1
  Ta  Ta7  1  0.000354  0.001008  0.997685  1
  Sb  Sb8  1  0.265226  0.008226  0.750000  1
  Sb  Sb9  1  0.737628  0.994231  0.250000  1
  Sb  Sb10  1  0.008770  0.269353  0.750000  1
  Sb  Sb11  1  0.992543  0.736295  0.250000  1
  Sb  Sb12  1  0.732938  0.735559  0.750000  1
  Sb  Sb13  1  0.264371  0.267585  0.250000  1
  Sb  Sb14  1  0.327517  0.651687  0.500291  1
  Sb  Sb15  1  0.672332  0.343465  0.498048  1
  Sb  Sb16  1  0.672332  0.343465  0.001952  1
  Sb  Sb17  1  0.327517  0.651687  0.999709  1
