# generated using pymatgen
data_Ce3PaCo3NiP4
_symmetry_space_group_name_H-M   'P 1'
_cell_length_a   3.92619300
_cell_length_b   3.92619336
_cell_length_c   15.57920700
_cell_angle_alpha   90.00000000
_cell_angle_beta   90.00000000
_cell_angle_gamma   120.00000543
_symmetry_Int_Tables_number   1
_chemical_formula_structural   Ce3PaCo3NiP4
_chemical_formula_sum   'Ce3 Pa1 Co3 Ni1 P4'
_cell_volume   207.97890335
_cell_formula_units_Z   1
loop_
 _symmetry_equiv_pos_site_id
 _symmetry_equiv_pos_as_xyz
  1  'x, y, z'
loop_
 _atom_site_type_symbol
 _atom_site_label
 _atom_site_symmetry_multiplicity
 _atom_site_fract_x
 _atom_site_fract_y
 _atom_site_fract_z
 _atom_site_occupancy
  Ce  Ce0  1  0.000000  0.000000  0.994878  1
  Ce  Ce1  1  0.000000  0.000000  0.254040  1
  Ce  Ce2  1  0.000000  0.000000  0.748465  1
  Pa  Pa3  1  0.000000  0.000000  0.500975  1
  Co  Co4  1  0.333333  0.666667  0.392663  1
  Co  Co5  1  0.666667  0.333333  0.607555  1
  Co  Co6  1  0.666667  0.333333  0.880829  1
  Ni  Ni7  1  0.333333  0.666667  0.122538  1
  P  P8  1  0.333333  0.666667  0.869325  1
  P  P9  1  0.666667  0.333333  0.127776  1
  P  P10  1  0.666667  0.333333  0.373224  1
  P  P11  1  0.333333  0.666667  0.627731  1
