# generated using pymatgen
data_V12GaAs3
_symmetry_space_group_name_H-M   'P 1'
_cell_length_a   4.75345600
_cell_length_b   4.75611500
_cell_length_c   9.48487900
_cell_angle_alpha   90.00000000
_cell_angle_beta   90.00000000
_cell_angle_gamma   90.00000000
_symmetry_Int_Tables_number   1
_chemical_formula_structural   V12GaAs3
_chemical_formula_sum   'V12 Ga1 As3'
_cell_volume   214.43398683
_cell_formula_units_Z   1
loop_
 _symmetry_equiv_pos_site_id
 _symmetry_equiv_pos_as_xyz
  1  'x, y, z'
loop_
 _atom_site_type_symbol
 _atom_site_label
 _atom_site_symmetry_multiplicity
 _atom_site_fract_x
 _atom_site_fract_y
 _atom_site_fract_z
 _atom_site_occupancy
  V  V0  1  0.500000  0.000000  0.626110  1
  V  V1  1  0.500000  0.000000  0.127096  1
  V  V2  1  0.754645  0.500000  0.247114  1
  V  V3  1  0.754645  0.500000  0.752886  1
  V  V4  1  0.000000  0.753626  0.500000  1
  V  V5  1  0.000000  0.753438  0.000000  1
  V  V6  1  0.500000  0.000000  0.373890  1
  V  V7  1  0.500000  0.000000  0.872904  1
  V  V8  1  0.245355  0.500000  0.247114  1
  V  V9  1  0.245355  0.500000  0.752886  1
  V  V10  1  0.000000  0.246374  0.500000  1
  V  V11  1  0.000000  0.246562  0.000000  1
  Ga  Ga12  1  0.500000  0.500000  0.500000  1
  As  As13  1  0.500000  0.500000  0.000000  1
  As  As14  1  0.000000  0.000000  0.250216  1
  As  As15  1  0.000000  0.000000  0.749784  1
