# generated using pymatgen
data_NdEr7AlPd24
_symmetry_space_group_name_H-M   'P 1'
_cell_length_a   8.34049371
_cell_length_b   8.34049319
_cell_length_c   8.34049324
_cell_angle_alpha   90.05407741
_cell_angle_beta   89.94592422
_cell_angle_gamma   89.94591702
_symmetry_Int_Tables_number   1
_chemical_formula_structural   NdEr7AlPd24
_chemical_formula_sum   'Nd1 Er7 Al1 Pd24'
_cell_volume   580.19588674
_cell_formula_units_Z   1
loop_
 _symmetry_equiv_pos_site_id
 _symmetry_equiv_pos_as_xyz
  1  'x, y, z'
loop_
 _atom_site_type_symbol
 _atom_site_label
 _atom_site_symmetry_multiplicity
 _atom_site_fract_x
 _atom_site_fract_y
 _atom_site_fract_z
 _atom_site_occupancy
  Nd  Nd0  1  0.748031  0.251969  0.251969  1
  Er  Er1  1  0.251704  0.251775  0.251775  1
  Er  Er2  1  0.748262  0.748283  0.748283  1
  Er  Er3  1  0.748225  0.748296  0.251775  1
  Er  Er4  1  0.748225  0.251775  0.748296  1
  Er  Er5  1  0.251717  0.251738  0.748283  1
  Er  Er6  1  0.251717  0.748283  0.251738  1
  Er  Er7  1  0.252042  0.747958  0.747958  1
  Al  Al8  1  0.000362  0.999638  0.999638  1
  Pd  Pd9  1  0.259605  0.500216  0.999775  1
  Pd  Pd10  1  0.740763  0.502769  0.996821  1
  Pd  Pd11  1  0.003179  0.259237  0.502769  1
  Pd  Pd12  1  0.497231  0.259237  0.996821  1
  Pd  Pd13  1  0.000225  0.740395  0.500216  1
  Pd  Pd14  1  0.499784  0.740395  0.999775  1
  Pd  Pd15  1  0.497231  0.996821  0.259237  1
  Pd  Pd16  1  0.259605  0.999775  0.500216  1
  Pd  Pd17  1  0.499784  0.999775  0.740395  1
  Pd  Pd18  1  0.740763  0.996821  0.502769  1
  Pd  Pd19  1  0.003179  0.502769  0.259237  1
  Pd  Pd20  1  0.000225  0.500216  0.740395  1
  Pd  Pd21  1  0.252513  0.500089  0.500089  1
  Pd  Pd22  1  0.747403  0.503570  0.503570  1
  Pd  Pd23  1  0.496430  0.252597  0.503570  1
  Pd  Pd24  1  0.499911  0.747487  0.500089  1
  Pd  Pd25  1  0.496430  0.503570  0.252597  1
  Pd  Pd26  1  0.499911  0.500089  0.747487  1
  Pd  Pd27  1  0.288474  0.999810  0.999810  1
  Pd  Pd28  1  0.711273  0.997291  0.997291  1
  Pd  Pd29  1  0.002709  0.288727  0.997291  1
  Pd  Pd30  1  0.000190  0.711526  0.999810  1
  Pd  Pd31  1  0.002709  0.997291  0.288727  1
  Pd  Pd32  1  0.000190  0.999810  0.711526  1
