# generated using pymatgen
data_Pr3NdAl18Ir5Au
_symmetry_space_group_name_H-M   'P 1'
_cell_length_a   7.65686174
_cell_length_b   7.65742547
_cell_length_c   9.62923602
_cell_angle_alpha   89.93357446
_cell_angle_beta   89.94230296
_cell_angle_gamma   119.46927838
_symmetry_Int_Tables_number   1
_chemical_formula_structural   Pr3NdAl18Ir5Au
_chemical_formula_sum   'Pr3 Nd1 Al18 Ir5 Au1'
_cell_volume   491.53319598
_cell_formula_units_Z   1
loop_
 _symmetry_equiv_pos_site_id
 _symmetry_equiv_pos_as_xyz
  1  'x, y, z'
loop_
 _atom_site_type_symbol
 _atom_site_label
 _atom_site_symmetry_multiplicity
 _atom_site_fract_x
 _atom_site_fract_y
 _atom_site_fract_z
 _atom_site_occupancy
  Pr  Pr0  1  0.995653  0.673140  0.250205  1
  Pr  Pr1  1  0.004421  0.326891  0.749828  1
  Pr  Pr2  1  0.673075  0.995624  0.250170  1
  Nd  Nd3  1  0.326888  0.004373  0.749765  1
  Al  Al4  1  0.137730  0.137626  0.257532  1
  Al  Al5  1  0.862814  0.862415  0.742531  1
  Al  Al6  1  0.003955  0.344712  0.076427  1
  Al  Al7  1  0.996442  0.655755  0.923214  1
  Al  Al8  1  0.998936  0.664757  0.571708  1
  Al  Al9  1  0.335643  0.001456  0.429072  1
  Al  Al10  1  0.001484  0.335654  0.428663  1
  Al  Al11  1  0.663982  0.998514  0.571704  1
  Al  Al12  1  0.654880  0.996085  0.923171  1
  Al  Al13  1  0.344625  0.003908  0.076060  1
  Al  Al14  1  0.334584  0.334250  0.548241  1
  Al  Al15  1  0.665423  0.665420  0.452248  1
  Al  Al16  1  0.656189  0.656198  0.054784  1
  Al  Al17  1  0.343750  0.343454  0.944757  1
  Al  Al18  1  0.339391  0.547853  0.251169  1
  Al  Al19  1  0.660136  0.451579  0.748830  1
  Al  Al20  1  0.547780  0.339292  0.251166  1
  Al  Al21  1  0.452105  0.661069  0.748839  1
  Ir  Ir22  1  0.670832  0.329007  0.999816  1
  Ir  Ir23  1  0.329057  0.670935  0.999823  1
  Ir  Ir24  1  0.329169  0.670825  0.500144  1
  Ir  Ir25  1  0.670716  0.329089  0.500168  1
  Ir  Ir26  1  0.000187  0.000087  0.500180  1
  Au  Au27  1  0.000153  0.000033  0.999783  1
