# generated using pymatgen
data_PmMnNi4
_symmetry_space_group_name_H-M   'P 1'
_cell_length_a   4.95704161
_cell_length_b   4.95706974
_cell_length_c   4.01301700
_cell_angle_alpha   90.00000000
_cell_angle_beta   90.00000000
_cell_angle_gamma   61.49003015
_symmetry_Int_Tables_number   1
_chemical_formula_structural   PmMnNi4
_chemical_formula_sum   'Pm1 Mn1 Ni4'
_cell_volume   86.65149467
_cell_formula_units_Z   1
loop_
 _symmetry_equiv_pos_site_id
 _symmetry_equiv_pos_as_xyz
  1  'x, y, z'
loop_
 _atom_site_type_symbol
 _atom_site_label
 _atom_site_symmetry_multiplicity
 _atom_site_fract_x
 _atom_site_fract_y
 _atom_site_fract_z
 _atom_site_occupancy
  Pm  Pm0  1  0.999928  0.000066  0.000000  1
  Mn  Mn1  1  0.499779  0.500252  0.499999  1
  Ni  Ni2  1  0.332058  0.332045  0.000000  1
  Ni  Ni3  1  0.667961  0.667916  0.000000  1
  Ni  Ni4  1  0.500281  0.000024  0.499999  1
  Ni  Ni5  1  0.999986  0.499699  0.499999  1
