# generated using pymatgen
data_Dy2ErSn3HgIr2
_symmetry_space_group_name_H-M   'P 1'
_cell_length_a   7.61069220
_cell_length_b   7.62856530
_cell_length_c   4.01345100
_cell_angle_alpha   90.00000000
_cell_angle_beta   90.00000000
_cell_angle_gamma   120.00949313
_symmetry_Int_Tables_number   1
_chemical_formula_structural   Dy2ErSn3HgIr2
_chemical_formula_sum   'Dy2 Er1 Sn3 Hg1 Ir2'
_cell_volume   201.77811986
_cell_formula_units_Z   1
loop_
 _symmetry_equiv_pos_site_id
 _symmetry_equiv_pos_as_xyz
  1  'x, y, z'
loop_
 _atom_site_type_symbol
 _atom_site_label
 _atom_site_symmetry_multiplicity
 _atom_site_fract_x
 _atom_site_fract_y
 _atom_site_fract_z
 _atom_site_occupancy
  Dy  Dy0  1  0.389169  0.411664  0.500000  1
  Dy  Dy1  1  0.588291  0.977789  0.500000  1
  Er  Er2  1  0.023537  0.612372  0.500000  1
  Sn  Sn3  1  0.745880  0.751663  0.000000  1
  Sn  Sn4  1  0.247707  0.992659  0.000000  1
  Sn  Sn5  1  0.006138  0.254572  0.000000  1
  Hg  Hg6  1  0.668227  0.334488  0.000000  1
  Ir  Ir7  1  0.330976  0.666041  0.000000  1
  Ir  Ir8  1  0.000073  0.998752  0.500000  1
