# generated using pymatgen
data_BaTe24
_symmetry_space_group_name_H-M   'P 1'
_cell_length_a   9.83478590
_cell_length_b   9.46588198
_cell_length_c   12.07128484
_cell_angle_alpha   113.29715895
_cell_angle_beta   114.22827292
_cell_angle_gamma   89.35934291
_symmetry_Int_Tables_number   1
_chemical_formula_structural   BaTe24
_chemical_formula_sum   'Ba1 Te24'
_cell_volume   925.78779051
_cell_formula_units_Z   1
loop_
 _symmetry_equiv_pos_site_id
 _symmetry_equiv_pos_as_xyz
  1  'x, y, z'
loop_
 _atom_site_type_symbol
 _atom_site_label
 _atom_site_symmetry_multiplicity
 _atom_site_fract_x
 _atom_site_fract_y
 _atom_site_fract_z
 _atom_site_occupancy
  Ba  Ba0  1  0.182582  0.180308  0.353383  1
  Te  Te1  1  0.734924  0.734858  0.471670  1
  Te  Te2  1  0.435486  0.436510  0.872732  1
  Te  Te3  1  0.896178  0.819212  0.033824  1
  Te  Te4  1  0.124064  0.529706  0.787487  1
  Te  Te5  1  0.264360  0.120684  0.789725  1
  Te  Te6  1  0.013677  0.204325  0.600456  1
  Te  Te7  1  0.317039  0.781910  0.231406  1
  Te  Te8  1  0.989459  0.802516  0.413933  1
  Te  Te9  1  0.668770  0.261049  0.790249  1
  Te  Te10  1  0.461029  0.318125  0.231838  1
  Te  Te11  1  0.793470  0.117288  0.015201  1
  Te  Te12  1  0.530476  0.675040  0.792889  1
  Te  Te13  1  0.766210  0.913476  0.231173  1
  Te  Te14  1  0.912578  0.447771  0.232532  1
  Te  Te15  1  0.407875  0.009681  0.613225  1
  Te  Te16  1  0.601823  0.002691  0.412447  1
  Te  Te17  1  0.211882  0.608833  0.613929  1
  Te  Te18  1  0.220248  0.897662  0.013640  1
  Te  Te19  1  0.594177  0.404229  0.606529  1
  Te  Te20  1  0.009194  0.510185  0.020279  1
  Te  Te21  1  0.807403  0.408454  0.413667  1
  Te  Te22  1  0.136082  0.213830  0.032460  1
  Te  Te23  1  0.508850  0.010042  0.018841  1
  Te  Te24  1  0.418204  0.610092  0.413534  1
