# generated using pymatgen
data_Nd3Fe2Co7P6
_symmetry_space_group_name_H-M   'P 1'
_cell_length_a   3.77512700
_cell_length_b   10.69569500
_cell_length_c   12.34631100
_cell_angle_alpha   90.00000000
_cell_angle_beta   90.00000000
_cell_angle_gamma   90.00000000
_symmetry_Int_Tables_number   1
_chemical_formula_structural   Nd3Fe2Co7P6
_chemical_formula_sum   'Nd6 Fe4 Co14 P12'
_cell_volume   498.51449319
_cell_formula_units_Z   2
loop_
 _symmetry_equiv_pos_site_id
 _symmetry_equiv_pos_as_xyz
  1  'x, y, z'
loop_
 _atom_site_type_symbol
 _atom_site_label
 _atom_site_symmetry_multiplicity
 _atom_site_fract_x
 _atom_site_fract_y
 _atom_site_fract_z
 _atom_site_occupancy
  Nd  Nd0  1  0.000000  0.500000  0.520936  1
  Nd  Nd1  1  0.500000  0.000000  0.479064  1
  Nd  Nd2  1  0.500000  0.819179  0.205027  1
  Nd  Nd3  1  0.500000  0.180821  0.205027  1
  Nd  Nd4  1  0.000000  0.680821  0.794973  1
  Nd  Nd5  1  0.000000  0.319179  0.794973  1
  Fe  Fe6  1  0.500000  0.500000  0.153554  1
  Fe  Fe7  1  0.000000  0.000000  0.846446  1
  Fe  Fe8  1  0.000000  0.500000  0.990136  1
  Fe  Fe9  1  0.500000  0.000000  0.009864  1
  Co  Co10  1  0.500000  0.500000  0.702579  1
  Co  Co11  1  0.000000  0.000000  0.297421  1
  Co  Co12  1  0.500000  0.331951  0.995948  1
  Co  Co13  1  0.500000  0.668049  0.995948  1
  Co  Co14  1  0.000000  0.168049  0.004052  1
  Co  Co15  1  0.000000  0.831951  0.004052  1
  Co  Co16  1  0.500000  0.296583  0.430212  1
  Co  Co17  1  0.500000  0.703417  0.430212  1
  Co  Co18  1  0.000000  0.203417  0.569788  1
  Co  Co19  1  0.000000  0.796583  0.569788  1
  Co  Co20  1  0.500000  0.880889  0.710531  1
  Co  Co21  1  0.500000  0.119111  0.710531  1
  Co  Co22  1  0.000000  0.619111  0.289469  1
  Co  Co23  1  0.000000  0.380889  0.289469  1
  P  P24  1  0.500000  0.500000  0.888986  1
  P  P25  1  0.000000  0.000000  0.111014  1
  P  P26  1  0.500000  0.500000  0.336736  1
  P  P27  1  0.000000  0.000000  0.663264  1
  P  P28  1  0.500000  0.305477  0.614466  1
  P  P29  1  0.500000  0.694523  0.614466  1
  P  P30  1  0.000000  0.194523  0.385534  1
  P  P31  1  0.000000  0.805477  0.385534  1
  P  P32  1  0.500000  0.848461  0.895596  1
  P  P33  1  0.500000  0.151539  0.895596  1
  P  P34  1  0.000000  0.651539  0.104404  1
  P  P35  1  0.000000  0.348461  0.104404  1
