# generated using pymatgen
data_Sc20Cd5HgRu2
_symmetry_space_group_name_H-M   'P 1'
_cell_length_a   8.98088943
_cell_length_b   8.98088882
_cell_length_c   9.16669500
_cell_angle_alpha   90.00000000
_cell_angle_beta   90.00000000
_cell_angle_gamma   119.80183530
_symmetry_Int_Tables_number   1
_chemical_formula_structural   Sc20Cd5HgRu2
_chemical_formula_sum   'Sc20 Cd5 Hg1 Ru2'
_cell_volume   641.57264726
_cell_formula_units_Z   1
loop_
 _symmetry_equiv_pos_site_id
 _symmetry_equiv_pos_as_xyz
  1  'x, y, z'
loop_
 _atom_site_type_symbol
 _atom_site_label
 _atom_site_symmetry_multiplicity
 _atom_site_fract_x
 _atom_site_fract_y
 _atom_site_fract_z
 _atom_site_occupancy
  Sc  Sc0  1  0.999051  0.000949  0.498553  1
  Sc  Sc1  1  0.999051  0.000949  0.001447  1
  Sc  Sc2  1  0.210246  0.789754  0.442217  1
  Sc  Sc3  1  0.210064  0.420073  0.441855  1
  Sc  Sc4  1  0.579927  0.789936  0.441855  1
  Sc  Sc5  1  0.789909  0.210091  0.557612  1
  Sc  Sc6  1  0.789867  0.579552  0.557787  1
  Sc  Sc7  1  0.420448  0.210133  0.557787  1
  Sc  Sc8  1  0.789909  0.210091  0.942388  1
  Sc  Sc9  1  0.789867  0.579552  0.942213  1
  Sc  Sc10  1  0.420448  0.210133  0.942213  1
  Sc  Sc11  1  0.210246  0.789754  0.057783  1
  Sc  Sc12  1  0.210064  0.420073  0.058145  1
  Sc  Sc13  1  0.579927  0.789936  0.058145  1
  Sc  Sc14  1  0.540502  0.459498  0.250000  1
  Sc  Sc15  1  0.542926  0.081513  0.250000  1
  Sc  Sc16  1  0.918487  0.457074  0.250000  1
  Sc  Sc17  1  0.459337  0.540663  0.750000  1
  Sc  Sc18  1  0.459455  0.918859  0.750000  1
  Sc  Sc19  1  0.081141  0.540545  0.750000  1
  Cd  Cd20  1  0.884368  0.767928  0.250000  1
  Cd  Cd21  1  0.232072  0.115632  0.250000  1
  Cd  Cd22  1  0.115356  0.884644  0.750000  1
  Cd  Cd23  1  0.115380  0.230897  0.750000  1
  Cd  Cd24  1  0.769103  0.884620  0.750000  1
  Hg  Hg25  1  0.882662  0.117338  0.250000  1
  Ru  Ru26  1  0.333532  0.666468  0.250000  1
  Ru  Ru27  1  0.666651  0.333349  0.750000  1
