# generated using pymatgen
data_Li2Hf6FeOs3
_symmetry_space_group_name_H-M   'P 1'
_cell_length_a   4.61075600
_cell_length_b   6.47507600
_cell_length_c   13.72737600
_cell_angle_alpha   90.00000000
_cell_angle_beta   90.00015386
_cell_angle_gamma   90.00000000
_symmetry_Int_Tables_number   1
_chemical_formula_structural   Li2Hf6FeOs3
_chemical_formula_sum   'Li4 Hf12 Fe2 Os6'
_cell_volume   409.83074895
_cell_formula_units_Z   2
loop_
 _symmetry_equiv_pos_site_id
 _symmetry_equiv_pos_as_xyz
  1  'x, y, z'
loop_
 _atom_site_type_symbol
 _atom_site_label
 _atom_site_symmetry_multiplicity
 _atom_site_fract_x
 _atom_site_fract_y
 _atom_site_fract_z
 _atom_site_occupancy
  Li  Li0  1  0.999994  0.000000  0.999465  1
  Li  Li1  1  0.500146  0.500001  0.166288  1
  Li  Li2  1  0.000157  0.000000  0.333716  1
  Li  Li3  1  0.499992  0.500001  0.500521  1
  Hf  Hf4  1  0.499987  0.252664  0.996189  1
  Hf  Hf5  1  0.499987  0.747336  0.996189  1
  Hf  Hf6  1  0.000105  0.250768  0.166064  1
  Hf  Hf7  1  0.000105  0.749232  0.166064  1
  Hf  Hf8  1  0.500106  0.249220  0.333942  1
  Hf  Hf9  1  0.500106  0.750780  0.333942  1
  Hf  Hf10  1  0.999989  0.247424  0.503740  1
  Hf  Hf11  1  0.999989  0.752576  0.503740  1
  Hf  Hf12  1  0.499901  0.248569  0.669313  1
  Hf  Hf13  1  0.499901  0.751431  0.669313  1
  Hf  Hf14  1  0.999897  0.251730  0.830747  1
  Hf  Hf15  1  0.999897  0.748270  0.830747  1
  Fe  Fe16  1  0.999887  0.000000  0.668579  1
  Fe  Fe17  1  0.499893  0.500001  0.831418  1
  Os  Os18  1  0.999985  0.500001  0.000451  1
  Os  Os19  1  0.500116  0.000000  0.166908  1
  Os  Os20  1  0.000118  0.500001  0.333089  1
  Os  Os21  1  0.499986  0.000000  0.499536  1
  Os  Os22  1  0.999886  0.500001  0.665844  1
  Os  Os23  1  0.499883  0.000000  0.834194  1
