# generated using pymatgen
data_Dy15Tm4LuSn16
_symmetry_space_group_name_H-M   'P 1'
_cell_length_a   8.00260194
_cell_length_b   8.14223428
_cell_length_c   15.42305612
_cell_angle_alpha   90.00971755
_cell_angle_beta   90.01073208
_cell_angle_gamma   89.99547649
_symmetry_Int_Tables_number   1
_chemical_formula_structural   Dy15Tm4LuSn16
_chemical_formula_sum   'Dy15 Tm4 Lu1 Sn16'
_cell_volume   1004.95180058
_cell_formula_units_Z   1
loop_
 _symmetry_equiv_pos_site_id
 _symmetry_equiv_pos_as_xyz
  1  'x, y, z'
loop_
 _atom_site_type_symbol
 _atom_site_label
 _atom_site_symmetry_multiplicity
 _atom_site_fract_x
 _atom_site_fract_y
 _atom_site_fract_z
 _atom_site_occupancy
  Dy  Dy0  1  0.867968  0.662813  0.622391  1
  Dy  Dy1  1  0.631997  0.163051  0.377859  1
  Dy  Dy2  1  0.132071  0.337049  0.121580  1
  Dy  Dy3  1  0.632042  0.163132  0.122186  1
  Dy  Dy4  1  0.132039  0.337034  0.378334  1
  Dy  Dy5  1  0.367802  0.836957  0.622516  1
  Dy  Dy6  1  0.868103  0.662790  0.877676  1
  Dy  Dy7  1  0.520777  0.320919  0.902511  1
  Dy  Dy8  1  0.021113  0.179463  0.597600  1
  Dy  Dy9  1  0.479368  0.679327  0.402945  1
  Dy  Dy10  1  0.979232  0.820595  0.097390  1
  Dy  Dy11  1  0.479278  0.679381  0.096898  1
  Dy  Dy12  1  0.979317  0.820669  0.402627  1
  Dy  Dy13  1  0.520780  0.321032  0.597534  1
  Dy  Dy14  1  0.021220  0.179417  0.902391  1
  Tm  Tm15  1  0.367662  0.837057  0.877471  1
  Tm  Tm16  1  0.698611  0.997169  0.750095  1
  Tm  Tm17  1  0.800876  0.496821  0.250003  1
  Tm  Tm18  1  0.300897  0.002940  0.249973  1
  Lu  Lu19  1  0.199083  0.503641  0.750131  1
  Sn  Sn20  1  0.292680  0.035580  0.041269  1
  Sn  Sn21  1  0.792363  0.463690  0.458267  1
  Sn  Sn22  1  0.707741  0.963945  0.542091  1
  Sn  Sn23  1  0.208090  0.536522  0.957069  1
  Sn  Sn24  1  0.707013  0.963798  0.957821  1
  Sn  Sn25  1  0.207683  0.535868  0.542789  1
  Sn  Sn26  1  0.292516  0.036004  0.458305  1
  Sn  Sn27  1  0.792348  0.463676  0.041748  1
  Sn  Sn28  1  0.563536  0.618133  0.750176  1
  Sn  Sn29  1  0.065636  0.880726  0.750200  1
  Sn  Sn30  1  0.434308  0.381169  0.249987  1
  Sn  Sn31  1  0.934830  0.118906  0.249994  1
  Sn  Sn32  1  0.329916  0.149570  0.750144  1
  Sn  Sn33  1  0.830949  0.351898  0.750011  1
  Sn  Sn34  1  0.669953  0.851435  0.250004  1
  Sn  Sn35  1  0.170197  0.647829  0.250013  1
