# generated using pymatgen
data_Li30SiGe4Sb3
_symmetry_space_group_name_H-M   'P 1'
_cell_length_a   9.36996613
_cell_length_b   9.38775191
_cell_length_c   9.37977508
_cell_angle_alpha   109.46799442
_cell_angle_beta   109.47079339
_cell_angle_gamma   109.44385176
_symmetry_Int_Tables_number   1
_chemical_formula_structural   Li30SiGe4Sb3
_chemical_formula_sum   'Li30 Si1 Ge4 Sb3'
_cell_volume   635.38403531
_cell_formula_units_Z   1
loop_
 _symmetry_equiv_pos_site_id
 _symmetry_equiv_pos_as_xyz
  1  'x, y, z'
loop_
 _atom_site_type_symbol
 _atom_site_label
 _atom_site_symmetry_multiplicity
 _atom_site_fract_x
 _atom_site_fract_y
 _atom_site_fract_z
 _atom_site_occupancy
  Li  Li0  1  0.470591  0.166296  0.878406  1
  Li  Li1  1  0.913203  0.679465  0.030894  1
  Li  Li2  1  0.805772  0.712818  0.335641  1
  Li  Li3  1  0.768896  0.575274  0.605146  1
  Li  Li4  1  0.577430  0.602335  0.768913  1
  Li  Li5  1  0.602558  0.768504  0.577371  1
  Li  Li6  1  0.650417  0.962627  0.387045  1
  Li  Li7  1  0.415078  0.530581  0.192423  1
  Li  Li8  1  0.626128  0.382487  0.252584  1
  Li  Li9  1  0.248072  0.622586  0.371427  1
  Li  Li10  1  0.744450  0.864220  0.122106  1
  Li  Li11  1  0.121433  0.738664  0.871055  1
  Li  Li12  1  0.382156  0.253668  0.628136  1
  Li  Li13  1  0.873226  0.135056  0.753400  1
  Li  Li14  1  0.091552  0.290142  0.123699  1
  Li  Li15  1  0.688114  0.039267  0.907106  1
  Li  Li16  1  0.888475  0.472332  0.162294  1
  Li  Li17  1  0.163385  0.876233  0.466017  1
  Li  Li18  1  0.336435  0.806073  0.713300  1
  Li  Li19  1  0.726547  0.339428  0.811092  1
  Li  Li20  1  0.034831  0.904321  0.685516  1
  Li  Li21  1  0.229112  0.316270  0.850767  1
  Li  Li22  1  0.197036  0.425623  0.532139  1
  Li  Li23  1  0.971321  0.394081  0.666233  1
  Li  Li24  1  0.303924  0.831236  0.227665  1
  Li  Li25  1  0.529139  0.193799  0.423118  1
  Li  Li26  1  0.377738  0.648435  0.965881  1
  Li  Li27  1  0.132862  0.095236  0.283100  1
  Li  Li28  1  0.283613  0.134536  0.091881  1
  Li  Li29  1  0.847603  0.237447  0.314905  1
  Si  Si30  1  0.083554  0.499109  0.998915  1
  Ge  Ge31  1  0.000211  0.584748  0.500781  1
  Ge  Ge32  1  0.583808  0.500787  0.000665  1
  Ge  Ge33  1  0.500274  0.001520  0.584974  1
  Ge  Ge34  1  0.415791  0.415736  0.415370  1
  Sb  Sb35  1  0.916763  0.917035  0.917558  1
  Sb  Sb36  1  0.499175  0.998825  0.082950  1
  Sb  Sb37  1  0.999328  0.083201  0.499529  1
