# generated using pymatgen
data_Tm6Mn20Al3
_symmetry_space_group_name_H-M   'P 1'
_cell_length_a   8.47322300
_cell_length_b   8.47322349
_cell_length_c   8.47322400
_cell_angle_alpha   59.91272010
_cell_angle_beta   59.91271820
_cell_angle_gamma   59.91271865
_symmetry_Int_Tables_number   1
_chemical_formula_structural   Tm6Mn20Al3
_chemical_formula_sum   'Tm6 Mn20 Al3'
_cell_volume   429.30925273
_cell_formula_units_Z   1
loop_
 _symmetry_equiv_pos_site_id
 _symmetry_equiv_pos_as_xyz
  1  'x, y, z'
loop_
 _atom_site_type_symbol
 _atom_site_label
 _atom_site_symmetry_multiplicity
 _atom_site_fract_x
 _atom_site_fract_y
 _atom_site_fract_z
 _atom_site_occupancy
  Tm  Tm0  1  0.704951  0.704951  0.294750  1
  Tm  Tm1  1  0.299376  0.700793  0.299376  1
  Tm  Tm2  1  0.700793  0.299376  0.299376  1
  Tm  Tm3  1  0.299376  0.299376  0.700793  1
  Tm  Tm4  1  0.704951  0.294750  0.704951  1
  Tm  Tm5  1  0.294750  0.704951  0.704951  1
  Mn  Mn6  1  0.990409  0.990409  0.990409  1
  Mn  Mn7  1  0.999540  0.999540  0.504580  1
  Mn  Mn8  1  0.499953  0.000390  0.499953  1
  Mn  Mn9  1  0.000390  0.499953  0.499953  1
  Mn  Mn10  1  0.499953  0.499953  0.000390  1
  Mn  Mn11  1  0.999540  0.504580  0.999540  1
  Mn  Mn12  1  0.504580  0.999540  0.999540  1
  Mn  Mn13  1  0.877322  0.877322  0.877322  1
  Mn  Mn14  1  0.123727  0.123727  0.630413  1
  Mn  Mn15  1  0.123727  0.630413  0.123727  1
  Mn  Mn16  1  0.630413  0.123727  0.123727  1
  Mn  Mn17  1  0.122789  0.122789  0.122789  1
  Mn  Mn18  1  0.676092  0.676092  0.969391  1
  Mn  Mn19  1  0.676092  0.969391  0.676092  1
  Mn  Mn20  1  0.969391  0.676092  0.676092  1
  Mn  Mn21  1  0.678698  0.678698  0.678698  1
  Mn  Mn22  1  0.324337  0.324337  0.030754  1
  Mn  Mn23  1  0.324337  0.030754  0.324337  1
  Mn  Mn24  1  0.030754  0.324337  0.324337  1
  Mn  Mn25  1  0.324324  0.324324  0.324324  1
  Al  Al26  1  0.882911  0.882911  0.353608  1
  Al  Al27  1  0.882911  0.353608  0.882911  1
  Al  Al28  1  0.353608  0.882911  0.882911  1
