# generated using pymatgen
data_Tb5Lu7(TcIr)2
_symmetry_space_group_name_H-M   'P 1'
_cell_length_a   6.26439423
_cell_length_b   7.32349519
_cell_length_c   9.00178227
_cell_angle_alpha   89.88545826
_cell_angle_beta   89.47341232
_cell_angle_gamma   89.95248576
_symmetry_Int_Tables_number   1
_chemical_formula_structural   Tb5Lu7(TcIr)2
_chemical_formula_sum   'Tb5 Lu7 Tc2 Ir2'
_cell_volume   412.95871185
_cell_formula_units_Z   1
loop_
 _symmetry_equiv_pos_site_id
 _symmetry_equiv_pos_as_xyz
  1  'x, y, z'
loop_
 _atom_site_type_symbol
 _atom_site_label
 _atom_site_symmetry_multiplicity
 _atom_site_fract_x
 _atom_site_fract_y
 _atom_site_fract_z
 _atom_site_occupancy
  Tb  Tb0  1  0.169820  0.177187  0.065675  1
  Tb  Tb1  1  0.876058  0.538799  0.250837  1
  Tb  Tb2  1  0.625087  0.037720  0.251977  1
  Tb  Tb3  1  0.131442  0.461032  0.748256  1
  Tb  Tb4  1  0.368187  0.960104  0.748811  1
  Lu  Lu5  1  0.336680  0.675855  0.065623  1
  Lu  Lu6  1  0.164893  0.175558  0.437213  1
  Lu  Lu7  1  0.661618  0.324533  0.561918  1
  Lu  Lu8  1  0.835164  0.823458  0.936750  1
  Lu  Lu9  1  0.666414  0.324155  0.938314  1
  Lu  Lu10  1  0.832869  0.822450  0.560764  1
  Lu  Lu11  1  0.332282  0.677986  0.434254  1
  Tc  Tc12  1  0.039061  0.884437  0.250219  1
  Tc  Tc13  1  0.462305  0.386503  0.252046  1
  Ir  Ir14  1  0.947937  0.114588  0.744727  1
  Ir  Ir15  1  0.550184  0.615633  0.752617  1
