# generated using pymatgen
data_Sc8Ir3OsRh4
_symmetry_space_group_name_H-M   'P 1'
_cell_length_a   6.44227900
_cell_length_b   6.52890000
_cell_length_c   6.41063100
_cell_angle_alpha   89.99995579
_cell_angle_beta   90.00151566
_cell_angle_gamma   90.00050352
_symmetry_Int_Tables_number   1
_chemical_formula_structural   Sc8Ir3OsRh4
_chemical_formula_sum   'Sc8 Ir3 Os1 Rh4'
_cell_volume   269.63752071
_cell_formula_units_Z   1
loop_
 _symmetry_equiv_pos_site_id
 _symmetry_equiv_pos_as_xyz
  1  'x, y, z'
loop_
 _atom_site_type_symbol
 _atom_site_label
 _atom_site_symmetry_multiplicity
 _atom_site_fract_x
 _atom_site_fract_y
 _atom_site_fract_z
 _atom_site_occupancy
  Sc  Sc0  1  0.500936  0.001368  0.249274  1
  Sc  Sc1  1  0.500931  0.498586  0.249279  1
  Sc  Sc2  1  0.998756  0.001360  0.249262  1
  Sc  Sc3  1  0.998749  0.498636  0.249263  1
  Sc  Sc4  1  0.999080  0.001395  0.750693  1
  Sc  Sc5  1  0.999087  0.498568  0.750689  1
  Sc  Sc6  1  0.501228  0.001378  0.750700  1
  Sc  Sc7  1  0.501235  0.498609  0.750696  1
  Ir  Ir8  1  0.250000  0.749999  0.999984  1
  Ir  Ir9  1  0.749999  0.249995  0.499985  1
  Ir  Ir10  1  0.250002  0.749986  0.499983  1
  Os  Os11  1  0.749996  0.249975  0.999980  1
  Rh  Rh12  1  0.750041  0.750008  0.000088  1
  Rh  Rh13  1  0.249987  0.250216  0.500523  1
  Rh  Rh14  1  0.749975  0.749954  0.499538  1
  Rh  Rh15  1  0.249995  0.249969  0.000063  1
