# generated using pymatgen
data_Sm4Y2CoCl10
_symmetry_space_group_name_H-M   'P 1'
_cell_length_a   7.18316830
_cell_length_b   8.90570755
_cell_length_c   9.07361575
_cell_angle_alpha   108.69977151
_cell_angle_beta   96.42549372
_cell_angle_gamma   105.26058533
_symmetry_Int_Tables_number   1
_chemical_formula_structural   Sm4Y2CoCl10
_chemical_formula_sum   'Sm4 Y2 Co1 Cl10'
_cell_volume   518.03944683
_cell_formula_units_Z   1
loop_
 _symmetry_equiv_pos_site_id
 _symmetry_equiv_pos_as_xyz
  1  'x, y, z'
loop_
 _atom_site_type_symbol
 _atom_site_label
 _atom_site_symmetry_multiplicity
 _atom_site_fract_x
 _atom_site_fract_y
 _atom_site_fract_z
 _atom_site_occupancy
  Sm  Sm0  1  0.535649  0.705793  0.904958  1
  Sm  Sm1  1  0.464351  0.294207  0.095042  1
  Sm  Sm2  1  0.636844  0.056875  0.753713  1
  Sm  Sm3  1  0.363156  0.943125  0.246287  1
  Y  Y4  1  0.861791  0.137568  0.186621  1
  Y  Y5  1  0.138209  0.862432  0.813379  1
  Co  Co6  1  0.500000  0.000000  0.000000  1
  Cl  Cl7  1  0.741732  0.080581  0.447274  1
  Cl  Cl8  1  0.258268  0.919419  0.552726  1
  Cl  Cl9  1  0.952786  0.827329  0.075807  1
  Cl  Cl10  1  0.047214  0.172671  0.924193  1
  Cl  Cl11  1  0.273031  0.245397  0.340604  1
  Cl  Cl12  1  0.726969  0.754603  0.659396  1
  Cl  Cl13  1  0.588960  0.372422  0.836709  1
  Cl  Cl14  1  0.411040  0.627578  0.163291  1
  Cl  Cl15  1  0.843426  0.445156  0.274438  1
  Cl  Cl16  1  0.156574  0.554844  0.725562  1
