# generated using pymatgen
data_ThTi2GaAu3
_symmetry_space_group_name_H-M   'P 1'
_cell_length_a   5.74973985
_cell_length_b   5.74974128
_cell_length_c   5.66061420
_cell_angle_alpha   101.86355588
_cell_angle_beta   101.86354169
_cell_angle_gamma   126.52762461
_symmetry_Int_Tables_number   1
_chemical_formula_structural   ThTi2GaAu3
_chemical_formula_sum   'Th1 Ti2 Ga1 Au3'
_cell_volume   133.75862688
_cell_formula_units_Z   1
loop_
 _symmetry_equiv_pos_site_id
 _symmetry_equiv_pos_as_xyz
  1  'x, y, z'
loop_
 _atom_site_type_symbol
 _atom_site_label
 _atom_site_symmetry_multiplicity
 _atom_site_fract_x
 _atom_site_fract_y
 _atom_site_fract_z
 _atom_site_occupancy
  Th  Th0  1  0.004852  0.995148  0.000000  1
  Ti  Ti1  1  0.247921  0.752079  0.500000  1
  Ti  Ti2  1  0.747921  0.252079  0.500000  1
  Ga  Ga3  1  0.302766  0.697234  0.000000  1
  Au  Au4  1  0.307967  0.317089  0.625055  1
  Au  Au5  1  0.682911  0.692033  0.374945  1
  Au  Au6  1  0.705661  0.294339  0.000000  1
