# generated using pymatgen
data_Li2Y6Cd21Sb
_symmetry_space_group_name_H-M   'P 1'
_cell_length_a   9.93197038
_cell_length_b   9.93197006
_cell_length_c   9.96659100
_cell_angle_alpha   59.88461993
_cell_angle_beta   59.88462098
_cell_angle_gamma   60.38975749
_symmetry_Int_Tables_number   1
_chemical_formula_structural   Li2Y6Cd21Sb
_chemical_formula_sum   'Li2 Y6 Cd21 Sb1'
_cell_volume   695.98725081
_cell_formula_units_Z   1
loop_
 _symmetry_equiv_pos_site_id
 _symmetry_equiv_pos_as_xyz
  1  'x, y, z'
loop_
 _atom_site_type_symbol
 _atom_site_label
 _atom_site_symmetry_multiplicity
 _atom_site_fract_x
 _atom_site_fract_y
 _atom_site_fract_z
 _atom_site_occupancy
  Li  Li0  1  0.500000  0.500000  0.000000  1
  Li  Li1  1  0.500000  0.500000  0.500000  1
  Y  Y2  1  0.784873  0.784873  0.215127  1
  Y  Y3  1  0.211182  0.788818  0.215525  1
  Y  Y4  1  0.788818  0.211182  0.215525  1
  Y  Y5  1  0.215127  0.215127  0.784873  1
  Y  Y6  1  0.788818  0.211182  0.784475  1
  Y  Y7  1  0.211182  0.788818  0.784475  1
  Cd  Cd8  1  0.834608  0.834608  0.492995  1
  Cd  Cd9  1  0.822459  0.493084  0.842229  1
  Cd  Cd10  1  0.493084  0.822459  0.842229  1
  Cd  Cd11  1  0.834608  0.834608  0.837789  1
  Cd  Cd12  1  0.165392  0.165392  0.507005  1
  Cd  Cd13  1  0.177541  0.506916  0.157771  1
  Cd  Cd14  1  0.506916  0.177541  0.157771  1
  Cd  Cd15  1  0.165392  0.165392  0.162211  1
  Cd  Cd16  1  0.613345  0.613345  0.143991  1
  Cd  Cd17  1  0.615830  0.145078  0.619545  1
  Cd  Cd18  1  0.145078  0.615830  0.619545  1
  Cd  Cd19  1  0.613345  0.613345  0.629317  1
  Cd  Cd20  1  0.386655  0.386655  0.856009  1
  Cd  Cd21  1  0.384170  0.854922  0.380455  1
  Cd  Cd22  1  0.854922  0.384170  0.380455  1
  Cd  Cd23  1  0.386655  0.386655  0.370683  1
  Cd  Cd24  1  0.000000  0.000000  0.500000  1
  Cd  Cd25  1  0.500000  0.000000  0.500000  1
  Cd  Cd26  1  0.000000  0.500000  0.500000  1
  Cd  Cd27  1  0.000000  0.500000  0.000000  1
  Cd  Cd28  1  0.500000  0.000000  0.000000  1
  Sb  Sb29  1  0.000000  0.000000  0.000000  1
