# generated using pymatgen
data_Nd2Ga4GePd3
_symmetry_space_group_name_H-M   'P 1'
_cell_length_a   8.69922422
_cell_length_b   8.72565681
_cell_length_c   8.72565692
_cell_angle_alpha   140.49654638
_cell_angle_beta   107.55148017
_cell_angle_gamma   85.84500755
_symmetry_Int_Tables_number   1
_chemical_formula_structural   Nd2Ga4GePd3
_chemical_formula_sum   'Nd4 Ga8 Ge2 Pd6'
_cell_volume   387.44123814
_cell_formula_units_Z   2
loop_
 _symmetry_equiv_pos_site_id
 _symmetry_equiv_pos_as_xyz
  1  'x, y, z'
loop_
 _atom_site_type_symbol
 _atom_site_label
 _atom_site_symmetry_multiplicity
 _atom_site_fract_x
 _atom_site_fract_y
 _atom_site_fract_z
 _atom_site_occupancy
  Nd  Nd0  1  0.862679  0.635206  0.227473  1
  Nd  Nd1  1  0.137321  0.364794  0.772527  1
  Nd  Nd2  1  0.410800  0.139381  0.271420  1
  Nd  Nd3  1  0.589200  0.860619  0.728580  1
  Ga  Ga4  1  0.500000  0.753184  0.253184  1
  Ga  Ga5  1  0.500000  0.246816  0.746816  1
  Ga  Ga6  1  0.210553  0.962243  0.748423  1
  Ga  Ga7  1  0.789447  0.537870  0.751690  1
  Ga  Ga8  1  0.789447  0.037757  0.251577  1
  Ga  Ga9  1  0.210553  0.462130  0.248310  1
  Ga  Ga10  1  0.064832  0.900574  0.164259  1
  Ga  Ga11  1  0.935168  0.099426  0.835741  1
  Ge  Ge12  1  0.732912  0.397296  0.335617  1
  Ge  Ge13  1  0.267088  0.602704  0.664383  1
  Pd  Pd14  1  0.000000  0.748878  0.748878  1
  Pd  Pd15  1  0.000000  0.251122  0.251122  1
  Pd  Pd16  1  0.258358  0.857084  0.401275  1
  Pd  Pd17  1  0.741642  0.142916  0.598725  1
  Pd  Pd18  1  0.454545  0.357510  0.097034  1
  Pd  Pd19  1  0.545455  0.642490  0.902966  1
