# generated using pymatgen
data_Ho10Tm6MgHg3Rh4
_symmetry_space_group_name_H-M   'P 1'
_cell_length_a   9.54147913
_cell_length_b   9.52725563
_cell_length_c   9.52725600
_cell_angle_alpha   59.99999873
_cell_angle_beta   60.04929851
_cell_angle_gamma   60.04929947
_symmetry_Int_Tables_number   1
_chemical_formula_structural   Ho10Tm6MgHg3Rh4
_chemical_formula_sum   'Ho10 Tm6 Mg1 Hg3 Rh4'
_cell_volume   612.85759257
_cell_formula_units_Z   1
loop_
 _symmetry_equiv_pos_site_id
 _symmetry_equiv_pos_as_xyz
  1  'x, y, z'
loop_
 _atom_site_type_symbol
 _atom_site_label
 _atom_site_symmetry_multiplicity
 _atom_site_fract_x
 _atom_site_fract_y
 _atom_site_fract_z
 _atom_site_occupancy
  Ho  Ho0  1  0.934709  0.564060  0.564060  1
  Ho  Ho1  1  0.562997  0.936392  0.936392  1
  Ho  Ho2  1  0.562997  0.936392  0.564220  1
  Ho  Ho3  1  0.934709  0.564060  0.937171  1
  Ho  Ho4  1  0.562997  0.564220  0.936392  1
  Ho  Ho5  1  0.934709  0.937171  0.564060  1
  Ho  Ho6  1  0.351871  0.349255  0.349255  1
  Ho  Ho7  1  0.351871  0.349255  0.949619  1
  Ho  Ho8  1  0.351871  0.949619  0.349255  1
  Ho  Ho9  1  0.938843  0.353719  0.353719  1
  Tm  Tm10  1  0.811631  0.188316  0.188316  1
  Tm  Tm11  1  0.184682  0.814456  0.814456  1
  Tm  Tm12  1  0.184682  0.814456  0.186404  1
  Tm  Tm13  1  0.811631  0.188316  0.811737  1
  Tm  Tm14  1  0.184682  0.186404  0.814456  1
  Tm  Tm15  1  0.811631  0.811737  0.188316  1
  Mg  Mg16  1  0.283287  0.572238  0.572238  1
  Hg  Hg17  1  0.581467  0.586151  0.586151  1
  Hg  Hg18  1  0.581467  0.586151  0.246231  1
  Hg  Hg19  1  0.581467  0.246231  0.586151  1
  Rh  Rh20  1  0.140740  0.143556  0.143556  1
  Rh  Rh21  1  0.140740  0.143556  0.572148  1
  Rh  Rh22  1  0.140740  0.572148  0.143556  1
  Rh  Rh23  1  0.573582  0.142139  0.142139  1
