# generated using pymatgen
data_NaTb5(Si3Os)8
_symmetry_space_group_name_H-M   'P 1'
_cell_length_a   10.16067708
_cell_length_b   10.16067716
_cell_length_c   8.18383011
_cell_angle_alpha   90.10418614
_cell_angle_beta   89.89580898
_cell_angle_gamma   132.50094079
_symmetry_Int_Tables_number   1
_chemical_formula_structural   NaTb5(Si3Os)8
_chemical_formula_sum   'Na1 Tb5 Si24 Os8'
_cell_volume   622.91013839
_cell_formula_units_Z   1
loop_
 _symmetry_equiv_pos_site_id
 _symmetry_equiv_pos_as_xyz
  1  'x, y, z'
loop_
 _atom_site_type_symbol
 _atom_site_label
 _atom_site_symmetry_multiplicity
 _atom_site_fract_x
 _atom_site_fract_y
 _atom_site_fract_z
 _atom_site_occupancy
  Na  Na0  1  0.000708  0.500708  0.750000  1
  Tb  Tb1  1  0.503049  0.003049  0.750000  1
  Tb  Tb2  1  0.996706  0.496706  0.250000  1
  Tb  Tb3  1  0.501967  0.001967  0.250000  1
  Tb  Tb4  1  0.000512  0.000696  0.000464  1
  Tb  Tb5  1  0.500696  0.500512  0.499536  1
  Si  Si6  1  0.799344  0.210937  0.505519  1
  Si  Si7  1  0.710937  0.299344  0.994481  1
  Si  Si8  1  0.200593  0.790211  0.504699  1
  Si  Si9  1  0.290211  0.700593  0.995301  1
  Si  Si10  1  0.675177  0.660520  0.166864  1
  Si  Si11  1  0.160520  0.175177  0.333136  1
  Si  Si12  1  0.827705  0.839646  0.667411  1
  Si  Si13  1  0.339646  0.327705  0.832589  1
  Si  Si14  1  0.846655  0.610835  0.996764  1
  Si  Si15  1  0.110835  0.346655  0.503236  1
  Si  Si16  1  0.656445  0.890746  0.496746  1
  Si  Si17  1  0.390746  0.156445  0.003254  1
  Si  Si18  1  0.152978  0.387882  0.006282  1
  Si  Si19  1  0.887882  0.652978  0.493718  1
  Si  Si20  1  0.124190  0.889530  0.729326  1
  Si  Si21  1  0.389530  0.624190  0.770674  1
  Si  Si22  1  0.375663  0.609520  0.226319  1
  Si  Si23  1  0.109520  0.875663  0.273681  1
  Si  Si24  1  0.877454  0.112065  0.274382  1
  Si  Si25  1  0.612065  0.377454  0.225618  1
  Si  Si26  1  0.621818  0.385596  0.770989  1
  Si  Si27  1  0.885596  0.121818  0.729011  1
  Si  Si28  1  0.610174  0.842563  0.992949  1
  Si  Si29  1  0.342563  0.110174  0.507051  1
  Os  Os30  1  0.626701  0.627301  0.872743  1
  Os  Os31  1  0.127301  0.126701  0.627257  1
  Os  Os32  1  0.372618  0.374644  0.126194  1
  Os  Os33  1  0.874644  0.872618  0.373806  1
  Os  Os34  1  0.172714  0.832506  0.003428  1
  Os  Os35  1  0.332506  0.672714  0.496572  1
  Os  Os36  1  0.827276  0.164352  0.004097  1
  Os  Os37  1  0.664352  0.327276  0.495903  1
