# generated using pymatgen
data_Ho16Sc4IrRh11
_symmetry_space_group_name_H-M   'P 1'
_cell_length_a   10.73357935
_cell_length_b   10.73357935
_cell_length_c   6.26005439
_cell_angle_alpha   90.02871658
_cell_angle_beta   90.02871658
_cell_angle_gamma   90.00607103
_symmetry_Int_Tables_number   1
_chemical_formula_structural   Ho16Sc4IrRh11
_chemical_formula_sum   'Ho16 Sc4 Ir1 Rh11'
_cell_volume   721.21896432
_cell_formula_units_Z   1
loop_
 _symmetry_equiv_pos_site_id
 _symmetry_equiv_pos_as_xyz
  1  'x, y, z'
loop_
 _atom_site_type_symbol
 _atom_site_label
 _atom_site_symmetry_multiplicity
 _atom_site_fract_x
 _atom_site_fract_y
 _atom_site_fract_z
 _atom_site_occupancy
  Ho  Ho0  1  0.287668  0.086386  0.377604  1
  Ho  Ho1  1  0.287940  0.912313  0.877261  1
  Ho  Ho2  1  0.712354  0.086201  0.877563  1
  Ho  Ho3  1  0.712261  0.913639  0.377685  1
  Ho  Ho4  1  0.584988  0.787249  0.877294  1
  Ho  Ho5  1  0.586407  0.212346  0.378006  1
  Ho  Ho6  1  0.413648  0.787191  0.378365  1
  Ho  Ho7  1  0.413705  0.212275  0.877525  1
  Ho  Ho8  1  0.212751  0.415012  0.622706  1
  Ho  Ho9  1  0.212809  0.586352  0.121635  1
  Ho  Ho10  1  0.787654  0.413593  0.121994  1
  Ho  Ho11  1  0.787725  0.586295  0.622475  1
  Ho  Ho12  1  0.913614  0.712332  0.122396  1
  Ho  Ho13  1  0.913799  0.287646  0.622437  1
  Ho  Ho14  1  0.087687  0.712060  0.622739  1
  Ho  Ho15  1  0.086361  0.287739  0.122315  1
  Sc  Sc16  1  0.999951  0.999954  0.500176  1
  Sc  Sc17  1  0.000046  0.000049  0.999824  1
  Sc  Sc18  1  0.499489  0.500595  0.999209  1
  Sc  Sc19  1  0.499405  0.500511  0.500791  1
  Ir  Ir20  1  0.351708  0.648292  0.750000  1
  Rh  Rh21  1  0.851585  0.148415  0.250000  1
  Rh  Rh22  1  0.851702  0.851683  0.749953  1
  Rh  Rh23  1  0.148317  0.148298  0.750047  1
  Rh  Rh24  1  0.147907  0.852093  0.250000  1
  Rh  Rh25  1  0.648608  0.351392  0.750000  1
  Rh  Rh26  1  0.649158  0.648285  0.250169  1
  Rh  Rh27  1  0.351715  0.350842  0.249831  1
  Rh  Rh28  1  0.500086  0.000580  0.121893  1
  Rh  Rh29  1  0.500108  0.000576  0.621543  1
  Rh  Rh30  1  0.999424  0.499892  0.878457  1
  Rh  Rh31  1  0.999420  0.499914  0.378107  1
