# generated using pymatgen
data_HfFeCoSi2Mo
_symmetry_space_group_name_H-M   'P 1'
_cell_length_a   3.70240700
_cell_length_b   6.21959500
_cell_length_c   7.05814500
_cell_angle_alpha   90.00000000
_cell_angle_beta   90.00000000
_cell_angle_gamma   90.00000000
_symmetry_Int_Tables_number   1
_chemical_formula_structural   HfFeCoSi2Mo
_chemical_formula_sum   'Hf2 Fe2 Co2 Si4 Mo2'
_cell_volume   162.53123682
_cell_formula_units_Z   2
loop_
 _symmetry_equiv_pos_site_id
 _symmetry_equiv_pos_as_xyz
  1  'x, y, z'
loop_
 _atom_site_type_symbol
 _atom_site_label
 _atom_site_symmetry_multiplicity
 _atom_site_fract_x
 _atom_site_fract_y
 _atom_site_fract_z
 _atom_site_occupancy
  Hf  Hf0  1  0.750000  0.977462  0.681836  1
  Hf  Hf1  1  0.750000  0.477462  0.818164  1
  Fe  Fe2  1  0.250000  0.147313  0.941213  1
  Fe  Fe3  1  0.250000  0.647313  0.558787  1
  Co  Co4  1  0.750000  0.856854  0.065240  1
  Co  Co5  1  0.750000  0.356854  0.434760  1
  Si  Si6  1  0.250000  0.276007  0.605062  1
  Si  Si7  1  0.250000  0.776007  0.894938  1
  Si  Si8  1  0.750000  0.723013  0.372337  1
  Si  Si9  1  0.750000  0.223013  0.127663  1
  Mo  Mo10  1  0.250000  0.019352  0.316486  1
  Mo  Mo11  1  0.250000  0.519352  0.183514  1
