# generated using pymatgen
data_SmHo6Sn23Ru6
_symmetry_space_group_name_H-M   'P 1'
_cell_length_a   9.85053100
_cell_length_b   9.85052931
_cell_length_c   10.08089300
_cell_angle_alpha   90.00000000
_cell_angle_beta   90.00000000
_cell_angle_gamma   119.99999560
_symmetry_Int_Tables_number   1
_chemical_formula_structural   SmHo6Sn23Ru6
_chemical_formula_sum   'Sm1 Ho6 Sn23 Ru6'
_cell_volume   847.12766644
_cell_formula_units_Z   1
loop_
 _symmetry_equiv_pos_site_id
 _symmetry_equiv_pos_as_xyz
  1  'x, y, z'
loop_
 _atom_site_type_symbol
 _atom_site_label
 _atom_site_symmetry_multiplicity
 _atom_site_fract_x
 _atom_site_fract_y
 _atom_site_fract_z
 _atom_site_occupancy
  Sm  Sm0  1  0.000000  0.000000  0.000000  1
  Ho  Ho1  1  0.515510  0.484490  0.696972  1
  Ho  Ho2  1  0.515510  0.031018  0.696972  1
  Ho  Ho3  1  0.968982  0.484490  0.696972  1
  Ho  Ho4  1  0.031018  0.515510  0.303028  1
  Ho  Ho5  1  0.484490  0.968982  0.303028  1
  Ho  Ho6  1  0.484490  0.515510  0.303028  1
  Sn  Sn7  1  0.666667  0.333333  0.177960  1
  Sn  Sn8  1  0.666667  0.333333  0.872053  1
  Sn  Sn9  1  0.333333  0.666667  0.127947  1
  Sn  Sn10  1  0.349502  0.349502  0.000000  1
  Sn  Sn11  1  0.000000  0.650498  0.000000  1
  Sn  Sn12  1  0.650498  0.000000  0.000000  1
  Sn  Sn13  1  0.650498  0.650498  0.000000  1
  Sn  Sn14  1  0.333333  0.666667  0.822040  1
  Sn  Sn15  1  0.439711  0.219857  0.462410  1
  Sn  Sn16  1  0.219857  0.780143  0.537590  1
  Sn  Sn17  1  0.219857  0.439711  0.537590  1
  Sn  Sn18  1  0.560289  0.780143  0.537590  1
  Sn  Sn19  1  0.118585  0.881415  0.274160  1
  Sn  Sn20  1  0.780143  0.560289  0.462410  1
  Sn  Sn21  1  0.780143  0.219857  0.462410  1
  Sn  Sn22  1  0.349502  0.000000  0.000000  1
  Sn  Sn23  1  0.118585  0.237169  0.274160  1
  Sn  Sn24  1  0.762831  0.881415  0.274160  1
  Sn  Sn25  1  0.237169  0.118585  0.725840  1
  Sn  Sn26  1  0.881415  0.762831  0.725840  1
  Sn  Sn27  1  0.881415  0.118585  0.725840  1
  Sn  Sn28  1  0.000000  0.000000  0.500000  1
  Sn  Sn29  1  0.000000  0.349502  0.000000  1
  Ru  Ru30  1  0.170365  0.829635  0.797405  1
  Ru  Ru31  1  0.170365  0.340729  0.797405  1
  Ru  Ru32  1  0.659271  0.829635  0.797405  1
  Ru  Ru33  1  0.340729  0.170365  0.202595  1
  Ru  Ru34  1  0.829635  0.659271  0.202595  1
  Ru  Ru35  1  0.829635  0.170365  0.202595  1
