# generated using pymatgen
data_Li2AlSbRh4
_symmetry_space_group_name_H-M   'P 1'
_cell_length_a   6.06366800
_cell_length_b   6.06199300
_cell_length_c   6.05518400
_cell_angle_alpha   89.99990544
_cell_angle_beta   89.99986762
_cell_angle_gamma   90.00318476
_symmetry_Int_Tables_number   1
_chemical_formula_structural   Li2AlSbRh4
_chemical_formula_sum   'Li4 Al2 Sb2 Rh8'
_cell_volume   222.57592632
_cell_formula_units_Z   2
loop_
 _symmetry_equiv_pos_site_id
 _symmetry_equiv_pos_as_xyz
  1  'x, y, z'
loop_
 _atom_site_type_symbol
 _atom_site_label
 _atom_site_symmetry_multiplicity
 _atom_site_fract_x
 _atom_site_fract_y
 _atom_site_fract_z
 _atom_site_occupancy
  Li  Li0  1  0.500012  0.750006  0.249913  1
  Li  Li1  1  0.999991  0.249990  0.249912  1
  Li  Li2  1  0.999993  0.750009  0.750096  1
  Li  Li3  1  0.500005  0.249993  0.750095  1
  Al  Al4  1  0.500003  0.249994  0.250007  1
  Al  Al5  1  0.999993  0.750006  0.250010  1
  Sb  Sb6  1  0.000015  0.250010  0.749969  1
  Sb  Sb7  1  0.499988  0.749991  0.749965  1
  Rh  Rh8  1  0.249998  0.000000  0.009033  1
  Rh  Rh9  1  0.750002  0.999999  0.009055  1
  Rh  Rh10  1  0.750002  0.499999  0.009034  1
  Rh  Rh11  1  0.249997  0.500002  0.009039  1
  Rh  Rh12  1  0.250002  0.500005  0.490971  1
  Rh  Rh13  1  0.250001  0.999996  0.490976  1
  Rh  Rh14  1  0.749997  0.500001  0.490988  1
  Rh  Rh15  1  0.749997  0.000000  0.490939  1
