# generated using pymatgen
data_UAgBr6
_symmetry_space_group_name_H-M   'P 1'
_cell_length_a   7.49473228
_cell_length_b   7.49473216
_cell_length_c   6.94146468
_cell_angle_alpha   82.27769177
_cell_angle_beta   82.27769068
_cell_angle_gamma   116.28176063
_symmetry_Int_Tables_number   1
_chemical_formula_structural   UAgBr6
_chemical_formula_sum   'U1 Ag1 Br6'
_cell_volume   338.08498142
_cell_formula_units_Z   1
loop_
 _symmetry_equiv_pos_site_id
 _symmetry_equiv_pos_as_xyz
  1  'x, y, z'
loop_
 _atom_site_type_symbol
 _atom_site_label
 _atom_site_symmetry_multiplicity
 _atom_site_fract_x
 _atom_site_fract_y
 _atom_site_fract_z
 _atom_site_occupancy
  U  U0  1  0.989927  0.010073  0.000000  1
  Ag  Ag1  1  0.923134  0.076866  0.500000  1
  Br  Br2  1  0.254279  0.275594  0.184920  1
  Br  Br3  1  0.724406  0.745721  0.815080  1
  Br  Br4  1  0.010292  0.339514  0.751748  1
  Br  Br5  1  0.300812  0.029338  0.744916  1
  Br  Br6  1  0.970662  0.699188  0.255084  1
  Br  Br7  1  0.660486  0.989708  0.248252  1
