# generated using pymatgen
data_Ho10Tl3In5PdRh3
_symmetry_space_group_name_H-M   'P 1'
_cell_length_a   3.61177900
_cell_length_b   8.09155760
_cell_length_c   18.31413246
_cell_angle_alpha   89.90922956
_cell_angle_beta   90.00000000
_cell_angle_gamma   90.00000000
_symmetry_Int_Tables_number   1
_chemical_formula_structural   Ho10Tl3In5PdRh3
_chemical_formula_sum   'Ho10 Tl3 In5 Pd1 Rh3'
_cell_volume   535.22834423
_cell_formula_units_Z   1
loop_
 _symmetry_equiv_pos_site_id
 _symmetry_equiv_pos_as_xyz
  1  'x, y, z'
loop_
 _atom_site_type_symbol
 _atom_site_label
 _atom_site_symmetry_multiplicity
 _atom_site_fract_x
 _atom_site_fract_y
 _atom_site_fract_z
 _atom_site_occupancy
  Ho  Ho0  1  0.000000  0.499446  0.500665  1
  Ho  Ho1  1  0.000000  0.000863  0.999938  1
  Ho  Ho2  1  0.000000  0.733697  0.278268  1
  Ho  Ho3  1  0.000000  0.254883  0.721601  1
  Ho  Ho4  1  0.000000  0.754126  0.777900  1
  Ho  Ho5  1  0.000000  0.254772  0.219480  1
  Ho  Ho6  1  0.000000  0.616229  0.088113  1
  Ho  Ho7  1  0.000000  0.385114  0.909303  1
  Ho  Ho8  1  0.000000  0.884028  0.590701  1
  Ho  Ho9  1  0.000000  0.117513  0.414664  1
  Tl  Tl10  1  0.500000  0.708802  0.932563  1
  Tl  Tl11  1  0.500000  0.292815  0.066425  1
  Tl  Tl12  1  0.500000  0.791721  0.433719  1
  In  In13  1  0.500000  0.206776  0.568640  1
  In  In14  1  0.500000  0.570767  0.649905  1
  In  In15  1  0.500000  0.422802  0.349817  1
  In  In16  1  0.500000  0.923051  0.150523  1
  In  In17  1  0.500000  0.073460  0.849719  1
  Pd  Pd18  1  0.500000  0.026260  0.302946  1
  Rh  Rh19  1  0.500000  0.526525  0.196062  1
  Rh  Rh20  1  0.500000  0.477067  0.803334  1
  Rh  Rh21  1  0.500000  0.979286  0.695714  1
