# generated using pymatgen
data_Tb5GaSe4
_symmetry_space_group_name_H-M   'P 1'
_cell_length_a   7.16958149
_cell_length_b   7.16958613
_cell_length_c   7.16956783
_cell_angle_alpha   99.45236303
_cell_angle_beta   99.45267144
_cell_angle_gamma   132.18601222
_symmetry_Int_Tables_number   1
_chemical_formula_structural   Tb5GaSe4
_chemical_formula_sum   'Tb5 Ga1 Se4'
_cell_volume   249.64563851
_cell_formula_units_Z   1
loop_
 _symmetry_equiv_pos_site_id
 _symmetry_equiv_pos_as_xyz
  1  'x, y, z'
loop_
 _atom_site_type_symbol
 _atom_site_label
 _atom_site_symmetry_multiplicity
 _atom_site_fract_x
 _atom_site_fract_y
 _atom_site_fract_z
 _atom_site_occupancy
  Tb  Tb0  1  0.403488  0.792238  0.195726  1
  Tb  Tb1  1  0.000000  0.000000  0.000000  1
  Tb  Tb2  1  0.596512  0.207762  0.804274  1
  Tb  Tb3  1  0.207763  0.403487  0.611250  1
  Tb  Tb4  1  0.792237  0.596513  0.388750  1
  Ga  Ga5  1  0.500000  0.500000  0.000000  1
  Se  Se6  1  0.098071  0.697738  0.795809  1
  Se  Se7  1  0.697736  0.901927  0.599664  1
  Se  Se8  1  0.302264  0.098073  0.400336  1
  Se  Se9  1  0.901929  0.302262  0.204191  1
