# generated using pymatgen
data_Pr2Nd4IrCl10
_symmetry_space_group_name_H-M   'P 1'
_cell_length_a   7.46779508
_cell_length_b   9.25632749
_cell_length_c   9.36994526
_cell_angle_alpha   110.19763497
_cell_angle_beta   96.68606159
_cell_angle_gamma   106.37700489
_symmetry_Int_Tables_number   1
_chemical_formula_structural   Pr2Nd4IrCl10
_chemical_formula_sum   'Pr2 Nd4 Ir1 Cl10'
_cell_volume   566.52546136
_cell_formula_units_Z   1
loop_
 _symmetry_equiv_pos_site_id
 _symmetry_equiv_pos_as_xyz
  1  'x, y, z'
loop_
 _atom_site_type_symbol
 _atom_site_label
 _atom_site_symmetry_multiplicity
 _atom_site_fract_x
 _atom_site_fract_y
 _atom_site_fract_z
 _atom_site_occupancy
  Pr  Pr0  1  0.967970  0.307457  0.105825  1
  Pr  Pr1  1  0.032030  0.692543  0.894175  1
  Nd  Nd2  1  0.627271  0.851282  0.798813  1
  Nd  Nd3  1  0.372729  0.148718  0.201187  1
  Nd  Nd4  1  0.144594  0.060276  0.754704  1
  Nd  Nd5  1  0.855406  0.939724  0.245296  1
  Ir  Ir6  1  0.000000  0.000000  0.000000  1
  Cl  Cl7  1  0.548455  0.168724  0.931377  1
  Cl  Cl8  1  0.451545  0.831276  0.068623  1
  Cl  Cl9  1  0.768759  0.924482  0.553834  1
  Cl  Cl10  1  0.231241  0.075518  0.446166  1
  Cl  Cl11  1  0.087168  0.367706  0.843473  1
  Cl  Cl12  1  0.912832  0.632294  0.156527  1
  Cl  Cl13  1  0.207807  0.752397  0.652282  1
  Cl  Cl14  1  0.792193  0.247603  0.347718  1
  Cl  Cl15  1  0.647071  0.542569  0.722092  1
  Cl  Cl16  1  0.352929  0.457431  0.277908  1
