# generated using pymatgen
data_YPa7Co3Si12Rh
_symmetry_space_group_name_H-M   'P 1'
_cell_length_a   8.03124000
_cell_length_b   8.03124158
_cell_length_c   7.88676500
_cell_angle_alpha   89.99994293
_cell_angle_beta   90.00000000
_cell_angle_gamma   119.99996053
_symmetry_Int_Tables_number   1
_chemical_formula_structural   YPa7Co3Si12Rh
_chemical_formula_sum   'Y1 Pa7 Co3 Si12 Rh1'
_cell_volume   440.54979037
_cell_formula_units_Z   1
loop_
 _symmetry_equiv_pos_site_id
 _symmetry_equiv_pos_as_xyz
  1  'x, y, z'
loop_
 _atom_site_type_symbol
 _atom_site_label
 _atom_site_symmetry_multiplicity
 _atom_site_fract_x
 _atom_site_fract_y
 _atom_site_fract_z
 _atom_site_occupancy
  Y  Y0  1  0.000000  0.000000  0.247860  1
  Pa  Pa1  1  0.000000  0.000000  0.749594  1
  Pa  Pa2  1  0.005240  0.502621  0.246347  1
  Pa  Pa3  1  0.497379  0.502620  0.246346  1
  Pa  Pa4  1  0.500212  0.000424  0.751228  1
  Pa  Pa5  1  0.497379  0.994760  0.246346  1
  Pa  Pa6  1  0.500212  0.499789  0.751227  1
  Pa  Pa7  1  0.999576  0.499788  0.751228  1
  Co  Co8  1  0.333333  0.666667  0.966368  1
  Co  Co9  1  0.333333  0.666667  0.536903  1
  Co  Co10  1  0.666667  0.333334  0.031825  1
  Si  Si11  1  0.170701  0.341404  0.999446  1
  Si  Si12  1  0.658596  0.829299  0.999445  1
  Si  Si13  1  0.172688  0.345375  0.497709  1
  Si  Si14  1  0.341571  0.170785  0.999341  1
  Si  Si15  1  0.170701  0.829298  0.999446  1
  Si  Si16  1  0.654625  0.827312  0.497708  1
  Si  Si17  1  0.829214  0.658429  0.999341  1
  Si  Si18  1  0.326972  0.163487  0.499585  1
  Si  Si19  1  0.172688  0.827312  0.497709  1
  Si  Si20  1  0.836513  0.673028  0.499586  1
  Si  Si21  1  0.829214  0.170785  0.999341  1
  Si  Si22  1  0.836513  0.163487  0.499586  1
  Rh  Rh23  1  0.666667  0.333333  0.486487  1
