# generated using pymatgen
data_Tb4Tc3RuF28
_symmetry_space_group_name_H-M   'P 1'
_cell_length_a   5.60229393
_cell_length_b   8.96255666
_cell_length_c   12.05735247
_cell_angle_alpha   62.53253949
_cell_angle_beta   90.11089068
_cell_angle_gamma   89.85050892
_symmetry_Int_Tables_number   1
_chemical_formula_structural   Tb4Tc3RuF28
_chemical_formula_sum   'Tb4 Tc3 Ru1 F28'
_cell_volume   537.15892544
_cell_formula_units_Z   1
loop_
 _symmetry_equiv_pos_site_id
 _symmetry_equiv_pos_as_xyz
  1  'x, y, z'
loop_
 _atom_site_type_symbol
 _atom_site_label
 _atom_site_symmetry_multiplicity
 _atom_site_fract_x
 _atom_site_fract_y
 _atom_site_fract_z
 _atom_site_occupancy
  Tb  Tb0  1  0.258963  0.811785  0.263714  1
  Tb  Tb1  1  0.740950  0.188679  0.733380  1
  Tb  Tb2  1  0.758564  0.184288  0.236030  1
  Tb  Tb3  1  0.241919  0.812878  0.766462  1
  Tc  Tc4  1  0.242962  0.272925  0.957585  1
  Tc  Tc5  1  0.257314  0.273138  0.456538  1
  Tc  Tc6  1  0.742614  0.726912  0.543087  1
  Ru  Ru7  1  0.756740  0.726713  0.043332  1
  F  F8  1  0.942628  0.707255  0.417453  1
  F  F9  1  0.057846  0.293349  0.582277  1
  F  F10  1  0.444651  0.292587  0.083100  1
  F  F11  1  0.556998  0.709002  0.915636  1
  F  F12  1  0.471468  0.728671  0.137388  1
  F  F13  1  0.527569  0.267391  0.864197  1
  F  F14  1  0.972750  0.271715  0.361344  1
  F  F15  1  0.026748  0.729530  0.637846  1
  F  F16  1  0.952322  0.745008  0.173001  1
  F  F17  1  0.045422  0.252426  0.829484  1
  F  F18  1  0.453182  0.255100  0.327220  1
  F  F19  1  0.547087  0.745749  0.671957  1
  F  F20  1  0.768177  0.486413  0.138224  1
  F  F21  1  0.230550  0.518747  0.859382  1
  F  F22  1  0.270966  0.519310  0.359475  1
  F  F23  1  0.728559  0.480295  0.640834  1
  F  F24  1  0.949637  0.280379  0.045956  1
  F  F25  1  0.049880  0.721396  0.953621  1
  F  F26  1  0.448385  0.721190  0.454656  1
  F  F27  1  0.552772  0.279376  0.544045  1
  F  F28  1  0.742131  0.972686  0.447216  1
  F  F29  1  0.258200  0.028075  0.552434  1
  F  F30  1  0.241507  0.027521  0.053072  1
  F  F31  1  0.757862  0.966058  0.950812  1
  F  F32  1  0.583482  0.969839  0.231887  1
  F  F33  1  0.417614  0.031890  0.767689  1
  F  F34  1  0.083869  0.029218  0.268408  1
  F  F35  1  0.917715  0.972504  0.731256  1
