# generated using pymatgen
data_SmRuI18
_symmetry_space_group_name_H-M   'P 1'
_cell_length_a   10.26084264
_cell_length_b   10.26084287
_cell_length_c   10.26084406
_cell_angle_alpha   96.37573477
_cell_angle_beta   96.37574068
_cell_angle_gamma   96.37575236
_symmetry_Int_Tables_number   1
_chemical_formula_structural   SmRuI18
_chemical_formula_sum   'Sm1 Ru1 I18'
_cell_volume   1058.63182186
_cell_formula_units_Z   1
loop_
 _symmetry_equiv_pos_site_id
 _symmetry_equiv_pos_as_xyz
  1  'x, y, z'
loop_
 _atom_site_type_symbol
 _atom_site_label
 _atom_site_symmetry_multiplicity
 _atom_site_fract_x
 _atom_site_fract_y
 _atom_site_fract_z
 _atom_site_occupancy
  Sm  Sm0  1  0.000000  0.000000  0.000000  1
  Ru  Ru1  1  0.500000  0.500000  0.500000  1
  I  I2  1  0.720967  0.137724  0.592342  1
  I  I3  1  0.956044  0.014010  0.697663  1
  I  I4  1  0.592342  0.720967  0.137724  1
  I  I5  1  0.985990  0.302337  0.043956  1
  I  I6  1  0.697663  0.956044  0.014010  1
  I  I7  1  0.014010  0.697663  0.956044  1
  I  I8  1  0.043956  0.985990  0.302337  1
  I  I9  1  0.862276  0.407658  0.279033  1
  I  I10  1  0.302337  0.043956  0.985990  1
  I  I11  1  0.279033  0.862276  0.407658  1
  I  I12  1  0.137724  0.592342  0.720967  1
  I  I13  1  0.407658  0.279033  0.862276  1
  I  I14  1  0.765211  0.535791  0.510518  1
  I  I15  1  0.535791  0.510518  0.765211  1
  I  I16  1  0.234789  0.464209  0.489482  1
  I  I17  1  0.464209  0.489482  0.234789  1
  I  I18  1  0.510518  0.765211  0.535791  1
  I  I19  1  0.489482  0.234789  0.464209  1
