# generated using pymatgen
data_CeHo5Os2
_symmetry_space_group_name_H-M   'P 1'
_cell_length_a   7.29651329
_cell_length_b   9.16468100
_cell_length_c   6.33319607
_cell_angle_alpha   90.00000000
_cell_angle_beta   87.82756615
_cell_angle_gamma   90.00000000
_symmetry_Int_Tables_number   1
_chemical_formula_structural   CeHo5Os2
_chemical_formula_sum   'Ce2 Ho10 Os4'
_cell_volume   423.19781017
_cell_formula_units_Z   2
loop_
 _symmetry_equiv_pos_site_id
 _symmetry_equiv_pos_as_xyz
  1  'x, y, z'
loop_
 _atom_site_type_symbol
 _atom_site_label
 _atom_site_symmetry_multiplicity
 _atom_site_fract_x
 _atom_site_fract_y
 _atom_site_fract_z
 _atom_site_occupancy
  Ce  Ce0  1  0.054827  0.250000  0.647834  1
  Ce  Ce1  1  0.945173  0.750000  0.352166  1
  Ho  Ho2  1  0.465785  0.750000  0.131606  1
  Ho  Ho3  1  0.534215  0.250000  0.868394  1
  Ho  Ho4  1  0.172725  0.062825  0.168124  1
  Ho  Ho5  1  0.827275  0.937175  0.831876  1
  Ho  Ho6  1  0.325249  0.933929  0.668209  1
  Ho  Ho7  1  0.827275  0.562825  0.831876  1
  Ho  Ho8  1  0.674751  0.066071  0.331791  1
  Ho  Ho9  1  0.172725  0.437175  0.168124  1
  Ho  Ho10  1  0.674751  0.433929  0.331791  1
  Ho  Ho11  1  0.325249  0.566071  0.668209  1
  Os  Os12  1  0.371207  0.250000  0.462681  1
  Os  Os13  1  0.628793  0.750000  0.537319  1
  Os  Os14  1  0.116349  0.750000  0.977960  1
  Os  Os15  1  0.883651  0.250000  0.022040  1
