# generated using pymatgen
data_Th2Ti2Mn10P7
_symmetry_space_group_name_H-M   'P 1'
_cell_length_a   9.49320504
_cell_length_b   9.50007835
_cell_length_c   3.66175200
_cell_angle_alpha   90.00000000
_cell_angle_beta   90.00000000
_cell_angle_gamma   119.96536100
_symmetry_Int_Tables_number   1
_chemical_formula_structural   Th2Ti2Mn10P7
_chemical_formula_sum   'Th2 Ti2 Mn10 P7'
_cell_volume   286.09554175
_cell_formula_units_Z   1
loop_
 _symmetry_equiv_pos_site_id
 _symmetry_equiv_pos_as_xyz
  1  'x, y, z'
loop_
 _atom_site_type_symbol
 _atom_site_label
 _atom_site_symmetry_multiplicity
 _atom_site_fract_x
 _atom_site_fract_y
 _atom_site_fract_z
 _atom_site_occupancy
  Th  Th0  1  0.332298  0.666583  0.000000  1
  Th  Th1  1  0.998363  0.999606  0.500000  1
  Ti  Ti2  1  0.770854  0.548087  0.500000  1
  Ti  Ti3  1  0.449595  0.215727  0.500000  1
  Mn  Mn4  1  0.037896  0.281822  0.000000  1
  Mn  Mn5  1  0.719539  0.764373  0.000000  1
  Mn  Mn6  1  0.239063  0.957083  0.000000  1
  Mn  Mn7  1  0.546747  0.054053  0.000000  1
  Mn  Mn8  1  0.944512  0.485025  0.000000  1
  Mn  Mn9  1  0.508574  0.453927  0.000000  1
  Mn  Mn10  1  0.620284  0.901395  0.500000  1
  Mn  Mn11  1  0.104464  0.720298  0.500000  1
  Mn  Mn12  1  0.277042  0.383463  0.500000  1
  Mn  Mn13  1  0.782079  0.232271  0.500000  1
  P  P14  1  0.779077  0.043944  0.000000  1
  P  P15  1  0.963230  0.738570  0.000000  1
  P  P16  1  0.256606  0.221760  0.000000  1
  P  P17  1  0.383759  0.926990  0.500000  1
  P  P18  1  0.067097  0.451489  0.500000  1
  P  P19  1  0.549287  0.624412  0.500000  1
  P  P20  1  0.669640  0.329118  0.000000  1
