# generated using pymatgen
data_Er3(Sn2Ir)2
_symmetry_space_group_name_H-M   'P 1'
_cell_length_a   7.48677000
_cell_length_b   7.48677049
_cell_length_c   4.18563500
_cell_angle_alpha   90.00000000
_cell_angle_beta   90.00000000
_cell_angle_gamma   120.00000667
_symmetry_Int_Tables_number   1
_chemical_formula_structural   Er3(Sn2Ir)2
_chemical_formula_sum   'Er3 Sn4 Ir2'
_cell_volume   203.18000543
_cell_formula_units_Z   1
loop_
 _symmetry_equiv_pos_site_id
 _symmetry_equiv_pos_as_xyz
  1  'x, y, z'
loop_
 _atom_site_type_symbol
 _atom_site_label
 _atom_site_symmetry_multiplicity
 _atom_site_fract_x
 _atom_site_fract_y
 _atom_site_fract_z
 _atom_site_occupancy
  Er  Er0  1  0.975099  0.391184  0.500000  1
  Er  Er1  1  0.608816  0.583916  0.500000  1
  Er  Er2  1  0.416084  0.024901  0.500000  1
  Sn  Sn3  1  0.981481  0.742440  0.000000  1
  Sn  Sn4  1  0.257560  0.239040  0.000000  1
  Sn  Sn5  1  0.760960  0.018519  0.000000  1
  Sn  Sn6  1  0.333333  0.666667  0.000000  1
  Ir  Ir7  1  0.666667  0.333333  0.000000  1
  Ir  Ir8  1  0.000000  0.000000  0.500000  1
