# generated using pymatgen
data_Na4ZrTi3(CuSe3)4
_symmetry_space_group_name_H-M   'P 1'
_cell_length_a   13.60690979
_cell_length_b   3.76637800
_cell_length_c   10.13547533
_cell_angle_alpha   90.00000000
_cell_angle_beta   89.67428604
_cell_angle_gamma   90.00000000
_symmetry_Int_Tables_number   1
_chemical_formula_structural   Na4ZrTi3(CuSe3)4
_chemical_formula_sum   'Na4 Zr1 Ti3 Cu4 Se12'
_cell_volume   519.42220734
_cell_formula_units_Z   1
loop_
 _symmetry_equiv_pos_site_id
 _symmetry_equiv_pos_as_xyz
  1  'x, y, z'
loop_
 _atom_site_type_symbol
 _atom_site_label
 _atom_site_symmetry_multiplicity
 _atom_site_fract_x
 _atom_site_fract_y
 _atom_site_fract_z
 _atom_site_occupancy
  Na  Na0  1  0.229389  0.250000  0.047989  1
  Na  Na1  1  0.732465  0.250000  0.450161  1
  Na  Na2  1  0.266961  0.749999  0.544582  1
  Na  Na3  1  0.772931  0.749999  0.952247  1
  Zr  Zr4  1  0.489111  0.749999  0.824653  1
  Ti  Ti5  1  0.509944  0.250000  0.181884  1
  Ti  Ti6  1  0.009827  0.250000  0.321154  1
  Ti  Ti7  1  0.990117  0.749999  0.678916  1
  Cu  Cu8  1  0.010653  0.750000  0.093475  1
  Cu  Cu9  1  0.509253  0.749999  0.406665  1
  Cu  Cu10  1  0.491038  0.250000  0.591749  1
  Cu  Cu11  1  0.989477  0.250000  0.905987  1
  Se  Se12  1  0.401131  0.749999  0.072672  1
  Se  Se13  1  0.896811  0.250000  0.126838  1
  Se  Se14  1  0.633760  0.749999  0.238719  1
  Se  Se15  1  0.134483  0.749999  0.261456  1
  Se  Se16  1  0.396296  0.250000  0.375297  1
  Se  Se17  1  0.905796  0.749999  0.437094  1
  Se  Se18  1  0.093842  0.250000  0.562571  1
  Se  Se19  1  0.607995  0.750000  0.617975  1
  Se  Se20  1  0.865549  0.250000  0.738447  1
  Se  Se21  1  0.357387  0.250000  0.753088  1
  Se  Se22  1  0.103373  0.749999  0.873322  1
  Se  Se23  1  0.602412  0.250000  0.943061  1
