# generated using pymatgen
data_Dy3Ho5Ti4O20
_symmetry_space_group_name_H-M   'P 1'
_cell_length_a   3.69884300
_cell_length_b   10.40412935
_cell_length_c   11.30802536
_cell_angle_alpha   89.97065490
_cell_angle_beta   90.00000000
_cell_angle_gamma   90.00000000
_symmetry_Int_Tables_number   1
_chemical_formula_structural   Dy3Ho5Ti4O20
_chemical_formula_sum   'Dy3 Ho5 Ti4 O20'
_cell_volume   435.16940833
_cell_formula_units_Z   1
loop_
 _symmetry_equiv_pos_site_id
 _symmetry_equiv_pos_as_xyz
  1  'x, y, z'
loop_
 _atom_site_type_symbol
 _atom_site_label
 _atom_site_symmetry_multiplicity
 _atom_site_fract_x
 _atom_site_fract_y
 _atom_site_fract_z
 _atom_site_occupancy
  Dy  Dy0  1  0.250000  0.115348  0.275951  1
  Dy  Dy1  1  0.250000  0.135686  0.943683  1
  Dy  Dy2  1  0.750000  0.364523  0.444115  1
  Ho  Ho3  1  0.750000  0.384213  0.775798  1
  Ho  Ho4  1  0.250000  0.616555  0.223950  1
  Ho  Ho5  1  0.250000  0.636503  0.556013  1
  Ho  Ho6  1  0.750000  0.863110  0.055308  1
  Ho  Ho7  1  0.750000  0.883548  0.724024  1
  Ti  Ti8  1  0.250000  0.174217  0.619548  1
  Ti  Ti9  1  0.750000  0.326201  0.118974  1
  Ti  Ti10  1  0.250000  0.673737  0.880596  1
  Ti  Ti11  1  0.750000  0.825621  0.380910  1
  O  O12  1  0.750000  0.005614  0.894900  1
  O  O13  1  0.250000  0.006789  0.655869  1
  O  O14  1  0.250000  0.223979  0.457130  1
  O  O15  1  0.750000  0.238216  0.616872  1
  O  O16  1  0.750000  0.243450  0.270564  1
  O  O17  1  0.250000  0.257713  0.770583  1
  O  O18  1  0.250000  0.261962  0.116112  1
  O  O19  1  0.750000  0.276676  0.956332  1
  O  O20  1  0.750000  0.493452  0.155453  1
  O  O21  1  0.250000  0.494635  0.395283  1
  O  O22  1  0.750000  0.507364  0.605401  1
  O  O23  1  0.250000  0.506462  0.844949  1
  O  O24  1  0.250000  0.723551  0.043109  1
  O  O25  1  0.750000  0.737851  0.883328  1
  O  O26  1  0.750000  0.743519  0.228763  1
  O  O27  1  0.250000  0.756666  0.728887  1
  O  O28  1  0.250000  0.761894  0.383540  1
  O  O29  1  0.750000  0.775901  0.543404  1
  O  O30  1  0.750000  0.992880  0.346067  1
  O  O31  1  0.250000  0.992164  0.104584  1
