# generated using pymatgen
data_Sc12ZnIr6Rh5
_symmetry_space_group_name_H-M   'P 1'
_cell_length_a   4.59361700
_cell_length_b   6.46215400
_cell_length_c   13.79050400
_cell_angle_alpha   90.00000000
_cell_angle_beta   90.00212381
_cell_angle_gamma   90.00000000
_symmetry_Int_Tables_number   1
_chemical_formula_structural   Sc12ZnIr6Rh5
_chemical_formula_sum   'Sc12 Zn1 Ir6 Rh5'
_cell_volume   409.36642882
_cell_formula_units_Z   1
loop_
 _symmetry_equiv_pos_site_id
 _symmetry_equiv_pos_as_xyz
  1  'x, y, z'
loop_
 _atom_site_type_symbol
 _atom_site_label
 _atom_site_symmetry_multiplicity
 _atom_site_fract_x
 _atom_site_fract_y
 _atom_site_fract_z
 _atom_site_occupancy
  Sc  Sc0  1  0.499926  0.248944  0.001225  1
  Sc  Sc1  1  0.499926  0.751058  0.001225  1
  Sc  Sc2  1  0.999537  0.250665  0.166824  1
  Sc  Sc3  1  0.999537  0.749336  0.166824  1
  Sc  Sc4  1  0.499539  0.251094  0.333363  1
  Sc  Sc5  1  0.499539  0.748905  0.333363  1
  Sc  Sc6  1  0.999994  0.250694  0.499832  1
  Sc  Sc7  1  0.999994  0.749307  0.499832  1
  Sc  Sc8  1  0.500407  0.248974  0.665405  1
  Sc  Sc9  1  0.500407  0.751025  0.665405  1
  Sc  Sc10  1  0.000596  0.247430  0.833353  1
  Sc  Sc11  1  0.000596  0.752571  0.833353  1
  Zn  Zn12  1  0.501445  0.500001  0.833310  1
  Ir  Ir13  1  0.999856  0.500001  0.999128  1
  Ir  Ir14  1  0.499998  0.000000  0.166563  1
  Ir  Ir15  1  0.999926  0.500001  0.333325  1
  Ir  Ir16  1  0.500000  0.000000  0.500110  1
  Ir  Ir17  1  0.999875  0.500001  0.667558  1
  Ir  Ir18  1  0.499995  0.000000  0.833326  1
  Rh  Rh19  1  0.999969  0.000000  0.000267  1
  Rh  Rh20  1  0.498949  0.500001  0.166948  1
  Rh  Rh21  1  0.998973  0.000000  0.333314  1
  Rh  Rh22  1  0.499960  0.500001  0.499729  1
  Rh  Rh23  1  0.001056  0.000000  0.666419  1
