# generated using pymatgen
data_LiHf6Fe4Si12Rh
_symmetry_space_group_name_H-M   'P 1'
_cell_length_a   9.78404904
_cell_length_b   9.78323895
_cell_length_c   9.77021671
_cell_angle_alpha   149.30026713
_cell_angle_beta   133.26556862
_cell_angle_gamma   56.91822127
_symmetry_Int_Tables_number   1
_chemical_formula_structural   LiHf6Fe4Si12Rh
_chemical_formula_sum   'Li1 Hf6 Fe4 Si12 Rh1'
_cell_volume   345.28955703
_cell_formula_units_Z   1
loop_
 _symmetry_equiv_pos_site_id
 _symmetry_equiv_pos_as_xyz
  1  'x, y, z'
loop_
 _atom_site_type_symbol
 _atom_site_label
 _atom_site_symmetry_multiplicity
 _atom_site_fract_x
 _atom_site_fract_y
 _atom_site_fract_z
 _atom_site_occupancy
  Li  Li0  1  0.500000  0.000000  0.000000  1
  Hf  Hf1  1  0.851918  0.590836  0.256064  1
  Hf  Hf2  1  0.148082  0.409164  0.743936  1
  Hf  Hf3  1  0.666383  0.404229  0.259436  1
  Hf  Hf4  1  0.333617  0.595771  0.740564  1
  Hf  Hf5  1  0.136265  0.132413  0.987471  1
  Hf  Hf6  1  0.863735  0.867587  0.012529  1
  Fe  Fe7  1  0.751643  0.997568  0.737018  1
  Fe  Fe8  1  0.000000  0.000000  0.500000  1
  Fe  Fe9  1  0.248357  0.002432  0.262982  1
  Fe  Fe10  1  0.000000  0.500000  0.000000  1
  Si  Si11  1  0.474775  0.123675  0.340148  1
  Si  Si12  1  0.525225  0.876325  0.659852  1
  Si  Si13  1  0.211512  0.857487  0.353371  1
  Si  Si14  1  0.788488  0.142513  0.646629  1
  Si  Si15  1  0.714646  0.687335  0.999139  1
  Si  Si16  1  0.285354  0.312665  0.000861  1
  Si  Si17  1  0.495913  0.738672  0.239435  1
  Si  Si18  1  0.504087  0.261328  0.760565  1
  Si  Si19  1  0.999316  0.254488  0.252183  1
  Si  Si20  1  0.196895  0.700419  0.479167  1
  Si  Si21  1  0.000684  0.745512  0.747817  1
  Si  Si22  1  0.803105  0.299581  0.520833  1
  Rh  Rh23  1  0.500000  0.500000  0.500000  1
