# generated using pymatgen
data_Rb2Ba2IrO6
_symmetry_space_group_name_H-M   'P 1'
_cell_length_a   7.40687966
_cell_length_b   7.40688067
_cell_length_c   7.49588271
_cell_angle_alpha   92.94270900
_cell_angle_beta   92.94274101
_cell_angle_gamma   88.22024074
_symmetry_Int_Tables_number   1
_chemical_formula_structural   Rb2Ba2IrO6
_chemical_formula_sum   'Rb4 Ba4 Ir2 O12'
_cell_volume   409.98775464
_cell_formula_units_Z   2
loop_
 _symmetry_equiv_pos_site_id
 _symmetry_equiv_pos_as_xyz
  1  'x, y, z'
loop_
 _atom_site_type_symbol
 _atom_site_label
 _atom_site_symmetry_multiplicity
 _atom_site_fract_x
 _atom_site_fract_y
 _atom_site_fract_z
 _atom_site_occupancy
  Rb  Rb0  1  0.742464  0.257536  0.000000  1
  Rb  Rb1  1  0.251840  0.748159  0.500001  1
  Rb  Rb2  1  0.748316  0.608223  0.360784  1
  Rb  Rb3  1  0.391776  0.251685  0.639212  1
  Ba  Ba4  1  0.115660  0.884340  0.000000  1
  Ba  Ba5  1  0.618649  0.745893  0.869379  1
  Ba  Ba6  1  0.880399  0.119601  0.499999  1
  Ba  Ba7  1  0.254109  0.381352  0.130623  1
  Ir  Ir8  1  0.498045  0.996523  0.248154  1
  Ir  Ir9  1  0.003477  0.501956  0.751849  1
  O  O10  1  0.565092  0.248095  0.307356  1
  O  O11  1  0.431291  0.058849  0.995954  1
  O  O12  1  0.751061  0.939174  0.176565  1
  O  O13  1  0.256880  0.575086  0.822439  1
  O  O14  1  0.939775  0.759464  0.695242  1
  O  O15  1  0.065364  0.433528  0.505124  1
  O  O16  1  0.424914  0.743119  0.177561  1
  O  O17  1  0.566471  0.934636  0.494874  1
  O  O18  1  0.240536  0.060225  0.304758  1
  O  O19  1  0.751904  0.434908  0.692644  1
  O  O20  1  0.060826  0.248939  0.823435  1
  O  O21  1  0.941151  0.568709  0.004046  1
