# generated using pymatgen
data_TbPr3(Ni12P5)2
_symmetry_space_group_name_H-M   'P 1'
_cell_length_a   3.67502700
_cell_length_b   10.82518643
_cell_length_c   13.15997200
_cell_angle_alpha   71.73759700
_cell_angle_beta   90.00000000
_cell_angle_gamma   90.00000000
_symmetry_Int_Tables_number   1
_chemical_formula_structural   TbPr3(Ni12P5)2
_chemical_formula_sum   'Tb1 Pr3 Ni24 P10'
_cell_volume   497.17113962
_cell_formula_units_Z   1
loop_
 _symmetry_equiv_pos_site_id
 _symmetry_equiv_pos_as_xyz
  1  'x, y, z'
loop_
 _atom_site_type_symbol
 _atom_site_label
 _atom_site_symmetry_multiplicity
 _atom_site_fract_x
 _atom_site_fract_y
 _atom_site_fract_z
 _atom_site_occupancy
  Tb  Tb0  1  0.250000  0.280426  0.682610  1
  Pr  Pr1  1  0.750000  0.718780  0.317554  1
  Pr  Pr2  1  0.250000  0.247415  0.187021  1
  Pr  Pr3  1  0.750000  0.754449  0.812348  1
  Ni  Ni4  1  0.250000  0.841859  0.135852  1
  Ni  Ni5  1  0.750000  0.163127  0.860399  1
  Ni  Ni6  1  0.250000  0.285582  0.440936  1
  Ni  Ni7  1  0.750000  0.710880  0.562846  1
  Ni  Ni8  1  0.250000  0.071652  0.014520  1
  Ni  Ni9  1  0.750000  0.931162  0.984189  1
  Ni  Ni10  1  0.250000  0.064073  0.447386  1
  Ni  Ni11  1  0.750000  0.935046  0.553181  1
  Ni  Ni12  1  0.250000  0.595502  0.696259  1
  Ni  Ni13  1  0.750000  0.402254  0.305337  1
  Ni  Ni14  1  0.250000  0.583227  0.007812  1
  Ni  Ni15  1  0.750000  0.417698  0.991185  1
  Ni  Ni16  1  0.250000  0.575385  0.511625  1
  Ni  Ni17  1  0.750000  0.417807  0.492287  1
  Ni  Ni18  1  0.250000  0.298469  0.915968  1
  Ni  Ni19  1  0.750000  0.702257  0.081003  1
  Ni  Ni20  1  0.250000  0.995442  0.659419  1
  Ni  Ni21  1  0.750000  0.006624  0.339974  1
  Ni  Ni22  1  0.250000  0.840111  0.438378  1
  Ni  Ni23  1  0.750000  0.161366  0.563640  1
  Ni  Ni24  1  0.250000  0.992812  0.848209  1
  Ni  Ni25  1  0.750000  0.011422  0.150518  1
  Ni  Ni26  1  0.250000  0.561501  0.203675  1
  Ni  Ni27  1  0.750000  0.433771  0.795783  1
  P  P28  1  0.250000  0.508225  0.871153  1
  P  P29  1  0.750000  0.491423  0.129025  1
  P  P30  1  0.250000  0.801359  0.983318  1
  P  P31  1  0.750000  0.200604  0.014435  1
  P  P32  1  0.250000  0.492478  0.378858  1
  P  P33  1  0.750000  0.502049  0.622622  1
  P  P34  1  0.250000  0.812050  0.611073  1
  P  P35  1  0.750000  0.186893  0.390467  1
  P  P36  1  0.250000  0.949869  0.259546  1
  P  P37  1  0.750000  0.054951  0.739587  1
