# generated using pymatgen
data_Tb2Ce3Ga2Os3
_symmetry_space_group_name_H-M   'P 1'
_cell_length_a   8.46712470
_cell_length_b   8.46712593
_cell_length_c   8.46712600
_cell_angle_alpha   110.20521796
_cell_angle_beta   110.20522103
_cell_angle_gamma   110.20523025
_symmetry_Int_Tables_number   1
_chemical_formula_structural   Tb2Ce3Ga2Os3
_chemical_formula_sum   'Tb4 Ce6 Ga4 Os6'
_cell_volume   454.14730407
_cell_formula_units_Z   2
loop_
 _symmetry_equiv_pos_site_id
 _symmetry_equiv_pos_as_xyz
  1  'x, y, z'
loop_
 _atom_site_type_symbol
 _atom_site_label
 _atom_site_symmetry_multiplicity
 _atom_site_fract_x
 _atom_site_fract_y
 _atom_site_fract_z
 _atom_site_occupancy
  Tb  Tb0  1  0.767445  0.767445  0.767445  1
  Tb  Tb1  1  0.315076  0.567970  0.751958  1
  Tb  Tb2  1  0.751958  0.315076  0.567970  1
  Tb  Tb3  1  0.567970  0.751958  0.315076  1
  Ce  Ce4  1  0.716258  0.511022  0.999522  1
  Ce  Ce5  1  0.999522  0.716258  0.511022  1
  Ce  Ce6  1  0.511022  0.999522  0.716258  1
  Ce  Ce7  1  0.247618  0.187882  0.938504  1
  Ce  Ce8  1  0.938504  0.247618  0.187882  1
  Ce  Ce9  1  0.187882  0.938504  0.247618  1
  Ga  Ga10  1  0.395945  0.395945  0.395945  1
  Ga  Ga11  1  0.099696  0.499955  0.003592  1
  Ga  Ga12  1  0.003592  0.099696  0.499955  1
  Ga  Ga13  1  0.499955  0.003592  0.099696  1
  Os  Os14  1  0.885877  0.116359  0.749089  1
  Os  Os15  1  0.749089  0.885877  0.116359  1
  Os  Os16  1  0.116359  0.749089  0.885877  1
  Os  Os17  1  0.240994  0.621773  0.383461  1
  Os  Os18  1  0.383461  0.240994  0.621773  1
  Os  Os19  1  0.621773  0.383461  0.240994  1
