# generated using pymatgen
data_TmLu(Cu2P)4
_symmetry_space_group_name_H-M   'P 1'
_cell_length_a   7.21293663
_cell_length_b   7.21293684
_cell_length_c   3.77266000
_cell_angle_alpha   90.00000000
_cell_angle_beta   90.00000000
_cell_angle_gamma   89.94791398
_symmetry_Int_Tables_number   1
_chemical_formula_structural   TmLu(Cu2P)4
_chemical_formula_sum   'Tm1 Lu1 Cu8 P4'
_cell_volume   196.27804976
_cell_formula_units_Z   1
loop_
 _symmetry_equiv_pos_site_id
 _symmetry_equiv_pos_as_xyz
  1  'x, y, z'
loop_
 _atom_site_type_symbol
 _atom_site_label
 _atom_site_symmetry_multiplicity
 _atom_site_fract_x
 _atom_site_fract_y
 _atom_site_fract_z
 _atom_site_occupancy
  Tm  Tm0  1  0.500000  0.500000  0.500000  1
  Lu  Lu1  1  0.000000  0.000000  0.000000  1
  Cu  Cu2  1  0.666444  0.915886  0.500000  1
  Cu  Cu3  1  0.165826  0.584282  0.000000  1
  Cu  Cu4  1  0.415718  0.834174  0.000000  1
  Cu  Cu5  1  0.915886  0.666444  0.500000  1
  Cu  Cu6  1  0.834174  0.415718  0.000000  1
  Cu  Cu7  1  0.584282  0.165826  0.000000  1
  Cu  Cu8  1  0.084114  0.333556  0.500000  1
  Cu  Cu9  1  0.333556  0.084114  0.500000  1
  P  P10  1  0.286952  0.286952  0.000000  1
  P  P11  1  0.713048  0.713048  0.000000  1
  P  P12  1  0.788318  0.211682  0.500000  1
  P  P13  1  0.211682  0.788318  0.500000  1
