# generated using pymatgen
data_Sm5YHo2(Si3Rh)4
_symmetry_space_group_name_H-M   'P 1'
_cell_length_a   8.20736445
_cell_length_b   8.20736395
_cell_length_c   8.06432900
_cell_angle_alpha   90.00000000
_cell_angle_beta   90.00000000
_cell_angle_gamma   120.03776448
_symmetry_Int_Tables_number   1
_chemical_formula_structural   Sm5YHo2(Si3Rh)4
_chemical_formula_sum   'Sm5 Y1 Ho2 Si12 Rh4'
_cell_volume   470.26308436
_cell_formula_units_Z   1
loop_
 _symmetry_equiv_pos_site_id
 _symmetry_equiv_pos_as_xyz
  1  'x, y, z'
loop_
 _atom_site_type_symbol
 _atom_site_label
 _atom_site_symmetry_multiplicity
 _atom_site_fract_x
 _atom_site_fract_y
 _atom_site_fract_z
 _atom_site_occupancy
  Sm  Sm0  1  0.000006  0.999994  0.250000  1
  Sm  Sm1  1  0.000014  0.999986  0.750000  1
  Sm  Sm2  1  0.507114  0.492886  0.250000  1
  Sm  Sm3  1  0.507101  0.014219  0.250000  1
  Sm  Sm4  1  0.985781  0.492899  0.250000  1
  Y  Y5  1  0.491417  0.508583  0.750000  1
  Ho  Ho6  1  0.491584  0.983275  0.750000  1
  Ho  Ho7  1  0.016725  0.508416  0.750000  1
  Si  Si8  1  0.166962  0.833038  0.504702  1
  Si  Si9  1  0.166769  0.333835  0.504451  1
  Si  Si10  1  0.666165  0.833231  0.504451  1
  Si  Si11  1  0.832195  0.167805  0.503050  1
  Si  Si12  1  0.832336  0.664421  0.502881  1
  Si  Si13  1  0.335579  0.167664  0.502881  1
  Si  Si14  1  0.832195  0.167805  0.996950  1
  Si  Si15  1  0.832336  0.664421  0.997119  1
  Si  Si16  1  0.335579  0.167664  0.997119  1
  Si  Si17  1  0.166962  0.833038  0.995298  1
  Si  Si18  1  0.166769  0.333835  0.995549  1
  Si  Si19  1  0.666165  0.833231  0.995549  1
  Rh  Rh20  1  0.333166  0.666834  0.478233  1
  Rh  Rh21  1  0.666956  0.333044  0.541895  1
  Rh  Rh22  1  0.666956  0.333044  0.958105  1
  Rh  Rh23  1  0.333166  0.666834  0.021767  1
