# generated using pymatgen
data_LiLa2As4(PPd10)2
_symmetry_space_group_name_H-M   'P 1'
_cell_length_a   8.81834437
_cell_length_b   8.81847544
_cell_length_c   8.89773001
_cell_angle_alpha   59.70129621
_cell_angle_beta   59.70308459
_cell_angle_gamma   60.59374719
_symmetry_Int_Tables_number   1
_chemical_formula_structural   LiLa2As4(PPd10)2
_chemical_formula_sum   'Li1 La2 As4 P2 Pd20'
_cell_volume   489.17934348
_cell_formula_units_Z   1
loop_
 _symmetry_equiv_pos_site_id
 _symmetry_equiv_pos_as_xyz
  1  'x, y, z'
loop_
 _atom_site_type_symbol
 _atom_site_label
 _atom_site_symmetry_multiplicity
 _atom_site_fract_x
 _atom_site_fract_y
 _atom_site_fract_z
 _atom_site_occupancy
  Li  Li0  1  0.000000  0.000000  0.000000  1
  La  La1  1  0.250003  0.250002  0.249997  1
  La  La2  1  0.749997  0.749998  0.750003  1
  As  As3  1  0.740518  0.259492  0.259480  1
  As  As4  1  0.259482  0.740508  0.740520  1
  As  As5  1  0.259495  0.740513  0.259483  1
  As  As6  1  0.740505  0.259487  0.740517  1
  P  P7  1  0.262101  0.262106  0.737908  1
  P  P8  1  0.737899  0.737894  0.262092  1
  Pd  Pd9  1  0.383051  0.383047  0.391195  1
  Pd  Pd10  1  0.616949  0.616953  0.608805  1
  Pd  Pd11  1  0.383048  0.383051  0.842707  1
  Pd  Pd12  1  0.391198  0.842699  0.383049  1
  Pd  Pd13  1  0.616952  0.616949  0.157293  1
  Pd  Pd14  1  0.608802  0.157301  0.616951  1
  Pd  Pd15  1  0.842698  0.391201  0.383048  1
  Pd  Pd16  1  0.157302  0.608799  0.616952  1
  Pd  Pd17  1  0.346883  0.010265  0.989733  1
  Pd  Pd18  1  0.653117  0.989735  0.010267  1
  Pd  Pd19  1  0.010264  0.346882  0.653125  1
  Pd  Pd20  1  0.989736  0.653118  0.346875  1
  Pd  Pd21  1  0.010267  0.346882  0.989733  1
  Pd  Pd22  1  0.653121  0.989740  0.346873  1
  Pd  Pd23  1  0.989733  0.653118  0.010267  1
  Pd  Pd24  1  0.346879  0.010260  0.653127  1
  Pd  Pd25  1  0.999992  0.000007  0.349366  1
  Pd  Pd26  1  0.000008  0.999993  0.650634  1
  Pd  Pd27  1  0.650629  0.349371  0.000009  1
  Pd  Pd28  1  0.349371  0.650629  0.999991  1
