# generated using pymatgen
data_Ho10Pb6CCl
_symmetry_space_group_name_H-M   'P 1'
_cell_length_a   9.00436000
_cell_length_b   9.00436043
_cell_length_c   6.75171700
_cell_angle_alpha   90.00000000
_cell_angle_beta   90.00000000
_cell_angle_gamma   119.99999842
_symmetry_Int_Tables_number   1
_chemical_formula_structural   Ho10Pb6CCl
_chemical_formula_sum   'Ho10 Pb6 C1 Cl1'
_cell_volume   474.07885999
_cell_formula_units_Z   1
loop_
 _symmetry_equiv_pos_site_id
 _symmetry_equiv_pos_as_xyz
  1  'x, y, z'
loop_
 _atom_site_type_symbol
 _atom_site_label
 _atom_site_symmetry_multiplicity
 _atom_site_fract_x
 _atom_site_fract_y
 _atom_site_fract_z
 _atom_site_occupancy
  Ho  Ho0  1  0.000000  0.770621  0.712940  1
  Ho  Ho1  1  0.229379  0.000000  0.287060  1
  Ho  Ho2  1  0.333333  0.666667  0.500000  1
  Ho  Ho3  1  0.666667  0.333333  0.500000  1
  Ho  Ho4  1  0.770621  0.770621  0.287060  1
  Ho  Ho5  1  0.000000  0.229379  0.287060  1
  Ho  Ho6  1  0.229379  0.229379  0.712940  1
  Ho  Ho7  1  0.770621  0.000000  0.712940  1
  Ho  Ho8  1  0.333333  0.666667  0.000000  1
  Ho  Ho9  1  0.666667  0.333333  0.000000  1
  Pb  Pb10  1  0.600035  0.600035  0.750369  1
  Pb  Pb11  1  0.000000  0.600035  0.249631  1
  Pb  Pb12  1  0.000000  0.399965  0.750369  1
  Pb  Pb13  1  0.600035  0.000000  0.249631  1
  Pb  Pb14  1  0.399965  0.000000  0.750369  1
  Pb  Pb15  1  0.399965  0.399965  0.249631  1
  C  C16  1  0.000000  0.000000  0.500000  1
  Cl  Cl17  1  0.000000  0.000000  0.000000  1
