# generated using pymatgen
data_Tb3YbZr4(ReB6)4
_symmetry_space_group_name_H-M   'P 1'
_cell_length_a   3.58211600
_cell_length_b   9.02572394
_cell_length_c   11.40732300
_cell_angle_alpha   90.02621746
_cell_angle_beta   90.00000000
_cell_angle_gamma   90.00000000
_symmetry_Int_Tables_number   1
_chemical_formula_structural   Tb3YbZr4(ReB6)4
_chemical_formula_sum   'Tb3 Yb1 Zr4 Re4 B24'
_cell_volume   368.81229046
_cell_formula_units_Z   1
loop_
 _symmetry_equiv_pos_site_id
 _symmetry_equiv_pos_as_xyz
  1  'x, y, z'
loop_
 _atom_site_type_symbol
 _atom_site_label
 _atom_site_symmetry_multiplicity
 _atom_site_fract_x
 _atom_site_fract_y
 _atom_site_fract_z
 _atom_site_occupancy
  Tb  Tb0  1  0.000000  0.677040  0.585545  1
  Tb  Tb1  1  0.000000  0.821566  0.086358  1
  Tb  Tb2  1  0.000000  0.178631  0.914192  1
  Yb  Yb3  1  0.000000  0.321874  0.414116  1
  Zr  Zr4  1  0.000000  0.945339  0.371501  1
  Zr  Zr5  1  0.000000  0.056073  0.627847  1
  Zr  Zr6  1  0.000000  0.444410  0.128578  1
  Zr  Zr7  1  0.000000  0.554559  0.872400  1
  Re  Re8  1  0.000000  0.641971  0.317717  1
  Re  Re9  1  0.000000  0.358400  0.682389  1
  Re  Re10  1  0.000000  0.140704  0.181734  1
  Re  Re11  1  0.000000  0.859419  0.817707  1
  B  B12  1  0.500000  0.553437  0.432758  1
  B  B13  1  0.500000  0.445573  0.566514  1
  B  B14  1  0.500000  0.054036  0.066998  1
  B  B15  1  0.500000  0.945785  0.932860  1
  B  B16  1  0.500000  0.751786  0.417780  1
  B  B17  1  0.500000  0.248652  0.581292  1
  B  B18  1  0.500000  0.251981  0.082619  1
  B  B19  1  0.500000  0.747680  0.917910  1
  B  B20  1  0.500000  0.795128  0.264574  1
  B  B21  1  0.500000  0.205469  0.735251  1
  B  B22  1  0.500000  0.294908  0.236283  1
  B  B23  1  0.500000  0.705092  0.764295  1
  B  B24  1  0.500000  0.630372  0.183853  1
  B  B25  1  0.500000  0.369565  0.816709  1
  B  B26  1  0.500000  0.131428  0.317084  1
  B  B27  1  0.500000  0.869241  0.682974  1
  B  B28  1  0.500000  0.982588  0.213344  1
  B  B29  1  0.500000  0.017828  0.786411  1
  B  B30  1  0.500000  0.481712  0.287598  1
  B  B31  1  0.500000  0.517503  0.712764  1
  B  B32  1  0.500000  0.600243  0.026976  1
  B  B33  1  0.500000  0.399827  0.973374  1
  B  B34  1  0.500000  0.099972  0.473185  1
  B  B35  1  0.500000  0.900208  0.526516  1
