# generated using pymatgen
data_Y10HoIn9Rh4
_symmetry_space_group_name_H-M   'P 1'
_cell_length_a   13.13515904
_cell_length_b   13.14031908
_cell_length_c   3.69167000
_cell_angle_alpha   90.00000000
_cell_angle_beta   90.00000000
_cell_angle_gamma   111.45379494
_symmetry_Int_Tables_number   1
_chemical_formula_structural   Y10HoIn9Rh4
_chemical_formula_sum   'Y10 Ho1 In9 Rh4'
_cell_volume   593.03430502
_cell_formula_units_Z   1
loop_
 _symmetry_equiv_pos_site_id
 _symmetry_equiv_pos_as_xyz
  1  'x, y, z'
loop_
 _atom_site_type_symbol
 _atom_site_label
 _atom_site_symmetry_multiplicity
 _atom_site_fract_x
 _atom_site_fract_y
 _atom_site_fract_z
 _atom_site_occupancy
  Y  Y0  1  0.921681  0.582502  0.000000  1
  Y  Y1  1  0.417355  0.078500  0.000000  1
  Y  Y2  1  0.582658  0.921506  0.000000  1
  Y  Y3  1  0.624941  0.375179  0.000000  1
  Y  Y4  1  0.374984  0.624928  0.000000  1
  Y  Y5  1  0.839726  0.160885  0.000000  1
  Y  Y6  1  0.160596  0.839392  0.000000  1
  Y  Y7  1  0.999987  0.000006  0.000000  1
  Y  Y8  1  0.312281  0.312423  0.000000  1
  Y  Y9  1  0.687589  0.687469  0.000000  1
  Ho  Ho10  1  0.080039  0.417665  0.000000  1
  In  In11  1  0.841023  0.369033  0.500000  1
  In  In12  1  0.159082  0.630623  0.500000  1
  In  In13  1  0.368954  0.840663  0.500000  1
  In  In14  1  0.631064  0.159299  0.500000  1
  In  In15  1  0.076044  0.219131  0.500000  1
  In  In16  1  0.923700  0.781224  0.500000  1
  In  In17  1  0.218818  0.076290  0.500000  1
  In  In18  1  0.781210  0.923742  0.500000  1
  In  In19  1  0.499972  0.499979  0.500000  1
  Rh  Rh20  1  0.243821  0.448498  0.500000  1
  Rh  Rh21  1  0.754383  0.551026  0.500000  1
  Rh  Rh22  1  0.448905  0.245636  0.500000  1
  Rh  Rh23  1  0.551188  0.754400  0.500000  1
