# generated using pymatgen
data_Tm6Al24IrOsRu6
_symmetry_space_group_name_H-M   'P 1'
_cell_length_a   8.75510276
_cell_length_b   8.76743297
_cell_length_c   9.56621667
_cell_angle_alpha   89.83141802
_cell_angle_beta   90.06668618
_cell_angle_gamma   119.92511189
_symmetry_Int_Tables_number   1
_chemical_formula_structural   Tm6Al24IrOsRu6
_chemical_formula_sum   'Tm6 Al24 Ir1 Os1 Ru6'
_cell_volume   636.39956511
_cell_formula_units_Z   1
loop_
 _symmetry_equiv_pos_site_id
 _symmetry_equiv_pos_as_xyz
  1  'x, y, z'
loop_
 _atom_site_type_symbol
 _atom_site_label
 _atom_site_symmetry_multiplicity
 _atom_site_fract_x
 _atom_site_fract_y
 _atom_site_fract_z
 _atom_site_occupancy
  Tm  Tm0  1  0.804127  0.193068  0.750589  1
  Tm  Tm1  1  0.195873  0.806932  0.249411  1
  Tm  Tm2  1  0.388114  0.192109  0.749999  1
  Tm  Tm3  1  0.611886  0.807891  0.250001  1
  Tm  Tm4  1  0.806655  0.612402  0.749335  1
  Tm  Tm5  1  0.193345  0.387598  0.250665  1
  Al  Al6  1  0.668158  0.333399  0.980479  1
  Al  Al7  1  0.331842  0.666601  0.019521  1
  Al  Al8  1  0.333300  0.666673  0.480100  1
  Al  Al9  1  0.666700  0.333327  0.519900  1
  Al  Al10  1  0.837214  0.163172  0.422362  1
  Al  Al11  1  0.162786  0.836828  0.577638  1
  Al  Al12  1  0.325738  0.163431  0.422233  1
  Al  Al13  1  0.162443  0.837202  0.922291  1
  Al  Al14  1  0.674262  0.836569  0.577767  1
  Al  Al15  1  0.837557  0.162798  0.077709  1
  Al  Al16  1  0.837111  0.674775  0.421782  1
  Al  Al17  1  0.674802  0.838267  0.922271  1
  Al  Al18  1  0.162889  0.325225  0.578218  1
  Al  Al19  1  0.325198  0.161733  0.077729  1
  Al  Al20  1  0.161311  0.324696  0.921799  1
  Al  Al21  1  0.838689  0.675304  0.078201  1
  Al  Al22  1  0.438243  0.561264  0.748457  1
  Al  Al23  1  0.561757  0.438736  0.251543  1
  Al  Al24  1  0.122310  0.560584  0.749897  1
  Al  Al25  1  0.877690  0.439416  0.250103  1
  Al  Al26  1  0.438178  0.875718  0.749361  1
  Al  Al27  1  0.561822  0.124282  0.250639  1
  Al  Al28  1  0.000108  0.999731  0.750040  1
  Al  Al29  1  0.999892  0.000269  0.249960  1
  Ir  Ir30  1  0.500000  0.500000  0.000000  1
  Os  Os31  1  0.500000  0.000000  0.000000  1
  Ru  Ru32  1  0.000000  0.500000  0.000000  1
  Ru  Ru33  1  0.500000  0.500000  0.500000  1
  Ru  Ru34  1  0.000000  0.500000  0.500000  1
  Ru  Ru35  1  0.500000  0.000000  0.500000  1
  Ru  Ru36  1  0.000000  0.000000  0.000000  1
  Ru  Ru37  1  0.000000  0.000000  0.500000  1
