# generated using pymatgen
data_BaNdAg(H6Ir)2
_symmetry_space_group_name_H-M   'P 1'
_cell_length_a   5.04888400
_cell_length_b   5.04888417
_cell_length_c   8.55176300
_cell_angle_alpha   90.00000000
_cell_angle_beta   90.00000000
_cell_angle_gamma   119.99999889
_symmetry_Int_Tables_number   1
_chemical_formula_structural   BaNdAg(H6Ir)2
_chemical_formula_sum   'Ba1 Nd1 Ag1 H12 Ir2'
_cell_volume   188.78917693
_cell_formula_units_Z   1
loop_
 _symmetry_equiv_pos_site_id
 _symmetry_equiv_pos_as_xyz
  1  'x, y, z'
loop_
 _atom_site_type_symbol
 _atom_site_label
 _atom_site_symmetry_multiplicity
 _atom_site_fract_x
 _atom_site_fract_y
 _atom_site_fract_z
 _atom_site_occupancy
  Ba  Ba0  1  0.000000  0.000000  0.034686  1
  Nd  Nd1  1  0.333333  0.666667  0.613653  1
  Ag  Ag2  1  0.666667  0.333333  0.354457  1
  H  H3  1  0.170259  0.829741  0.370319  1
  H  H4  1  0.659483  0.829741  0.370319  1
  H  H5  1  0.170259  0.340517  0.370319  1
  H  H6  1  0.829368  0.170632  0.629262  1
  H  H7  1  0.341264  0.170632  0.629262  1
  H  H8  1  0.829368  0.658736  0.629262  1
  H  H9  1  0.512589  0.025177  0.851213  1
  H  H10  1  0.512589  0.487411  0.851213  1
  H  H11  1  0.974823  0.487411  0.851213  1
  H  H12  1  0.486764  0.973528  0.147875  1
  H  H13  1  0.486764  0.513236  0.147875  1
  H  H14  1  0.026472  0.513236  0.147875  1
  Ir  Ir15  1  0.666667  0.333333  0.734986  1
  Ir  Ir16  1  0.333333  0.666667  0.266214  1
