# generated using pymatgen
data_YbSmHo2(B6Ru)2
_symmetry_space_group_name_H-M   'P 1'
_cell_length_a   3.66938100
_cell_length_b   9.16224740
_cell_length_c   11.56865202
_cell_angle_alpha   89.82678945
_cell_angle_beta   90.00000000
_cell_angle_gamma   90.00000000
_symmetry_Int_Tables_number   1
_chemical_formula_structural   YbSmHo2(B6Ru)2
_chemical_formula_sum   'Yb2 Sm2 Ho4 B24 Ru4'
_cell_volume   388.93371845
_cell_formula_units_Z   2
loop_
 _symmetry_equiv_pos_site_id
 _symmetry_equiv_pos_as_xyz
  1  'x, y, z'
loop_
 _atom_site_type_symbol
 _atom_site_label
 _atom_site_symmetry_multiplicity
 _atom_site_fract_x
 _atom_site_fract_y
 _atom_site_fract_z
 _atom_site_occupancy
  Yb  Yb0  1  0.000000  0.325263  0.415246  1
  Yb  Yb1  1  0.000000  0.674737  0.584754  1
  Sm  Sm2  1  0.000000  0.822353  0.086312  1
  Sm  Sm3  1  0.000000  0.177647  0.913688  1
  Ho  Ho4  1  0.000000  0.941516  0.370312  1
  Ho  Ho5  1  0.000000  0.058484  0.629688  1
  Ho  Ho6  1  0.000000  0.442567  0.131966  1
  Ho  Ho7  1  0.000000  0.557433  0.868034  1
  B  B8  1  0.500000  0.553997  0.432736  1
  B  B9  1  0.500000  0.446003  0.567264  1
  B  B10  1  0.500000  0.054913  0.068643  1
  B  B11  1  0.500000  0.945087  0.931357  1
  B  B12  1  0.500000  0.747542  0.418361  1
  B  B13  1  0.500000  0.252458  0.581639  1
  B  B14  1  0.500000  0.249054  0.083215  1
  B  B15  1  0.500000  0.750946  0.916785  1
  B  B16  1  0.500000  0.789881  0.266270  1
  B  B17  1  0.500000  0.210119  0.733730  1
  B  B18  1  0.500000  0.290268  0.235664  1
  B  B19  1  0.500000  0.709732  0.764336  1
  B  B20  1  0.500000  0.630215  0.186533  1
  B  B21  1  0.500000  0.369785  0.813467  1
  B  B22  1  0.500000  0.131098  0.315017  1
  B  B23  1  0.500000  0.868902  0.684983  1
  B  B24  1  0.500000  0.984580  0.213016  1
  B  B25  1  0.500000  0.015420  0.786984  1
  B  B26  1  0.500000  0.483801  0.289192  1
  B  B27  1  0.500000  0.516199  0.710808  1
  B  B28  1  0.500000  0.600682  0.027692  1
  B  B29  1  0.500000  0.399318  0.972308  1
  B  B30  1  0.500000  0.099595  0.472552  1
  B  B31  1  0.500000  0.900405  0.527448  1
  Ru  Ru32  1  0.000000  0.639236  0.319892  1
  Ru  Ru33  1  0.000000  0.360764  0.680108  1
  Ru  Ru34  1  0.000000  0.138189  0.179878  1
  Ru  Ru35  1  0.000000  0.861811  0.820122  1
