# generated using pymatgen
data_Tb3Er5Au4
_symmetry_space_group_name_H-M   'P 1'
_cell_length_a   4.92268200
_cell_length_b   7.13467135
_cell_length_c   8.93357722
_cell_angle_alpha   89.88880531
_cell_angle_beta   90.00000000
_cell_angle_gamma   90.00000000
_symmetry_Int_Tables_number   1
_chemical_formula_structural   Tb3Er5Au4
_chemical_formula_sum   'Tb3 Er5 Au4'
_cell_volume   313.76199094
_cell_formula_units_Z   1
loop_
 _symmetry_equiv_pos_site_id
 _symmetry_equiv_pos_as_xyz
  1  'x, y, z'
loop_
 _atom_site_type_symbol
 _atom_site_label
 _atom_site_symmetry_multiplicity
 _atom_site_fract_x
 _atom_site_fract_y
 _atom_site_fract_z
 _atom_site_occupancy
  Tb  Tb0  1  0.250000  0.985604  0.322784  1
  Tb  Tb1  1  0.750000  0.514465  0.823521  1
  Tb  Tb2  1  0.750000  0.014629  0.676802  1
  Er  Er3  1  0.250000  0.851696  0.920283  1
  Er  Er4  1  0.250000  0.352344  0.579900  1
  Er  Er5  1  0.750000  0.148514  0.080407  1
  Er  Er6  1  0.750000  0.647668  0.419003  1
  Er  Er7  1  0.250000  0.485058  0.176321  1
  Au  Au8  1  0.250000  0.255914  0.901160  1
  Au  Au9  1  0.250000  0.755425  0.599774  1
  Au  Au10  1  0.750000  0.743848  0.100041  1
  Au  Au11  1  0.750000  0.244837  0.400003  1
