# generated using pymatgen
data_Dy5Ho7Fe4SnAu
_symmetry_space_group_name_H-M   'P 1'
_cell_length_a   8.34953205
_cell_length_b   8.35024602
_cell_length_c   8.34953258
_cell_angle_alpha   111.11687334
_cell_angle_beta   110.73972400
_cell_angle_gamma   106.59173382
_symmetry_Int_Tables_number   1
_chemical_formula_structural   Dy5Ho7Fe4SnAu
_chemical_formula_sum   'Dy5 Ho7 Fe4 Sn1 Au1'
_cell_volume   447.29814276
_cell_formula_units_Z   1
loop_
 _symmetry_equiv_pos_site_id
 _symmetry_equiv_pos_as_xyz
  1  'x, y, z'
loop_
 _atom_site_type_symbol
 _atom_site_label
 _atom_site_symmetry_multiplicity
 _atom_site_fract_x
 _atom_site_fract_y
 _atom_site_fract_z
 _atom_site_occupancy
  Dy  Dy0  1  0.687252  0.490813  0.803560  1
  Dy  Dy1  1  0.187874  0.210206  0.398409  1
  Dy  Dy2  1  0.811797  0.210206  0.022331  1
  Dy  Dy3  1  0.188575  0.789794  0.977942  1
  Dy  Dy4  1  0.811853  0.789794  0.601217  1
  Ho  Ho5  1  0.015108  0.720177  0.295269  1
  Ho  Ho6  1  0.985233  0.279773  0.705167  1
  Ho  Ho7  1  0.574605  0.279773  0.294538  1
  Ho  Ho8  1  0.424907  0.720177  0.705070  1
  Ho  Ho9  1  0.686757  0.882784  0.196026  1
  Ho  Ho10  1  0.313189  0.509278  0.196090  1
  Ho  Ho11  1  0.313166  0.117108  0.803942  1
  Fe  Fe12  1  0.614912  0.499993  0.115310  1
  Fe  Fe13  1  0.384683  0.499993  0.885082  1
  Fe  Fe14  1  0.892719  0.892758  0.000041  1
  Fe  Fe15  1  0.107714  0.107662  0.999948  1
  Sn  Sn16  1  0.499841  0.999626  0.499785  1
  Au  Au17  1  0.999814  0.500085  0.500272  1
