# generated using pymatgen
data_Y4Be7BRu10
_symmetry_space_group_name_H-M   'P 1'
_cell_length_a   3.21671300
_cell_length_b   8.96677038
_cell_length_c   10.33881330
_cell_angle_alpha   90.16635186
_cell_angle_beta   90.00000000
_cell_angle_gamma   90.00000000
_symmetry_Int_Tables_number   1
_chemical_formula_structural   Y4Be7BRu10
_chemical_formula_sum   'Y4 Be7 B1 Ru10'
_cell_volume   298.20658209
_cell_formula_units_Z   1
loop_
 _symmetry_equiv_pos_site_id
 _symmetry_equiv_pos_as_xyz
  1  'x, y, z'
loop_
 _atom_site_type_symbol
 _atom_site_label
 _atom_site_symmetry_multiplicity
 _atom_site_fract_x
 _atom_site_fract_y
 _atom_site_fract_z
 _atom_site_occupancy
  Y  Y0  1  0.500000  0.833299  0.182158  1
  Y  Y1  1  0.500000  0.162942  0.817123  1
  Y  Y2  1  0.500000  0.665946  0.683939  1
  Y  Y3  1  0.500000  0.338642  0.317322  1
  Be  Be4  1  0.500000  0.962663  0.592420  1
  Be  Be5  1  0.500000  0.033248  0.406705  1
  Be  Be6  1  0.500000  0.844897  0.905999  1
  Be  Be7  1  0.500000  0.163571  0.094483  1
  Be  Be8  1  0.500000  0.655906  0.404330  1
  Be  Be9  1  0.500000  0.335031  0.591914  1
  Be  Be10  1  0.500000  0.468442  0.909530  1
  B  B11  1  0.500000  0.534369  0.091282  1
  Ru  Ru12  1  0.000000  0.655017  0.962674  1
  Ru  Ru13  1  0.000000  0.352550  0.047941  1
  Ru  Ru14  1  0.000000  0.841010  0.452729  1
  Ru  Ru15  1  0.000000  0.153071  0.545155  1
  Ru  Ru16  1  0.000000  0.004777  0.003144  1
  Ru  Ru17  1  0.000000  0.410015  0.752316  1
  Ru  Ru18  1  0.000000  0.585482  0.235720  1
  Ru  Ru19  1  0.000000  0.501203  0.503280  1
  Ru  Ru20  1  0.000000  0.908996  0.746554  1
  Ru  Ru21  1  0.000000  0.088923  0.253283  1
