# generated using pymatgen
data_La3Pr2CoBi2
_symmetry_space_group_name_H-M   'P 1'
_cell_length_a   8.50777817
_cell_length_b   9.25423866
_cell_length_c   12.87303486
_cell_angle_alpha   90.10893597
_cell_angle_beta   90.13331141
_cell_angle_gamma   89.93194121
_symmetry_Int_Tables_number   1
_chemical_formula_structural   La3Pr2CoBi2
_chemical_formula_sum   'La12 Pr8 Co4 Bi8'
_cell_volume   1013.52749237
_cell_formula_units_Z   4
loop_
 _symmetry_equiv_pos_site_id
 _symmetry_equiv_pos_as_xyz
  1  'x, y, z'
loop_
 _atom_site_type_symbol
 _atom_site_label
 _atom_site_symmetry_multiplicity
 _atom_site_fract_x
 _atom_site_fract_y
 _atom_site_fract_z
 _atom_site_occupancy
  La  La0  1  0.354031  0.750578  0.697457  1
  La  La1  1  0.644293  0.250063  0.304342  1
  La  La2  1  0.855520  0.249667  0.805330  1
  La  La3  1  0.146165  0.749801  0.196210  1
  La  La4  1  0.883136  0.750617  0.811423  1
  La  La5  1  0.115034  0.248906  0.186551  1
  La  La6  1  0.384028  0.249755  0.688133  1
  La  La7  1  0.617366  0.750822  0.310129  1
  La  La8  1  0.680616  0.534241  0.563410  1
  La  La9  1  0.318476  0.466325  0.437048  1
  La  La10  1  0.181088  0.468197  0.937161  1
  La  La11  1  0.320067  0.033638  0.437705  1
  Pr  Pr12  1  0.817465  0.536507  0.064595  1
  Pr  Pr13  1  0.681842  0.962308  0.564368  1
  Pr  Pr14  1  0.819808  0.961735  0.064044  1
  Pr  Pr15  1  0.181625  0.036329  0.936498  1
  Pr  Pr16  1  0.048118  0.750341  0.496136  1
  Pr  Pr17  1  0.950155  0.248949  0.503447  1
  Pr  Pr18  1  0.549206  0.249661  0.003362  1
  Pr  Pr19  1  0.452788  0.750843  0.996458  1
  Co  Co20  1  0.069989  0.745685  0.993694  1
  Co  Co21  1  0.930969  0.248792  0.005575  1
  Co  Co22  1  0.572063  0.254269  0.507588  1
  Co  Co23  1  0.426361  0.751884  0.491371  1
  Bi  Bi24  1  0.576220  0.506454  0.827208  1
  Bi  Bi25  1  0.424526  0.493515  0.172938  1
  Bi  Bi26  1  0.075184  0.493908  0.673167  1
  Bi  Bi27  1  0.425249  0.006691  0.172444  1
  Bi  Bi28  1  0.923749  0.505597  0.325744  1
  Bi  Bi29  1  0.575516  0.993877  0.826279  1
  Bi  Bi30  1  0.924433  0.994054  0.326056  1
  Bi  Bi31  1  0.074914  0.005993  0.674128  1
