# generated using pymatgen
data_Li2Y2Co5(NiP2)3
_symmetry_space_group_name_H-M   'P 1'
_cell_length_a   3.71498800
_cell_length_b   10.31614068
_cell_length_c   11.96602809
_cell_angle_alpha   89.91754895
_cell_angle_beta   90.00000000
_cell_angle_gamma   90.00000000
_symmetry_Int_Tables_number   1
_chemical_formula_structural   Li2Y2Co5(NiP2)3
_chemical_formula_sum   'Li4 Y4 Co10 Ni6 P12'
_cell_volume   458.58964003
_cell_formula_units_Z   2
loop_
 _symmetry_equiv_pos_site_id
 _symmetry_equiv_pos_as_xyz
  1  'x, y, z'
loop_
 _atom_site_type_symbol
 _atom_site_label
 _atom_site_symmetry_multiplicity
 _atom_site_fract_x
 _atom_site_fract_y
 _atom_site_fract_z
 _atom_site_occupancy
  Li  Li0  1  0.250000  0.798122  0.492756  1
  Li  Li1  1  0.750000  0.201878  0.507244  1
  Li  Li2  1  0.750000  0.298619  0.007929  1
  Li  Li3  1  0.250000  0.701381  0.992071  1
  Y  Y4  1  0.250000  0.920190  0.204891  1
  Y  Y5  1  0.750000  0.079810  0.795109  1
  Y  Y6  1  0.750000  0.419806  0.295381  1
  Y  Y7  1  0.250000  0.580194  0.704619  1
  Co  Co8  1  0.750000  0.778898  0.826905  1
  Co  Co9  1  0.250000  0.221102  0.173095  1
  Co  Co10  1  0.250000  0.620526  0.199195  1
  Co  Co11  1  0.750000  0.379474  0.800805  1
  Co  Co12  1  0.750000  0.120791  0.300491  1
  Co  Co13  1  0.250000  0.879209  0.699509  1
  Co  Co14  1  0.250000  0.033579  0.432424  1
  Co  Co15  1  0.750000  0.966421  0.567576  1
  Co  Co16  1  0.750000  0.533586  0.066948  1
  Co  Co17  1  0.250000  0.466414  0.933052  1
  Ni  Ni18  1  0.250000  0.093066  0.985830  1
  Ni  Ni19  1  0.750000  0.906934  0.014170  1
  Ni  Ni20  1  0.750000  0.594073  0.512568  1
  Ni  Ni21  1  0.250000  0.405927  0.487432  1
  Ni  Ni22  1  0.250000  0.278568  0.672688  1
  Ni  Ni23  1  0.750000  0.721432  0.327312  1
  P  P24  1  0.250000  0.072817  0.613713  1
  P  P25  1  0.750000  0.927183  0.386287  1
  P  P26  1  0.750000  0.576019  0.885853  1
  P  P27  1  0.250000  0.423981  0.114147  1
  P  P28  1  0.250000  0.227280  0.358447  1
  P  P29  1  0.750000  0.772720  0.641553  1
  P  P30  1  0.750000  0.726245  0.140559  1
  P  P31  1  0.250000  0.273755  0.859441  1
  P  P32  1  0.250000  0.894648  0.888674  1
  P  P33  1  0.750000  0.105352  0.111326  1
  P  P34  1  0.750000  0.399932  0.609179  1
  P  P35  1  0.250000  0.600068  0.390821  1
