# generated using pymatgen
data_Hf2CuSi2Rh
_symmetry_space_group_name_H-M   'P 1'
_cell_length_a   3.87880300
_cell_length_b   6.52806467
_cell_length_c   7.42003771
_cell_angle_alpha   90.30540659
_cell_angle_beta   90.00000000
_cell_angle_gamma   90.00000000
_symmetry_Int_Tables_number   1
_chemical_formula_structural   Hf2CuSi2Rh
_chemical_formula_sum   'Hf4 Cu2 Si4 Rh2'
_cell_volume   187.88067597
_cell_formula_units_Z   2
loop_
 _symmetry_equiv_pos_site_id
 _symmetry_equiv_pos_as_xyz
  1  'x, y, z'
loop_
 _atom_site_type_symbol
 _atom_site_label
 _atom_site_symmetry_multiplicity
 _atom_site_fract_x
 _atom_site_fract_y
 _atom_site_fract_z
 _atom_site_occupancy
  Hf  Hf0  1  0.250000  0.523151  0.679102  1
  Hf  Hf1  1  0.750000  0.476849  0.320898  1
  Hf  Hf2  1  0.250000  0.015661  0.814941  1
  Hf  Hf3  1  0.750000  0.984339  0.185059  1
  Cu  Cu4  1  0.750000  0.353046  0.937253  1
  Cu  Cu5  1  0.250000  0.646954  0.062747  1
  Si  Si6  1  0.250000  0.267907  0.117876  1
  Si  Si7  1  0.750000  0.732093  0.882124  1
  Si  Si8  1  0.250000  0.767432  0.380783  1
  Si  Si9  1  0.750000  0.232568  0.619217  1
  Rh  Rh10  1  0.750000  0.855582  0.564331  1
  Rh  Rh11  1  0.250000  0.144418  0.435669  1
