# generated using pymatgen
data_LiDy16In3(IrRh)2
_symmetry_space_group_name_H-M   'P 1'
_cell_length_a   9.66989696
_cell_length_b   9.66989682
_cell_length_c   9.64830602
_cell_angle_alpha   59.93592286
_cell_angle_beta   59.93592190
_cell_angle_gamma   60.06766430
_symmetry_Int_Tables_number   1
_chemical_formula_structural   LiDy16In3(IrRh)2
_chemical_formula_sum   'Li1 Dy16 In3 Ir2 Rh2'
_cell_volume   637.64596077
_cell_formula_units_Z   1
loop_
 _symmetry_equiv_pos_site_id
 _symmetry_equiv_pos_as_xyz
  1  'x, y, z'
loop_
 _atom_site_type_symbol
 _atom_site_label
 _atom_site_symmetry_multiplicity
 _atom_site_fract_x
 _atom_site_fract_y
 _atom_site_fract_z
 _atom_site_occupancy
  Li  Li0  1  0.821380  0.821380  0.821385  1
  Dy  Dy1  1  0.599777  0.599777  0.599272  1
  Dy  Dy2  1  0.599184  0.599184  0.204273  1
  Dy  Dy3  1  0.599589  0.203770  0.599047  1
  Dy  Dy4  1  0.203770  0.599589  0.599047  1
  Dy  Dy5  1  0.057945  0.442071  0.441707  1
  Dy  Dy6  1  0.436864  0.061912  0.062375  1
  Dy  Dy7  1  0.442071  0.057945  0.441707  1
  Dy  Dy8  1  0.061912  0.436864  0.062375  1
  Dy  Dy9  1  0.441844  0.441844  0.058150  1
  Dy  Dy10  1  0.061887  0.061887  0.436954  1
  Dy  Dy11  1  0.188405  0.812987  0.811301  1
  Dy  Dy12  1  0.811849  0.189016  0.188997  1
  Dy  Dy13  1  0.812987  0.188405  0.811301  1
  Dy  Dy14  1  0.189016  0.811849  0.188997  1
  Dy  Dy15  1  0.811343  0.811343  0.188954  1
  Dy  Dy16  1  0.188324  0.188324  0.811919  1
  In  In17  1  0.832784  0.832784  0.503877  1
  In  In18  1  0.832699  0.504065  0.832740  1
  In  In19  1  0.504065  0.832699  0.832740  1
  Ir  Ir20  1  0.392387  0.825337  0.392465  1
  Ir  Ir21  1  0.825337  0.392387  0.392465  1
  Rh  Rh22  1  0.392329  0.392329  0.392398  1
  Rh  Rh23  1  0.392252  0.392252  0.825554  1
