# generated using pymatgen
data_Dy2Ho3Lu3(Si3Rh)4
_symmetry_space_group_name_H-M   'P 1'
_cell_length_a   8.12792100
_cell_length_b   8.12792119
_cell_length_c   7.81033200
_cell_angle_alpha   90.00000000
_cell_angle_beta   90.00000000
_cell_angle_gamma   120.00000328
_symmetry_Int_Tables_number   1
_chemical_formula_structural   Dy2Ho3Lu3(Si3Rh)4
_chemical_formula_sum   'Dy2 Ho3 Lu3 Si12 Rh4'
_cell_volume   446.84723031
_cell_formula_units_Z   1
loop_
 _symmetry_equiv_pos_site_id
 _symmetry_equiv_pos_as_xyz
  1  'x, y, z'
loop_
 _atom_site_type_symbol
 _atom_site_label
 _atom_site_symmetry_multiplicity
 _atom_site_fract_x
 _atom_site_fract_y
 _atom_site_fract_z
 _atom_site_occupancy
  Dy  Dy0  1  0.000000  0.000000  0.250000  1
  Dy  Dy1  1  0.000000  0.000000  0.750000  1
  Ho  Ho2  1  0.491056  0.508944  0.750000  1
  Ho  Ho3  1  0.491056  0.982111  0.750000  1
  Ho  Ho4  1  0.017889  0.508944  0.750000  1
  Lu  Lu5  1  0.509361  0.490639  0.250000  1
  Lu  Lu6  1  0.509361  0.018722  0.250000  1
  Lu  Lu7  1  0.981278  0.490639  0.250000  1
  Si  Si8  1  0.167446  0.832554  0.498071  1
  Si  Si9  1  0.167446  0.334891  0.498071  1
  Si  Si10  1  0.665109  0.832554  0.498071  1
  Si  Si11  1  0.832969  0.167031  0.497817  1
  Si  Si12  1  0.832969  0.665939  0.497817  1
  Si  Si13  1  0.334061  0.167031  0.497817  1
  Si  Si14  1  0.832969  0.167031  0.002183  1
  Si  Si15  1  0.832969  0.665939  0.002183  1
  Si  Si16  1  0.334061  0.167031  0.002183  1
  Si  Si17  1  0.167446  0.832554  0.001929  1
  Si  Si18  1  0.167446  0.334891  0.001929  1
  Si  Si19  1  0.665109  0.832554  0.001929  1
  Rh  Rh20  1  0.333333  0.666667  0.459053  1
  Rh  Rh21  1  0.666667  0.333333  0.528844  1
  Rh  Rh22  1  0.666667  0.333333  0.971156  1
  Rh  Rh23  1  0.333333  0.666667  0.040947  1
