# generated using pymatgen
data_Y3WO7
_symmetry_space_group_name_H-M   'P 1'
_cell_length_a   6.49702791
_cell_length_b   6.49702475
_cell_length_c   7.50281500
_cell_angle_alpha   90.00000000
_cell_angle_beta   90.00000000
_cell_angle_gamma   109.16760038
_symmetry_Int_Tables_number   1
_chemical_formula_structural   Y3WO7
_chemical_formula_sum   'Y6 W2 O14'
_cell_volume   299.14658361
_cell_formula_units_Z   2
loop_
 _symmetry_equiv_pos_site_id
 _symmetry_equiv_pos_as_xyz
  1  'x, y, z'
loop_
 _atom_site_type_symbol
 _atom_site_label
 _atom_site_symmetry_multiplicity
 _atom_site_fract_x
 _atom_site_fract_y
 _atom_site_fract_z
 _atom_site_occupancy
  Y  Y0  1  0.518356  0.518356  0.250000  1
  Y  Y1  1  0.481644  0.481644  0.750000  1
  Y  Y2  1  0.999040  0.467221  0.497608  1
  Y  Y3  1  0.532779  0.000960  0.502392  1
  Y  Y4  1  0.000960  0.532779  0.997608  1
  Y  Y5  1  0.467221  0.999040  0.002392  1
  W  W6  1  0.000963  0.000963  0.250000  1
  W  W7  1  0.999037  0.999037  0.750000  1
  O  O8  1  0.066991  0.317999  0.218147  1
  O  O9  1  0.682001  0.933008  0.781853  1
  O  O10  1  0.933009  0.682001  0.718147  1
  O  O11  1  0.317999  0.066992  0.281853  1
  O  O12  1  0.675409  0.919485  0.222214  1
  O  O13  1  0.080514  0.324591  0.777786  1
  O  O14  1  0.324591  0.080515  0.722214  1
  O  O15  1  0.919486  0.675409  0.277786  1
  O  O16  1  0.368929  0.631070  0.500000  1
  O  O17  1  0.631071  0.368930  0.000000  1
  O  O18  1  0.363269  0.636731  0.000000  1
  O  O19  1  0.636731  0.363269  0.500000  1
  O  O20  1  0.925988  0.074012  0.500000  1
  O  O21  1  0.074012  0.925988  0.000000  1
