# generated using pymatgen
data_NdTh3(AsS)4
_symmetry_space_group_name_H-M   'P 1'
_cell_length_a   4.00594500
_cell_length_b   4.00665252
_cell_length_c   16.96645100
_cell_angle_alpha   90.02915803
_cell_angle_beta   90.00000000
_cell_angle_gamma   90.00000000
_symmetry_Int_Tables_number   1
_chemical_formula_structural   NdTh3(AsS)4
_chemical_formula_sum   'Nd1 Th3 As4 S4'
_cell_volume   272.31879249
_cell_formula_units_Z   1
loop_
 _symmetry_equiv_pos_site_id
 _symmetry_equiv_pos_as_xyz
  1  'x, y, z'
loop_
 _atom_site_type_symbol
 _atom_site_label
 _atom_site_symmetry_multiplicity
 _atom_site_fract_x
 _atom_site_fract_y
 _atom_site_fract_z
 _atom_site_occupancy
  Nd  Nd0  1  0.750000  0.746679  0.640079  1
  Th  Th1  1  0.250000  0.246657  0.858900  1
  Th  Th2  1  0.250000  0.253349  0.359554  1
  Th  Th3  1  0.750000  0.752619  0.139786  1
  As  As4  1  0.750000  0.250256  0.497460  1
  As  As5  1  0.750000  0.250313  0.000785  1
  As  As6  1  0.250000  0.751650  0.497435  1
  As  As7  1  0.250000  0.749550  0.000782  1
  S  S8  1  0.250000  0.246305  0.687581  1
  S  S9  1  0.250000  0.252799  0.183793  1
  S  S10  1  0.750000  0.753346  0.314368  1
  S  S11  1  0.750000  0.746477  0.819478  1
