# generated using pymatgen
data_Zr6Zn16InPt6Au
_symmetry_space_group_name_H-M   'P 1'
_cell_length_a   8.91011480
_cell_length_b   8.91011450
_cell_length_c   8.91011500
_cell_angle_alpha   60.00000185
_cell_angle_beta   60.00000298
_cell_angle_gamma   59.99999871
_symmetry_Int_Tables_number   1
_chemical_formula_structural   Zr6Zn16InPt6Au
_chemical_formula_sum   'Zr6 Zn16 In1 Pt6 Au1'
_cell_volume   500.18988814
_cell_formula_units_Z   1
loop_
 _symmetry_equiv_pos_site_id
 _symmetry_equiv_pos_as_xyz
  1  'x, y, z'
loop_
 _atom_site_type_symbol
 _atom_site_label
 _atom_site_symmetry_multiplicity
 _atom_site_fract_x
 _atom_site_fract_y
 _atom_site_fract_z
 _atom_site_occupancy
  Zr  Zr0  1  0.738033  0.261967  0.261967  1
  Zr  Zr1  1  0.261967  0.738033  0.738033  1
  Zr  Zr2  1  0.261967  0.738033  0.261967  1
  Zr  Zr3  1  0.738033  0.261967  0.738033  1
  Zr  Zr4  1  0.261967  0.261967  0.738033  1
  Zr  Zr5  1  0.738033  0.738033  0.261967  1
  Zn  Zn6  1  0.132264  0.132264  0.132264  1
  Zn  Zn7  1  0.867736  0.867736  0.867736  1
  Zn  Zn8  1  0.132264  0.132264  0.603209  1
  Zn  Zn9  1  0.132264  0.603209  0.132264  1
  Zn  Zn10  1  0.867736  0.867736  0.396791  1
  Zn  Zn11  1  0.867736  0.396791  0.867736  1
  Zn  Zn12  1  0.603209  0.132264  0.132264  1
  Zn  Zn13  1  0.396791  0.867736  0.867736  1
  Zn  Zn14  1  0.351844  0.351844  0.351844  1
  Zn  Zn15  1  0.648156  0.648156  0.648156  1
  Zn  Zn16  1  0.351844  0.351844  0.944470  1
  Zn  Zn17  1  0.351844  0.944470  0.351844  1
  Zn  Zn18  1  0.648156  0.648156  0.055530  1
  Zn  Zn19  1  0.648156  0.055530  0.648156  1
  Zn  Zn20  1  0.944470  0.351844  0.351844  1
  Zn  Zn21  1  0.055530  0.648156  0.648156  1
  In  In22  1  0.500000  0.500000  0.500000  1
  Pt  Pt23  1  0.500000  0.000000  0.000000  1
  Pt  Pt24  1  0.000000  0.500000  0.500000  1
  Pt  Pt25  1  0.000000  0.500000  0.000000  1
  Pt  Pt26  1  0.500000  0.000000  0.500000  1
  Pt  Pt27  1  0.000000  0.000000  0.500000  1
  Pt  Pt28  1  0.500000  0.500000  0.000000  1
  Au  Au29  1  0.000000  0.000000  0.000000  1
