# generated using pymatgen
data_Ca4HoTm3(BO4)4
_symmetry_space_group_name_H-M   'P 1'
_cell_length_a   3.56921100
_cell_length_b   9.61416334
_cell_length_c   10.48739547
_cell_angle_alpha   89.93947933
_cell_angle_beta   90.00000000
_cell_angle_gamma   90.00000000
_symmetry_Int_Tables_number   1
_chemical_formula_structural   Ca4HoTm3(BO4)4
_chemical_formula_sum   'Ca4 Ho1 Tm3 B4 O16'
_cell_volume   359.87453912
_cell_formula_units_Z   1
loop_
 _symmetry_equiv_pos_site_id
 _symmetry_equiv_pos_as_xyz
  1  'x, y, z'
loop_
 _atom_site_type_symbol
 _atom_site_label
 _atom_site_symmetry_multiplicity
 _atom_site_fract_x
 _atom_site_fract_y
 _atom_site_fract_z
 _atom_site_occupancy
  Ca  Ca0  1  0.250000  0.669353  0.083881  1
  Ca  Ca1  1  0.750000  0.330786  0.915556  1
  Ca  Ca2  1  0.750000  0.169719  0.416315  1
  Ca  Ca3  1  0.250000  0.830360  0.584139  1
  Ho  Ho4  1  0.250000  0.086768  0.111391  1
  Tm  Tm5  1  0.750000  0.913147  0.888304  1
  Tm  Tm6  1  0.750000  0.586463  0.389055  1
  Tm  Tm7  1  0.250000  0.413587  0.611034  1
  B  B8  1  0.250000  0.367733  0.200709  1
  B  B9  1  0.750000  0.632754  0.799725  1
  B  B10  1  0.750000  0.866769  0.300184  1
  B  B11  1  0.250000  0.132856  0.700300  1
  O  O12  1  0.250000  0.499669  0.254020  1
  O  O13  1  0.750000  0.500954  0.745873  1
  O  O14  1  0.750000  0.998857  0.246950  1
  O  O15  1  0.250000  0.000872  0.753892  1
  O  O16  1  0.250000  0.247644  0.275587  1
  O  O17  1  0.750000  0.753574  0.725693  1
  O  O18  1  0.750000  0.746361  0.225931  1
  O  O19  1  0.250000  0.253735  0.774069  1
  O  O20  1  0.250000  0.351550  0.068069  1
  O  O21  1  0.750000  0.648313  0.932253  1
  O  O22  1  0.750000  0.850749  0.432688  1
  O  O23  1  0.250000  0.148802  0.567691  1
  O  O24  1  0.250000  0.612970  0.505509  1
  O  O25  1  0.750000  0.387102  0.494617  1
  O  O26  1  0.750000  0.112968  0.992105  1
  O  O27  1  0.250000  0.885585  0.004458  1
