# generated using pymatgen
data_LiNd4B4Rh9
_symmetry_space_group_name_H-M   'P 1'
_cell_length_a   5.53942601
_cell_length_b   5.53942679
_cell_length_c   20.98671900
_cell_angle_alpha   90.00000000
_cell_angle_beta   90.00000000
_cell_angle_gamma   120.00246844
_symmetry_Int_Tables_number   1
_chemical_formula_structural   LiNd4B4Rh9
_chemical_formula_sum   'Li2 Nd8 B8 Rh18'
_cell_volume   557.69142820
_cell_formula_units_Z   2
loop_
 _symmetry_equiv_pos_site_id
 _symmetry_equiv_pos_as_xyz
  1  'x, y, z'
loop_
 _atom_site_type_symbol
 _atom_site_label
 _atom_site_symmetry_multiplicity
 _atom_site_fract_x
 _atom_site_fract_y
 _atom_site_fract_z
 _atom_site_occupancy
  Li  Li0  1  0.000000  0.000000  0.500000  1
  Li  Li1  1  0.000000  0.000000  0.000000  1
  Nd  Nd2  1  0.666672  0.333328  0.524494  1
  Nd  Nd3  1  0.333328  0.666672  0.475506  1
  Nd  Nd4  1  0.333328  0.666672  0.024494  1
  Nd  Nd5  1  0.666672  0.333328  0.975506  1
  Nd  Nd6  1  0.666644  0.333356  0.674677  1
  Nd  Nd7  1  0.333356  0.666644  0.325323  1
  Nd  Nd8  1  0.333356  0.666644  0.174677  1
  Nd  Nd9  1  0.666644  0.333356  0.825323  1
  B  B10  1  0.999979  0.000021  0.673815  1
  B  B11  1  0.000021  0.999979  0.326185  1
  B  B12  1  0.000021  0.999979  0.173815  1
  B  B13  1  0.999979  0.000021  0.826185  1
  B  B14  1  0.666699  0.333301  0.326337  1
  B  B15  1  0.333301  0.666699  0.673663  1
  B  B16  1  0.333301  0.666699  0.826337  1
  B  B17  1  0.666699  0.333301  0.173663  1
  Rh  Rh18  1  0.166519  0.333102  0.750000  1
  Rh  Rh19  1  0.166523  0.833477  0.750000  1
  Rh  Rh20  1  0.666898  0.833481  0.750000  1
  Rh  Rh21  1  0.833481  0.666898  0.250000  1
  Rh  Rh22  1  0.833477  0.166523  0.250000  1
  Rh  Rh23  1  0.333102  0.166519  0.250000  1
  Rh  Rh24  1  0.166963  0.334011  0.605845  1
  Rh  Rh25  1  0.166965  0.833035  0.605826  1
  Rh  Rh26  1  0.665989  0.833037  0.605845  1
  Rh  Rh27  1  0.833037  0.665989  0.394155  1
  Rh  Rh28  1  0.833035  0.166965  0.394174  1
  Rh  Rh29  1  0.334011  0.166963  0.394155  1
  Rh  Rh30  1  0.833037  0.665989  0.105845  1
  Rh  Rh31  1  0.833035  0.166965  0.105826  1
  Rh  Rh32  1  0.334011  0.166963  0.105845  1
  Rh  Rh33  1  0.166963  0.334011  0.894155  1
  Rh  Rh34  1  0.166965  0.833035  0.894174  1
  Rh  Rh35  1  0.665989  0.833037  0.894155  1
