# generated using pymatgen
data_Tb5Dy2FeI12
_symmetry_space_group_name_H-M   'P 1'
_cell_length_a   9.79762856
_cell_length_b   9.78308336
_cell_length_c   9.74651856
_cell_angle_alpha   107.06133979
_cell_angle_beta   106.81249656
_cell_angle_gamma   107.10511494
_symmetry_Int_Tables_number   1
_chemical_formula_structural   Tb5Dy2FeI12
_chemical_formula_sum   'Tb5 Dy2 Fe1 I12'
_cell_volume   778.16641982
_cell_formula_units_Z   1
loop_
 _symmetry_equiv_pos_site_id
 _symmetry_equiv_pos_as_xyz
  1  'x, y, z'
loop_
 _atom_site_type_symbol
 _atom_site_label
 _atom_site_symmetry_multiplicity
 _atom_site_fract_x
 _atom_site_fract_y
 _atom_site_fract_z
 _atom_site_occupancy
  Tb  Tb0  1  0.020238  0.089156  0.280159  1
  Tb  Tb1  1  0.291901  0.021850  0.092038  1
  Tb  Tb2  1  0.906299  0.706665  0.978428  1
  Tb  Tb3  1  0.979934  0.911326  0.719941  1
  Tb  Tb4  1  0.708168  0.977997  0.908015  1
  Dy  Dy5  1  0.499940  0.500090  0.499824  1
  Dy  Dy6  1  0.093128  0.291478  0.021435  1
  Fe  Fe7  1  0.000385  0.000348  0.000342  1
  I  I8  1  0.462115  0.385940  0.159957  1
  I  I9  1  0.161049  0.461209  0.384738  1
  I  I10  1  0.382715  0.160773  0.461143  1
  I  I11  1  0.536665  0.614000  0.839396  1
  I  I12  1  0.838833  0.538913  0.613949  1
  I  I13  1  0.617322  0.839470  0.538957  1
  I  I14  1  0.775340  0.320625  0.927662  1
  I  I15  1  0.928674  0.776127  0.320362  1
  I  I16  1  0.318619  0.926613  0.772315  1
  I  I17  1  0.225643  0.678888  0.072509  1
  I  I18  1  0.071680  0.225043  0.681134  1
  I  I19  1  0.681352  0.073489  0.227696  1
