# generated using pymatgen
data_Hf2GaGeMo2
_symmetry_space_group_name_H-M   'P 1'
_cell_length_a   3.52525000
_cell_length_b   7.05803400
_cell_length_c   8.41100700
_cell_angle_alpha   90.00000000
_cell_angle_beta   90.00000000
_cell_angle_gamma   90.00000000
_symmetry_Int_Tables_number   1
_chemical_formula_structural   Hf2GaGeMo2
_chemical_formula_sum   'Hf4 Ga2 Ge2 Mo4'
_cell_volume   209.27707746
_cell_formula_units_Z   2
loop_
 _symmetry_equiv_pos_site_id
 _symmetry_equiv_pos_as_xyz
  1  'x, y, z'
loop_
 _atom_site_type_symbol
 _atom_site_label
 _atom_site_symmetry_multiplicity
 _atom_site_fract_x
 _atom_site_fract_y
 _atom_site_fract_z
 _atom_site_occupancy
  Hf  Hf0  1  0.250000  0.552157  0.166259  1
  Hf  Hf1  1  0.250000  0.052157  0.333741  1
  Hf  Hf2  1  0.750000  0.447525  0.834900  1
  Hf  Hf3  1  0.750000  0.947525  0.665100  1
  Ga  Ga4  1  0.250000  0.749285  0.861448  1
  Ga  Ga5  1  0.250000  0.249285  0.638552  1
  Ge  Ge6  1  0.750000  0.251227  0.138022  1
  Ge  Ge7  1  0.750000  0.751227  0.361978  1
  Mo  Mo8  1  0.250000  0.626527  0.559541  1
  Mo  Mo9  1  0.250000  0.126527  0.940459  1
  Mo  Mo10  1  0.750000  0.373279  0.436539  1
  Mo  Mo11  1  0.750000  0.873279  0.063461  1
