# generated using pymatgen
data_Er8Tm12(Ir3Rh)3
_symmetry_space_group_name_H-M   'P 1'
_cell_length_a   10.74906700
_cell_length_b   10.74906700
_cell_length_c   6.32681800
_cell_angle_alpha   90.00000000
_cell_angle_beta   90.00000000
_cell_angle_gamma   90.00000000
_symmetry_Int_Tables_number   1
_chemical_formula_structural   Er8Tm12(Ir3Rh)3
_chemical_formula_sum   'Er8 Tm12 Ir9 Rh3'
_cell_volume   731.01599783
_cell_formula_units_Z   1
loop_
 _symmetry_equiv_pos_site_id
 _symmetry_equiv_pos_as_xyz
  1  'x, y, z'
loop_
 _atom_site_type_symbol
 _atom_site_label
 _atom_site_symmetry_multiplicity
 _atom_site_fract_x
 _atom_site_fract_y
 _atom_site_fract_z
 _atom_site_occupancy
  Er  Er0  1  0.290162  0.088239  0.377822  1
  Er  Er1  1  0.290103  0.911484  0.877622  1
  Er  Er2  1  0.709897  0.088516  0.877622  1
  Er  Er3  1  0.709838  0.911761  0.377822  1
  Er  Er4  1  0.588516  0.790103  0.877622  1
  Er  Er5  1  0.588239  0.209838  0.377822  1
  Er  Er6  1  0.411761  0.790162  0.377822  1
  Er  Er7  1  0.411484  0.209897  0.877622  1
  Tm  Tm8  1  0.208552  0.412195  0.620643  1
  Tm  Tm9  1  0.208852  0.588020  0.122871  1
  Tm  Tm10  1  0.791148  0.411980  0.122871  1
  Tm  Tm11  1  0.791448  0.587805  0.620643  1
  Tm  Tm12  1  0.911980  0.708852  0.122871  1
  Tm  Tm13  1  0.912195  0.291448  0.620643  1
  Tm  Tm14  1  0.087805  0.708552  0.620643  1
  Tm  Tm15  1  0.088020  0.291148  0.122871  1
  Tm  Tm16  1  0.000000  0.000000  0.500768  1
  Tm  Tm17  1  0.000000  0.000000  0.000578  1
  Tm  Tm18  1  0.500000  0.500000  0.000578  1
  Tm  Tm19  1  0.500000  0.500000  0.500768  1
  Ir  Ir20  1  0.846304  0.153469  0.249979  1
  Ir  Ir21  1  0.846501  0.846174  0.750173  1
  Ir  Ir22  1  0.153499  0.153826  0.750173  1
  Ir  Ir23  1  0.153696  0.846531  0.249979  1
  Ir  Ir24  1  0.653826  0.346501  0.750173  1
  Ir  Ir25  1  0.653469  0.653696  0.249979  1
  Ir  Ir26  1  0.346531  0.346304  0.249979  1
  Ir  Ir27  1  0.346174  0.653499  0.750173  1
  Ir  Ir28  1  0.000000  0.500000  0.376170  1
  Rh  Rh29  1  0.500000  0.000000  0.123798  1
  Rh  Rh30  1  0.500000  0.000000  0.623941  1
  Rh  Rh31  1  0.000000  0.500000  0.876959  1
