# generated using pymatgen
data_Yb4HoMo3(P3Ir4)4
_symmetry_space_group_name_H-M   'P 1'
_cell_length_a   12.66871200
_cell_length_b   12.66871300
_cell_length_c   3.99101600
_cell_angle_alpha   90.00000000
_cell_angle_beta   90.00000000
_cell_angle_gamma   120.00000262
_symmetry_Int_Tables_number   1
_chemical_formula_structural   Yb4HoMo3(P3Ir4)4
_chemical_formula_sum   'Yb4 Ho1 Mo3 P12 Ir16'
_cell_volume   554.72667483
_cell_formula_units_Z   1
loop_
 _symmetry_equiv_pos_site_id
 _symmetry_equiv_pos_as_xyz
  1  'x, y, z'
loop_
 _atom_site_type_symbol
 _atom_site_label
 _atom_site_symmetry_multiplicity
 _atom_site_fract_x
 _atom_site_fract_y
 _atom_site_fract_z
 _atom_site_occupancy
  Yb  Yb0  1  0.666667  0.333333  0.500000  1
  Yb  Yb1  1  0.000333  0.816127  0.000000  1
  Yb  Yb2  1  0.183873  0.184206  0.000000  1
  Yb  Yb3  1  0.815794  0.999667  0.000000  1
  Ho  Ho4  1  0.333333  0.666667  0.500000  1
  Mo  Mo5  1  0.001094  0.454697  0.500000  1
  Mo  Mo6  1  0.545303  0.546397  0.500000  1
  Mo  Mo7  1  0.453603  0.998906  0.500000  1
  P  P8  1  0.998828  0.638529  0.500000  1
  P  P9  1  0.361471  0.360300  0.500000  1
  P  P10  1  0.639700  0.001172  0.500000  1
  P  P11  1  0.518207  0.685464  0.000000  1
  P  P12  1  0.314536  0.832741  0.000000  1
  P  P13  1  0.167259  0.481793  0.000000  1
  P  P14  1  0.483952  0.168706  0.000000  1
  P  P15  1  0.684753  0.516048  0.000000  1
  P  P16  1  0.831294  0.315247  0.000000  1
  P  P17  1  0.999978  0.178566  0.500000  1
  P  P18  1  0.821434  0.821411  0.500000  1
  P  P19  1  0.178589  0.000022  0.500000  1
  Ir  Ir20  1  0.507109  0.865026  0.000000  1
  Ir  Ir21  1  0.134974  0.642084  0.000000  1
  Ir  Ir22  1  0.357916  0.492891  0.000000  1
  Ir  Ir23  1  0.489371  0.357783  0.000000  1
  Ir  Ir24  1  0.868413  0.510629  0.000000  1
  Ir  Ir25  1  0.642217  0.131587  0.000000  1
  Ir  Ir26  1  0.999717  0.285184  0.000000  1
  Ir  Ir27  1  0.714816  0.714534  0.000000  1
  Ir  Ir28  1  0.285466  0.000283  0.000000  1
  Ir  Ir29  1  0.624469  0.804490  0.500000  1
  Ir  Ir30  1  0.195510  0.819979  0.500000  1
  Ir  Ir31  1  0.180021  0.375531  0.500000  1
  Ir  Ir32  1  0.375425  0.179097  0.500000  1
  Ir  Ir33  1  0.803673  0.624575  0.500000  1
  Ir  Ir34  1  0.820903  0.196327  0.500000  1
  Ir  Ir35  1  0.000000  0.000000  0.500000  1
