# generated using pymatgen
data_Sr2Si3GeIr4
_symmetry_space_group_name_H-M   'P 1'
_cell_length_a   4.17256500
_cell_length_b   4.17256500
_cell_length_c   10.55937700
_cell_angle_alpha   90.00000000
_cell_angle_beta   90.00000000
_cell_angle_gamma   90.00000000
_symmetry_Int_Tables_number   1
_chemical_formula_structural   Sr2Si3GeIr4
_chemical_formula_sum   'Sr2 Si3 Ge1 Ir4'
_cell_volume   183.84190744
_cell_formula_units_Z   1
loop_
 _symmetry_equiv_pos_site_id
 _symmetry_equiv_pos_as_xyz
  1  'x, y, z'
loop_
 _atom_site_type_symbol
 _atom_site_label
 _atom_site_symmetry_multiplicity
 _atom_site_fract_x
 _atom_site_fract_y
 _atom_site_fract_z
 _atom_site_occupancy
  Sr  Sr0  1  0.000000  0.000000  0.999915  1
  Sr  Sr1  1  0.500000  0.500000  0.500557  1
  Si  Si2  1  0.000000  0.000000  0.630881  1
  Si  Si3  1  0.000000  0.000000  0.370264  1
  Si  Si4  1  0.500000  0.500000  0.862800  1
  Ge  Ge5  1  0.500000  0.500000  0.125555  1
  Ir  Ir6  1  0.000000  0.500000  0.256339  1
  Ir  Ir7  1  0.500000  0.000000  0.748677  1
  Ir  Ir8  1  0.500000  0.000000  0.256339  1
  Ir  Ir9  1  0.000000  0.500000  0.748677  1
