# generated using pymatgen
data_U6MnVSb10
_symmetry_space_group_name_H-M   'P 1'
_cell_length_a   9.12134800
_cell_length_b   9.12134793
_cell_length_c   6.09576800
_cell_angle_alpha   90.00000000
_cell_angle_beta   90.00000000
_cell_angle_gamma   120.00000027
_symmetry_Int_Tables_number   1
_chemical_formula_structural   U6MnVSb10
_chemical_formula_sum   'U6 Mn1 V1 Sb10'
_cell_volume   439.21494321
_cell_formula_units_Z   1
loop_
 _symmetry_equiv_pos_site_id
 _symmetry_equiv_pos_as_xyz
  1  'x, y, z'
loop_
 _atom_site_type_symbol
 _atom_site_label
 _atom_site_symmetry_multiplicity
 _atom_site_fract_x
 _atom_site_fract_y
 _atom_site_fract_z
 _atom_site_occupancy
  U  U0  1  0.388145  0.388145  0.753406  1
  U  U1  1  0.611855  0.000000  0.753406  1
  U  U2  1  0.000000  0.611855  0.753406  1
  U  U3  1  0.611855  0.611855  0.246594  1
  U  U4  1  0.388145  0.000000  0.246594  1
  U  U5  1  0.000000  0.388145  0.246594  1
  Mn  Mn6  1  0.000000  0.000000  0.000000  1
  V  V7  1  0.000000  0.000000  0.500000  1
  Sb  Sb8  1  0.741934  0.741934  0.746819  1
  Sb  Sb9  1  0.258066  0.000000  0.746819  1
  Sb  Sb10  1  0.000000  0.258066  0.746819  1
  Sb  Sb11  1  0.258066  0.258066  0.253181  1
  Sb  Sb12  1  0.741934  0.000000  0.253181  1
  Sb  Sb13  1  0.000000  0.741934  0.253181  1
  Sb  Sb14  1  0.666667  0.333333  0.000000  1
  Sb  Sb15  1  0.333333  0.666667  0.000000  1
  Sb  Sb16  1  0.333333  0.666667  0.500000  1
  Sb  Sb17  1  0.666667  0.333333  0.500000  1
