# generated using pymatgen
data_Y3Er13In4(RuRh)2
_symmetry_space_group_name_H-M   'P 1'
_cell_length_a   9.60324669
_cell_length_b   9.60203593
_cell_length_c   9.64586603
_cell_angle_alpha   59.75108134
_cell_angle_beta   59.74174017
_cell_angle_gamma   59.92519279
_symmetry_Int_Tables_number   1
_chemical_formula_structural   Y3Er13In4(RuRh)2
_chemical_formula_sum   'Y3 Er13 In4 Ru2 Rh2'
_cell_volume   626.16396594
_cell_formula_units_Z   1
loop_
 _symmetry_equiv_pos_site_id
 _symmetry_equiv_pos_as_xyz
  1  'x, y, z'
loop_
 _atom_site_type_symbol
 _atom_site_label
 _atom_site_symmetry_multiplicity
 _atom_site_fract_x
 _atom_site_fract_y
 _atom_site_fract_z
 _atom_site_occupancy
  Y  Y0  1  0.187922  0.192773  0.811502  1
  Y  Y1  1  0.437851  0.063851  0.062165  1
  Y  Y2  1  0.440865  0.062646  0.434296  1
  Er  Er3  1  0.062053  0.440042  0.060490  1
  Er  Er4  1  0.649695  0.043186  0.652023  1
  Er  Er5  1  0.193940  0.806662  0.807639  1
  Er  Er6  1  0.056937  0.056472  0.441902  1
  Er  Er7  1  0.809621  0.193149  0.193663  1
  Er  Er8  1  0.810929  0.809643  0.192504  1
  Er  Er9  1  0.653451  0.652442  0.048038  1
  Er  Er10  1  0.654364  0.651663  0.643677  1
  Er  Er11  1  0.061395  0.442183  0.435756  1
  Er  Er12  1  0.041051  0.648676  0.653129  1
  Er  Er13  1  0.808509  0.194860  0.806875  1
  Er  Er14  1  0.449805  0.443654  0.053253  1
  Er  Er15  1  0.191084  0.807616  0.195780  1
  In  In16  1  0.417080  0.747208  0.417313  1
  In  In17  1  0.415458  0.416665  0.748294  1
  In  In18  1  0.751441  0.415555  0.415777  1
  In  In19  1  0.413801  0.416939  0.421361  1
  Ru  Ru20  1  0.846520  0.425066  0.863087  1
  Ru  Ru21  1  0.859946  0.859036  0.420803  1
  Rh  Rh22  1  0.424731  0.848744  0.862744  1
  Rh  Rh23  1  0.861546  0.861268  0.857931  1
