# generated using pymatgen
data_TbHo7(Tm3Pt4)4
_symmetry_space_group_name_H-M   'P 1'
_cell_length_a   7.42292502
_cell_length_b   7.51426502
_cell_length_c   14.62561201
_cell_angle_alpha   89.99721009
_cell_angle_beta   89.99779159
_cell_angle_gamma   90.00866116
_symmetry_Int_Tables_number   1
_chemical_formula_structural   TbHo7(Tm3Pt4)4
_chemical_formula_sum   'Tb1 Ho7 Tm12 Pt16'
_cell_volume   815.78482889
_cell_formula_units_Z   1
loop_
 _symmetry_equiv_pos_site_id
 _symmetry_equiv_pos_as_xyz
  1  'x, y, z'
loop_
 _atom_site_type_symbol
 _atom_site_label
 _atom_site_symmetry_multiplicity
 _atom_site_fract_x
 _atom_site_fract_y
 _atom_site_fract_z
 _atom_site_occupancy
  Tb  Tb0  1  0.500876  0.679538  0.592573  1
  Ho  Ho1  1  0.001162  0.820296  0.907350  1
  Ho  Ho2  1  0.498849  0.320305  0.092615  1
  Ho  Ho3  1  0.998875  0.179665  0.407387  1
  Ho  Ho4  1  0.498823  0.320174  0.407320  1
  Ho  Ho5  1  0.998880  0.179707  0.092605  1
  Ho  Ho6  1  0.501170  0.679697  0.907341  1
  Ho  Ho7  1  0.001136  0.820376  0.592676  1
  Tm  Tm8  1  0.656878  0.167719  0.622634  1
  Tm  Tm9  1  0.156795  0.332265  0.877398  1
  Tm  Tm10  1  0.343199  0.832273  0.122613  1
  Tm  Tm11  1  0.843271  0.667748  0.377348  1
  Tm  Tm12  1  0.343053  0.832391  0.377287  1
  Tm  Tm13  1  0.843184  0.667701  0.122621  1
  Tm  Tm14  1  0.656832  0.167691  0.877399  1
  Tm  Tm15  1  0.156632  0.332138  0.622645  1
  Tm  Tm16  1  0.819425  0.510979  0.750088  1
  Tm  Tm17  1  0.319191  0.989056  0.750069  1
  Tm  Tm18  1  0.180733  0.488936  0.249994  1
  Tm  Tm19  1  0.680700  0.011048  0.249994  1
  Pt  Pt20  1  0.683407  0.966905  0.458259  1
  Pt  Pt21  1  0.183320  0.533302  0.041665  1
  Pt  Pt22  1  0.316660  0.033316  0.958319  1
  Pt  Pt23  1  0.817177  0.466364  0.541594  1
  Pt  Pt24  1  0.316545  0.033708  0.541586  1
  Pt  Pt25  1  0.816684  0.466730  0.958321  1
  Pt  Pt26  1  0.683298  0.966709  0.041657  1
  Pt  Pt27  1  0.183174  0.533175  0.458223  1
  Pt  Pt28  1  0.454249  0.386083  0.750111  1
  Pt  Pt29  1  0.954319  0.113779  0.750004  1
  Pt  Pt30  1  0.545710  0.613725  0.250001  1
  Pt  Pt31  1  0.045711  0.886268  0.250001  1
  Pt  Pt32  1  0.682861  0.856967  0.750215  1
  Pt  Pt33  1  0.182443  0.643263  0.750098  1
  Pt  Pt34  1  0.317387  0.143284  0.249996  1
  Pt  Pt35  1  0.817393  0.356718  0.249994  1
