# generated using pymatgen
data_Na3Dy(ZnPt3)2
_symmetry_space_group_name_H-M   'P 1'
_cell_length_a   5.44908200
_cell_length_b   5.44908212
_cell_length_c   8.32609700
_cell_angle_alpha   90.00000000
_cell_angle_beta   90.00000000
_cell_angle_gamma   120.00001142
_symmetry_Int_Tables_number   1
_chemical_formula_structural   Na3Dy(ZnPt3)2
_chemical_formula_sum   'Na3 Dy1 Zn2 Pt6'
_cell_volume   214.10102389
_cell_formula_units_Z   1
loop_
 _symmetry_equiv_pos_site_id
 _symmetry_equiv_pos_as_xyz
  1  'x, y, z'
loop_
 _atom_site_type_symbol
 _atom_site_label
 _atom_site_symmetry_multiplicity
 _atom_site_fract_x
 _atom_site_fract_y
 _atom_site_fract_z
 _atom_site_occupancy
  Na  Na0  1  0.333333  0.666666  0.449242  1
  Na  Na1  1  0.666667  0.333333  0.570362  1
  Na  Na2  1  0.666667  0.333333  0.917416  1
  Dy  Dy3  1  0.333333  0.666666  0.073142  1
  Zn  Zn4  1  0.000000  0.000000  0.997131  1
  Zn  Zn5  1  0.000000  0.000000  0.498555  1
  Pt  Pt6  1  0.339637  0.169818  0.242072  1
  Pt  Pt7  1  0.830180  0.169818  0.242072  1
  Pt  Pt8  1  0.830183  0.660364  0.242072  1
  Pt  Pt9  1  0.169582  0.339162  0.755978  1
  Pt  Pt10  1  0.169581  0.830419  0.755978  1
  Pt  Pt11  1  0.660838  0.830419  0.755978  1
