# generated using pymatgen
data_Tb10Y6MgCo4Hg3
_symmetry_space_group_name_H-M   'P 1'
_cell_length_a   9.53414292
_cell_length_b   9.53652170
_cell_length_c   9.53652300
_cell_angle_alpha   59.99999896
_cell_angle_beta   59.99174517
_cell_angle_gamma   59.99174727
_symmetry_Int_Tables_number   1
_chemical_formula_structural   Tb10Y6MgCo4Hg3
_chemical_formula_sum   'Tb10 Y6 Mg1 Co4 Hg3'
_cell_volume   613.04524243
_cell_formula_units_Z   1
loop_
 _symmetry_equiv_pos_site_id
 _symmetry_equiv_pos_as_xyz
  1  'x, y, z'
loop_
 _atom_site_type_symbol
 _atom_site_label
 _atom_site_symmetry_multiplicity
 _atom_site_fract_x
 _atom_site_fract_y
 _atom_site_fract_z
 _atom_site_occupancy
  Tb  Tb0  1  0.347390  0.345356  0.345356  1
  Tb  Tb1  1  0.347390  0.345356  0.961898  1
  Tb  Tb2  1  0.347390  0.961898  0.345356  1
  Tb  Tb3  1  0.952689  0.349103  0.349103  1
  Tb  Tb4  1  0.810023  0.189455  0.189455  1
  Tb  Tb5  1  0.185545  0.813579  0.813579  1
  Tb  Tb6  1  0.185545  0.813579  0.187297  1
  Tb  Tb7  1  0.810023  0.189455  0.811067  1
  Tb  Tb8  1  0.185545  0.187297  0.813579  1
  Tb  Tb9  1  0.810023  0.811067  0.189455  1
  Y  Y10  1  0.936771  0.562514  0.562514  1
  Y  Y11  1  0.561832  0.937549  0.937549  1
  Y  Y12  1  0.561832  0.937549  0.563071  1
  Y  Y13  1  0.936771  0.562514  0.938202  1
  Y  Y14  1  0.561832  0.563071  0.937549  1
  Y  Y15  1  0.936771  0.938202  0.562514  1
  Mg  Mg16  1  0.286419  0.571194  0.571194  1
  Co  Co17  1  0.138443  0.142166  0.142166  1
  Co  Co18  1  0.138443  0.142166  0.577225  1
  Co  Co19  1  0.138443  0.577225  0.142166  1
  Co  Co20  1  0.576733  0.141089  0.141089  1
  Hg  Hg21  1  0.581383  0.585310  0.585310  1
  Hg  Hg22  1  0.581383  0.585310  0.247999  1
  Hg  Hg23  1  0.581383  0.247999  0.585310  1
