# generated using pymatgen
data_Ce3Co3Os
_symmetry_space_group_name_H-M   'P 1'
_cell_length_a   4.79940492
_cell_length_b   4.79940573
_cell_length_c   13.90414900
_cell_angle_alpha   90.00000000
_cell_angle_beta   90.00000000
_cell_angle_gamma   124.62609325
_symmetry_Int_Tables_number   1
_chemical_formula_structural   Ce3Co3Os
_chemical_formula_sum   'Ce6 Co6 Os2'
_cell_volume   263.54486182
_cell_formula_units_Z   2
loop_
 _symmetry_equiv_pos_site_id
 _symmetry_equiv_pos_as_xyz
  1  'x, y, z'
loop_
 _atom_site_type_symbol
 _atom_site_label
 _atom_site_symmetry_multiplicity
 _atom_site_fract_x
 _atom_site_fract_y
 _atom_site_fract_z
 _atom_site_occupancy
  Ce  Ce0  1  0.267042  0.732956  0.097455  1
  Ce  Ce1  1  0.944587  0.055411  0.250000  1
  Ce  Ce2  1  0.267042  0.732956  0.402546  1
  Ce  Ce3  1  0.732956  0.267042  0.597455  1
  Ce  Ce4  1  0.055411  0.944587  0.750000  1
  Ce  Ce5  1  0.732956  0.267042  0.902546  1
  Co  Co6  1  0.532418  0.467580  0.092490  1
  Co  Co7  1  0.685995  0.314003  0.250000  1
  Co  Co8  1  0.532418  0.467580  0.407510  1
  Co  Co9  1  0.467580  0.532418  0.592490  1
  Co  Co10  1  0.314003  0.685995  0.750000  1
  Co  Co11  1  0.467580  0.532418  0.907510  1
  Os  Os12  1  0.000000  0.000000  0.000000  1
  Os  Os13  1  0.000000  0.000000  0.500000  1
