# generated using pymatgen
data_Er10SnBi5P2
_symmetry_space_group_name_H-M   'P 1'
_cell_length_a   9.11087000
_cell_length_b   9.10812560
_cell_length_c   6.61524300
_cell_angle_alpha   90.00000000
_cell_angle_beta   90.00000000
_cell_angle_gamma   119.99003604
_symmetry_Int_Tables_number   1
_chemical_formula_structural   Er10SnBi5P2
_chemical_formula_sum   'Er10 Sn1 Bi5 P2'
_cell_volume   475.45442121
_cell_formula_units_Z   1
loop_
 _symmetry_equiv_pos_site_id
 _symmetry_equiv_pos_as_xyz
  1  'x, y, z'
loop_
 _atom_site_type_symbol
 _atom_site_label
 _atom_site_symmetry_multiplicity
 _atom_site_fract_x
 _atom_site_fract_y
 _atom_site_fract_z
 _atom_site_occupancy
  Er  Er0  1  0.670475  0.333963  0.002001  1
  Er  Er1  1  0.329525  0.663487  0.002001  1
  Er  Er2  1  0.329525  0.663487  0.497999  1
  Er  Er3  1  0.670475  0.333963  0.497999  1
  Er  Er4  1  0.762875  0.763023  0.750000  1
  Er  Er5  1  0.237125  0.000148  0.750000  1
  Er  Er6  1  0.000000  0.237876  0.750000  1
  Er  Er7  1  0.233591  0.239894  0.250000  1
  Er  Er8  1  0.766409  0.006302  0.250000  1
  Er  Er9  1  0.000000  0.760581  0.250000  1
  Sn  Sn10  1  0.000000  0.401284  0.250000  1
  Bi  Bi11  1  0.400218  0.398851  0.750000  1
  Bi  Bi12  1  0.599782  0.998633  0.750000  1
  Bi  Bi13  1  0.000000  0.599482  0.750000  1
  Bi  Bi14  1  0.601306  0.601382  0.250000  1
  Bi  Bi15  1  0.398694  0.000076  0.250000  1
  P  P16  1  0.000000  0.998783  0.999931  1
  P  P17  1  0.000000  0.998783  0.500069  1
