# generated using pymatgen
data_CsNaWF6
_symmetry_space_group_name_H-M   'P 1'
_cell_length_a   6.77864600
_cell_length_b   8.77877300
_cell_length_c   11.97203900
_cell_angle_alpha   90.00000000
_cell_angle_beta   90.00000000
_cell_angle_gamma   90.00000000
_symmetry_Int_Tables_number   1
_chemical_formula_structural   CsNaWF6
_chemical_formula_sum   'Cs4 Na4 W4 F24'
_cell_volume   712.43442515
_cell_formula_units_Z   4
loop_
 _symmetry_equiv_pos_site_id
 _symmetry_equiv_pos_as_xyz
  1  'x, y, z'
loop_
 _atom_site_type_symbol
 _atom_site_label
 _atom_site_symmetry_multiplicity
 _atom_site_fract_x
 _atom_site_fract_y
 _atom_site_fract_z
 _atom_site_occupancy
  Cs  Cs0  1  0.023656  0.755320  0.467344  1
  Cs  Cs1  1  0.523656  0.255320  0.032656  1
  Cs  Cs2  1  0.476344  0.755320  0.967344  1
  Cs  Cs3  1  0.976344  0.255320  0.532656  1
  Na  Na4  1  0.455960  0.503045  0.644741  1
  Na  Na5  1  0.544040  0.003045  0.355259  1
  Na  Na6  1  0.955960  0.003045  0.855259  1
  Na  Na7  1  0.044040  0.503045  0.144741  1
  W  W8  1  0.462260  0.001235  0.647742  1
  W  W9  1  0.037740  0.001235  0.147742  1
  W  W10  1  0.537740  0.501235  0.352258  1
  W  W11  1  0.962260  0.501235  0.852258  1
  F  F12  1  0.584732  0.275991  0.352311  1
  F  F13  1  0.211202  0.030466  0.732476  1
  F  F14  1  0.797140  0.977404  0.050619  1
  F  F15  1  0.496801  0.727067  0.352764  1
  F  F16  1  0.415268  0.775991  0.647689  1
  F  F17  1  0.503199  0.227067  0.647236  1
  F  F18  1  0.130291  0.481462  0.708332  1
  F  F19  1  0.297140  0.477404  0.449381  1
  F  F20  1  0.695101  0.518110  0.499893  1
  F  F21  1  0.711202  0.530466  0.767524  1
  F  F22  1  0.369709  0.481462  0.208332  1
  F  F23  1  0.869709  0.981462  0.291668  1
  F  F24  1  0.202860  0.477404  0.949381  1
  F  F25  1  0.702860  0.977404  0.550619  1
  F  F26  1  0.195101  0.018110  0.000107  1
  F  F27  1  0.996801  0.227067  0.147236  1
  F  F28  1  0.804899  0.518110  0.999893  1
  F  F29  1  0.788798  0.530466  0.267524  1
  F  F30  1  0.003199  0.727067  0.852764  1
  F  F31  1  0.288798  0.030466  0.232476  1
  F  F32  1  0.304899  0.018110  0.500107  1
  F  F33  1  0.915268  0.275991  0.852311  1
  F  F34  1  0.630291  0.981462  0.791668  1
  F  F35  1  0.084732  0.775991  0.147689  1
