# generated using pymatgen
data_Nd16Mg2CoNi2Hg2Ru
_symmetry_space_group_name_H-M   'P 1'
_cell_length_a   9.84687180
_cell_length_b   9.84097877
_cell_length_c   9.85590900
_cell_angle_alpha   59.94980378
_cell_angle_beta   59.96963899
_cell_angle_gamma   60.34207528
_symmetry_Int_Tables_number   1
_chemical_formula_structural   Nd16Mg2CoNi2Hg2Ru
_chemical_formula_sum   'Nd16 Mg2 Co1 Ni2 Hg2 Ru1'
_cell_volume   676.64733723
_cell_formula_units_Z   1
loop_
 _symmetry_equiv_pos_site_id
 _symmetry_equiv_pos_as_xyz
  1  'x, y, z'
loop_
 _atom_site_type_symbol
 _atom_site_label
 _atom_site_symmetry_multiplicity
 _atom_site_fract_x
 _atom_site_fract_y
 _atom_site_fract_z
 _atom_site_occupancy
  Nd  Nd0  1  0.600039  0.595227  0.594445  1
  Nd  Nd1  1  0.599039  0.595400  0.211995  1
  Nd  Nd2  1  0.600569  0.207776  0.596401  1
  Nd  Nd3  1  0.205076  0.599654  0.597971  1
  Nd  Nd4  1  0.187865  0.811227  0.814247  1
  Nd  Nd5  1  0.808655  0.188470  0.188235  1
  Nd  Nd6  1  0.813035  0.186208  0.813997  1
  Nd  Nd7  1  0.190174  0.806944  0.188059  1
  Nd  Nd8  1  0.814175  0.811840  0.187079  1
  Nd  Nd9  1  0.188847  0.187668  0.809268  1
  Nd  Nd10  1  0.056851  0.436691  0.440749  1
  Nd  Nd11  1  0.437691  0.060273  0.060918  1
  Nd  Nd12  1  0.437101  0.060241  0.440905  1
  Nd  Nd13  1  0.056982  0.436350  0.065902  1
  Nd  Nd14  1  0.437472  0.437668  0.061900  1
  Nd  Nd15  1  0.051478  0.058711  0.444203  1
  Mg  Mg16  1  0.830817  0.523916  0.822426  1
  Mg  Mg17  1  0.525194  0.830785  0.821856  1
  Co  Co18  1  0.824985  0.392563  0.392764  1
  Ni  Ni19  1  0.390832  0.392756  0.825368  1
  Ni  Ni20  1  0.390801  0.825100  0.393118  1
  Hg  Hg21  1  0.831100  0.831336  0.836840  1
  Hg  Hg22  1  0.831016  0.831100  0.500156  1
  Ru  Ru23  1  0.390204  0.392097  0.391199  1
