# generated using pymatgen
data_Ho8Co3Si12Ag
_symmetry_space_group_name_H-M   'P 1'
_cell_length_a   8.04790400
_cell_length_b   8.04790373
_cell_length_c   7.88398900
_cell_angle_alpha   90.00000000
_cell_angle_beta   90.00000000
_cell_angle_gamma   120.00000111
_symmetry_Int_Tables_number   1
_chemical_formula_structural   Ho8Co3Si12Ag
_chemical_formula_sum   'Ho8 Co3 Si12 Ag1'
_cell_volume   442.22388584
_cell_formula_units_Z   1
loop_
 _symmetry_equiv_pos_site_id
 _symmetry_equiv_pos_as_xyz
  1  'x, y, z'
loop_
 _atom_site_type_symbol
 _atom_site_label
 _atom_site_symmetry_multiplicity
 _atom_site_fract_x
 _atom_site_fract_y
 _atom_site_fract_z
 _atom_site_occupancy
  Ho  Ho0  1  0.000000  0.000000  0.251763  1
  Ho  Ho1  1  0.000000  0.000000  0.745446  1
  Ho  Ho2  1  0.511052  0.488948  0.256772  1
  Ho  Ho3  1  0.511052  0.022103  0.256772  1
  Ho  Ho4  1  0.977897  0.488948  0.256772  1
  Ho  Ho5  1  0.497817  0.502183  0.746114  1
  Ho  Ho6  1  0.497817  0.995635  0.746114  1
  Ho  Ho7  1  0.004365  0.502183  0.746114  1
  Co  Co8  1  0.333333  0.666667  0.473272  1
  Co  Co9  1  0.666667  0.333333  0.533644  1
  Co  Co10  1  0.666667  0.333333  0.963177  1
  Si  Si11  1  0.172344  0.827656  0.497417  1
  Si  Si12  1  0.172344  0.344688  0.497417  1
  Si  Si13  1  0.655312  0.827656  0.497417  1
  Si  Si14  1  0.829585  0.170415  0.502434  1
  Si  Si15  1  0.829585  0.659171  0.502434  1
  Si  Si16  1  0.340829  0.170415  0.502434  1
  Si  Si17  1  0.825963  0.174037  0.000064  1
  Si  Si18  1  0.825963  0.651926  0.000064  1
  Si  Si19  1  0.348074  0.174037  0.000064  1
  Si  Si20  1  0.159687  0.840313  0.996759  1
  Si  Si21  1  0.159687  0.319372  0.996759  1
  Si  Si22  1  0.680628  0.840313  0.996759  1
  Ag  Ag23  1  0.333333  0.666667  0.034016  1
