# generated using pymatgen
data_Tc5SnAs13W
_symmetry_space_group_name_H-M   'P 1'
_cell_length_a   7.68109548
_cell_length_b   7.68109575
_cell_length_c   7.68109500
_cell_angle_alpha   110.22102814
_cell_angle_beta   108.02701374
_cell_angle_gamma   110.17520632
_symmetry_Int_Tables_number   1
_chemical_formula_structural   Tc5SnAs13W
_chemical_formula_sum   'Tc5 Sn1 As13 W1'
_cell_volume   348.69133079
_cell_formula_units_Z   1
loop_
 _symmetry_equiv_pos_site_id
 _symmetry_equiv_pos_as_xyz
  1  'x, y, z'
loop_
 _atom_site_type_symbol
 _atom_site_label
 _atom_site_symmetry_multiplicity
 _atom_site_fract_x
 _atom_site_fract_y
 _atom_site_fract_z
 _atom_site_occupancy
  Tc  Tc0  1  0.339917  0.000000  0.339917  1
  Tc  Tc1  1  0.008353  0.336421  0.344775  1
  Tc  Tc2  1  0.008353  0.663579  0.671933  1
  Tc  Tc3  1  0.327737  0.336742  0.990993  1
  Tc  Tc4  1  0.654251  0.663258  0.990993  1
  Sn  Sn5  1  0.749395  0.500000  0.249395  1
  As  As6  1  0.496625  0.748633  0.245258  1
  As  As7  1  0.496625  0.251367  0.747991  1
  As  As8  1  0.756110  0.251641  0.504469  1
  As  As9  1  0.252830  0.748359  0.504469  1
  As  As10  1  0.248934  0.500000  0.748934  1
  As  As11  1  0.998643  0.995026  0.327865  1
  As  As12  1  0.672146  0.004804  0.002931  1
  As  As13  1  0.998643  0.670779  0.003617  1
  As  As14  1  0.332839  0.329221  0.327865  1
  As  As15  1  0.998128  0.330786  0.002931  1
  As  As16  1  0.672146  0.669214  0.667342  1
  As  As17  1  0.332839  0.004974  0.003617  1
  As  As18  1  0.998128  0.995196  0.667342  1
  W  W19  1  0.657358  0.000000  0.657358  1
