# generated using pymatgen
data_Ca10Hg2Pd3Au
_symmetry_space_group_name_H-M   'P 1'
_cell_length_a   9.24703543
_cell_length_b   9.24703366
_cell_length_c   9.19595800
_cell_angle_alpha   129.00180319
_cell_angle_beta   129.00179428
_cell_angle_gamma   75.41967337
_symmetry_Int_Tables_number   1
_chemical_formula_structural   Ca10Hg2Pd3Au
_chemical_formula_sum   'Ca10 Hg2 Pd3 Au1'
_cell_volume   461.11907125
_cell_formula_units_Z   1
loop_
 _symmetry_equiv_pos_site_id
 _symmetry_equiv_pos_as_xyz
  1  'x, y, z'
loop_
 _atom_site_type_symbol
 _atom_site_label
 _atom_site_symmetry_multiplicity
 _atom_site_fract_x
 _atom_site_fract_y
 _atom_site_fract_z
 _atom_site_occupancy
  Ca  Ca0  1  0.527951  0.027951  0.828701  1
  Ca  Ca1  1  0.195507  0.695507  0.162390  1
  Ca  Ca2  1  0.035466  0.194734  0.503903  1
  Ca  Ca3  1  0.694734  0.535466  0.503903  1
  Ca  Ca4  1  0.466882  0.966882  0.162390  1
  Ca  Ca5  1  0.800750  0.300750  0.828701  1
  Ca  Ca6  1  0.968437  0.809169  0.503903  1
  Ca  Ca7  1  0.309169  0.468437  0.503903  1
  Ca  Ca8  1  0.497635  0.501508  0.999144  1
  Ca  Ca9  1  0.001508  0.997635  0.999144  1
  Hg  Hg10  1  0.251077  0.251077  0.002153  1
  Hg  Hg11  1  0.751077  0.751077  0.002153  1
  Pd  Pd12  1  0.626382  0.873147  0.499528  1
  Pd  Pd13  1  0.373147  0.126382  0.499528  1
  Pd  Pd14  1  0.127377  0.627377  0.754755  1
  Au  Au15  1  0.872900  0.372900  0.245802  1
