# generated using pymatgen
data_Pr10Nd2Al2I17
_symmetry_space_group_name_H-M   'P 1'
_cell_length_a   10.08833977
_cell_length_b   12.02949815
_cell_length_c   11.86826305
_cell_angle_alpha   94.16868030
_cell_angle_beta   104.54778063
_cell_angle_gamma   115.14702657
_symmetry_Int_Tables_number   1
_chemical_formula_structural   Pr10Nd2Al2I17
_chemical_formula_sum   'Pr10 Nd2 Al2 I17'
_cell_volume   1235.24578945
_cell_formula_units_Z   1
loop_
 _symmetry_equiv_pos_site_id
 _symmetry_equiv_pos_as_xyz
  1  'x, y, z'
loop_
 _atom_site_type_symbol
 _atom_site_label
 _atom_site_symmetry_multiplicity
 _atom_site_fract_x
 _atom_site_fract_y
 _atom_site_fract_z
 _atom_site_occupancy
  Pr  Pr0  1  0.627922  0.239228  0.284992  1
  Pr  Pr1  1  0.012223  0.187417  0.428462  1
  Pr  Pr2  1  0.225128  0.662822  0.006473  1
  Pr  Pr3  1  0.278555  0.001756  0.907961  1
  Pr  Pr4  1  0.372392  0.761216  0.715128  1
  Pr  Pr5  1  0.933611  0.470980  0.666989  1
  Pr  Pr6  1  0.721675  0.998453  0.092298  1
  Pr  Pr7  1  0.163053  0.290168  0.144040  1
  Pr  Pr8  1  0.774887  0.337438  0.993328  1
  Pr  Pr9  1  0.837082  0.709927  0.856061  1
  Nd  Nd10  1  0.065940  0.528322  0.332487  1
  Nd  Nd11  1  0.988097  0.812568  0.572231  1
  Al  Al12  1  0.105748  0.736616  0.786800  1
  Al  Al13  1  0.894440  0.264147  0.212986  1
  I  I14  1  0.779349  0.529613  0.416204  1
  I  I15  1  0.629300  0.416481  0.743180  1
  I  I16  1  0.840692  0.893170  0.320534  1
  I  I17  1  0.322018  0.211343  0.370794  1
  I  I18  1  0.158754  0.105139  0.679568  1
  I  I19  1  0.587582  0.055459  0.833318  1
  I  I20  1  0.740475  0.167247  0.535906  1
  I  I21  1  0.537727  0.689595  0.953940  1
  I  I22  1  0.369324  0.583591  0.257335  1
  I  I23  1  0.222260  0.472232  0.582701  1
  I  I24  1  0.058072  0.363819  0.890625  1
  I  I25  1  0.462319  0.310480  0.046072  1
  I  I26  1  0.999994  0.000014  0.000017  1
  I  I27  1  0.257015  0.831267  0.463734  1
  I  I28  1  0.412569  0.944667  0.166767  1
  I  I29  1  0.679218  0.788840  0.628870  1
  I  I30  1  0.942581  0.635983  0.110201  1
