# generated using pymatgen
data_Li2Tm8Sc9Si16Os
_symmetry_space_group_name_H-M   'P 1'
_cell_length_a   6.86999712
_cell_length_b   7.29094702
_cell_length_c   13.84141400
_cell_angle_alpha   90.00000000
_cell_angle_beta   90.00000000
_cell_angle_gamma   90.09001959
_symmetry_Int_Tables_number   1
_chemical_formula_structural   Li2Tm8Sc9Si16Os
_chemical_formula_sum   'Li2 Tm8 Sc9 Si16 Os1'
_cell_volume   693.29875449
_cell_formula_units_Z   1
loop_
 _symmetry_equiv_pos_site_id
 _symmetry_equiv_pos_as_xyz
  1  'x, y, z'
loop_
 _atom_site_type_symbol
 _atom_site_label
 _atom_site_symmetry_multiplicity
 _atom_site_fract_x
 _atom_site_fract_y
 _atom_site_fract_z
 _atom_site_occupancy
  Li  Li0  1  0.842940  0.493290  0.250000  1
  Li  Li1  1  0.341618  0.007302  0.250000  1
  Tm  Tm2  1  0.014581  0.184361  0.094948  1
  Tm  Tm3  1  0.993158  0.818525  0.901735  1
  Tm  Tm4  1  0.490453  0.673324  0.904618  1
  Tm  Tm5  1  0.993158  0.818525  0.598265  1
  Tm  Tm6  1  0.515103  0.317745  0.097172  1
  Tm  Tm7  1  0.014581  0.184361  0.405052  1
  Tm  Tm8  1  0.515103  0.317745  0.402828  1
  Tm  Tm9  1  0.490453  0.673324  0.595382  1
  Sc  Sc10  1  0.656489  0.994912  0.750000  1
  Sc  Sc11  1  0.324957  0.176858  0.627465  1
  Sc  Sc12  1  0.670111  0.823571  0.373150  1
  Sc  Sc13  1  0.171410  0.676277  0.375077  1
  Sc  Sc14  1  0.670111  0.823571  0.126850  1
  Sc  Sc15  1  0.824054  0.331276  0.628612  1
  Sc  Sc16  1  0.324957  0.176858  0.872535  1
  Sc  Sc17  1  0.824054  0.331276  0.871388  1
  Sc  Sc18  1  0.171410  0.676277  0.124923  1
  Si  Si19  1  0.026974  0.113785  0.750000  1
  Si  Si20  1  0.974177  0.898964  0.250000  1
  Si  Si21  1  0.472806  0.599306  0.250000  1
  Si  Si22  1  0.512559  0.399703  0.750000  1
  Si  Si23  1  0.285192  0.856289  0.750000  1
  Si  Si24  1  0.722575  0.125005  0.250000  1
  Si  Si25  1  0.218483  0.376004  0.250000  1
  Si  Si26  1  0.794900  0.632495  0.750000  1
  Si  Si27  1  0.155131  0.465862  0.547320  1
  Si  Si28  1  0.839760  0.538143  0.466192  1
  Si  Si29  1  0.341092  0.962350  0.466035  1
  Si  Si30  1  0.839760  0.538143  0.033808  1
  Si  Si31  1  0.659963  0.033545  0.538921  1
  Si  Si32  1  0.155131  0.465862  0.952680  1
  Si  Si33  1  0.659963  0.033545  0.961079  1
  Si  Si34  1  0.341092  0.962350  0.033965  1
  Os  Os35  1  0.151741  0.499276  0.750000  1
