# generated using pymatgen
data_Ho7Lu9(InRh)4
_symmetry_space_group_name_H-M   'P 1'
_cell_length_a   9.52272719
_cell_length_b   9.51271191
_cell_length_c   9.52272700
_cell_angle_alpha   59.96517063
_cell_angle_beta   60.00000412
_cell_angle_gamma   59.96516725
_symmetry_Int_Tables_number   1
_chemical_formula_structural   Ho7Lu9(InRh)4
_chemical_formula_sum   'Ho7 Lu9 In4 Rh4'
_cell_volume   609.65366962
_cell_formula_units_Z   1
loop_
 _symmetry_equiv_pos_site_id
 _symmetry_equiv_pos_as_xyz
  1  'x, y, z'
loop_
 _atom_site_type_symbol
 _atom_site_label
 _atom_site_symmetry_multiplicity
 _atom_site_fract_x
 _atom_site_fract_y
 _atom_site_fract_z
 _atom_site_occupancy
  Ho  Ho0  1  0.650118  0.049645  0.650118  1
  Ho  Ho1  1  0.061028  0.439112  0.438829  1
  Ho  Ho2  1  0.438109  0.061711  0.062070  1
  Ho  Ho3  1  0.438110  0.061709  0.438110  1
  Ho  Ho4  1  0.438829  0.439112  0.061028  1
  Ho  Ho5  1  0.061030  0.439111  0.061030  1
  Ho  Ho6  1  0.062070  0.061711  0.438109  1
  Lu  Lu7  1  0.187013  0.812744  0.813228  1
  Lu  Lu8  1  0.813536  0.186772  0.186154  1
  Lu  Lu9  1  0.813538  0.186770  0.813538  1
  Lu  Lu10  1  0.813228  0.812744  0.187013  1
  Lu  Lu11  1  0.187015  0.812742  0.187015  1
  Lu  Lu12  1  0.186154  0.186772  0.813536  1
  Lu  Lu13  1  0.650276  0.650588  0.650276  1
  Lu  Lu14  1  0.650276  0.650588  0.048858  1
  Lu  Lu15  1  0.048858  0.650588  0.650276  1
  In  In16  1  0.416612  0.417330  0.416612  1
  In  In17  1  0.416612  0.417330  0.749445  1
  In  In18  1  0.749445  0.417330  0.416612  1
  In  In19  1  0.416800  0.749598  0.416800  1
  Rh  Rh20  1  0.858401  0.855536  0.858401  1
  Rh  Rh21  1  0.858401  0.855536  0.427662  1
  Rh  Rh22  1  0.427662  0.855536  0.858401  1
  Rh  Rh23  1  0.856874  0.429378  0.856874  1
