# generated using pymatgen
data_La2GdIn3O9
_symmetry_space_group_name_H-M   'P 1'
_cell_length_a   6.57799800
_cell_length_b   6.57799941
_cell_length_c   12.53579800
_cell_angle_alpha   90.00000000
_cell_angle_beta   90.00000000
_cell_angle_gamma   119.99999292
_symmetry_Int_Tables_number   1
_chemical_formula_structural   La2GdIn3O9
_chemical_formula_sum   'La4 Gd2 In6 O18'
_cell_volume   469.75370619
_cell_formula_units_Z   2
loop_
 _symmetry_equiv_pos_site_id
 _symmetry_equiv_pos_as_xyz
  1  'x, y, z'
loop_
 _atom_site_type_symbol
 _atom_site_label
 _atom_site_symmetry_multiplicity
 _atom_site_fract_x
 _atom_site_fract_y
 _atom_site_fract_z
 _atom_site_occupancy
  La  La0  1  0.666667  0.333333  0.963960  1
  La  La1  1  0.333333  0.666667  0.463960  1
  La  La2  1  0.666667  0.333333  0.463960  1
  La  La3  1  0.333333  0.666667  0.963960  1
  Gd  Gd4  1  0.000000  0.000000  0.997394  1
  Gd  Gd5  1  0.000000  0.000000  0.497394  1
  In  In6  1  0.670071  0.670071  0.727476  1
  In  In7  1  0.000000  0.329929  0.727476  1
  In  In8  1  0.329929  0.329929  0.227476  1
  In  In9  1  0.000000  0.670071  0.227476  1
  In  In10  1  0.329929  0.000000  0.727476  1
  In  In11  1  0.670071  0.000000  0.227476  1
  O  O12  1  0.701111  0.701111  0.895764  1
  O  O13  1  0.000000  0.298889  0.895764  1
  O  O14  1  0.298889  0.298889  0.395764  1
  O  O15  1  0.000000  0.701111  0.395764  1
  O  O16  1  0.298889  0.000000  0.895764  1
  O  O17  1  0.701111  0.000000  0.395764  1
  O  O18  1  0.650903  0.650903  0.559271  1
  O  O19  1  0.000000  0.349097  0.559271  1
  O  O20  1  0.349097  0.349097  0.059271  1
  O  O21  1  0.000000  0.650903  0.059271  1
  O  O22  1  0.349097  0.000000  0.559271  1
  O  O23  1  0.650903  0.000000  0.059271  1
  O  O24  1  0.000000  0.000000  0.696764  1
  O  O25  1  0.000000  0.000000  0.196764  1
  O  O26  1  0.666667  0.333333  0.748141  1
  O  O27  1  0.333333  0.666667  0.248141  1
  O  O28  1  0.666667  0.333333  0.248141  1
  O  O29  1  0.333333  0.666667  0.748141  1
