# generated using pymatgen
data_Dy6TlTc2
_symmetry_space_group_name_H-M   'P 1'
_cell_length_a   8.54732420
_cell_length_b   8.54732523
_cell_length_c   8.54732411
_cell_angle_alpha   112.51738980
_cell_angle_beta   111.96483081
_cell_angle_gamma   104.06359244
_symmetry_Int_Tables_number   1
_chemical_formula_structural   Dy6TlTc2
_chemical_formula_sum   'Dy12 Tl2 Tc4'
_cell_volume   477.51102558
_cell_formula_units_Z   2
loop_
 _symmetry_equiv_pos_site_id
 _symmetry_equiv_pos_as_xyz
  1  'x, y, z'
loop_
 _atom_site_type_symbol
 _atom_site_label
 _atom_site_symmetry_multiplicity
 _atom_site_fract_x
 _atom_site_fract_y
 _atom_site_fract_z
 _atom_site_occupancy
  Dy  Dy0  1  0.449978  0.243729  0.206251  1
  Dy  Dy1  1  0.550022  0.756271  0.793749  1
  Dy  Dy2  1  0.037477  0.243729  0.793749  1
  Dy  Dy3  1  0.962523  0.756271  0.206251  1
  Dy  Dy4  1  0.187055  0.280675  0.467728  1
  Dy  Dy5  1  0.812945  0.719325  0.532272  1
  Dy  Dy6  1  0.187055  0.719325  0.906380  1
  Dy  Dy7  1  0.812945  0.280675  0.093620  1
  Dy  Dy8  1  0.332640  0.647440  0.314800  1
  Dy  Dy9  1  0.667360  0.352560  0.685200  1
  Dy  Dy10  1  0.332640  0.017840  0.685200  1
  Dy  Dy11  1  0.667360  0.982160  0.314800  1
  Tl  Tl12  1  0.500000  0.500000  0.000000  1
  Tl  Tl13  1  0.000000  0.000000  0.000000  1
  Tc  Tc14  1  0.327274  0.000000  0.327274  1
  Tc  Tc15  1  0.672726  0.000000  0.672726  1
  Tc  Tc16  1  0.113982  0.613982  0.500000  1
  Tc  Tc17  1  0.886018  0.386018  0.500000  1
