# generated using pymatgen
data_SmZn3Ru2
_symmetry_space_group_name_H-M   'P 1'
_cell_length_a   5.33409800
_cell_length_b   5.26071581
_cell_length_c   4.32096200
_cell_angle_alpha   90.00000000
_cell_angle_beta   90.00000000
_cell_angle_gamma   120.46251495
_symmetry_Int_Tables_number   1
_chemical_formula_structural   SmZn3Ru2
_chemical_formula_sum   'Sm1 Zn3 Ru2'
_cell_volume   104.51386498
_cell_formula_units_Z   1
loop_
 _symmetry_equiv_pos_site_id
 _symmetry_equiv_pos_as_xyz
  1  'x, y, z'
loop_
 _atom_site_type_symbol
 _atom_site_label
 _atom_site_symmetry_multiplicity
 _atom_site_fract_x
 _atom_site_fract_y
 _atom_site_fract_z
 _atom_site_occupancy
  Sm  Sm0  1  0.993822  0.987643  0.000000  1
  Zn  Zn1  1  0.003569  0.520664  0.500000  1
  Zn  Zn2  1  0.517095  0.520664  0.500000  1
  Zn  Zn3  1  0.334646  0.669293  0.000000  1
  Ru  Ru4  1  0.505170  0.010341  0.500000  1
  Ru  Ru5  1  0.645699  0.291396  0.000000  1
