# generated using pymatgen
data_Tb4Nd(CoO6)2
_symmetry_space_group_name_H-M   'P 1'
_cell_length_a   6.83706440
_cell_length_b   6.83706586
_cell_length_c   7.30588322
_cell_angle_alpha   74.59477551
_cell_angle_beta   74.59476629
_cell_angle_gamma   50.15133086
_symmetry_Int_Tables_number   1
_chemical_formula_structural   Tb4Nd(CoO6)2
_chemical_formula_sum   'Tb4 Nd1 Co2 O12'
_cell_volume   250.66580399
_cell_formula_units_Z   1
loop_
 _symmetry_equiv_pos_site_id
 _symmetry_equiv_pos_as_xyz
  1  'x, y, z'
loop_
 _atom_site_type_symbol
 _atom_site_label
 _atom_site_symmetry_multiplicity
 _atom_site_fract_x
 _atom_site_fract_y
 _atom_site_fract_z
 _atom_site_occupancy
  Tb  Tb0  1  0.693855  0.693855  0.662537  1
  Tb  Tb1  1  0.693039  0.693039  0.144987  1
  Tb  Tb2  1  0.306961  0.306961  0.855013  1
  Tb  Tb3  1  0.306145  0.306145  0.337463  1
  Nd  Nd4  1  0.000000  0.000000  0.000000  1
  Co  Co5  1  0.244945  0.755055  0.500000  1
  Co  Co6  1  0.755055  0.244945  0.500000  1
  O  O7  1  0.410386  0.904296  0.919366  1
  O  O8  1  0.584673  0.100912  0.576692  1
  O  O9  1  0.899088  0.415327  0.423308  1
  O  O10  1  0.095704  0.589614  0.080634  1
  O  O11  1  0.000703  0.000703  0.333611  1
  O  O12  1  0.500283  0.500283  0.672943  1
  O  O13  1  0.904296  0.410386  0.919366  1
  O  O14  1  0.100912  0.584673  0.576692  1
  O  O15  1  0.415327  0.899088  0.423308  1
  O  O16  1  0.589614  0.095704  0.080634  1
  O  O17  1  0.499717  0.499717  0.327057  1
  O  O18  1  0.999297  0.999297  0.666389  1
