# generated using pymatgen
data_PrDy5(RuBr3)2
_symmetry_space_group_name_H-M   'P 1'
_cell_length_a   4.18262900
_cell_length_b   8.53557605
_cell_length_c   11.90957821
_cell_angle_alpha   86.13428493
_cell_angle_beta   90.00000000
_cell_angle_gamma   90.00000000
_symmetry_Int_Tables_number   1
_chemical_formula_structural   PrDy5(RuBr3)2
_chemical_formula_sum   'Pr1 Dy5 Ru2 Br6'
_cell_volume   424.21823077
_cell_formula_units_Z   1
loop_
 _symmetry_equiv_pos_site_id
 _symmetry_equiv_pos_as_xyz
  1  'x, y, z'
loop_
 _atom_site_type_symbol
 _atom_site_label
 _atom_site_symmetry_multiplicity
 _atom_site_fract_x
 _atom_site_fract_y
 _atom_site_fract_z
 _atom_site_occupancy
  Pr  Pr0  1  0.750000  0.117942  0.170316  1
  Dy  Dy1  1  0.250000  0.271790  0.400048  1
  Dy  Dy2  1  0.750000  0.727676  0.602400  1
  Dy  Dy3  1  0.250000  0.860651  0.366507  1
  Dy  Dy4  1  0.750000  0.136620  0.632184  1
  Dy  Dy5  1  0.250000  0.884462  0.821895  1
  Ru  Ru6  1  0.250000  0.940957  0.592637  1
  Ru  Ru7  1  0.750000  0.056988  0.407599  1
  Br  Br8  1  0.250000  0.421242  0.632963  1
  Br  Br9  1  0.750000  0.573852  0.374137  1
  Br  Br10  1  0.250000  0.871114  0.104024  1
  Br  Br11  1  0.750000  0.114837  0.889560  1
  Br  Br12  1  0.250000  0.373545  0.148257  1
  Br  Br13  1  0.750000  0.648322  0.857475  1
