# generated using pymatgen
data_Y16Al4NiRh3
_symmetry_space_group_name_H-M   'P 1'
_cell_length_a   9.53502937
_cell_length_b   9.54193562
_cell_length_c   9.53504106
_cell_angle_alpha   60.15207693
_cell_angle_beta   60.20497970
_cell_angle_gamma   60.15223214
_symmetry_Int_Tables_number   1
_chemical_formula_structural   Y16Al4NiRh3
_chemical_formula_sum   'Y16 Al4 Ni1 Rh3'
_cell_volume   615.78969911
_cell_formula_units_Z   1
loop_
 _symmetry_equiv_pos_site_id
 _symmetry_equiv_pos_as_xyz
  1  'x, y, z'
loop_
 _atom_site_type_symbol
 _atom_site_label
 _atom_site_symmetry_multiplicity
 _atom_site_fract_x
 _atom_site_fract_y
 _atom_site_fract_z
 _atom_site_occupancy
  Y  Y0  1  0.436676  0.062641  0.436679  1
  Y  Y1  1  0.063368  0.437092  0.435397  1
  Y  Y2  1  0.435406  0.437099  0.063356  1
  Y  Y3  1  0.063119  0.436065  0.063120  1
  Y  Y4  1  0.436085  0.062671  0.062853  1
  Y  Y5  1  0.062853  0.062669  0.436084  1
  Y  Y6  1  0.807441  0.195042  0.807445  1
  Y  Y7  1  0.193728  0.807615  0.806482  1
  Y  Y8  1  0.806480  0.807610  0.193728  1
  Y  Y9  1  0.192414  0.807259  0.192420  1
  Y  Y10  1  0.806986  0.193493  0.190881  1
  Y  Y11  1  0.190881  0.193494  0.806993  1
  Y  Y12  1  0.651250  0.647401  0.651244  1
  Y  Y13  1  0.647978  0.645240  0.056909  1
  Y  Y14  1  0.056906  0.645245  0.647972  1
  Y  Y15  1  0.646615  0.058285  0.646611  1
  Al  Al16  1  0.423243  0.423055  0.731600  1
  Al  Al17  1  0.731593  0.423058  0.423245  1
  Al  Al18  1  0.423017  0.731329  0.423017  1
  Al  Al19  1  0.421641  0.422348  0.421643  1
  Ni  Ni20  1  0.859011  0.426614  0.858993  1
  Rh  Rh21  1  0.857577  0.857404  0.857581  1
  Rh  Rh22  1  0.858517  0.858639  0.427221  1
  Rh  Rh23  1  0.427217  0.858632  0.858528  1
