# generated using pymatgen
data_CeNd5Al24Os7Pd
_symmetry_space_group_name_H-M   'P 1'
_cell_length_a   8.90497083
_cell_length_b   8.90497289
_cell_length_c   9.63927209
_cell_angle_alpha   89.75231037
_cell_angle_beta   90.24768954
_cell_angle_gamma   119.77229654
_symmetry_Int_Tables_number   1
_chemical_formula_structural   CeNd5Al24Os7Pd
_chemical_formula_sum   'Ce1 Nd5 Al24 Os7 Pd1'
_cell_volume   663.47791233
_cell_formula_units_Z   1
loop_
 _symmetry_equiv_pos_site_id
 _symmetry_equiv_pos_as_xyz
  1  'x, y, z'
loop_
 _atom_site_type_symbol
 _atom_site_label
 _atom_site_symmetry_multiplicity
 _atom_site_fract_x
 _atom_site_fract_y
 _atom_site_fract_z
 _atom_site_occupancy
  Ce  Ce0  1  0.805164  0.194836  0.745962  1
  Nd  Nd1  1  0.188094  0.382908  0.251677  1
  Nd  Nd2  1  0.813185  0.616453  0.748835  1
  Nd  Nd3  1  0.617092  0.811906  0.251677  1
  Nd  Nd4  1  0.383547  0.186815  0.748835  1
  Nd  Nd5  1  0.192009  0.807991  0.253297  1
  Al  Al6  1  0.330085  0.669915  0.013692  1
  Al  Al7  1  0.669142  0.330858  0.986531  1
  Al  Al8  1  0.665678  0.334322  0.510244  1
  Al  Al9  1  0.333413  0.666587  0.489352  1
  Al  Al10  1  0.162674  0.325298  0.576436  1
  Al  Al11  1  0.837427  0.674304  0.424158  1
  Al  Al12  1  0.674702  0.837326  0.576436  1
  Al  Al13  1  0.843876  0.676629  0.077183  1
  Al  Al14  1  0.325696  0.162573  0.424158  1
  Al  Al15  1  0.155930  0.322603  0.922176  1
  Al  Al16  1  0.163613  0.836387  0.574805  1
  Al  Al17  1  0.323371  0.156124  0.077183  1
  Al  Al18  1  0.836586  0.163414  0.425702  1
  Al  Al19  1  0.677397  0.844070  0.922176  1
  Al  Al20  1  0.836512  0.163488  0.073530  1
  Al  Al21  1  0.163623  0.836377  0.926045  1
  Al  Al22  1  0.561742  0.124580  0.249174  1
  Al  Al23  1  0.438276  0.873991  0.750882  1
  Al  Al24  1  0.875420  0.438258  0.249174  1
  Al  Al25  1  0.126009  0.561724  0.750882  1
  Al  Al26  1  0.562558  0.437442  0.252987  1
  Al  Al27  1  0.437833  0.562167  0.746753  1
  Al  Al28  1  0.999498  0.000502  0.250182  1
  Al  Al29  1  0.999194  0.000806  0.749593  1
  Os  Os30  1  0.501483  0.001005  0.998083  1
  Os  Os31  1  0.998995  0.498517  0.998083  1
  Os  Os32  1  0.501903  0.001684  0.502404  1
  Os  Os33  1  0.998316  0.498097  0.502404  1
  Os  Os34  1  0.499678  0.500322  0.499512  1
  Os  Os35  1  0.000191  0.999809  0.999865  1
  Os  Os36  1  0.000353  0.999647  0.499949  1
  Pd  Pd37  1  0.499735  0.500265  0.999982  1
