# generated using pymatgen
data_AlV(BW)4
_symmetry_space_group_name_H-M   'P 1'
_cell_length_a   5.90087600
_cell_length_b   5.90087600
_cell_length_c   3.16415600
_cell_angle_alpha   90.00000000
_cell_angle_beta   90.00000000
_cell_angle_gamma   90.00000000
_symmetry_Int_Tables_number   1
_chemical_formula_structural   AlV(BW)4
_chemical_formula_sum   'Al1 V1 B4 W4'
_cell_volume   110.17698004
_cell_formula_units_Z   1
loop_
 _symmetry_equiv_pos_site_id
 _symmetry_equiv_pos_as_xyz
  1  'x, y, z'
loop_
 _atom_site_type_symbol
 _atom_site_label
 _atom_site_symmetry_multiplicity
 _atom_site_fract_x
 _atom_site_fract_y
 _atom_site_fract_z
 _atom_site_occupancy
  Al  Al0  1  0.000000  0.000000  0.000000  1
  V  V1  1  0.500000  0.500000  0.000000  1
  B  B2  1  0.111700  0.613863  0.000000  1
  B  B3  1  0.888300  0.386137  0.000000  1
  B  B4  1  0.613863  0.888300  0.000000  1
  B  B5  1  0.386137  0.111700  0.000000  1
  W  W6  1  0.673090  0.179405  0.500000  1
  W  W7  1  0.326910  0.820595  0.500000  1
  W  W8  1  0.179405  0.326910  0.500000  1
  W  W9  1  0.820595  0.673090  0.500000  1
