# generated using pymatgen
data_Th14Co2Re3Ru
_symmetry_space_group_name_H-M   'P 1'
_cell_length_a   9.94244254
_cell_length_b   9.86881647
_cell_length_c   6.30054416
_cell_angle_alpha   89.93533851
_cell_angle_beta   90.33535071
_cell_angle_gamma   119.46900422
_symmetry_Int_Tables_number   1
_chemical_formula_structural   Th14Co2Re3Ru
_chemical_formula_sum   'Th14 Co2 Re3 Ru1'
_cell_volume   538.21713689
_cell_formula_units_Z   1
loop_
 _symmetry_equiv_pos_site_id
 _symmetry_equiv_pos_as_xyz
  1  'x, y, z'
loop_
 _atom_site_type_symbol
 _atom_site_label
 _atom_site_symmetry_multiplicity
 _atom_site_fract_x
 _atom_site_fract_y
 _atom_site_fract_z
 _atom_site_occupancy
  Th  Th0  1  0.454726  0.533815  0.297095  1
  Th  Th1  1  0.080531  0.543037  0.297836  1
  Th  Th2  1  0.915246  0.453790  0.800184  1
  Th  Th3  1  0.251283  0.125521  0.508351  1
  Th  Th4  1  0.552890  0.085043  0.797573  1
  Th  Th5  1  0.745425  0.872090  0.008762  1
  Th  Th6  1  0.672545  0.337242  0.283022  1
  Th  Th7  1  0.121044  0.870905  0.004253  1
  Th  Th8  1  0.456333  0.924202  0.295988  1
  Th  Th9  1  0.547033  0.465595  0.801138  1
  Th  Th10  1  0.872990  0.124807  0.497778  1
  Th  Th11  1  0.119702  0.248947  0.007729  1
  Th  Th12  1  0.873991  0.749646  0.498914  1
  Th  Th13  1  0.332726  0.667026  0.788953  1
  Co  Co14  1  0.821737  0.626967  0.045289  1
  Co  Co15  1  0.817567  0.191276  0.048970  1
  Re  Re16  1  0.627724  0.812450  0.549576  1
  Re  Re17  1  0.376783  0.183925  0.052807  1
  Re  Re18  1  0.180307  0.370246  0.553260  1
  Ru  Ru19  1  0.179418  0.813470  0.546519  1
