# generated using pymatgen
data_DyEr4(MnB3)2
_symmetry_space_group_name_H-M   'P 1'
_cell_length_a   5.41051977
_cell_length_b   5.41052077
_cell_length_c   8.17435640
_cell_angle_alpha   70.67387657
_cell_angle_beta   70.67387368
_cell_angle_gamma   60.00000662
_symmetry_Int_Tables_number   1
_chemical_formula_structural   DyEr4(MnB3)2
_chemical_formula_sum   'Dy1 Er4 Mn2 B6'
_cell_volume   191.50624864
_cell_formula_units_Z   1
loop_
 _symmetry_equiv_pos_site_id
 _symmetry_equiv_pos_as_xyz
  1  'x, y, z'
loop_
 _atom_site_type_symbol
 _atom_site_label
 _atom_site_symmetry_multiplicity
 _atom_site_fract_x
 _atom_site_fract_y
 _atom_site_fract_z
 _atom_site_occupancy
  Dy  Dy0  1  0.000000  0.000000  0.000000  1
  Er  Er1  1  0.250663  0.250663  0.248011  1
  Er  Er2  1  0.749337  0.749337  0.751989  1
  Er  Er3  1  0.416320  0.416320  0.751040  1
  Er  Er4  1  0.583680  0.583680  0.248960  1
  Mn  Mn5  1  0.113582  0.113582  0.659254  1
  Mn  Mn6  1  0.886418  0.886418  0.340746  1
  B  B7  1  0.167066  0.832934  0.500000  1
  B  B8  1  0.832934  0.500000  0.500000  1
  B  B9  1  0.500000  0.167066  0.500000  1
  B  B10  1  0.167066  0.500000  0.500000  1
  B  B11  1  0.500000  0.832934  0.500000  1
  B  B12  1  0.832934  0.167066  0.500000  1
