# generated using pymatgen
data_Tb3Ho5In4
_symmetry_space_group_name_H-M   'P 1'
_cell_length_a   5.19407600
_cell_length_b   6.75537688
_cell_length_c   9.75616751
_cell_angle_alpha   89.81275310
_cell_angle_beta   90.00000000
_cell_angle_gamma   90.00000000
_symmetry_Int_Tables_number   1
_chemical_formula_structural   Tb3Ho5In4
_chemical_formula_sum   'Tb3 Ho5 In4'
_cell_volume   342.32200131
_cell_formula_units_Z   1
loop_
 _symmetry_equiv_pos_site_id
 _symmetry_equiv_pos_as_xyz
  1  'x, y, z'
loop_
 _atom_site_type_symbol
 _atom_site_label
 _atom_site_symmetry_multiplicity
 _atom_site_fract_x
 _atom_site_fract_y
 _atom_site_fract_z
 _atom_site_occupancy
  Tb  Tb0  1  0.750000  0.686220  0.427817  1
  Tb  Tb1  1  0.250000  0.313986  0.571795  1
  Tb  Tb2  1  0.750000  0.184884  0.072102  1
  Ho  Ho3  1  0.250000  0.814686  0.928123  1
  Ho  Ho4  1  0.750000  0.532330  0.786179  1
  Ho  Ho5  1  0.250000  0.469014  0.213665  1
  Ho  Ho6  1  0.750000  0.030949  0.714699  1
  Ho  Ho7  1  0.250000  0.968479  0.285686  1
  In  In8  1  0.750000  0.209718  0.396516  1
  In  In9  1  0.250000  0.790268  0.604408  1
  In  In10  1  0.750000  0.709933  0.102269  1
  In  In11  1  0.250000  0.289534  0.896742  1
