# generated using pymatgen
data_NdPaInPt2
_symmetry_space_group_name_H-M   'P 1'
_cell_length_a   7.92742000
_cell_length_b   7.94594900
_cell_length_c   3.72059500
_cell_angle_alpha   90.00000000
_cell_angle_beta   90.00000000
_cell_angle_gamma   90.00000000
_symmetry_Int_Tables_number   1
_chemical_formula_structural   NdPaInPt2
_chemical_formula_sum   'Nd2 Pa2 In2 Pt4'
_cell_volume   234.36353465
_cell_formula_units_Z   2
loop_
 _symmetry_equiv_pos_site_id
 _symmetry_equiv_pos_as_xyz
  1  'x, y, z'
loop_
 _atom_site_type_symbol
 _atom_site_label
 _atom_site_symmetry_multiplicity
 _atom_site_fract_x
 _atom_site_fract_y
 _atom_site_fract_z
 _atom_site_occupancy
  Nd  Nd0  1  0.673806  0.824924  0.500000  1
  Nd  Nd1  1  0.826194  0.324924  0.500000  1
  Pa  Pa2  1  0.331256  0.170543  0.500000  1
  Pa  Pa3  1  0.168744  0.670543  0.500000  1
  In  In4  1  0.501672  0.503453  0.000000  1
  In  In5  1  0.998328  0.003453  0.000000  1
  Pt  Pt6  1  0.601568  0.131422  0.000000  1
  Pt  Pt7  1  0.898432  0.631422  0.000000  1
  Pt  Pt8  1  0.152747  0.369658  0.000000  1
  Pt  Pt9  1  0.347253  0.869658  0.000000  1
