# generated using pymatgen
data_In3Sn4Ir2Ru
_symmetry_space_group_name_H-M   'P 1'
_cell_length_a   8.24672352
_cell_length_b   8.23844203
_cell_length_c   8.23844235
_cell_angle_alpha   109.18423635
_cell_angle_beta   109.59440500
_cell_angle_gamma   109.59439809
_symmetry_Int_Tables_number   1
_chemical_formula_structural   In3Sn4Ir2Ru
_chemical_formula_sum   'In6 Sn8 Ir4 Ru2'
_cell_volume   431.08381611
_cell_formula_units_Z   2
loop_
 _symmetry_equiv_pos_site_id
 _symmetry_equiv_pos_as_xyz
  1  'x, y, z'
loop_
 _atom_site_type_symbol
 _atom_site_label
 _atom_site_symmetry_multiplicity
 _atom_site_fract_x
 _atom_site_fract_y
 _atom_site_fract_z
 _atom_site_occupancy
  In  In0  1  0.252011  0.750380  0.501630  1
  In  In1  1  0.752663  0.251043  0.501620  1
  In  In2  1  0.752663  0.501620  0.251043  1
  In  In3  1  0.252011  0.501630  0.750380  1
  In  In4  1  0.504110  0.752055  0.252055  1
  In  In5  1  0.504110  0.252055  0.752055  1
  Sn  Sn6  1  0.997063  0.996602  0.320794  1
  Sn  Sn7  1  0.675680  0.997037  0.997037  1
  Sn  Sn8  1  0.997063  0.676271  0.000461  1
  Sn  Sn9  1  0.323973  0.323790  0.323790  1
  Sn  Sn10  1  0.997063  0.320794  0.996602  1
  Sn  Sn11  1  0.675680  0.678642  0.678642  1
  Sn  Sn12  1  0.323973  0.000184  0.000184  1
  Sn  Sn13  1  0.997063  0.000461  0.676271  1
  Ir  Ir14  1  0.341079  0.999919  0.341160  1
  Ir  Ir15  1  0.000381  0.341145  0.341145  1
  Ir  Ir16  1  0.000381  0.659236  0.659236  1
  Ir  Ir17  1  0.341079  0.341160  0.999919  1
  Ru  Ru18  1  0.655978  0.655925  0.000053  1
  Ru  Ru19  1  0.655978  0.000053  0.655925  1
