# generated using pymatgen
data_Y5Fe3(P3Ir4)4
_symmetry_space_group_name_H-M   'P 1'
_cell_length_a   12.58512800
_cell_length_b   12.58512788
_cell_length_c   3.93340200
_cell_angle_alpha   90.00000000
_cell_angle_beta   90.00000000
_cell_angle_gamma   119.99999505
_symmetry_Int_Tables_number   1
_chemical_formula_structural   Y5Fe3(P3Ir4)4
_chemical_formula_sum   'Y5 Fe3 P12 Ir16'
_cell_volume   539.52833456
_cell_formula_units_Z   1
loop_
 _symmetry_equiv_pos_site_id
 _symmetry_equiv_pos_as_xyz
  1  'x, y, z'
loop_
 _atom_site_type_symbol
 _atom_site_label
 _atom_site_symmetry_multiplicity
 _atom_site_fract_x
 _atom_site_fract_y
 _atom_site_fract_z
 _atom_site_occupancy
  Y  Y0  1  0.000000  0.182175  0.500000  1
  Y  Y1  1  0.817825  0.817825  0.500000  1
  Y  Y2  1  0.182175  0.000000  0.500000  1
  Y  Y3  1  0.666667  0.333333  0.000000  1
  Y  Y4  1  0.333333  0.666667  0.000000  1
  Fe  Fe5  1  0.000000  0.714465  0.500000  1
  Fe  Fe6  1  0.285535  0.285535  0.500000  1
  Fe  Fe7  1  0.714465  0.000000  0.500000  1
  P  P8  1  0.000000  0.817121  0.000000  1
  P  P9  1  0.182879  0.182879  0.000000  1
  P  P10  1  0.817121  0.000000  0.000000  1
  P  P11  1  0.686665  0.162310  0.500000  1
  P  P12  1  0.837690  0.524355  0.500000  1
  P  P13  1  0.475645  0.313335  0.500000  1
  P  P14  1  0.162310  0.686665  0.500000  1
  P  P15  1  0.524355  0.837690  0.500000  1
  P  P16  1  0.313335  0.475645  0.500000  1
  P  P17  1  0.000000  0.357382  0.000000  1
  P  P18  1  0.642618  0.642618  0.000000  1
  P  P19  1  0.357382  0.000000  0.000000  1
  Ir  Ir20  1  0.000000  0.540932  0.000000  1
  Ir  Ir21  1  0.459068  0.459068  0.000000  1
  Ir  Ir22  1  0.540932  0.000000  0.000000  1
  Ir  Ir23  1  0.802812  0.177916  0.000000  1
  Ir  Ir24  1  0.822084  0.624897  0.000000  1
  Ir  Ir25  1  0.375103  0.197188  0.000000  1
  Ir  Ir26  1  0.177916  0.802812  0.000000  1
  Ir  Ir27  1  0.624897  0.822084  0.000000  1
  Ir  Ir28  1  0.197188  0.375103  0.000000  1
  Ir  Ir29  1  0.868131  0.360149  0.500000  1
  Ir  Ir30  1  0.639851  0.507981  0.500000  1
  Ir  Ir31  1  0.492019  0.131869  0.500000  1
  Ir  Ir32  1  0.360149  0.868131  0.500000  1
  Ir  Ir33  1  0.507981  0.639851  0.500000  1
  Ir  Ir34  1  0.131869  0.492019  0.500000  1
  Ir  Ir35  1  0.000000  0.000000  0.000000  1
