# generated using pymatgen
data_Ce3Dy13MgCd3Ru4
_symmetry_space_group_name_H-M   'P 1'
_cell_length_a   9.66620117
_cell_length_b   9.66620115
_cell_length_c   9.60960306
_cell_angle_alpha   59.80497739
_cell_angle_beta   59.80497555
_cell_angle_gamma   59.99999821
_symmetry_Int_Tables_number   1
_chemical_formula_structural   Ce3Dy13MgCd3Ru4
_chemical_formula_sum   'Ce3 Dy13 Mg1 Cd3 Ru4'
_cell_volume   633.01731448
_cell_formula_units_Z   1
loop_
 _symmetry_equiv_pos_site_id
 _symmetry_equiv_pos_as_xyz
  1  'x, y, z'
loop_
 _atom_site_type_symbol
 _atom_site_label
 _atom_site_symmetry_multiplicity
 _atom_site_fract_x
 _atom_site_fract_y
 _atom_site_fract_z
 _atom_site_occupancy
  Ce  Ce0  1  0.345160  0.967851  0.341830  1
  Ce  Ce1  1  0.967851  0.345160  0.341830  1
  Ce  Ce2  1  0.345160  0.345160  0.341830  1
  Dy  Dy3  1  0.563970  0.563970  0.933952  1
  Dy  Dy4  1  0.938108  0.563970  0.933952  1
  Dy  Dy5  1  0.563970  0.938108  0.933952  1
  Dy  Dy6  1  0.937347  0.937347  0.562539  1
  Dy  Dy7  1  0.562766  0.937347  0.562539  1
  Dy  Dy8  1  0.937347  0.562766  0.562539  1
  Dy  Dy9  1  0.187804  0.187804  0.813416  1
  Dy  Dy10  1  0.810975  0.187804  0.813416  1
  Dy  Dy11  1  0.187803  0.810976  0.813416  1
  Dy  Dy12  1  0.812381  0.812382  0.187712  1
  Dy  Dy13  1  0.187525  0.812381  0.187711  1
  Dy  Dy14  1  0.812381  0.187526  0.187712  1
  Dy  Dy15  1  0.351860  0.351860  0.944421  1
  Mg  Mg16  1  0.575676  0.575676  0.272972  1
  Cd  Cd17  1  0.581752  0.256992  0.579503  1
  Cd  Cd18  1  0.256992  0.581752  0.579503  1
  Cd  Cd19  1  0.581752  0.581752  0.579503  1
  Ru  Ru20  1  0.144607  0.144607  0.566178  1
  Ru  Ru21  1  0.139352  0.568105  0.153190  1
  Ru  Ru22  1  0.568105  0.139352  0.153190  1
  Ru  Ru23  1  0.139352  0.139352  0.153190  1
