# generated using pymatgen
data_Er12CoTc2Pt
_symmetry_space_group_name_H-M   'P 1'
_cell_length_a   6.29281055
_cell_length_b   7.18402729
_cell_length_c   9.11174500
_cell_angle_alpha   90.00000000
_cell_angle_beta   90.00000000
_cell_angle_gamma   89.88385430
_symmetry_Int_Tables_number   1
_chemical_formula_structural   Er12CoTc2Pt
_chemical_formula_sum   'Er12 Co1 Tc2 Pt1'
_cell_volume   411.92039540
_cell_formula_units_Z   1
loop_
 _symmetry_equiv_pos_site_id
 _symmetry_equiv_pos_as_xyz
  1  'x, y, z'
loop_
 _atom_site_type_symbol
 _atom_site_label
 _atom_site_symmetry_multiplicity
 _atom_site_fract_x
 _atom_site_fract_y
 _atom_site_fract_z
 _atom_site_occupancy
  Er  Er0  1  0.322777  0.680833  0.067421  1
  Er  Er1  1  0.168036  0.174825  0.435117  1
  Er  Er2  1  0.670284  0.318317  0.556399  1
  Er  Er3  1  0.830913  0.823246  0.938087  1
  Er  Er4  1  0.670284  0.318317  0.943601  1
  Er  Er5  1  0.830913  0.823246  0.561913  1
  Er  Er6  1  0.322777  0.680833  0.432579  1
  Er  Er7  1  0.168036  0.174825  0.064883  1
  Er  Er8  1  0.874837  0.547423  0.250000  1
  Er  Er9  1  0.637305  0.035691  0.250000  1
  Er  Er10  1  0.126033  0.459648  0.750000  1
  Er  Er11  1  0.373929  0.967229  0.750000  1
  Co  Co12  1  0.035556  0.885073  0.250000  1
  Tc  Tc13  1  0.466378  0.390140  0.250000  1
  Tc  Tc14  1  0.958767  0.109321  0.750000  1
  Pt  Pt15  1  0.543175  0.611033  0.750000  1
