# generated using pymatgen
data_Nd19Y(IrPt)6
_symmetry_space_group_name_H-M   'P 1'
_cell_length_a   11.41196693
_cell_length_b   11.40868041
_cell_length_c   6.51831759
_cell_angle_alpha   89.97640479
_cell_angle_beta   90.06118894
_cell_angle_gamma   90.05186919
_symmetry_Int_Tables_number   1
_chemical_formula_structural   Nd19Y(IrPt)6
_chemical_formula_sum   'Nd19 Y1 Ir6 Pt6'
_cell_volume   848.65460721
_cell_formula_units_Z   1
loop_
 _symmetry_equiv_pos_site_id
 _symmetry_equiv_pos_as_xyz
  1  'x, y, z'
loop_
 _atom_site_type_symbol
 _atom_site_label
 _atom_site_symmetry_multiplicity
 _atom_site_fract_x
 _atom_site_fract_y
 _atom_site_fract_z
 _atom_site_occupancy
  Nd  Nd0  1  0.295202  0.091758  0.374862  1
  Nd  Nd1  1  0.295252  0.908594  0.875045  1
  Nd  Nd2  1  0.704084  0.088147  0.874542  1
  Nd  Nd3  1  0.704317  0.911583  0.374025  1
  Nd  Nd4  1  0.585262  0.791583  0.874881  1
  Nd  Nd5  1  0.585144  0.208821  0.375437  1
  Nd  Nd6  1  0.409476  0.792014  0.381052  1
  Nd  Nd7  1  0.409489  0.207412  0.880305  1
  Nd  Nd8  1  0.210686  0.412765  0.620103  1
  Nd  Nd9  1  0.210056  0.587107  0.120739  1
  Nd  Nd10  1  0.794700  0.411111  0.123950  1
  Nd  Nd11  1  0.794333  0.588850  0.623035  1
  Nd  Nd12  1  0.913063  0.704909  0.124805  1
  Nd  Nd13  1  0.912790  0.294986  0.625390  1
  Nd  Nd14  1  0.092918  0.704207  0.625969  1
  Nd  Nd15  1  0.092703  0.295798  0.125540  1
  Nd  Nd16  1  0.999676  0.998880  0.499856  1
  Nd  Nd17  1  0.999822  0.001043  0.000115  1
  Nd  Nd18  1  0.496918  0.498981  0.000124  1
  Y  Y19  1  0.496975  0.501140  0.500313  1
  Ir  Ir20  1  0.347964  0.347445  0.252095  1
  Ir  Ir21  1  0.348204  0.652890  0.747743  1
  Ir  Ir22  1  0.500263  0.999270  0.118805  1
  Ir  Ir23  1  0.500201  0.000597  0.618586  1
  Ir  Ir24  1  0.999087  0.500070  0.881230  1
  Ir  Ir25  1  0.999170  0.499957  0.381466  1
  Pt  Pt26  1  0.844936  0.154063  0.250524  1
  Pt  Pt27  1  0.844959  0.846063  0.750377  1
  Pt  Pt28  1  0.153223  0.154266  0.749500  1
  Pt  Pt29  1  0.153242  0.845653  0.249338  1
  Pt  Pt30  1  0.652990  0.347655  0.747243  1
  Pt  Pt31  1  0.652892  0.652380  0.253010  1
