# generated using pymatgen
data_LiDy19Rh12
_symmetry_space_group_name_H-M   'P 1'
_cell_length_a   10.86744000
_cell_length_b   10.86744000
_cell_length_c   6.28572200
_cell_angle_alpha   90.00000000
_cell_angle_beta   90.00000000
_cell_angle_gamma   90.00000000
_symmetry_Int_Tables_number   1
_chemical_formula_structural   LiDy19Rh12
_chemical_formula_sum   'Li1 Dy19 Rh12'
_cell_volume   742.35163889
_cell_formula_units_Z   1
loop_
 _symmetry_equiv_pos_site_id
 _symmetry_equiv_pos_as_xyz
  1  'x, y, z'
loop_
 _atom_site_type_symbol
 _atom_site_label
 _atom_site_symmetry_multiplicity
 _atom_site_fract_x
 _atom_site_fract_y
 _atom_site_fract_z
 _atom_site_occupancy
  Li  Li0  1  0.000000  0.000000  0.500000  1
  Dy  Dy1  1  0.279518  0.083695  0.380784  1
  Dy  Dy2  1  0.291801  0.910699  0.881012  1
  Dy  Dy3  1  0.708199  0.089301  0.881012  1
  Dy  Dy4  1  0.720482  0.916305  0.380784  1
  Dy  Dy5  1  0.590534  0.791543  0.880925  1
  Dy  Dy6  1  0.586833  0.208154  0.378636  1
  Dy  Dy7  1  0.413167  0.791846  0.378636  1
  Dy  Dy8  1  0.409466  0.208457  0.880925  1
  Dy  Dy9  1  0.208154  0.413167  0.621364  1
  Dy  Dy10  1  0.208457  0.590534  0.119075  1
  Dy  Dy11  1  0.791543  0.409466  0.119075  1
  Dy  Dy12  1  0.791846  0.586833  0.621364  1
  Dy  Dy13  1  0.910699  0.708199  0.118988  1
  Dy  Dy14  1  0.916305  0.279518  0.619216  1
  Dy  Dy15  1  0.083695  0.720482  0.619216  1
  Dy  Dy16  1  0.089301  0.291801  0.118988  1
  Dy  Dy17  1  0.000000  0.000000  0.000000  1
  Dy  Dy18  1  0.500000  0.500000  0.000000  1
  Dy  Dy19  1  0.500000  0.500000  0.500000  1
  Rh  Rh20  1  0.844995  0.156183  0.243134  1
  Rh  Rh21  1  0.843817  0.844995  0.756866  1
  Rh  Rh22  1  0.156183  0.155005  0.756866  1
  Rh  Rh23  1  0.155005  0.843817  0.243134  1
  Rh  Rh24  1  0.655250  0.345149  0.747278  1
  Rh  Rh25  1  0.654851  0.655250  0.252722  1
  Rh  Rh26  1  0.345149  0.344750  0.252722  1
  Rh  Rh27  1  0.344750  0.654851  0.747278  1
  Rh  Rh28  1  0.500000  0.000000  0.125459  1
  Rh  Rh29  1  0.500000  0.000000  0.620056  1
  Rh  Rh30  1  0.000000  0.500000  0.874541  1
  Rh  Rh31  1  0.000000  0.500000  0.379944  1
