# generated using pymatgen
data_Ho4ReRu7
_symmetry_space_group_name_H-M   'P 1'
_cell_length_a   5.24152659
_cell_length_b   5.41782208
_cell_length_c   8.91262100
_cell_angle_alpha   90.00000000
_cell_angle_beta   90.00000000
_cell_angle_gamma   121.11900369
_symmetry_Int_Tables_number   1
_chemical_formula_structural   Ho4ReRu7
_chemical_formula_sum   'Ho4 Re1 Ru7'
_cell_volume   216.67574310
_cell_formula_units_Z   1
loop_
 _symmetry_equiv_pos_site_id
 _symmetry_equiv_pos_as_xyz
  1  'x, y, z'
loop_
 _atom_site_type_symbol
 _atom_site_label
 _atom_site_symmetry_multiplicity
 _atom_site_fract_x
 _atom_site_fract_y
 _atom_site_fract_z
 _atom_site_occupancy
  Ho  Ho0  1  0.326570  0.663285  0.432460  1
  Ho  Ho1  1  0.651889  0.325944  0.565568  1
  Ho  Ho2  1  0.651889  0.325944  0.934432  1
  Ho  Ho3  1  0.326570  0.663285  0.067540  1
  Re  Re4  1  0.693203  0.846601  0.750000  1
  Ru  Ru5  1  0.972754  0.986377  0.500299  1
  Ru  Ru6  1  0.972754  0.986377  0.999701  1
  Ru  Ru7  1  0.837557  0.167245  0.250000  1
  Ru  Ru8  1  0.837557  0.670313  0.250000  1
  Ru  Ru9  1  0.361932  0.180966  0.250000  1
  Ru  Ru10  1  0.183662  0.823287  0.750000  1
  Ru  Ru11  1  0.183662  0.360374  0.750000  1
