# generated using pymatgen
data_RbLu3S5
_symmetry_space_group_name_H-M   'P 1'
_cell_length_a   10.83960112
_cell_length_b   10.83960070
_cell_length_c   13.43369888
_cell_angle_alpha   57.80510061
_cell_angle_beta   57.80510180
_cell_angle_gamma   20.86065900
_symmetry_Int_Tables_number   1
_chemical_formula_structural   RbLu3S5
_chemical_formula_sum   'Rb2 Lu6 S10'
_cell_volume   472.44045151
_cell_formula_units_Z   2
loop_
 _symmetry_equiv_pos_site_id
 _symmetry_equiv_pos_as_xyz
  1  'x, y, z'
loop_
 _atom_site_type_symbol
 _atom_site_label
 _atom_site_symmetry_multiplicity
 _atom_site_fract_x
 _atom_site_fract_y
 _atom_site_fract_z
 _atom_site_occupancy
  Rb  Rb0  1  0.744658  0.744658  0.180578  1
  Rb  Rb1  1  0.255342  0.255342  0.819422  1
  Lu  Lu2  1  0.030101  0.030101  0.218373  1
  Lu  Lu3  1  0.166445  0.166445  0.608873  1
  Lu  Lu4  1  0.500000  0.500000  0.000000  1
  Lu  Lu5  1  0.969899  0.969899  0.781627  1
  Lu  Lu6  1  0.833555  0.833555  0.391127  1
  Lu  Lu7  1  0.500000  0.500000  0.500000  1
  S  S8  1  0.601423  0.601423  0.067452  1
  S  S9  1  0.569623  0.569623  0.620168  1
  S  S10  1  0.928177  0.928177  0.154708  1
  S  S11  1  0.430377  0.430377  0.379832  1
  S  S12  1  0.085576  0.085576  0.349386  1
  S  S13  1  0.071823  0.071823  0.845292  1
  S  S14  1  0.743402  0.743402  0.621910  1
  S  S15  1  0.398577  0.398577  0.932548  1
  S  S16  1  0.256598  0.256598  0.378090  1
  S  S17  1  0.914424  0.914424  0.650614  1
