# generated using pymatgen
data_Dy4Ho6Sn7Sb
_symmetry_space_group_name_H-M   'P 1'
_cell_length_a   8.06241200
_cell_length_b   8.14492794
_cell_length_c   15.37115433
_cell_angle_alpha   90.21204681
_cell_angle_beta   90.00000000
_cell_angle_gamma   90.00000000
_symmetry_Int_Tables_number   1
_chemical_formula_structural   Dy4Ho6Sn7Sb
_chemical_formula_sum   'Dy8 Ho12 Sn14 Sb2'
_cell_volume   1009.38243374
_cell_formula_units_Z   2
loop_
 _symmetry_equiv_pos_site_id
 _symmetry_equiv_pos_as_xyz
  1  'x, y, z'
loop_
 _atom_site_type_symbol
 _atom_site_label
 _atom_site_symmetry_multiplicity
 _atom_site_fract_x
 _atom_site_fract_y
 _atom_site_fract_z
 _atom_site_occupancy
  Dy  Dy0  1  0.527062  0.325532  0.900611  1
  Dy  Dy1  1  0.027062  0.174468  0.599389  1
  Dy  Dy2  1  0.472123  0.678305  0.400505  1
  Dy  Dy3  1  0.972123  0.821695  0.099495  1
  Dy  Dy4  1  0.476392  0.675770  0.098319  1
  Dy  Dy5  1  0.976392  0.824230  0.401681  1
  Dy  Dy6  1  0.522886  0.320360  0.599081  1
  Dy  Dy7  1  0.022886  0.179640  0.900919  1
  Ho  Ho8  1  0.371388  0.837786  0.878609  1
  Ho  Ho9  1  0.871388  0.662214  0.621391  1
  Ho  Ho10  1  0.629809  0.161105  0.377191  1
  Ho  Ho11  1  0.129809  0.338895  0.122809  1
  Ho  Ho12  1  0.630622  0.162138  0.121915  1
  Ho  Ho13  1  0.130622  0.337862  0.378085  1
  Ho  Ho14  1  0.369720  0.838218  0.622577  1
  Ho  Ho15  1  0.869720  0.661782  0.877423  1
  Ho  Ho16  1  0.199746  0.502278  0.749362  1
  Ho  Ho17  1  0.699746  0.997722  0.750638  1
  Ho  Ho18  1  0.800129  0.498164  0.248815  1
  Ho  Ho19  1  0.300129  0.001836  0.251185  1
  Sn  Sn20  1  0.710285  0.964384  0.541678  1
  Sn  Sn21  1  0.210285  0.535616  0.958322  1
  Sn  Sn22  1  0.713269  0.964663  0.957967  1
  Sn  Sn23  1  0.213269  0.535337  0.542033  1
  Sn  Sn24  1  0.292040  0.036394  0.458048  1
  Sn  Sn25  1  0.792040  0.463606  0.041952  1
  Sn  Sn26  1  0.567283  0.620959  0.748826  1
  Sn  Sn27  1  0.067283  0.879041  0.751174  1
  Sn  Sn28  1  0.433440  0.378941  0.250104  1
  Sn  Sn29  1  0.933440  0.121059  0.249896  1
  Sn  Sn30  1  0.333487  0.147644  0.751286  1
  Sn  Sn31  1  0.833487  0.352356  0.748714  1
  Sn  Sn32  1  0.664125  0.851732  0.250181  1
  Sn  Sn33  1  0.164125  0.648268  0.249819  1
  Sb  Sb34  1  0.286193  0.033802  0.043527  1
  Sb  Sb35  1  0.786193  0.466198  0.456473  1
