# generated using pymatgen
data_Ho3Tm3Co16(TcP6)2
_symmetry_space_group_name_H-M   'P 1'
_cell_length_a   3.69716400
_cell_length_b   10.49834300
_cell_length_c   12.17950600
_cell_angle_alpha   89.99867482
_cell_angle_beta   90.00000000
_cell_angle_gamma   90.00000000
_symmetry_Int_Tables_number   1
_chemical_formula_structural   Ho3Tm3Co16(TcP6)2
_chemical_formula_sum   'Ho3 Tm3 Co16 Tc2 P12'
_cell_volume   472.73651261
_cell_formula_units_Z   1
loop_
 _symmetry_equiv_pos_site_id
 _symmetry_equiv_pos_as_xyz
  1  'x, y, z'
loop_
 _atom_site_type_symbol
 _atom_site_label
 _atom_site_symmetry_multiplicity
 _atom_site_fract_x
 _atom_site_fract_y
 _atom_site_fract_z
 _atom_site_occupancy
  Ho  Ho0  1  0.000000  0.500076  0.524854  1
  Ho  Ho1  1  0.500000  0.000008  0.474942  1
  Ho  Ho2  1  0.000000  0.317991  0.794202  1
  Tm  Tm3  1  0.500000  0.818116  0.205904  1
  Tm  Tm4  1  0.500000  0.181827  0.205711  1
  Tm  Tm5  1  0.000000  0.682098  0.794249  1
  Co  Co6  1  0.000000  0.500335  0.987239  1
  Co  Co7  1  0.500000  0.999696  0.013330  1
  Co  Co8  1  0.500000  0.296639  0.430685  1
  Co  Co9  1  0.500000  0.703449  0.431033  1
  Co  Co10  1  0.000000  0.203311  0.568361  1
  Co  Co11  1  0.000000  0.796712  0.568894  1
  Co  Co12  1  0.500000  0.878224  0.707818  1
  Co  Co13  1  0.500000  0.121022  0.707391  1
  Co  Co14  1  0.000000  0.621650  0.292281  1
  Co  Co15  1  0.000000  0.378325  0.292037  1
  Co  Co16  1  0.500000  0.332247  0.990079  1
  Co  Co17  1  0.500000  0.668064  0.989604  1
  Co  Co18  1  0.000000  0.167494  0.010883  1
  Co  Co19  1  0.000000  0.832167  0.010713  1
  Co  Co20  1  0.500000  0.500593  0.702666  1
  Co  Co21  1  0.000000  0.999892  0.297104  1
  Tc  Tc22  1  0.500000  0.500202  0.156723  1
  Tc  Tc23  1  0.000000  0.999810  0.843368  1
  P  P24  1  0.500000  0.312022  0.616070  1
  P  P25  1  0.500000  0.688100  0.616834  1
  P  P26  1  0.000000  0.187784  0.382806  1
  P  P27  1  0.000000  0.812105  0.383074  1
  P  P28  1  0.500000  0.500549  0.880621  1
  P  P29  1  0.000000  0.999837  0.119901  1
  P  P30  1  0.500000  0.845732  0.892080  1
  P  P31  1  0.500000  0.153763  0.892613  1
  P  P32  1  0.000000  0.654451  0.108169  1
  P  P33  1  0.000000  0.345624  0.107860  1
  P  P34  1  0.500000  0.499996  0.349229  1
  P  P35  1  0.000000  0.000089  0.650672  1
