# generated using pymatgen
data_Ho2Al6Si3IrOs2
_symmetry_space_group_name_H-M   'P 1'
_cell_length_a   7.48324040
_cell_length_b   7.45393708
_cell_length_c   9.32264805
_cell_angle_alpha   90.04472321
_cell_angle_beta   90.00578698
_cell_angle_gamma   119.80173746
_symmetry_Int_Tables_number   1
_chemical_formula_structural   Ho2Al6Si3IrOs2
_chemical_formula_sum   'Ho4 Al12 Si6 Ir2 Os4'
_cell_volume   451.24179822
_cell_formula_units_Z   2
loop_
 _symmetry_equiv_pos_site_id
 _symmetry_equiv_pos_as_xyz
  1  'x, y, z'
loop_
 _atom_site_type_symbol
 _atom_site_label
 _atom_site_symmetry_multiplicity
 _atom_site_fract_x
 _atom_site_fract_y
 _atom_site_fract_z
 _atom_site_occupancy
  Ho  Ho0  1  0.000031  0.676049  0.250294  1
  Ho  Ho1  1  0.006372  0.335281  0.754169  1
  Ho  Ho2  1  0.674498  0.999091  0.249056  1
  Ho  Ho3  1  0.313108  0.992195  0.746797  1
  Al  Al4  1  0.002827  0.329592  0.425625  1
  Al  Al5  1  0.669825  0.999291  0.577833  1
  Al  Al6  1  0.659650  0.994691  0.922383  1
  Al  Al7  1  0.341759  0.006545  0.073386  1
  Al  Al8  1  0.334460  0.335927  0.560830  1
  Al  Al9  1  0.663147  0.666550  0.439205  1
  Al  Al10  1  0.661467  0.665293  0.057597  1
  Al  Al11  1  0.339048  0.334418  0.942075  1
  Al  Al12  1  0.334379  0.547451  0.248796  1
  Al  Al13  1  0.665544  0.452073  0.752116  1
  Al  Al14  1  0.549343  0.339768  0.248938  1
  Al  Al15  1  0.452481  0.661984  0.749871  1
  Si  Si16  1  0.128470  0.127951  0.250224  1
  Si  Si17  1  0.868530  0.875146  0.749497  1
  Si  Si18  1  0.003669  0.331774  0.074600  1
  Si  Si19  1  0.995926  0.666506  0.932835  1
  Si  Si20  1  0.991085  0.658582  0.570996  1
  Si  Si21  1  0.341246  0.007828  0.423416  1
  Ir  Ir22  1  0.319832  0.678666  0.499878  1
  Ir  Ir23  1  0.672622  0.328408  0.499701  1
  Os  Os24  1  0.689030  0.335815  0.002277  1
  Os  Os25  1  0.311135  0.663773  0.997984  1
  Os  Os26  1  0.001356  0.998736  0.999887  1
  Os  Os27  1  0.009161  0.990617  0.499734  1
