# generated using pymatgen
data_TbEr3Al24Pt7Au2
_symmetry_space_group_name_H-M   'P 1'
_cell_length_a   7.56338747
_cell_length_b   7.57580869
_cell_length_c   13.13972439
_cell_angle_alpha   84.55031265
_cell_angle_beta   78.99986109
_cell_angle_gamma   59.93068122
_symmetry_Int_Tables_number   1
_chemical_formula_structural   TbEr3Al24Pt7Au2
_chemical_formula_sum   'Tb1 Er3 Al24 Pt7 Au2'
_cell_volume   639.59448107
_cell_formula_units_Z   1
loop_
 _symmetry_equiv_pos_site_id
 _symmetry_equiv_pos_as_xyz
  1  'x, y, z'
loop_
 _atom_site_type_symbol
 _atom_site_label
 _atom_site_symmetry_multiplicity
 _atom_site_fract_x
 _atom_site_fract_y
 _atom_site_fract_z
 _atom_site_occupancy
  Tb  Tb0  1  0.266336  0.501022  0.189986  1
  Er  Er1  1  0.392889  0.169217  0.808601  1
  Er  Er2  1  0.607005  0.830805  0.191276  1
  Er  Er3  1  0.733779  0.499077  0.809413  1
  Al  Al4  1  0.682814  0.834243  0.944531  1
  Al  Al5  1  0.317333  0.165079  0.054846  1
  Al  Al6  1  0.145942  0.839219  0.562407  1
  Al  Al7  1  0.853999  0.160915  0.437830  1
  Al  Al8  1  0.488177  0.159348  0.559655  1
  Al  Al9  1  0.511876  0.840555  0.440553  1
  Al  Al10  1  0.223486  0.160296  0.325749  1
  Al  Al11  1  0.776343  0.839380  0.674909  1
  Al  Al12  1  0.440206  0.506325  0.674934  1
  Al  Al13  1  0.559975  0.493638  0.325731  1
  Al  Al14  1  0.108995  0.155017  0.673477  1
  Al  Al15  1  0.890500  0.845336  0.327116  1
  Al  Al16  1  0.353921  0.498431  0.943852  1
  Al  Al17  1  0.647212  0.501528  0.055019  1
  Al  Al18  1  0.015702  0.167876  0.953009  1
  Al  Al19  1  0.983919  0.832728  0.046224  1
  Al  Al20  1  0.195458  0.499260  0.437693  1
  Al  Al21  1  0.804371  0.500671  0.562637  1
  Al  Al22  1  0.733076  0.163810  0.183210  1
  Al  Al23  1  0.267713  0.835534  0.816816  1
  Al  Al24  1  0.060294  0.633417  0.817717  1
  Al  Al25  1  0.939035  0.366503  0.182211  1
  Al  Al26  1  0.853823  0.042999  0.816359  1
  Al  Al27  1  0.146093  0.957835  0.183689  1
  Pt  Pt28  1  0.657258  0.171502  0.999636  1
  Pt  Pt29  1  0.343032  0.828434  0.000040  1
  Pt  Pt30  1  0.537473  0.166364  0.362121  1
  Pt  Pt31  1  0.463004  0.833055  0.638262  1
  Pt  Pt32  1  0.779351  0.175584  0.637080  1
  Pt  Pt33  1  0.220433  0.824963  0.363327  1
  Pt  Pt34  1  0.999899  0.499982  0.999809  1
  Au  Au35  1  0.119929  0.490456  0.638332  1
  Au  Au36  1  0.879347  0.509596  0.361946  1
