# generated using pymatgen
data_Te12HIr2Cl5
_symmetry_space_group_name_H-M   'P 1'
_cell_length_a   9.26157034
_cell_length_b   9.26157195
_cell_length_c   9.37352475
_cell_angle_alpha   109.00382768
_cell_angle_beta   109.00382936
_cell_angle_gamma   106.71888198
_symmetry_Int_Tables_number   1
_chemical_formula_structural   Te12HIr2Cl5
_chemical_formula_sum   'Te12 H1 Ir2 Cl5'
_cell_volume   645.31259885
_cell_formula_units_Z   1
loop_
 _symmetry_equiv_pos_site_id
 _symmetry_equiv_pos_as_xyz
  1  'x, y, z'
loop_
 _atom_site_type_symbol
 _atom_site_label
 _atom_site_symmetry_multiplicity
 _atom_site_fract_x
 _atom_site_fract_y
 _atom_site_fract_z
 _atom_site_occupancy
  Te  Te0  1  0.936075  0.202321  0.193519  1
  Te  Te1  1  0.183802  0.922222  0.169084  1
  Te  Te2  1  0.173075  0.187532  0.927159  1
  Te  Te3  1  0.675133  0.674176  0.425210  1
  Te  Te4  1  0.416509  0.689027  0.676202  1
  Te  Te5  1  0.676031  0.434940  0.692533  1
  Te  Te6  1  0.065060  0.823969  0.807467  1
  Te  Te7  1  0.810973  0.083491  0.823798  1
  Te  Te8  1  0.825824  0.824867  0.074790  1
  Te  Te9  1  0.312468  0.326925  0.572841  1
  Te  Te10  1  0.577778  0.316198  0.330916  1
  Te  Te11  1  0.297679  0.563925  0.306481  1
  H  H12  1  0.050822  0.449178  0.250000  1
  Ir  Ir13  1  0.252132  0.247868  0.250000  1
  Ir  Ir14  1  0.742795  0.757205  0.750000  1
  Cl  Cl15  1  0.248463  0.984957  0.501669  1
  Cl  Cl16  1  0.515043  0.251537  0.998331  1
  Cl  Cl17  1  0.750428  0.017433  0.496907  1
  Cl  Cl18  1  0.482567  0.749572  0.003093  1
  Cl  Cl19  1  0.007341  0.492659  0.750000  1
