# generated using pymatgen
data_TbCe4Lu5Ru4
_symmetry_space_group_name_H-M   'P 1'
_cell_length_a   6.32981569
_cell_length_b   6.99132179
_cell_length_c   8.69469084
_cell_angle_alpha   95.88638276
_cell_angle_beta   111.00189375
_cell_angle_gamma   89.80782239
_symmetry_Int_Tables_number   1
_chemical_formula_structural   TbCe4Lu5Ru4
_chemical_formula_sum   'Tb1 Ce4 Lu5 Ru4'
_cell_volume   357.08665469
_cell_formula_units_Z   1
loop_
 _symmetry_equiv_pos_site_id
 _symmetry_equiv_pos_as_xyz
  1  'x, y, z'
loop_
 _atom_site_type_symbol
 _atom_site_label
 _atom_site_symmetry_multiplicity
 _atom_site_fract_x
 _atom_site_fract_y
 _atom_site_fract_z
 _atom_site_occupancy
  Tb  Tb0  1  0.293980  0.314755  0.434783  1
  Ce  Ce1  1  0.523369  0.093843  0.809466  1
  Ce  Ce2  1  0.479655  0.906049  0.191199  1
  Ce  Ce3  1  0.711291  0.406474  0.190454  1
  Ce  Ce4  1  0.287389  0.594592  0.808794  1
  Lu  Lu5  1  0.705962  0.685118  0.567830  1
  Lu  Lu6  1  0.861338  0.185389  0.567851  1
  Lu  Lu7  1  0.137628  0.814729  0.432435  1
  Lu  Lu8  1  0.081842  0.250046  0.999058  1
  Lu  Lu9  1  0.919296  0.749196  0.999822  1
  Ru  Ru10  1  0.345137  0.595315  0.222508  1
  Ru  Ru11  1  0.660383  0.407434  0.780980  1
  Ru  Ru12  1  0.119808  0.907186  0.776908  1
  Ru  Ru13  1  0.872923  0.089875  0.217913  1
