# generated using pymatgen
data_Ce2Hf2ZrScF22
_symmetry_space_group_name_H-M   'P 1'
_cell_length_a   8.37784504
_cell_length_b   8.37784566
_cell_length_c   8.40781360
_cell_angle_alpha   124.89168067
_cell_angle_beta   106.44696109
_cell_angle_gamma   98.15124195
_symmetry_Int_Tables_number   1
_chemical_formula_structural   Ce2Hf2ZrScF22
_chemical_formula_sum   'Ce2 Hf2 Zr1 Sc1 F22'
_cell_volume   428.23854442
_cell_formula_units_Z   1
loop_
 _symmetry_equiv_pos_site_id
 _symmetry_equiv_pos_as_xyz
  1  'x, y, z'
loop_
 _atom_site_type_symbol
 _atom_site_label
 _atom_site_symmetry_multiplicity
 _atom_site_fract_x
 _atom_site_fract_y
 _atom_site_fract_z
 _atom_site_occupancy
  Ce  Ce0  1  0.748220  0.245534  0.492045  1
  Ce  Ce1  1  0.246511  0.743825  0.492045  1
  Hf  Hf2  1  0.177823  0.867696  0.045520  1
  Hf  Hf3  1  0.814594  0.134611  0.949204  1
  Zr  Zr4  1  0.323272  0.368639  0.691911  1
  Sc  Sc5  1  0.683493  0.638064  0.321557  1
  F  F6  1  0.706417  0.905973  0.346626  1
  F  F7  1  0.293290  0.097367  0.654986  1
  F  F8  1  0.557618  0.361696  0.654986  1
  F  F9  1  0.945993  0.604914  0.812491  1
  F  F10  1  0.440653  0.640208  0.346626  1
  F  F11  1  0.055716  0.391192  0.185167  1
  F  F12  1  0.793974  0.129450  0.185167  1
  F  F13  1  0.207578  0.866498  0.812491  1
  F  F14  1  0.499461  0.500319  0.999780  1
  F  F15  1  0.000023  0.001844  0.001866  1
  F  F16  1  0.780448  0.874816  0.655264  1
  F  F17  1  0.220226  0.129005  0.349229  1
  F  F18  1  0.278740  0.633517  0.912259  1
  F  F19  1  0.720981  0.367565  0.088545  1
  F  F20  1  0.961402  0.736716  0.419807  1
  F  F21  1  0.045799  0.262241  0.583328  1
  F  F22  1  0.321088  0.537530  0.583328  1
  F  F23  1  0.175765  0.760485  0.211498  1
  F  F24  1  0.683089  0.458405  0.419807  1
  F  F25  1  0.823751  0.243423  0.786485  1
  F  F26  1  0.543062  0.962734  0.786485  1
  F  F27  1  0.451014  0.035733  0.211498  1
