# generated using pymatgen
data_Ho4LuCo2Rh
_symmetry_space_group_name_H-M   'P 1'
_cell_length_a   7.06679003
_cell_length_b   7.06678926
_cell_length_c   8.69096485
_cell_angle_alpha   113.98888948
_cell_angle_beta   113.98888578
_cell_angle_gamma   90.00000134
_symmetry_Int_Tables_number   1
_chemical_formula_structural   Ho4LuCo2Rh
_chemical_formula_sum   'Ho8 Lu2 Co4 Rh2'
_cell_volume   355.10867149
_cell_formula_units_Z   2
loop_
 _symmetry_equiv_pos_site_id
 _symmetry_equiv_pos_as_xyz
  1  'x, y, z'
loop_
 _atom_site_type_symbol
 _atom_site_label
 _atom_site_symmetry_multiplicity
 _atom_site_fract_x
 _atom_site_fract_y
 _atom_site_fract_z
 _atom_site_occupancy
  Ho  Ho0  1  0.463213  0.318416  0.281629  1
  Ho  Ho1  1  0.963214  0.463213  0.281629  1
  Ho  Ho2  1  0.318416  0.818415  0.281629  1
  Ho  Ho3  1  0.818415  0.963214  0.281629  1
  Ho  Ho4  1  0.181584  0.036787  0.718370  1
  Ho  Ho5  1  0.681583  0.181584  0.718370  1
  Ho  Ho6  1  0.036787  0.536786  0.718370  1
  Ho  Ho7  1  0.536786  0.681583  0.718370  1
  Lu  Lu8  1  0.000000  0.000000  0.000000  1
  Lu  Lu9  1  0.500000  0.500000  0.000000  1
  Co  Co10  1  0.613112  0.113112  0.000000  1
  Co  Co11  1  0.113112  0.386889  0.000000  1
  Co  Co12  1  0.886888  0.613112  0.000000  1
  Co  Co13  1  0.386889  0.886888  0.000000  1
  Rh  Rh14  1  0.250000  0.250000  0.500000  1
  Rh  Rh15  1  0.750000  0.750000  0.500000  1
