# generated using pymatgen
data_Dy2ErZnSn3Ir2
_symmetry_space_group_name_H-M   'P 1'
_cell_length_a   7.44813848
_cell_length_b   7.46843255
_cell_length_c   4.03999900
_cell_angle_alpha   90.00000000
_cell_angle_beta   90.00000000
_cell_angle_gamma   119.83794687
_symmetry_Int_Tables_number   1
_chemical_formula_structural   Dy2ErZnSn3Ir2
_chemical_formula_sum   'Dy2 Er1 Zn1 Sn3 Ir2'
_cell_volume   194.93775707
_cell_formula_units_Z   1
loop_
 _symmetry_equiv_pos_site_id
 _symmetry_equiv_pos_as_xyz
  1  'x, y, z'
loop_
 _atom_site_type_symbol
 _atom_site_label
 _atom_site_symmetry_multiplicity
 _atom_site_fract_x
 _atom_site_fract_y
 _atom_site_fract_z
 _atom_site_occupancy
  Dy  Dy0  1  0.393585  0.409532  0.500000  1
  Dy  Dy1  1  0.590221  0.984317  0.500000  1
  Er  Er2  1  0.017576  0.608128  0.500000  1
  Zn  Zn3  1  0.667657  0.334201  0.000000  1
  Sn  Sn4  1  0.745290  0.742540  0.000000  1
  Sn  Sn5  1  0.256963  0.001516  0.000000  1
  Sn  Sn6  1  0.998156  0.255432  0.000000  1
  Ir  Ir7  1  0.330785  0.665681  0.000000  1
  Ir  Ir8  1  0.999767  0.998652  0.500000  1
