# generated using pymatgen
data_Dy3HoTm4(B6Os)4
_symmetry_space_group_name_H-M   'P 1'
_cell_length_a   3.63253900
_cell_length_b   9.09991300
_cell_length_c   11.48247300
_cell_angle_alpha   90.00200407
_cell_angle_beta   90.00000000
_cell_angle_gamma   90.00000000
_symmetry_Int_Tables_number   1
_chemical_formula_structural   Dy3HoTm4(B6Os)4
_chemical_formula_sum   'Dy3 Ho1 Tm4 B24 Os4'
_cell_volume   379.56220307
_cell_formula_units_Z   1
loop_
 _symmetry_equiv_pos_site_id
 _symmetry_equiv_pos_as_xyz
  1  'x, y, z'
loop_
 _atom_site_type_symbol
 _atom_site_label
 _atom_site_symmetry_multiplicity
 _atom_site_fract_x
 _atom_site_fract_y
 _atom_site_fract_z
 _atom_site_occupancy
  Dy  Dy0  1  0.000000  0.321687  0.413928  1
  Dy  Dy1  1  0.000000  0.678309  0.586087  1
  Dy  Dy2  1  0.000000  0.821719  0.086046  1
  Ho  Ho3  1  0.000000  0.178415  0.913978  1
  Tm  Tm4  1  0.000000  0.944059  0.372998  1
  Tm  Tm5  1  0.000000  0.055978  0.627030  1
  Tm  Tm6  1  0.000000  0.443985  0.126910  1
  Tm  Tm7  1  0.000000  0.555892  0.873037  1
  B  B8  1  0.500000  0.554079  0.432976  1
  B  B9  1  0.500000  0.445887  0.567054  1
  B  B10  1  0.500000  0.054150  0.066851  1
  B  B11  1  0.500000  0.946099  0.933006  1
  B  B12  1  0.500000  0.748953  0.419699  1
  B  B13  1  0.500000  0.251042  0.580346  1
  B  B14  1  0.500000  0.248883  0.080080  1
  B  B15  1  0.500000  0.751103  0.919689  1
  B  B16  1  0.500000  0.791571  0.266316  1
  B  B17  1  0.500000  0.208336  0.733848  1
  B  B18  1  0.500000  0.291548  0.233605  1
  B  B19  1  0.500000  0.708457  0.766346  1
  B  B20  1  0.500000  0.631068  0.184857  1
  B  B21  1  0.500000  0.368739  0.815247  1
  B  B22  1  0.500000  0.131098  0.315099  1
  B  B23  1  0.500000  0.868954  0.684912  1
  B  B24  1  0.500000  0.982739  0.213399  1
  B  B25  1  0.500000  0.017509  0.786663  1
  B  B26  1  0.500000  0.482690  0.286534  1
  B  B27  1  0.500000  0.517236  0.713488  1
  B  B28  1  0.500000  0.605640  0.029181  1
  B  B29  1  0.500000  0.394035  0.970727  1
  B  B30  1  0.500000  0.105619  0.470831  1
  B  B31  1  0.500000  0.894393  0.529186  1
  Os  Os32  1  0.000000  0.637717  0.320757  1
  Os  Os33  1  0.000000  0.362176  0.679357  1
  Os  Os34  1  0.000000  0.137708  0.179055  1
  Os  Os35  1  0.000000  0.862523  0.820876  1
