# generated using pymatgen
data_DyHoPaCo2
_symmetry_space_group_name_H-M   'P 1'
_cell_length_a   3.58706712
_cell_length_b   5.95191199
_cell_length_c   5.95191132
_cell_angle_alpha   61.21272789
_cell_angle_beta   72.46204248
_cell_angle_gamma   72.46204212
_symmetry_Int_Tables_number   1
_chemical_formula_structural   DyHoPaCo2
_chemical_formula_sum   'Dy1 Ho1 Pa1 Co2'
_cell_volume   104.31950301
_cell_formula_units_Z   1
loop_
 _symmetry_equiv_pos_site_id
 _symmetry_equiv_pos_as_xyz
  1  'x, y, z'
loop_
 _atom_site_type_symbol
 _atom_site_label
 _atom_site_symmetry_multiplicity
 _atom_site_fract_x
 _atom_site_fract_y
 _atom_site_fract_z
 _atom_site_occupancy
  Dy  Dy0  1  0.193150  0.306850  0.306850  1
  Ho  Ho1  1  0.807170  0.692830  0.692830  1
  Pa  Pa2  1  0.000007  0.999993  0.999993  1
  Co  Co3  1  0.499836  0.284647  0.715680  1
  Co  Co4  1  0.499836  0.715680  0.284647  1
