# generated using pymatgen
data_Y3(ZnNi3)2
_symmetry_space_group_name_H-M   'P 1'
_cell_length_a   7.71946590
_cell_length_b   7.71946647
_cell_length_c   7.71946600
_cell_angle_alpha   109.47122464
_cell_angle_beta   109.47122614
_cell_angle_gamma   109.47121363
_symmetry_Int_Tables_number   1
_chemical_formula_structural   Y3(ZnNi3)2
_chemical_formula_sum   'Y6 Zn4 Ni12'
_cell_volume   354.11138743
_cell_formula_units_Z   2
loop_
 _symmetry_equiv_pos_site_id
 _symmetry_equiv_pos_as_xyz
  1  'x, y, z'
loop_
 _atom_site_type_symbol
 _atom_site_label
 _atom_site_symmetry_multiplicity
 _atom_site_fract_x
 _atom_site_fract_y
 _atom_site_fract_z
 _atom_site_occupancy
  Y  Y0  1  0.705549  0.705549  0.000000  1
  Y  Y1  1  0.294451  0.000000  0.294451  1
  Y  Y2  1  0.000000  0.294451  0.294451  1
  Y  Y3  1  0.294451  0.294451  0.000000  1
  Y  Y4  1  0.705549  0.000000  0.705549  1
  Y  Y5  1  0.000000  0.705549  0.705549  1
  Zn  Zn6  1  0.000000  0.000000  0.500000  1
  Zn  Zn7  1  0.000000  0.500000  0.000000  1
  Zn  Zn8  1  0.500000  0.000000  0.000000  1
  Zn  Zn9  1  0.500000  0.500000  0.500000  1
  Ni  Ni10  1  0.337773  0.337773  0.675546  1
  Ni  Ni11  1  0.662227  0.000000  0.337773  1
  Ni  Ni12  1  0.000000  0.662227  0.337773  1
  Ni  Ni13  1  0.662227  0.337773  0.000000  1
  Ni  Ni14  1  0.337773  0.675546  0.337773  1
  Ni  Ni15  1  0.000000  0.337773  0.662227  1
  Ni  Ni16  1  0.337773  0.662227  0.000000  1
  Ni  Ni17  1  0.337773  0.000000  0.662227  1
  Ni  Ni18  1  0.675546  0.337773  0.337773  1
  Ni  Ni19  1  0.662227  0.662227  0.324454  1
  Ni  Ni20  1  0.662227  0.324454  0.662227  1
  Ni  Ni21  1  0.324454  0.662227  0.662227  1
