# generated using pymatgen
data_Tm3Lu7Zn3Bi2Pt
_symmetry_space_group_name_H-M   'P 1'
_cell_length_a   8.48870495
_cell_length_b   8.49107718
_cell_length_c   8.53479719
_cell_angle_alpha   124.31117980
_cell_angle_beta   124.29606029
_cell_angle_gamma   82.35875823
_symmetry_Int_Tables_number   1
_chemical_formula_structural   Tm3Lu7Zn3Bi2Pt
_chemical_formula_sum   'Tm3 Lu7 Zn3 Bi2 Pt1'
_cell_volume   404.12059702
_cell_formula_units_Z   1
loop_
 _symmetry_equiv_pos_site_id
 _symmetry_equiv_pos_as_xyz
  1  'x, y, z'
loop_
 _atom_site_type_symbol
 _atom_site_label
 _atom_site_symmetry_multiplicity
 _atom_site_fract_x
 _atom_site_fract_y
 _atom_site_fract_z
 _atom_site_occupancy
  Tm  Tm0  1  0.506034  0.013391  0.800518  1
  Tm  Tm1  1  0.706852  0.514053  0.500060  1
  Tm  Tm2  1  0.985747  0.793050  0.499863  1
  Lu  Lu3  1  0.004603  0.002123  0.006649  1
  Lu  Lu4  1  0.497824  0.495921  0.993574  1
  Lu  Lu5  1  0.786257  0.293918  0.799875  1
  Lu  Lu6  1  0.205914  0.713600  0.199801  1
  Lu  Lu7  1  0.486452  0.994026  0.200421  1
  Lu  Lu8  1  0.299560  0.475901  0.499954  1
  Lu  Lu9  1  0.023957  0.200411  0.500024  1
  Zn  Zn10  1  0.138174  0.639923  0.778045  1
  Zn  Zn11  1  0.860332  0.362048  0.222273  1
  Zn  Zn12  1  0.637501  0.862505  0.499761  1
  Bi  Bi13  1  0.246607  0.253352  0.999993  1
  Bi  Bi14  1  0.746854  0.753113  0.000024  1
  Pt  Pt15  1  0.367329  0.132668  0.499165  1
