# generated using pymatgen
data_Sm8Ho9Er3Sn16
_symmetry_space_group_name_H-M   'P 1'
_cell_length_a   8.06715801
_cell_length_b   8.22008801
_cell_length_c   15.52721600
_cell_angle_alpha   90.00000000
_cell_angle_beta   90.00000000
_cell_angle_gamma   90.00605067
_symmetry_Int_Tables_number   1
_chemical_formula_structural   Sm8Ho9Er3Sn16
_chemical_formula_sum   'Sm8 Ho9 Er3 Sn16'
_cell_volume   1029.65236928
_cell_formula_units_Z   1
loop_
 _symmetry_equiv_pos_site_id
 _symmetry_equiv_pos_as_xyz
  1  'x, y, z'
loop_
 _atom_site_type_symbol
 _atom_site_label
 _atom_site_symmetry_multiplicity
 _atom_site_fract_x
 _atom_site_fract_y
 _atom_site_fract_z
 _atom_site_occupancy
  Sm  Sm0  1  0.519099  0.320812  0.902393  1
  Sm  Sm1  1  0.019039  0.179129  0.597616  1
  Sm  Sm2  1  0.480933  0.679152  0.402374  1
  Sm  Sm3  1  0.980948  0.820836  0.097620  1
  Sm  Sm4  1  0.480933  0.679152  0.097626  1
  Sm  Sm5  1  0.980948  0.820836  0.402380  1
  Sm  Sm6  1  0.519099  0.320812  0.597607  1
  Sm  Sm7  1  0.019039  0.179129  0.902384  1
  Ho  Ho8  1  0.365888  0.835685  0.877651  1
  Ho  Ho9  1  0.865792  0.664394  0.622355  1
  Ho  Ho10  1  0.634143  0.164360  0.377647  1
  Ho  Ho11  1  0.134152  0.335653  0.122366  1
  Ho  Ho12  1  0.634143  0.164360  0.122353  1
  Ho  Ho13  1  0.134152  0.335653  0.377634  1
  Ho  Ho14  1  0.365888  0.835685  0.622349  1
  Ho  Ho15  1  0.865792  0.664394  0.877645  1
  Ho  Ho16  1  0.197757  0.503474  0.750000  1
  Er  Er17  1  0.697821  0.996459  0.750000  1
  Er  Er18  1  0.802197  0.496467  0.250000  1
  Er  Er19  1  0.302184  0.003509  0.250000  1
  Sn  Sn20  1  0.296913  0.037814  0.041935  1
  Sn  Sn21  1  0.796912  0.462204  0.458063  1
  Sn  Sn22  1  0.703086  0.962188  0.541924  1
  Sn  Sn23  1  0.203077  0.537819  0.958144  1
  Sn  Sn24  1  0.703086  0.962188  0.958076  1
  Sn  Sn25  1  0.203077  0.537819  0.541856  1
  Sn  Sn26  1  0.296913  0.037814  0.458065  1
  Sn  Sn27  1  0.796912  0.462204  0.041937  1
  Sn  Sn28  1  0.564329  0.622386  0.750000  1
  Sn  Sn29  1  0.064097  0.877789  0.750000  1
  Sn  Sn30  1  0.435877  0.377681  0.250000  1
  Sn  Sn31  1  0.935867  0.122314  0.250000  1
  Sn  Sn32  1  0.327456  0.144119  0.750000  1
  Sn  Sn33  1  0.827390  0.355674  0.750000  1
  Sn  Sn34  1  0.672551  0.855724  0.250000  1
  Sn  Sn35  1  0.172509  0.644307  0.250000  1
