# generated using pymatgen
data_Hf2Nb2GaC3
_symmetry_space_group_name_H-M   'P 1'
_cell_length_a   3.22332700
_cell_length_b   3.22332842
_cell_length_c   24.32296500
_cell_angle_alpha   90.00000000
_cell_angle_beta   90.00000000
_cell_angle_gamma   119.99997512
_symmetry_Int_Tables_number   1
_chemical_formula_structural   Hf2Nb2GaC3
_chemical_formula_sum   'Hf4 Nb4 Ga2 C6'
_cell_volume   218.85485205
_cell_formula_units_Z   2
loop_
 _symmetry_equiv_pos_site_id
 _symmetry_equiv_pos_as_xyz
  1  'x, y, z'
loop_
 _atom_site_type_symbol
 _atom_site_label
 _atom_site_symmetry_multiplicity
 _atom_site_fract_x
 _atom_site_fract_y
 _atom_site_fract_z
 _atom_site_occupancy
  Hf  Hf0  1  0.333333  0.666667  0.445376  1
  Hf  Hf1  1  0.666667  0.333333  0.554624  1
  Hf  Hf2  1  0.666667  0.333333  0.945376  1
  Hf  Hf3  1  0.333333  0.666667  0.054624  1
  Nb  Nb4  1  0.000000  0.000000  0.339035  1
  Nb  Nb5  1  0.000000  0.000000  0.660965  1
  Nb  Nb6  1  0.000000  0.000000  0.839035  1
  Nb  Nb7  1  0.000000  0.000000  0.160965  1
  Ga  Ga8  1  0.333333  0.666667  0.250000  1
  Ga  Ga9  1  0.666667  0.333333  0.750000  1
  C  C10  1  0.000000  0.000000  0.500000  1
  C  C11  1  0.000000  0.000000  0.000000  1
  C  C12  1  0.666667  0.333333  0.387356  1
  C  C13  1  0.333333  0.666667  0.612644  1
  C  C14  1  0.333333  0.666667  0.887356  1
  C  C15  1  0.666667  0.333333  0.112644  1
