# generated using pymatgen
data_YGe4PtRh5
_symmetry_space_group_name_H-M   'P 1'
_cell_length_a   7.27750671
_cell_length_b   7.27750469
_cell_length_c   3.86134700
_cell_angle_alpha   90.00000000
_cell_angle_beta   90.00000000
_cell_angle_gamma   120.34357203
_symmetry_Int_Tables_number   1
_chemical_formula_structural   YGe4PtRh5
_chemical_formula_sum   'Y1 Ge4 Pt1 Rh5'
_cell_volume   176.49019522
_cell_formula_units_Z   1
loop_
 _symmetry_equiv_pos_site_id
 _symmetry_equiv_pos_as_xyz
  1  'x, y, z'
loop_
 _atom_site_type_symbol
 _atom_site_label
 _atom_site_symmetry_multiplicity
 _atom_site_fract_x
 _atom_site_fract_y
 _atom_site_fract_z
 _atom_site_occupancy
  Y  Y0  1  0.999072  0.000928  0.000000  1
  Ge  Ge1  1  0.804062  0.195938  0.500000  1
  Ge  Ge2  1  0.798815  0.605242  0.500000  1
  Ge  Ge3  1  0.394758  0.201185  0.500000  1
  Ge  Ge4  1  0.336865  0.663135  0.000000  1
  Pt  Pt5  1  0.197192  0.802808  0.500000  1
  Rh  Rh6  1  0.534138  0.465862  0.000000  1
  Rh  Rh7  1  0.533656  0.067134  0.000000  1
  Rh  Rh8  1  0.932866  0.466344  0.000000  1
  Rh  Rh9  1  0.198192  0.396285  0.500000  1
  Rh  Rh10  1  0.603715  0.801808  0.500000  1
