# generated using pymatgen
data_LiU2Sb4Pt3
_symmetry_space_group_name_H-M   'P 1'
_cell_length_a   8.36095625
_cell_length_b   8.36095499
_cell_length_c   8.36095545
_cell_angle_alpha   110.60701698
_cell_angle_beta   107.22276361
_cell_angle_gamma   110.60701256
_symmetry_Int_Tables_number   1
_chemical_formula_structural   LiU2Sb4Pt3
_chemical_formula_sum   'Li2 U4 Sb8 Pt6'
_cell_volume   449.41378676
_cell_formula_units_Z   2
loop_
 _symmetry_equiv_pos_site_id
 _symmetry_equiv_pos_as_xyz
  1  'x, y, z'
loop_
 _atom_site_type_symbol
 _atom_site_label
 _atom_site_symmetry_multiplicity
 _atom_site_fract_x
 _atom_site_fract_y
 _atom_site_fract_z
 _atom_site_occupancy
  Li  Li0  1  0.875000  0.250000  0.125000  1
  Li  Li1  1  0.625000  0.750000  0.375000  1
  U  U2  1  0.250000  0.129021  0.879021  1
  U  U3  1  0.750000  0.370979  0.620979  1
  U  U4  1  0.120979  0.870979  0.250000  1
  U  U5  1  0.379021  0.629021  0.750000  1
  Sb  Sb6  1  0.676033  0.504624  0.003169  1
  Sb  Sb7  1  0.498544  0.995376  0.671409  1
  Sb  Sb8  1  0.001456  0.672864  0.496831  1
  Sb  Sb9  1  0.823967  0.827136  0.828591  1
  Sb  Sb10  1  0.503169  0.004624  0.176033  1
  Sb  Sb11  1  0.171409  0.495376  0.998544  1
  Sb  Sb12  1  0.996831  0.172864  0.501456  1
  Sb  Sb13  1  0.328591  0.327136  0.323967  1
  Pt  Pt14  1  0.375000  0.250000  0.625000  1
  Pt  Pt15  1  0.125000  0.750000  0.875000  1
  Pt  Pt16  1  0.250000  0.619816  0.369816  1
  Pt  Pt17  1  0.750000  0.880184  0.130184  1
  Pt  Pt18  1  0.630184  0.380184  0.250000  1
  Pt  Pt19  1  0.869816  0.119816  0.750000  1
