# generated using pymatgen
data_Ca6LaPa(Si3Pd)4
_symmetry_space_group_name_H-M   'P 1'
_cell_length_a   8.26889700
_cell_length_b   8.26889650
_cell_length_c   8.35789700
_cell_angle_alpha   90.00000000
_cell_angle_beta   90.00000000
_cell_angle_gamma   120.00000599
_symmetry_Int_Tables_number   1
_chemical_formula_structural   Ca6LaPa(Si3Pd)4
_chemical_formula_sum   'Ca6 La1 Pa1 Si12 Pd4'
_cell_volume   494.90604509
_cell_formula_units_Z   1
loop_
 _symmetry_equiv_pos_site_id
 _symmetry_equiv_pos_as_xyz
  1  'x, y, z'
loop_
 _atom_site_type_symbol
 _atom_site_label
 _atom_site_symmetry_multiplicity
 _atom_site_fract_x
 _atom_site_fract_y
 _atom_site_fract_z
 _atom_site_occupancy
  Ca  Ca0  1  0.500591  0.001186  0.250000  1
  Ca  Ca1  1  0.499327  0.998652  0.750000  1
  Ca  Ca2  1  0.998814  0.499409  0.250000  1
  Ca  Ca3  1  0.001348  0.500673  0.750000  1
  Ca  Ca4  1  0.500591  0.499409  0.250000  1
  Ca  Ca5  1  0.499327  0.500673  0.750000  1
  La  La6  1  0.000000  0.000000  0.250000  1
  Pa  Pa7  1  0.000000  0.000000  0.750000  1
  Si  Si8  1  0.164716  0.329431  0.993644  1
  Si  Si9  1  0.835330  0.670660  0.992423  1
  Si  Si10  1  0.670569  0.835284  0.993644  1
  Si  Si11  1  0.835330  0.670660  0.507577  1
  Si  Si12  1  0.329340  0.164670  0.992423  1
  Si  Si13  1  0.164716  0.329431  0.506356  1
  Si  Si14  1  0.164716  0.835284  0.993644  1
  Si  Si15  1  0.329340  0.164670  0.507577  1
  Si  Si16  1  0.835330  0.164670  0.992423  1
  Si  Si17  1  0.670569  0.835284  0.506356  1
  Si  Si18  1  0.835330  0.164670  0.507577  1
  Si  Si19  1  0.164716  0.835284  0.506356  1
  Pd  Pd20  1  0.333333  0.666667  0.999883  1
  Pd  Pd21  1  0.666667  0.333333  0.998009  1
  Pd  Pd22  1  0.666667  0.333333  0.501991  1
  Pd  Pd23  1  0.333333  0.666667  0.500117  1
