# generated using pymatgen
data_SmLu3(HfPt)4
_symmetry_space_group_name_H-M   'P 1'
_cell_length_a   4.63371000
_cell_length_b   6.97887140
_cell_length_c   8.18553500
_cell_angle_alpha   90.04751886
_cell_angle_beta   90.00000000
_cell_angle_gamma   90.00000000
_symmetry_Int_Tables_number   1
_chemical_formula_structural   SmLu3(HfPt)4
_chemical_formula_sum   'Sm1 Lu3 Hf4 Pt4'
_cell_volume   264.70428164
_cell_formula_units_Z   1
loop_
 _symmetry_equiv_pos_site_id
 _symmetry_equiv_pos_as_xyz
  1  'x, y, z'
loop_
 _atom_site_type_symbol
 _atom_site_label
 _atom_site_symmetry_multiplicity
 _atom_site_fract_x
 _atom_site_fract_y
 _atom_site_fract_z
 _atom_site_occupancy
  Sm  Sm0  1  0.750000  0.515441  0.821516  1
  Lu  Lu1  1  0.250000  0.982566  0.321657  1
  Lu  Lu2  1  0.250000  0.482870  0.179562  1
  Lu  Lu3  1  0.750000  0.016630  0.676232  1
  Hf  Hf4  1  0.250000  0.854843  0.923114  1
  Hf  Hf5  1  0.250000  0.352185  0.574631  1
  Hf  Hf6  1  0.750000  0.145711  0.079118  1
  Hf  Hf7  1  0.750000  0.646998  0.420775  1
  Pt  Pt8  1  0.250000  0.230502  0.905858  1
  Pt  Pt9  1  0.250000  0.736064  0.592847  1
  Pt  Pt10  1  0.750000  0.769705  0.101152  1
  Pt  Pt11  1  0.750000  0.266484  0.403542  1
