# generated using pymatgen
data_NdZr3(NiAs)4
_symmetry_space_group_name_H-M   'P 1'
_cell_length_a   3.99914000
_cell_length_b   3.99913928
_cell_length_c   14.72484100
_cell_angle_alpha   90.00000000
_cell_angle_beta   90.00000000
_cell_angle_gamma   120.00000597
_symmetry_Int_Tables_number   1
_chemical_formula_structural   NdZr3(NiAs)4
_chemical_formula_sum   'Nd1 Zr3 Ni4 As4'
_cell_volume   203.94560797
_cell_formula_units_Z   1
loop_
 _symmetry_equiv_pos_site_id
 _symmetry_equiv_pos_as_xyz
  1  'x, y, z'
loop_
 _atom_site_type_symbol
 _atom_site_label
 _atom_site_symmetry_multiplicity
 _atom_site_fract_x
 _atom_site_fract_y
 _atom_site_fract_z
 _atom_site_occupancy
  Nd  Nd0  1  0.000000  0.000000  0.500000  1
  Zr  Zr1  1  0.000000  0.000000  0.242074  1
  Zr  Zr2  1  0.000000  0.000000  0.757926  1
  Zr  Zr3  1  0.000000  0.000000  0.000000  1
  Ni  Ni4  1  0.333333  0.666667  0.140938  1
  Ni  Ni5  1  0.666667  0.333333  0.859062  1
  Ni  Ni6  1  0.666667  0.333333  0.670000  1
  Ni  Ni7  1  0.333333  0.666667  0.330000  1
  As  As8  1  0.333333  0.666667  0.632105  1
  As  As9  1  0.666667  0.333333  0.367895  1
  As  As10  1  0.666667  0.333333  0.111263  1
  As  As11  1  0.333333  0.666667  0.888737  1
