# generated using pymatgen
data_SmHoFe3Re14C3
_symmetry_space_group_name_H-M   'P 1'
_cell_length_a   6.93582213
_cell_length_b   6.93582181
_cell_length_c   6.93582209
_cell_angle_alpha   82.52979865
_cell_angle_beta   82.52979025
_cell_angle_gamma   82.52978776
_symmetry_Int_Tables_number   1
_chemical_formula_structural   SmHoFe3Re14C3
_chemical_formula_sum   'Sm1 Ho1 Fe3 Re14 C3'
_cell_volume   325.83422379
_cell_formula_units_Z   1
loop_
 _symmetry_equiv_pos_site_id
 _symmetry_equiv_pos_as_xyz
  1  'x, y, z'
loop_
 _atom_site_type_symbol
 _atom_site_label
 _atom_site_symmetry_multiplicity
 _atom_site_fract_x
 _atom_site_fract_y
 _atom_site_fract_z
 _atom_site_occupancy
  Sm  Sm0  1  0.351757  0.351757  0.351757  1
  Ho  Ho1  1  0.648890  0.648890  0.648890  1
  Fe  Fe2  1  0.000489  0.000489  0.499931  1
  Fe  Fe3  1  0.499931  0.000489  0.000489  1
  Fe  Fe4  1  0.000489  0.499931  0.000489  1
  Re  Re5  1  0.722652  0.277627  0.999787  1
  Re  Re6  1  0.999787  0.722652  0.277627  1
  Re  Re7  1  0.277627  0.999787  0.722652  1
  Re  Re8  1  0.999787  0.277627  0.722652  1
  Re  Re9  1  0.722652  0.999787  0.277627  1
  Re  Re10  1  0.277627  0.722652  0.999787  1
  Re  Re11  1  0.346638  0.346638  0.860233  1
  Re  Re12  1  0.860233  0.346638  0.346638  1
  Re  Re13  1  0.346638  0.860233  0.346638  1
  Re  Re14  1  0.654344  0.654344  0.137392  1
  Re  Re15  1  0.137392  0.654344  0.654344  1
  Re  Re16  1  0.654344  0.137392  0.654344  1
  Re  Re17  1  0.897680  0.897680  0.897680  1
  Re  Re18  1  0.101805  0.101805  0.101805  1
  C  C19  1  0.502194  0.502194  0.994851  1
  C  C20  1  0.994851  0.502194  0.502194  1
  C  C21  1  0.502194  0.994851  0.502194  1
