# generated using pymatgen
data_Dy13ErAu20
_symmetry_space_group_name_H-M   'P 1'
_cell_length_a   8.73349003
_cell_length_b   8.73352867
_cell_length_c   10.42786400
_cell_angle_alpha   89.99997663
_cell_angle_beta   89.99957362
_cell_angle_gamma   106.95236845
_symmetry_Int_Tables_number   1
_chemical_formula_structural   Dy13ErAu20
_chemical_formula_sum   'Dy13 Er1 Au20'
_cell_volume   760.81570767
_cell_formula_units_Z   1
loop_
 _symmetry_equiv_pos_site_id
 _symmetry_equiv_pos_as_xyz
  1  'x, y, z'
loop_
 _atom_site_type_symbol
 _atom_site_label
 _atom_site_symmetry_multiplicity
 _atom_site_fract_x
 _atom_site_fract_y
 _atom_site_fract_z
 _atom_site_occupancy
  Dy  Dy0  1  0.693780  0.306222  0.000000  1
  Dy  Dy1  1  0.306220  0.693778  0.000000  1
  Dy  Dy2  1  0.806309  0.193691  0.500000  1
  Dy  Dy3  1  0.193691  0.806309  0.500000  1
  Dy  Dy4  1  0.500000  0.500000  0.500000  1
  Dy  Dy5  1  0.002499  0.502507  0.249782  1
  Dy  Dy6  1  0.997501  0.497493  0.750218  1
  Dy  Dy7  1  0.497490  0.997500  0.750219  1
  Dy  Dy8  1  0.502510  0.002500  0.249781  1
  Dy  Dy9  1  0.312714  0.312715  0.187777  1
  Dy  Dy10  1  0.687286  0.687285  0.812223  1
  Dy  Dy11  1  0.187033  0.187033  0.688627  1
  Dy  Dy12  1  0.812967  0.812967  0.311373  1
  Er  Er13  1  0.000000  0.000000  0.000000  1
  Au  Au14  1  0.860458  0.148622  0.208836  1
  Au  Au15  1  0.139542  0.851378  0.791164  1
  Au  Au16  1  0.640549  0.350793  0.709499  1
  Au  Au17  1  0.649209  0.359450  0.290501  1
  Au  Au18  1  0.359451  0.649207  0.290501  1
  Au  Au19  1  0.350791  0.640550  0.709499  1
  Au  Au20  1  0.851380  0.139540  0.791162  1
  Au  Au21  1  0.148620  0.860460  0.208838  1
  Au  Au22  1  0.937320  0.646195  0.002511  1
  Au  Au23  1  0.062680  0.353805  0.997489  1
  Au  Au24  1  0.563046  0.855051  0.502286  1
  Au  Au25  1  0.144949  0.436956  0.497715  1
  Au  Au26  1  0.436954  0.144949  0.497714  1
  Au  Au27  1  0.855051  0.563044  0.502285  1
  Au  Au28  1  0.353804  0.062682  0.997488  1
  Au  Au29  1  0.646196  0.937318  0.002512  1
  Au  Au30  1  0.105292  0.105292  0.397299  1
  Au  Au31  1  0.894708  0.894708  0.602701  1
  Au  Au32  1  0.395181  0.395182  0.897280  1
  Au  Au33  1  0.604819  0.604818  0.102720  1
