# generated using pymatgen
data_Er4Al18(PdRh)3
_symmetry_space_group_name_H-M   'P 1'
_cell_length_a   7.59300204
_cell_length_b   7.59300173
_cell_length_c   9.42031919
_cell_angle_alpha   89.98845064
_cell_angle_beta   89.98844928
_cell_angle_gamma   119.56828634
_symmetry_Int_Tables_number   1
_chemical_formula_structural   Er4Al18(PdRh)3
_chemical_formula_sum   'Er4 Al18 Pd3 Rh3'
_cell_volume   472.38502636
_cell_formula_units_Z   1
loop_
 _symmetry_equiv_pos_site_id
 _symmetry_equiv_pos_as_xyz
  1  'x, y, z'
loop_
 _atom_site_type_symbol
 _atom_site_label
 _atom_site_symmetry_multiplicity
 _atom_site_fract_x
 _atom_site_fract_y
 _atom_site_fract_z
 _atom_site_occupancy
  Er  Er0  1  0.995440  0.670300  0.750341  1
  Er  Er1  1  0.005089  0.330048  0.249743  1
  Er  Er2  1  0.669952  0.994911  0.750257  1
  Er  Er3  1  0.329700  0.004560  0.249659  1
  Al  Al4  1  0.125598  0.126299  0.750565  1
  Al  Al5  1  0.873701  0.874402  0.249435  1
  Al  Al6  1  0.999912  0.331413  0.576454  1
  Al  Al7  1  0.999782  0.668817  0.423088  1
  Al  Al8  1  0.996854  0.664883  0.075237  1
  Al  Al9  1  0.335117  0.003146  0.924763  1
  Al  Al10  1  0.996163  0.331222  0.924812  1
  Al  Al11  1  0.668778  0.003837  0.075188  1
  Al  Al12  1  0.668587  0.000088  0.423546  1
  Al  Al13  1  0.331183  0.000218  0.576912  1
  Al  Al14  1  0.332489  0.329341  0.053567  1
  Al  Al15  1  0.670659  0.667511  0.946433  1
  Al  Al16  1  0.669841  0.669815  0.555822  1
  Al  Al17  1  0.330185  0.330159  0.444178  1
  Al  Al18  1  0.339809  0.546596  0.750525  1
  Al  Al19  1  0.659719  0.451460  0.246970  1
  Al  Al20  1  0.548540  0.340281  0.753030  1
  Al  Al21  1  0.453404  0.660191  0.249475  1
  Pd  Pd22  1  0.672338  0.327662  0.500000  1
  Pd  Pd23  1  0.327409  0.672591  0.500000  1
  Pd  Pd24  1  0.327437  0.672563  0.000000  1
  Rh  Rh25  1  0.672133  0.327867  0.000000  1
  Rh  Rh26  1  0.999980  0.000020  0.500000  1
  Rh  Rh27  1  0.000203  0.999797  0.000000  1
