# generated using pymatgen
data_Dy2TiNb3(B2Ru5)2
_symmetry_space_group_name_H-M   'P 1'
_cell_length_a   9.53561905
_cell_length_b   9.52460028
_cell_length_c   3.09211100
_cell_angle_alpha   90.00000000
_cell_angle_beta   90.00000000
_cell_angle_gamma   90.61135530
_symmetry_Int_Tables_number   1
_chemical_formula_structural   Dy2TiNb3(B2Ru5)2
_chemical_formula_sum   'Dy2 Ti1 Nb3 B4 Ru10'
_cell_volume   280.81868662
_cell_formula_units_Z   1
loop_
 _symmetry_equiv_pos_site_id
 _symmetry_equiv_pos_as_xyz
  1  'x, y, z'
loop_
 _atom_site_type_symbol
 _atom_site_label
 _atom_site_symmetry_multiplicity
 _atom_site_fract_x
 _atom_site_fract_y
 _atom_site_fract_z
 _atom_site_occupancy
  Dy  Dy0  1  0.822113  0.674435  0.000000  1
  Dy  Dy1  1  0.177887  0.325565  0.000000  1
  Ti  Ti2  1  0.500000  0.500000  0.000000  1
  Nb  Nb3  1  0.326520  0.822530  0.000000  1
  Nb  Nb4  1  0.673480  0.177470  0.000000  1
  Nb  Nb5  1  0.000000  0.000000  0.000000  1
  B  B6  1  0.618499  0.876168  0.000000  1
  B  B7  1  0.381501  0.123832  0.000000  1
  B  B8  1  0.124777  0.620581  0.000000  1
  B  B9  1  0.875223  0.379419  0.000000  1
  Ru  Ru10  1  0.558848  0.720999  0.500000  1
  Ru  Ru11  1  0.441152  0.279001  0.500000  1
  Ru  Ru12  1  0.081765  0.785019  0.500000  1
  Ru  Ru13  1  0.918235  0.214981  0.500000  1
  Ru  Ru14  1  0.287338  0.581567  0.500000  1
  Ru  Ru15  1  0.712662  0.418433  0.500000  1
  Ru  Ru16  1  0.223396  0.059954  0.500000  1
  Ru  Ru17  1  0.776604  0.940046  0.500000  1
  Ru  Ru18  1  0.500000  0.000000  0.500000  1
  Ru  Ru19  1  0.000000  0.500000  0.500000  1
