# generated using pymatgen
data_LiY12Ni4Sn
_symmetry_space_group_name_H-M   'P 1'
_cell_length_a   8.41532172
_cell_length_b   8.41730690
_cell_length_c   8.41532136
_cell_angle_alpha   106.54923483
_cell_angle_beta   109.79758813
_cell_angle_gamma   112.10508201
_symmetry_Int_Tables_number   1
_chemical_formula_structural   LiY12Ni4Sn
_chemical_formula_sum   'Li1 Y12 Ni4 Sn1'
_cell_volume   457.84332362
_cell_formula_units_Z   1
loop_
 _symmetry_equiv_pos_site_id
 _symmetry_equiv_pos_as_xyz
  1  'x, y, z'
loop_
 _atom_site_type_symbol
 _atom_site_label
 _atom_site_symmetry_multiplicity
 _atom_site_fract_x
 _atom_site_fract_y
 _atom_site_fract_z
 _atom_site_occupancy
  Li  Li0  1  0.000000  0.000000  0.000000  1
  Y  Y1  1  0.482928  0.298891  0.184071  1
  Y  Y2  1  0.114820  0.298891  0.815962  1
  Y  Y3  1  0.885180  0.701109  0.184038  1
  Y  Y4  1  0.517072  0.701109  0.815929  1
  Y  Y5  1  0.303868  0.624839  0.320970  1
  Y  Y6  1  0.303969  0.982965  0.678995  1
  Y  Y7  1  0.696132  0.375161  0.679030  1
  Y  Y8  1  0.696031  0.017035  0.321005  1
  Y  Y9  1  0.198716  0.221168  0.419859  1
  Y  Y10  1  0.801284  0.778832  0.580141  1
  Y  Y11  1  0.198690  0.778832  0.977547  1
  Y  Y12  1  0.801310  0.221168  0.022453  1
  Ni  Ni13  1  0.500015  0.626389  0.126374  1
  Ni  Ni14  1  0.499985  0.373611  0.873626  1
  Ni  Ni15  1  0.360285  0.000000  0.360285  1
  Ni  Ni16  1  0.639715  0.000000  0.639715  1
  Sn  Sn17  1  0.000000  0.500000  0.500000  1
