# generated using pymatgen
data_SmPa3(InRh2)2
_symmetry_space_group_name_H-M   'P 1'
_cell_length_a   7.73676887
_cell_length_b   7.73676939
_cell_length_c   3.63013700
_cell_angle_alpha   90.00000000
_cell_angle_beta   90.00000000
_cell_angle_gamma   87.69481994
_symmetry_Int_Tables_number   1
_chemical_formula_structural   SmPa3(InRh2)2
_chemical_formula_sum   'Sm1 Pa3 In2 Rh4'
_cell_volume   217.11543592
_cell_formula_units_Z   1
loop_
 _symmetry_equiv_pos_site_id
 _symmetry_equiv_pos_as_xyz
  1  'x, y, z'
loop_
 _atom_site_type_symbol
 _atom_site_label
 _atom_site_symmetry_multiplicity
 _atom_site_fract_x
 _atom_site_fract_y
 _atom_site_fract_z
 _atom_site_occupancy
  Sm  Sm0  1  0.670831  0.170831  0.500000  1
  Pa  Pa1  1  0.330953  0.830953  0.500000  1
  Pa  Pa2  1  0.168338  0.329249  0.500000  1
  Pa  Pa3  1  0.829249  0.668338  0.500000  1
  In  In4  1  0.993963  0.998969  0.000000  1
  In  In5  1  0.498969  0.493963  0.000000  1
  Rh  Rh6  1  0.143022  0.643022  0.000000  1
  Rh  Rh7  1  0.887100  0.387100  0.000000  1
  Rh  Rh8  1  0.629610  0.847963  0.000000  1
  Rh  Rh9  1  0.347963  0.129610  0.000000  1
