# generated using pymatgen
data_Dy3Er3(Zn3C)2
_symmetry_space_group_name_H-M   'P 1'
_cell_length_a   9.12417136
_cell_length_b   9.12417245
_cell_length_c   9.12417200
_cell_angle_alpha   60.00000164
_cell_angle_beta   59.99999767
_cell_angle_gamma   60.00000451
_symmetry_Int_Tables_number   1
_chemical_formula_structural   Dy3Er3(Zn3C)2
_chemical_formula_sum   'Dy6 Er6 Zn12 C4'
_cell_volume   537.11266913
_cell_formula_units_Z   2
loop_
 _symmetry_equiv_pos_site_id
 _symmetry_equiv_pos_as_xyz
  1  'x, y, z'
loop_
 _atom_site_type_symbol
 _atom_site_label
 _atom_site_symmetry_multiplicity
 _atom_site_fract_x
 _atom_site_fract_y
 _atom_site_fract_z
 _atom_site_occupancy
  Dy  Dy0  1  0.447547  0.447547  0.052453  1
  Dy  Dy1  1  0.052453  0.447547  0.052453  1
  Dy  Dy2  1  0.447547  0.052453  0.052453  1
  Dy  Dy3  1  0.052453  0.052453  0.447547  1
  Dy  Dy4  1  0.447547  0.052453  0.447547  1
  Dy  Dy5  1  0.052453  0.447547  0.447547  1
  Er  Er6  1  0.803731  0.803731  0.196269  1
  Er  Er7  1  0.196269  0.803731  0.196269  1
  Er  Er8  1  0.803731  0.196269  0.196269  1
  Er  Er9  1  0.196269  0.196269  0.803731  1
  Er  Er10  1  0.803731  0.196269  0.803731  1
  Er  Er11  1  0.196269  0.803731  0.803731  1
  Zn  Zn12  1  0.826805  0.826805  0.519583  1
  Zn  Zn13  1  0.826805  0.519583  0.826805  1
  Zn  Zn14  1  0.519583  0.826805  0.826805  1
  Zn  Zn15  1  0.826805  0.826805  0.826805  1
  Zn  Zn16  1  0.423600  0.423600  0.729201  1
  Zn  Zn17  1  0.423600  0.729201  0.423600  1
  Zn  Zn18  1  0.729201  0.423600  0.423600  1
  Zn  Zn19  1  0.423600  0.423600  0.423600  1
  Zn  Zn20  1  0.624995  0.624995  0.125016  1
  Zn  Zn21  1  0.624995  0.125016  0.624995  1
  Zn  Zn22  1  0.125016  0.624995  0.624995  1
  Zn  Zn23  1  0.624995  0.624995  0.624995  1
  C  C24  1  0.124010  0.124010  0.627969  1
  C  C25  1  0.124010  0.627969  0.124010  1
  C  C26  1  0.627969  0.124010  0.124010  1
  C  C27  1  0.124010  0.124010  0.124010  1
