# generated using pymatgen
data_Eu3DyMgRu
_symmetry_space_group_name_H-M   'P 1'
_cell_length_a   10.15199116
_cell_length_b   10.15199038
_cell_length_c   10.15199100
_cell_angle_alpha   59.99999471
_cell_angle_beta   59.99999726
_cell_angle_gamma   59.99999750
_symmetry_Int_Tables_number   1
_chemical_formula_structural   Eu3DyMgRu
_chemical_formula_sum   'Eu12 Dy4 Mg4 Ru4'
_cell_volume   739.84138298
_cell_formula_units_Z   4
loop_
 _symmetry_equiv_pos_site_id
 _symmetry_equiv_pos_as_xyz
  1  'x, y, z'
loop_
 _atom_site_type_symbol
 _atom_site_label
 _atom_site_symmetry_multiplicity
 _atom_site_fract_x
 _atom_site_fract_y
 _atom_site_fract_z
 _atom_site_occupancy
  Eu  Eu0  1  0.951112  0.548888  0.548888  1
  Eu  Eu1  1  0.548888  0.951112  0.951112  1
  Eu  Eu2  1  0.548888  0.951112  0.548888  1
  Eu  Eu3  1  0.951112  0.548888  0.951112  1
  Eu  Eu4  1  0.548888  0.548888  0.951112  1
  Eu  Eu5  1  0.951112  0.951112  0.548888  1
  Eu  Eu6  1  0.807177  0.192823  0.192823  1
  Eu  Eu7  1  0.192823  0.807177  0.807177  1
  Eu  Eu8  1  0.192823  0.807177  0.192823  1
  Eu  Eu9  1  0.807177  0.192823  0.807177  1
  Eu  Eu10  1  0.192823  0.192823  0.807177  1
  Eu  Eu11  1  0.807177  0.807177  0.192823  1
  Dy  Dy12  1  0.337140  0.337140  0.337140  1
  Dy  Dy13  1  0.337140  0.337140  0.988580  1
  Dy  Dy14  1  0.337140  0.988580  0.337140  1
  Dy  Dy15  1  0.988580  0.337140  0.337140  1
  Mg  Mg16  1  0.576825  0.576825  0.576825  1
  Mg  Mg17  1  0.576825  0.576825  0.269526  1
  Mg  Mg18  1  0.576825  0.269526  0.576825  1
  Mg  Mg19  1  0.269526  0.576825  0.576825  1
  Ru  Ru20  1  0.141170  0.141170  0.141170  1
  Ru  Ru21  1  0.141170  0.141170  0.576490  1
  Ru  Ru22  1  0.141170  0.576490  0.141170  1
  Ru  Ru23  1  0.576490  0.141170  0.141170  1
