# generated using pymatgen
data_La6ScIO14
_symmetry_space_group_name_H-M   'P 1'
_cell_length_a   6.80413971
_cell_length_b   6.80413810
_cell_length_c   7.77695600
_cell_angle_alpha   90.47893434
_cell_angle_beta   90.47893423
_cell_angle_gamma   112.01003138
_symmetry_Int_Tables_number   1
_chemical_formula_structural   La6ScIO14
_chemical_formula_sum   'La6 Sc1 I1 O14'
_cell_volume   333.76637108
_cell_formula_units_Z   1
loop_
 _symmetry_equiv_pos_site_id
 _symmetry_equiv_pos_as_xyz
  1  'x, y, z'
loop_
 _atom_site_type_symbol
 _atom_site_label
 _atom_site_symmetry_multiplicity
 _atom_site_fract_x
 _atom_site_fract_y
 _atom_site_fract_z
 _atom_site_occupancy
  La  La0  1  0.500000  0.500000  0.000000  1
  La  La1  1  0.500000  0.500000  0.500000  1
  La  La2  1  0.429846  0.973416  0.766005  1
  La  La3  1  0.570154  0.026584  0.233995  1
  La  La4  1  0.973416  0.429846  0.766005  1
  La  La5  1  0.026584  0.570154  0.233995  1
  Sc  Sc6  1  0.000000  0.000000  0.000000  1
  I  I7  1  0.000000  0.000000  0.500000  1
  O  O8  1  0.604295  0.342993  0.742352  1
  O  O9  1  0.395705  0.657007  0.257648  1
  O  O10  1  0.342993  0.604295  0.742352  1
  O  O11  1  0.657007  0.395705  0.257648  1
  O  O12  1  0.327619  0.071053  0.030383  1
  O  O13  1  0.706805  0.945734  0.537979  1
  O  O14  1  0.054266  0.293195  0.462021  1
  O  O15  1  0.928947  0.672381  0.969617  1
  O  O16  1  0.927252  0.927252  0.265262  1
  O  O17  1  0.072748  0.072748  0.734738  1
  O  O18  1  0.071053  0.327619  0.030383  1
  O  O19  1  0.945734  0.706805  0.537979  1
  O  O20  1  0.293195  0.054266  0.462021  1
  O  O21  1  0.672381  0.928947  0.969617  1
