# generated using pymatgen
data_Lu2MnCo16
_symmetry_space_group_name_H-M   'P 1'
_cell_length_a   6.27120986
_cell_length_b   6.27120864
_cell_length_c   6.27121000
_cell_angle_alpha   83.07474803
_cell_angle_beta   83.07474939
_cell_angle_gamma   83.07474060
_symmetry_Int_Tables_number   1
_chemical_formula_structural   Lu2MnCo16
_chemical_formula_sum   'Lu2 Mn1 Co16'
_cell_volume   241.63784700
_cell_formula_units_Z   1
loop_
 _symmetry_equiv_pos_site_id
 _symmetry_equiv_pos_as_xyz
  1  'x, y, z'
loop_
 _atom_site_type_symbol
 _atom_site_label
 _atom_site_symmetry_multiplicity
 _atom_site_fract_x
 _atom_site_fract_y
 _atom_site_fract_z
 _atom_site_occupancy
  Lu  Lu0  1  0.656386  0.656386  0.656386  1
  Lu  Lu1  1  0.346485  0.346485  0.346485  1
  Mn  Mn2  1  0.097566  0.097566  0.097566  1
  Co  Co3  1  0.709028  0.290867  0.998617  1
  Co  Co4  1  0.998617  0.709028  0.290867  1
  Co  Co5  1  0.290867  0.998617  0.709028  1
  Co  Co6  1  0.998617  0.290867  0.709028  1
  Co  Co7  1  0.709028  0.998617  0.290867  1
  Co  Co8  1  0.290867  0.709028  0.998617  1
  Co  Co9  1  0.349967  0.349967  0.847480  1
  Co  Co10  1  0.847480  0.349967  0.349967  1
  Co  Co11  1  0.349967  0.847480  0.349967  1
  Co  Co12  1  0.652680  0.652680  0.152254  1
  Co  Co13  1  0.152254  0.652680  0.652680  1
  Co  Co14  1  0.652680  0.152254  0.652680  1
  Co  Co15  1  0.997768  0.997768  0.504143  1
  Co  Co16  1  0.504143  0.997768  0.997768  1
  Co  Co17  1  0.997768  0.504143  0.997768  1
  Co  Co18  1  0.897832  0.897832  0.897832  1
