# generated using pymatgen
data_Tb3YHgRh
_symmetry_space_group_name_H-M   'P 1'
_cell_length_a   9.63908160
_cell_length_b   9.63952214
_cell_length_c   9.63952301
_cell_angle_alpha   59.99697628
_cell_angle_beta   60.00151526
_cell_angle_gamma   60.00151377
_symmetry_Int_Tables_number   1
_chemical_formula_structural   Tb3YHgRh
_chemical_formula_sum   'Tb12 Y4 Hg4 Rh4'
_cell_volume   633.33242599
_cell_formula_units_Z   4
loop_
 _symmetry_equiv_pos_site_id
 _symmetry_equiv_pos_as_xyz
  1  'x, y, z'
loop_
 _atom_site_type_symbol
 _atom_site_label
 _atom_site_symmetry_multiplicity
 _atom_site_fract_x
 _atom_site_fract_y
 _atom_site_fract_z
 _atom_site_occupancy
  Tb  Tb0  1  0.601150  0.601242  0.601242  1
  Tb  Tb1  1  0.601242  0.601150  0.196367  1
  Tb  Tb2  1  0.601242  0.196367  0.601150  1
  Tb  Tb3  1  0.196367  0.601242  0.601242  1
  Tb  Tb4  1  0.060064  0.439936  0.439936  1
  Tb  Tb5  1  0.439936  0.060064  0.060064  1
  Tb  Tb6  1  0.439819  0.060181  0.439819  1
  Tb  Tb7  1  0.060181  0.439819  0.060181  1
  Tb  Tb8  1  0.439819  0.439819  0.060181  1
  Tb  Tb9  1  0.060181  0.060181  0.439819  1
  Tb  Tb10  1  0.187233  0.812767  0.812767  1
  Tb  Tb11  1  0.812767  0.187233  0.187233  1
  Y  Y12  1  0.812989  0.187011  0.812989  1
  Y  Y13  1  0.187011  0.812989  0.187011  1
  Y  Y14  1  0.812989  0.812989  0.187011  1
  Y  Y15  1  0.187011  0.187011  0.812989  1
  Hg  Hg16  1  0.834851  0.835225  0.835225  1
  Hg  Hg17  1  0.835225  0.834851  0.494699  1
  Hg  Hg18  1  0.835225  0.494699  0.834851  1
  Hg  Hg19  1  0.494699  0.835225  0.835225  1
  Rh  Rh20  1  0.392308  0.392623  0.392623  1
  Rh  Rh21  1  0.392623  0.392308  0.822448  1
  Rh  Rh22  1  0.392623  0.822448  0.392308  1
  Rh  Rh23  1  0.822448  0.392623  0.392623  1
