# generated using pymatgen
data_Sc6Ti4Al12FeRu6
_symmetry_space_group_name_H-M   'P 1'
_cell_length_a   8.78226150
_cell_length_b   8.78226250
_cell_length_c   8.78226100
_cell_angle_alpha   60.00000941
_cell_angle_beta   60.00000567
_cell_angle_gamma   60.00000535
_symmetry_Int_Tables_number   1
_chemical_formula_structural   Sc6Ti4Al12FeRu6
_chemical_formula_sum   'Sc6 Ti4 Al12 Fe1 Ru6'
_cell_volume   478.96545072
_cell_formula_units_Z   1
loop_
 _symmetry_equiv_pos_site_id
 _symmetry_equiv_pos_as_xyz
  1  'x, y, z'
loop_
 _atom_site_type_symbol
 _atom_site_label
 _atom_site_symmetry_multiplicity
 _atom_site_fract_x
 _atom_site_fract_y
 _atom_site_fract_z
 _atom_site_occupancy
  Sc  Sc0  1  0.707812  0.707812  0.292188  1
  Sc  Sc1  1  0.292188  0.707812  0.292188  1
  Sc  Sc2  1  0.707812  0.292188  0.292188  1
  Sc  Sc3  1  0.292188  0.292188  0.707812  1
  Sc  Sc4  1  0.707812  0.292188  0.707812  1
  Sc  Sc5  1  0.292188  0.707812  0.707812  1
  Ti  Ti6  1  0.882864  0.882864  0.351409  1
  Ti  Ti7  1  0.882864  0.351409  0.882864  1
  Ti  Ti8  1  0.351409  0.882864  0.882864  1
  Ti  Ti9  1  0.882864  0.882864  0.882864  1
  Al  Al10  1  0.117634  0.117634  0.647096  1
  Al  Al11  1  0.117634  0.647096  0.117634  1
  Al  Al12  1  0.647096  0.117634  0.117634  1
  Al  Al13  1  0.117634  0.117634  0.117634  1
  Al  Al14  1  0.667156  0.667156  0.998531  1
  Al  Al15  1  0.667156  0.998531  0.667156  1
  Al  Al16  1  0.998531  0.667156  0.667156  1
  Al  Al17  1  0.667156  0.667156  0.667156  1
  Al  Al18  1  0.334271  0.334271  0.997186  1
  Al  Al19  1  0.334271  0.997186  0.334271  1
  Al  Al20  1  0.997186  0.334271  0.334271  1
  Al  Al21  1  0.334271  0.334271  0.334271  1
  Fe  Fe22  1  0.000000  0.000000  0.000000  1
  Ru  Ru23  1  0.999575  0.999575  0.500425  1
  Ru  Ru24  1  0.500425  0.999575  0.500425  1
  Ru  Ru25  1  0.999575  0.500425  0.500425  1
  Ru  Ru26  1  0.500425  0.500425  0.999575  1
  Ru  Ru27  1  0.999575  0.500425  0.999575  1
  Ru  Ru28  1  0.500425  0.999575  0.999575  1
