# generated using pymatgen
data_YHo3(Al8Pd3)3
_symmetry_space_group_name_H-M   'P 1'
_cell_length_a   7.54428066
_cell_length_b   7.57368460
_cell_length_c   13.18939237
_cell_angle_alpha   84.58486345
_cell_angle_beta   79.12827687
_cell_angle_gamma   60.01890309
_symmetry_Int_Tables_number   1
_chemical_formula_structural   YHo3(Al8Pd3)3
_chemical_formula_sum   'Y1 Ho3 Al24 Pd9'
_cell_volume   641.05841818
_cell_formula_units_Z   1
loop_
 _symmetry_equiv_pos_site_id
 _symmetry_equiv_pos_as_xyz
  1  'x, y, z'
loop_
 _atom_site_type_symbol
 _atom_site_label
 _atom_site_symmetry_multiplicity
 _atom_site_fract_x
 _atom_site_fract_y
 _atom_site_fract_z
 _atom_site_occupancy
  Y  Y0  1  0.393165  0.169023  0.808739  1
  Ho  Ho1  1  0.606795  0.830944  0.191453  1
  Ho  Ho2  1  0.733821  0.498093  0.808483  1
  Ho  Ho3  1  0.266129  0.501942  0.191534  1
  Al  Al4  1  0.684881  0.833425  0.944878  1
  Al  Al5  1  0.315305  0.166299  0.055482  1
  Al  Al6  1  0.146096  0.833170  0.561093  1
  Al  Al7  1  0.853923  0.166826  0.438873  1
  Al  Al8  1  0.478875  0.166677  0.558738  1
  Al  Al9  1  0.521155  0.833319  0.441135  1
  Al  Al10  1  0.216977  0.165243  0.329463  1
  Al  Al11  1  0.783270  0.834560  0.670382  1
  Al  Al12  1  0.437109  0.506705  0.670401  1
  Al  Al13  1  0.562931  0.493500  0.329441  1
  Al  Al14  1  0.108944  0.159776  0.669336  1
  Al  Al15  1  0.890906  0.840220  0.330503  1
  Al  Al16  1  0.352774  0.500062  0.945100  1
  Al  Al17  1  0.647161  0.500228  0.055074  1
  Al  Al18  1  0.015188  0.167490  0.953844  1
  Al  Al19  1  0.984485  0.832497  0.046345  1
  Al  Al20  1  0.187194  0.499328  0.440830  1
  Al  Al21  1  0.812818  0.500669  0.559141  1
  Al  Al22  1  0.733193  0.163876  0.183522  1
  Al  Al23  1  0.266795  0.835799  0.816468  1
  Al  Al24  1  0.061473  0.631101  0.815152  1
  Al  Al25  1  0.938225  0.369220  0.184840  1
  Al  Al26  1  0.855373  0.041781  0.815974  1
  Al  Al27  1  0.144959  0.958202  0.184028  1
  Pd  Pd28  1  0.119458  0.492786  0.638287  1
  Pd  Pd29  1  0.880465  0.507358  0.361594  1
  Pd  Pd30  1  0.657033  0.171264  0.999724  1
  Pd  Pd31  1  0.342942  0.828760  0.000334  1
  Pd  Pd32  1  0.538323  0.166801  0.361357  1
  Pd  Pd33  1  0.461693  0.833100  0.638537  1
  Pd  Pd34  1  0.778057  0.174757  0.637638  1
  Pd  Pd35  1  0.222087  0.825208  0.362248  1
  Pd  Pd36  1  0.000018  0.499989  0.000032  1
