# generated using pymatgen
data_Tb2HoGa6Co4Ni5
_symmetry_space_group_name_H-M   'P 1'
_cell_length_a   4.08161800
_cell_length_b   8.74842965
_cell_length_c   8.70297859
_cell_angle_alpha   59.81186429
_cell_angle_beta   90.00000000
_cell_angle_gamma   90.00000000
_symmetry_Int_Tables_number   1
_chemical_formula_structural   Tb2HoGa6Co4Ni5
_chemical_formula_sum   'Tb2 Ho1 Ga6 Co4 Ni5'
_cell_volume   268.61765575
_cell_formula_units_Z   1
loop_
 _symmetry_equiv_pos_site_id
 _symmetry_equiv_pos_as_xyz
  1  'x, y, z'
loop_
 _atom_site_type_symbol
 _atom_site_label
 _atom_site_symmetry_multiplicity
 _atom_site_fract_x
 _atom_site_fract_y
 _atom_site_fract_z
 _atom_site_occupancy
  Tb  Tb0  1  0.500000  0.334428  0.332381  1
  Tb  Tb1  1  0.500000  0.669185  0.668721  1
  Ho  Ho2  1  0.000000  0.000036  0.998818  1
  Ga  Ga3  1  0.500000  0.727023  0.272997  1
  Ga  Ga4  1  0.500000  0.271274  0.999247  1
  Ga  Ga5  1  0.500000  0.998985  0.726869  1
  Ga  Ga6  1  0.000000  0.486390  0.509812  1
  Ga  Ga7  1  0.000000  0.509905  0.003533  1
  Ga  Ga8  1  0.000000  0.000892  0.488780  1
  Co  Co9  1  0.000000  0.188772  0.175419  1
  Co  Co10  1  0.000000  0.174645  0.635954  1
  Co  Co11  1  0.000000  0.638803  0.186718  1
  Co  Co12  1  0.000000  0.822095  0.812752  1
  Ni  Ni13  1  0.000000  0.370412  0.821739  1
  Ni  Ni14  1  0.000000  0.809225  0.368736  1
  Ni  Ni15  1  0.500000  0.293125  0.704333  1
  Ni  Ni16  1  0.500000  0.703664  0.000545  1
  Ni  Ni17  1  0.500000  0.001041  0.292745  1
