# generated using pymatgen
data_Ta9TiSi5Sn
_symmetry_space_group_name_H-M   'P 1'
_cell_length_a   7.62130269
_cell_length_b   7.60580913
_cell_length_c   7.61740530
_cell_angle_alpha   128.25549853
_cell_angle_beta   128.24345869
_cell_angle_gamma   76.27458742
_symmetry_Int_Tables_number   1
_chemical_formula_structural   Ta9TiSi5Sn
_chemical_formula_sum   'Ta9 Ti1 Si5 Sn1'
_cell_volume   264.57833877
_cell_formula_units_Z   1
loop_
 _symmetry_equiv_pos_site_id
 _symmetry_equiv_pos_as_xyz
  1  'x, y, z'
loop_
 _atom_site_type_symbol
 _atom_site_label
 _atom_site_symmetry_multiplicity
 _atom_site_fract_x
 _atom_site_fract_y
 _atom_site_fract_z
 _atom_site_occupancy
  Ta  Ta0  1  0.680671  0.506164  0.483158  1
  Ta  Ta1  1  0.506131  0.023358  0.824698  1
  Ta  Ta2  1  0.198252  0.680873  0.174025  1
  Ta  Ta3  1  0.993983  0.818340  0.517464  1
  Ta  Ta4  1  0.302895  0.476616  0.483931  1
  Ta  Ta5  1  0.475853  0.993945  0.174493  1
  Ta  Ta6  1  0.818455  0.303335  0.825959  1
  Ta  Ta7  1  0.002347  0.000965  0.999025  1
  Ta  Ta8  1  0.499296  0.498441  0.000204  1
  Ti  Ti9  1  0.024062  0.198033  0.516725  1
  Si  Si10  1  0.248029  0.249616  0.996178  1
  Si  Si11  1  0.365818  0.130886  0.499563  1
  Si  Si12  1  0.631247  0.869753  0.499925  1
  Si  Si13  1  0.869974  0.367523  0.239547  1
  Si  Si14  1  0.130003  0.627025  0.759533  1
  Sn  Sn15  1  0.752984  0.755128  0.005570  1
