# generated using pymatgen
data_Hf6Cr2Si6IrRu3
_symmetry_space_group_name_H-M   'P 1'
_cell_length_a   7.61601439
_cell_length_b   7.62040153
_cell_length_c   7.61628148
_cell_angle_alpha   127.48478143
_cell_angle_beta   124.24997570
_cell_angle_gamma   80.12426925
_symmetry_Int_Tables_number   1
_chemical_formula_structural   Hf6Cr2Si6IrRu3
_chemical_formula_sum   'Hf6 Cr2 Si6 Ir1 Ru3'
_cell_volume   279.90618296
_cell_formula_units_Z   1
loop_
 _symmetry_equiv_pos_site_id
 _symmetry_equiv_pos_as_xyz
  1  'x, y, z'
loop_
 _atom_site_type_symbol
 _atom_site_label
 _atom_site_symmetry_multiplicity
 _atom_site_fract_x
 _atom_site_fract_y
 _atom_site_fract_z
 _atom_site_occupancy
  Hf  Hf0  1  0.460941  0.677451  0.718802  1
  Hf  Hf1  1  0.541144  0.257425  0.218458  1
  Hf  Hf2  1  0.746529  0.833400  0.585884  1
  Hf  Hf3  1  0.252685  0.838790  0.087242  1
  Hf  Hf4  1  0.052854  0.257123  0.702047  1
  Hf  Hf5  1  0.945960  0.654415  0.205378  1
  Cr  Cr6  1  0.499786  0.502998  0.003554  1
  Cr  Cr7  1  0.000429  0.502545  0.502197  1
  Si  Si8  1  0.267820  0.266935  0.503808  1
  Si  Si9  1  0.732125  0.237315  0.001171  1
  Si  Si10  1  0.329615  0.586724  0.248624  1
  Si  Si11  1  0.670062  0.920159  0.257923  1
  Si  Si12  1  0.162193  0.918061  0.747841  1
  Si  Si13  1  0.837906  0.586263  0.756954  1
  Ir  Ir14  1  0.102243  0.254594  0.107358  1
  Ru  Ru15  1  0.896733  0.006169  0.150449  1
  Ru  Ru16  1  0.354179  0.004497  0.609251  1
  Ru  Ru17  1  0.646798  0.254735  0.652660  1
