# generated using pymatgen
data_Ca9LaRh2
_symmetry_space_group_name_H-M   'P 1'
_cell_length_a   6.80751449
_cell_length_b   7.54934727
_cell_length_c   16.33293400
_cell_angle_alpha   90.00000000
_cell_angle_beta   90.00000000
_cell_angle_gamma   91.56533104
_symmetry_Int_Tables_number   1
_chemical_formula_structural   Ca9LaRh2
_chemical_formula_sum   'Ca18 La2 Rh4'
_cell_volume   839.07365872
_cell_formula_units_Z   2
loop_
 _symmetry_equiv_pos_site_id
 _symmetry_equiv_pos_as_xyz
  1  'x, y, z'
loop_
 _atom_site_type_symbol
 _atom_site_label
 _atom_site_symmetry_multiplicity
 _atom_site_fract_x
 _atom_site_fract_y
 _atom_site_fract_z
 _atom_site_occupancy
  Ca  Ca0  1  0.351919  0.310094  0.062722  1
  Ca  Ca1  1  0.648081  0.689906  0.937278  1
  Ca  Ca2  1  0.853610  0.191518  0.938962  1
  Ca  Ca3  1  0.648081  0.689906  0.562722  1
  Ca  Ca4  1  0.146390  0.808482  0.061038  1
  Ca  Ca5  1  0.351919  0.310094  0.437278  1
  Ca  Ca6  1  0.146390  0.808482  0.438962  1
  Ca  Ca7  1  0.853610  0.191518  0.561038  1
  Ca  Ca8  1  0.654760  0.404859  0.750000  1
  Ca  Ca9  1  0.345240  0.595141  0.250000  1
  Ca  Ca10  1  0.324703  0.035744  0.644084  1
  Ca  Ca11  1  0.675297  0.964256  0.355916  1
  Ca  Ca12  1  0.825171  0.462600  0.354982  1
  Ca  Ca13  1  0.675297  0.964256  0.144084  1
  Ca  Ca14  1  0.174829  0.537400  0.645018  1
  Ca  Ca15  1  0.324703  0.035744  0.855916  1
  Ca  Ca16  1  0.174829  0.537400  0.854982  1
  Ca  Ca17  1  0.825171  0.462600  0.145018  1
  La  La18  1  0.161536  0.085240  0.250000  1
  La  La19  1  0.838464  0.914760  0.750000  1
  Rh  Rh20  1  0.517135  0.253197  0.250000  1
  Rh  Rh21  1  0.482865  0.746803  0.750000  1
  Rh  Rh22  1  0.025604  0.220705  0.750000  1
  Rh  Rh23  1  0.974396  0.779295  0.250000  1
