# generated using pymatgen
data_Y2ThMn3(CoP)6
_symmetry_space_group_name_H-M   'P 1'
_cell_length_a   3.76762500
_cell_length_b   10.63939200
_cell_length_c   12.38620700
_cell_angle_alpha   90.00000000
_cell_angle_beta   90.00000000
_cell_angle_gamma   90.00000000
_symmetry_Int_Tables_number   1
_chemical_formula_structural   Y2ThMn3(CoP)6
_chemical_formula_sum   'Y4 Th2 Mn6 Co12 P12'
_cell_volume   496.50407142
_cell_formula_units_Z   2
loop_
 _symmetry_equiv_pos_site_id
 _symmetry_equiv_pos_as_xyz
  1  'x, y, z'
loop_
 _atom_site_type_symbol
 _atom_site_label
 _atom_site_symmetry_multiplicity
 _atom_site_fract_x
 _atom_site_fract_y
 _atom_site_fract_z
 _atom_site_occupancy
  Y  Y0  1  0.500000  0.820060  0.205460  1
  Y  Y1  1  0.500000  0.179940  0.205460  1
  Y  Y2  1  0.000000  0.683634  0.792590  1
  Y  Y3  1  0.000000  0.316366  0.792590  1
  Th  Th4  1  0.000000  0.500000  0.525137  1
  Th  Th5  1  0.500000  0.000000  0.475816  1
  Mn  Mn6  1  0.500000  0.500000  0.157286  1
  Mn  Mn7  1  0.000000  0.000000  0.848057  1
  Mn  Mn8  1  0.000000  0.500000  0.987197  1
  Mn  Mn9  1  0.500000  0.000000  0.011714  1
  Mn  Mn10  1  0.500000  0.335132  0.996822  1
  Mn  Mn11  1  0.500000  0.664868  0.996822  1
  Co  Co12  1  0.500000  0.500000  0.696404  1
  Co  Co13  1  0.000000  0.000000  0.299543  1
  Co  Co14  1  0.000000  0.170514  0.005366  1
  Co  Co15  1  0.000000  0.829486  0.005366  1
  Co  Co16  1  0.500000  0.297029  0.430330  1
  Co  Co17  1  0.500000  0.702971  0.430330  1
  Co  Co18  1  0.000000  0.201511  0.568934  1
  Co  Co19  1  0.000000  0.798489  0.568934  1
  Co  Co20  1  0.500000  0.879492  0.709604  1
  Co  Co21  1  0.500000  0.120508  0.709604  1
  Co  Co22  1  0.000000  0.619687  0.290737  1
  Co  Co23  1  0.000000  0.380313  0.290737  1
  P  P24  1  0.500000  0.500000  0.875630  1
  P  P25  1  0.000000  0.000000  0.116108  1
  P  P26  1  0.500000  0.500000  0.341339  1
  P  P27  1  0.000000  0.000000  0.660695  1
  P  P28  1  0.500000  0.304887  0.616660  1
  P  P29  1  0.500000  0.695113  0.616660  1
  P  P30  1  0.000000  0.193943  0.382371  1
  P  P31  1  0.000000  0.806057  0.382371  1
  P  P32  1  0.500000  0.847171  0.892452  1
  P  P33  1  0.500000  0.152829  0.892452  1
  P  P34  1  0.000000  0.652284  0.111212  1
  P  P35  1  0.000000  0.347716  0.111212  1
