# generated using pymatgen
data_Er8MgGaPd23
_symmetry_space_group_name_H-M   'P 1'
_cell_length_a   8.40624700
_cell_length_b   8.38412700
_cell_length_c   8.24324900
_cell_angle_alpha   90.00000000
_cell_angle_beta   90.00000000
_cell_angle_gamma   90.00000000
_symmetry_Int_Tables_number   1
_chemical_formula_structural   Er8MgGaPd23
_chemical_formula_sum   'Er8 Mg1 Ga1 Pd23'
_cell_volume   580.97629613
_cell_formula_units_Z   1
loop_
 _symmetry_equiv_pos_site_id
 _symmetry_equiv_pos_as_xyz
  1  'x, y, z'
loop_
 _atom_site_type_symbol
 _atom_site_label
 _atom_site_symmetry_multiplicity
 _atom_site_fract_x
 _atom_site_fract_y
 _atom_site_fract_z
 _atom_site_occupancy
  Er  Er0  1  0.263265  0.242592  0.748337  1
  Er  Er1  1  0.252534  0.747371  0.252632  1
  Er  Er2  1  0.747466  0.252629  0.252632  1
  Er  Er3  1  0.736735  0.757408  0.748337  1
  Er  Er4  1  0.747466  0.747371  0.252632  1
  Er  Er5  1  0.736735  0.242592  0.748337  1
  Er  Er6  1  0.263265  0.757408  0.748337  1
  Er  Er7  1  0.252534  0.252629  0.252632  1
  Mg  Mg8  1  0.000000  0.500000  0.733594  1
  Ga  Ga9  1  0.000000  0.000000  0.000894  1
  Pd  Pd10  1  0.500000  0.500000  0.746993  1
  Pd  Pd11  1  0.500000  0.253626  0.498188  1
  Pd  Pd12  1  0.253050  0.500000  0.504017  1
  Pd  Pd13  1  0.500000  0.500000  0.252958  1
  Pd  Pd14  1  0.500000  0.746374  0.498188  1
  Pd  Pd15  1  0.746950  0.500000  0.504017  1
  Pd  Pd16  1  0.000000  0.000000  0.707410  1
  Pd  Pd17  1  0.000000  0.291427  0.993705  1
  Pd  Pd18  1  0.289424  0.000000  0.002481  1
  Pd  Pd19  1  0.000000  0.000000  0.293691  1
  Pd  Pd20  1  0.000000  0.708573  0.993705  1
  Pd  Pd21  1  0.710576  0.000000  0.002481  1
  Pd  Pd22  1  0.500000  0.259705  0.001998  1
  Pd  Pd23  1  0.260345  0.000000  0.498460  1
  Pd  Pd24  1  0.000000  0.261550  0.504427  1
  Pd  Pd25  1  0.500000  0.000000  0.740009  1
  Pd  Pd26  1  0.259319  0.500000  0.996856  1
  Pd  Pd27  1  0.000000  0.500000  0.259782  1
  Pd  Pd28  1  0.500000  0.740295  0.001998  1
  Pd  Pd29  1  0.000000  0.738450  0.504427  1
  Pd  Pd30  1  0.500000  0.000000  0.260531  1
  Pd  Pd31  1  0.739655  0.000000  0.498460  1
  Pd  Pd32  1  0.740681  0.500000  0.996856  1
