# generated using pymatgen
data_Y3Tm17Cd6CoRu
_symmetry_space_group_name_H-M   'P 1'
_cell_length_a   9.48129900
_cell_length_b   9.48129856
_cell_length_c   9.67330000
_cell_angle_alpha   90.00000000
_cell_angle_beta   90.00000000
_cell_angle_gamma   120.00000502
_symmetry_Int_Tables_number   1
_chemical_formula_structural   Y3Tm17Cd6CoRu
_chemical_formula_sum   'Y3 Tm17 Cd6 Co1 Ru1'
_cell_volume   753.07968400
_cell_formula_units_Z   1
loop_
 _symmetry_equiv_pos_site_id
 _symmetry_equiv_pos_as_xyz
  1  'x, y, z'
loop_
 _atom_site_type_symbol
 _atom_site_label
 _atom_site_symmetry_multiplicity
 _atom_site_fract_x
 _atom_site_fract_y
 _atom_site_fract_z
 _atom_site_occupancy
  Y  Y0  1  0.458986  0.541014  0.750000  1
  Y  Y1  1  0.458986  0.917972  0.750000  1
  Y  Y2  1  0.082028  0.541014  0.750000  1
  Tm  Tm3  1  0.000000  0.000000  0.499896  1
  Tm  Tm4  1  0.000000  0.000000  0.000104  1
  Tm  Tm5  1  0.212037  0.787963  0.435299  1
  Tm  Tm6  1  0.212037  0.424075  0.435299  1
  Tm  Tm7  1  0.575925  0.787963  0.435299  1
  Tm  Tm8  1  0.790382  0.209618  0.558881  1
  Tm  Tm9  1  0.790382  0.580764  0.558881  1
  Tm  Tm10  1  0.419236  0.209618  0.558881  1
  Tm  Tm11  1  0.790382  0.209618  0.941119  1
  Tm  Tm12  1  0.790382  0.580764  0.941119  1
  Tm  Tm13  1  0.419236  0.209618  0.941119  1
  Tm  Tm14  1  0.212037  0.787963  0.064701  1
  Tm  Tm15  1  0.212037  0.424075  0.064701  1
  Tm  Tm16  1  0.575925  0.787963  0.064701  1
  Tm  Tm17  1  0.541448  0.458552  0.250000  1
  Tm  Tm18  1  0.541448  0.082897  0.250000  1
  Tm  Tm19  1  0.917103  0.458552  0.250000  1
  Cd  Cd20  1  0.885197  0.114803  0.250000  1
  Cd  Cd21  1  0.885197  0.770395  0.250000  1
  Cd  Cd22  1  0.229605  0.114803  0.250000  1
  Cd  Cd23  1  0.113856  0.886144  0.750000  1
  Cd  Cd24  1  0.113856  0.227712  0.750000  1
  Cd  Cd25  1  0.772288  0.886144  0.750000  1
  Co  Co26  1  0.333333  0.666667  0.250000  1
  Ru  Ru27  1  0.666667  0.333333  0.750000  1
