# generated using pymatgen
data_Cs2Mn(TeO4)3
_symmetry_space_group_name_H-M   'P 1'
_cell_length_a   7.18487699
_cell_length_b   7.29525577
_cell_length_c   7.18458174
_cell_angle_alpha   90.00009388
_cell_angle_beta   61.01567895
_cell_angle_gamma   120.51009494
_symmetry_Int_Tables_number   1
_chemical_formula_structural   Cs2Mn(TeO4)3
_chemical_formula_sum   'Cs2 Mn1 Te3 O12'
_cell_volume   268.25946394
_cell_formula_units_Z   1
loop_
 _symmetry_equiv_pos_site_id
 _symmetry_equiv_pos_as_xyz
  1  'x, y, z'
loop_
 _atom_site_type_symbol
 _atom_site_label
 _atom_site_symmetry_multiplicity
 _atom_site_fract_x
 _atom_site_fract_y
 _atom_site_fract_z
 _atom_site_occupancy
  Cs  Cs0  1  0.259765  0.127187  0.629923  1
  Cs  Cs1  1  0.740226  0.867412  0.370072  1
  Mn  Mn2  1  0.000075  0.497308  0.000031  1
  Te  Te3  1  0.499977  0.497284  0.000006  1
  Te  Te4  1  0.500042  0.997326  0.999993  1
  Te  Te5  1  0.999995  0.497337  0.500008  1
  O  O6  1  0.650668  0.822662  0.932459  1
  O  O7  1  0.864401  0.429571  0.317528  1
  O  O8  1  0.249732  0.429591  0.932193  1
  O  O9  1  0.257782  0.822658  0.325351  1
  O  O10  1  0.249740  0.814890  0.932204  1
  O  O11  1  0.257796  0.429783  0.325353  1
  O  O12  1  0.349312  0.171991  0.067536  1
  O  O13  1  0.135595  0.565167  0.682463  1
  O  O14  1  0.750249  0.565144  0.067791  1
  O  O15  1  0.742192  0.171980  0.674639  1
  O  O16  1  0.750258  0.179847  0.067806  1
  O  O17  1  0.742196  0.564866  0.674644  1
