# generated using pymatgen
data_Nd3Y5Cd2OsPt
_symmetry_space_group_name_H-M   'P 1'
_cell_length_a   9.80208645
_cell_length_b   9.80208561
_cell_length_c   9.86532400
_cell_angle_alpha   59.78635485
_cell_angle_beta   59.78635772
_cell_angle_gamma   59.72434892
_symmetry_Int_Tables_number   1
_chemical_formula_structural   Nd3Y5Cd2OsPt
_chemical_formula_sum   'Nd6 Y10 Cd4 Os2 Pt2'
_cell_volume   666.67829739
_cell_formula_units_Z   2
loop_
 _symmetry_equiv_pos_site_id
 _symmetry_equiv_pos_as_xyz
  1  'x, y, z'
loop_
 _atom_site_type_symbol
 _atom_site_label
 _atom_site_symmetry_multiplicity
 _atom_site_fract_x
 _atom_site_fract_y
 _atom_site_fract_z
 _atom_site_occupancy
  Nd  Nd0  1  0.940185  0.553813  0.563812  1
  Nd  Nd1  1  0.553813  0.940185  0.942190  1
  Nd  Nd2  1  0.553813  0.940185  0.563812  1
  Nd  Nd3  1  0.940185  0.553813  0.942190  1
  Nd  Nd4  1  0.561208  0.561208  0.938792  1
  Nd  Nd5  1  0.941406  0.941406  0.558594  1
  Y  Y6  1  0.349303  0.349303  0.351662  1
  Y  Y7  1  0.349303  0.349303  0.949733  1
  Y  Y8  1  0.344929  0.958461  0.348305  1
  Y  Y9  1  0.958461  0.344929  0.348305  1
  Y  Y10  1  0.816238  0.185914  0.190098  1
  Y  Y11  1  0.185914  0.816238  0.807752  1
  Y  Y12  1  0.185914  0.816238  0.190098  1
  Y  Y13  1  0.816238  0.185914  0.807752  1
  Y  Y14  1  0.187176  0.187176  0.812824  1
  Y  Y15  1  0.809281  0.809281  0.190719  1
  Cd  Cd16  1  0.579138  0.579138  0.579796  1
  Cd  Cd17  1  0.579138  0.579138  0.261929  1
  Cd  Cd18  1  0.580412  0.259255  0.580168  1
  Cd  Cd19  1  0.259255  0.580412  0.580168  1
  Os  Os20  1  0.143982  0.143982  0.136738  1
  Os  Os21  1  0.143982  0.143982  0.575297  1
  Pt  Pt22  1  0.144590  0.576138  0.139636  1
  Pt  Pt23  1  0.576138  0.144590  0.139636  1
