# generated using pymatgen
data_Ti3Ga3Ir2Rh
_symmetry_space_group_name_H-M   'P 1'
_cell_length_a   7.29677200
_cell_length_b   7.29677157
_cell_length_c   2.97506100
_cell_angle_alpha   90.00000000
_cell_angle_beta   90.00000000
_cell_angle_gamma   119.99999288
_symmetry_Int_Tables_number   1
_chemical_formula_structural   Ti3Ga3Ir2Rh
_chemical_formula_sum   'Ti3 Ga3 Ir2 Rh1'
_cell_volume   137.17913644
_cell_formula_units_Z   1
loop_
 _symmetry_equiv_pos_site_id
 _symmetry_equiv_pos_as_xyz
  1  'x, y, z'
loop_
 _atom_site_type_symbol
 _atom_site_label
 _atom_site_symmetry_multiplicity
 _atom_site_fract_x
 _atom_site_fract_y
 _atom_site_fract_z
 _atom_site_occupancy
  Ti  Ti0  1  0.000000  0.380376  0.500000  1
  Ti  Ti1  1  0.619624  0.619624  0.500000  1
  Ti  Ti2  1  0.380376  0.000000  0.500000  1
  Ga  Ga3  1  0.000000  0.712361  0.000000  1
  Ga  Ga4  1  0.287639  0.287639  0.000000  1
  Ga  Ga5  1  0.712361  0.000000  0.000000  1
  Ir  Ir6  1  0.333333  0.666667  0.000000  1
  Ir  Ir7  1  0.666667  0.333333  0.000000  1
  Rh  Rh8  1  0.000000  0.000000  0.500000  1
