# generated using pymatgen
data_Tb5Er3Si8Pd5Pt3
_symmetry_space_group_name_H-M   'P 1'
_cell_length_a   4.29337500
_cell_length_b   7.52626746
_cell_length_c   14.01545420
_cell_angle_alpha   90.02973464
_cell_angle_beta   90.00000000
_cell_angle_gamma   90.00000000
_symmetry_Int_Tables_number   1
_chemical_formula_structural   Tb5Er3Si8Pd5Pt3
_chemical_formula_sum   'Tb5 Er3 Si8 Pd5 Pt3'
_cell_volume   452.88255167
_cell_formula_units_Z   1
loop_
 _symmetry_equiv_pos_site_id
 _symmetry_equiv_pos_as_xyz
  1  'x, y, z'
loop_
 _atom_site_type_symbol
 _atom_site_label
 _atom_site_symmetry_multiplicity
 _atom_site_fract_x
 _atom_site_fract_y
 _atom_site_fract_z
 _atom_site_occupancy
  Tb  Tb0  1  0.000000  0.300525  0.999631  1
  Tb  Tb1  1  0.500000  0.701003  0.500787  1
  Tb  Tb2  1  0.000000  0.291590  0.500074  1
  Tb  Tb3  1  0.500000  0.708956  0.999632  1
  Tb  Tb4  1  0.000000  0.203461  0.250144  1
  Er  Er5  1  0.500000  0.793549  0.250072  1
  Er  Er6  1  0.000000  0.203992  0.749620  1
  Er  Er7  1  0.500000  0.795619  0.750564  1
  Si  Si8  1  0.000000  0.908256  0.593431  1
  Si  Si9  1  0.500000  0.091494  0.907861  1
  Si  Si10  1  0.000000  0.907345  0.407095  1
  Si  Si11  1  0.500000  0.093601  0.093065  1
  Si  Si12  1  0.000000  0.595086  0.144503  1
  Si  Si13  1  0.500000  0.404950  0.356828  1
  Si  Si14  1  0.000000  0.596400  0.856000  1
  Si  Si15  1  0.500000  0.403319  0.643729  1
  Pd  Pd16  1  0.000000  0.923878  0.107411  1
  Pd  Pd17  1  0.500000  0.423726  0.160272  1
  Pd  Pd18  1  0.000000  0.580599  0.339052  1
  Pd  Pd19  1  0.500000  0.421397  0.838803  1
  Pd  Pd20  1  0.000000  0.578334  0.661896  1
  Pt  Pt21  1  0.500000  0.073785  0.611096  1
  Pt  Pt22  1  0.000000  0.926505  0.888428  1
  Pt  Pt23  1  0.500000  0.072626  0.390005  1
