# generated using pymatgen
data_Tb8Tm4Co4SnPd
_symmetry_space_group_name_H-M   'P 1'
_cell_length_a   8.32022913
_cell_length_b   8.32022813
_cell_length_c   8.32022930
_cell_angle_alpha   111.12361840
_cell_angle_beta   110.25733332
_cell_angle_gamma   107.06051016
_symmetry_Int_Tables_number   1
_chemical_formula_structural   Tb8Tm4Co4SnPd
_chemical_formula_sum   'Tb8 Tm4 Co4 Sn1 Pd1'
_cell_volume   442.77592324
_cell_formula_units_Z   1
loop_
 _symmetry_equiv_pos_site_id
 _symmetry_equiv_pos_as_xyz
  1  'x, y, z'
loop_
 _atom_site_type_symbol
 _atom_site_label
 _atom_site_symmetry_multiplicity
 _atom_site_fract_x
 _atom_site_fract_y
 _atom_site_fract_z
 _atom_site_occupancy
  Tb  Tb0  1  0.414571  0.215002  0.199568  1
  Tb  Tb1  1  0.585429  0.784998  0.800432  1
  Tb  Tb2  1  0.015434  0.215002  0.800432  1
  Tb  Tb3  1  0.984566  0.784998  0.199568  1
  Tb  Tb4  1  0.185686  0.292803  0.478489  1
  Tb  Tb5  1  0.814314  0.707197  0.521511  1
  Tb  Tb6  1  0.185686  0.707197  0.892883  1
  Tb  Tb7  1  0.814314  0.292803  0.107117  1
  Tm  Tm8  1  0.316856  0.624849  0.307993  1
  Tm  Tm9  1  0.683144  0.375151  0.692007  1
  Tm  Tm10  1  0.316856  0.008863  0.692007  1
  Tm  Tm11  1  0.683144  0.991137  0.307993  1
  Co  Co12  1  0.377897  0.000000  0.377897  1
  Co  Co13  1  0.622103  0.000000  0.622103  1
  Co  Co14  1  0.113069  0.613069  0.500000  1
  Co  Co15  1  0.886931  0.386931  0.500000  1
  Sn  Sn16  1  0.500000  0.500000  0.000000  1
  Pd  Pd17  1  0.000000  0.000000  0.000000  1
