# generated using pymatgen
data_Ti3Al2AsRu6
_symmetry_space_group_name_H-M   'P 1'
_cell_length_a   4.31021103
_cell_length_b   6.09416604
_cell_length_c   12.91026700
_cell_angle_alpha   89.99977623
_cell_angle_beta   89.99999558
_cell_angle_gamma   90.01375847
_symmetry_Int_Tables_number   1
_chemical_formula_structural   Ti3Al2AsRu6
_chemical_formula_sum   'Ti6 Al4 As2 Ru12'
_cell_volume   339.11580299
_cell_formula_units_Z   2
loop_
 _symmetry_equiv_pos_site_id
 _symmetry_equiv_pos_as_xyz
  1  'x, y, z'
loop_
 _atom_site_type_symbol
 _atom_site_label
 _atom_site_symmetry_multiplicity
 _atom_site_fract_x
 _atom_site_fract_y
 _atom_site_fract_z
 _atom_site_occupancy
  Ti  Ti0  1  0.000014  0.499979  0.997009  1
  Ti  Ti1  1  0.499820  0.000018  0.169644  1
  Ti  Ti2  1  0.999833  0.499978  0.337304  1
  Ti  Ti3  1  0.499996  0.000018  0.501078  1
  Ti  Ti4  1  0.000166  0.499982  0.665613  1
  Ti  Ti5  1  0.500173  0.000025  0.829362  1
  Al  Al6  1  0.999805  0.000016  0.334474  1
  Al  Al7  1  0.499997  0.499986  0.500319  1
  Al  Al8  1  0.000169  0.000015  0.666403  1
  Al  Al9  1  0.500188  0.499983  0.832161  1
  As  As10  1  0.999997  0.999998  0.998048  1
  As  As11  1  0.499856  0.500001  0.168605  1
  Ru  Ru12  1  0.500032  0.250731  0.001825  1
  Ru  Ru13  1  0.499969  0.749273  0.001826  1
  Ru  Ru14  1  0.999808  0.249260  0.164820  1
  Ru  Ru15  1  0.999871  0.750736  0.164819  1
  Ru  Ru16  1  0.499841  0.250384  0.331094  1
  Ru  Ru17  1  0.499834  0.749617  0.331100  1
  Ru  Ru18  1  0.999989  0.250023  0.499230  1
  Ru  Ru19  1  0.999994  0.749981  0.499232  1
  Ru  Ru20  1  0.500172  0.249959  0.667453  1
  Ru  Ru21  1  0.500167  0.750036  0.667454  1
  Ru  Ru22  1  0.000151  0.249623  0.835568  1
  Ru  Ru23  1  0.000157  0.750375  0.835561  1
