# generated using pymatgen
data_YbPr6IrCl12
_symmetry_space_group_name_H-M   'P 1'
_cell_length_a   9.27055853
_cell_length_b   9.43206227
_cell_length_c   9.42042883
_cell_angle_alpha   107.52126216
_cell_angle_beta   107.41234483
_cell_angle_gamma   107.34486843
_symmetry_Int_Tables_number   1
_chemical_formula_structural   YbPr6IrCl12
_chemical_formula_sum   'Yb1 Pr6 Ir1 Cl12'
_cell_volume   677.87333567
_cell_formula_units_Z   1
loop_
 _symmetry_equiv_pos_site_id
 _symmetry_equiv_pos_as_xyz
  1  'x, y, z'
loop_
 _atom_site_type_symbol
 _atom_site_label
 _atom_site_symmetry_multiplicity
 _atom_site_fract_x
 _atom_site_fract_y
 _atom_site_fract_z
 _atom_site_occupancy
  Yb  Yb0  1  0.500000  0.500000  0.500000  1
  Pr  Pr1  1  0.118542  0.326762  0.025127  1
  Pr  Pr2  1  0.318031  0.024215  0.113658  1
  Pr  Pr3  1  0.024518  0.118834  0.327411  1
  Pr  Pr4  1  0.975483  0.881166  0.672590  1
  Pr  Pr5  1  0.681969  0.975786  0.886342  1
  Pr  Pr6  1  0.881458  0.673238  0.974873  1
  Ir  Ir7  1  0.000000  0.000000  0.000000  1
  Cl  Cl8  1  0.209253  0.685452  0.070520  1
  Cl  Cl9  1  0.459071  0.375890  0.180959  1
  Cl  Cl10  1  0.683540  0.069947  0.207820  1
  Cl  Cl11  1  0.928822  0.792156  0.314409  1
  Cl  Cl12  1  0.177256  0.457028  0.374681  1
  Cl  Cl13  1  0.376486  0.180801  0.457433  1
  Cl  Cl14  1  0.623514  0.819199  0.542568  1
  Cl  Cl15  1  0.822745  0.542972  0.625319  1
  Cl  Cl16  1  0.071179  0.207844  0.685592  1
  Cl  Cl17  1  0.316461  0.930054  0.792180  1
  Cl  Cl18  1  0.540929  0.624110  0.819042  1
  Cl  Cl19  1  0.790747  0.314548  0.929480  1
