# generated using pymatgen
data_Ho6Al24FePd3(RuRh)2
_symmetry_space_group_name_H-M   'P 1'
_cell_length_a   8.81776689
_cell_length_b   8.81776793
_cell_length_c   9.46117000
_cell_angle_alpha   89.85081116
_cell_angle_beta   90.14918886
_cell_angle_gamma   120.21165076
_symmetry_Int_Tables_number   1
_chemical_formula_structural   Ho6Al24FePd3(RuRh)2
_chemical_formula_sum   'Ho6 Al24 Fe1 Pd3 Ru2 Rh2'
_cell_volume   635.71228812
_cell_formula_units_Z   1
loop_
 _symmetry_equiv_pos_site_id
 _symmetry_equiv_pos_as_xyz
  1  'x, y, z'
loop_
 _atom_site_type_symbol
 _atom_site_label
 _atom_site_symmetry_multiplicity
 _atom_site_fract_x
 _atom_site_fract_y
 _atom_site_fract_z
 _atom_site_occupancy
  Ho  Ho0  1  0.193216  0.383134  0.249709  1
  Ho  Ho1  1  0.806784  0.616866  0.750291  1
  Ho  Ho2  1  0.616866  0.806784  0.249709  1
  Ho  Ho3  1  0.383134  0.193216  0.750291  1
  Ho  Ho4  1  0.191082  0.808918  0.252094  1
  Ho  Ho5  1  0.808918  0.191082  0.747906  1
  Al  Al6  1  0.331181  0.668819  0.028130  1
  Al  Al7  1  0.668819  0.331181  0.971870  1
  Al  Al8  1  0.664026  0.335974  0.529534  1
  Al  Al9  1  0.335974  0.664026  0.470466  1
  Al  Al10  1  0.167298  0.324762  0.577542  1
  Al  Al11  1  0.832702  0.675238  0.422458  1
  Al  Al12  1  0.675238  0.832702  0.577542  1
  Al  Al13  1  0.844618  0.680954  0.075611  1
  Al  Al14  1  0.324762  0.167298  0.422458  1
  Al  Al15  1  0.155382  0.319046  0.924389  1
  Al  Al16  1  0.161446  0.838554  0.579624  1
  Al  Al17  1  0.319046  0.155382  0.075611  1
  Al  Al18  1  0.838554  0.161446  0.420376  1
  Al  Al19  1  0.680954  0.844618  0.924389  1
  Al  Al20  1  0.840190  0.159810  0.074882  1
  Al  Al21  1  0.159810  0.840190  0.925118  1
  Al  Al22  1  0.562897  0.124849  0.246631  1
  Al  Al23  1  0.437103  0.875151  0.753369  1
  Al  Al24  1  0.875151  0.437103  0.246631  1
  Al  Al25  1  0.124849  0.562897  0.753369  1
  Al  Al26  1  0.562984  0.437016  0.252919  1
  Al  Al27  1  0.437016  0.562984  0.747081  1
  Al  Al28  1  0.000460  0.999540  0.244059  1
  Al  Al29  1  0.999540  0.000460  0.755941  1
  Fe  Fe30  1  0.000000  0.000000  0.000000  1
  Pd  Pd31  1  0.500000  0.000000  0.500000  1
  Pd  Pd32  1  0.500000  0.500000  0.000000  1
  Pd  Pd33  1  0.000000  0.500000  0.500000  1
  Ru  Ru34  1  0.500000  0.500000  0.500000  1
  Ru  Ru35  1  0.000000  0.000000  0.500000  1
  Rh  Rh36  1  0.500000  0.000000  0.000000  1
  Rh  Rh37  1  0.000000  0.500000  0.000000  1
