# generated using pymatgen
data_Pr2NdBi(Mo2O7)2
_symmetry_space_group_name_H-M   'P 1'
_cell_length_a   7.58629130
_cell_length_b   7.51057801
_cell_length_c   7.52670075
_cell_angle_alpha   119.40796030
_cell_angle_beta   120.33746880
_cell_angle_gamma   90.09734243
_symmetry_Int_Tables_number   1
_chemical_formula_structural   Pr2NdBi(Mo2O7)2
_chemical_formula_sum   'Pr2 Nd1 Bi1 Mo4 O14'
_cell_volume   304.13172238
_cell_formula_units_Z   1
loop_
 _symmetry_equiv_pos_site_id
 _symmetry_equiv_pos_as_xyz
  1  'x, y, z'
loop_
 _atom_site_type_symbol
 _atom_site_label
 _atom_site_symmetry_multiplicity
 _atom_site_fract_x
 _atom_site_fract_y
 _atom_site_fract_z
 _atom_site_occupancy
  Pr  Pr0  1  0.375000  0.625000  0.250000  1
  Pr  Pr1  1  0.875000  0.625000  0.250000  1
  Nd  Nd2  1  0.375000  0.125000  0.750000  1
  Bi  Bi3  1  0.375000  0.625000  0.750000  1
  Mo  Mo4  1  0.875000  0.625000  0.750000  1
  Mo  Mo5  1  0.375000  0.125000  0.250000  1
  Mo  Mo6  1  0.875000  0.125000  0.250000  1
  Mo  Mo7  1  0.875000  0.125000  0.750000  1
  O  O8  1  0.782812  0.200241  0.994986  1
  O  O9  1  0.548934  0.461306  0.498899  1
  O  O10  1  0.208346  0.206749  0.999797  1
  O  O11  1  0.955668  0.455763  0.498523  1
  O  O12  1  0.798346  0.797316  0.583259  1
  O  O13  1  0.537584  0.033777  0.084268  1
  O  O14  1  0.251084  0.751950  0.501087  1
  O  O15  1  0.951654  0.452684  0.916741  1
  O  O16  1  0.967188  0.049759  0.505014  1
  O  O17  1  0.541654  0.043251  0.500203  1
  O  O18  1  0.212416  0.216223  0.415732  1
  O  O19  1  0.498916  0.498050  0.998913  1
  O  O20  1  0.794332  0.794237  0.001477  1
  O  O21  1  0.201066  0.788694  0.001101  1
