# generated using pymatgen
data_Y2Ho3Sc3(Co4P3)4
_symmetry_space_group_name_H-M   'P 1'
_cell_length_a   12.23996100
_cell_length_b   12.23996074
_cell_length_c   3.71837400
_cell_angle_alpha   90.00000000
_cell_angle_beta   90.00000000
_cell_angle_gamma   120.00000881
_symmetry_Int_Tables_number   1
_chemical_formula_structural   Y2Ho3Sc3(Co4P3)4
_chemical_formula_sum   'Y2 Ho3 Sc3 Co16 P12'
_cell_volume   482.44045856
_cell_formula_units_Z   1
loop_
 _symmetry_equiv_pos_site_id
 _symmetry_equiv_pos_as_xyz
  1  'x, y, z'
loop_
 _atom_site_type_symbol
 _atom_site_label
 _atom_site_symmetry_multiplicity
 _atom_site_fract_x
 _atom_site_fract_y
 _atom_site_fract_z
 _atom_site_occupancy
  Y  Y0  1  0.666667  0.333333  0.000000  1
  Y  Y1  1  0.333333  0.666667  0.000000  1
  Ho  Ho2  1  0.815739  0.815739  0.500000  1
  Ho  Ho3  1  0.184261  0.000000  0.500000  1
  Ho  Ho4  1  0.000000  0.184261  0.500000  1
  Sc  Sc5  1  0.440002  0.440002  0.000000  1
  Sc  Sc6  1  0.559998  0.000000  0.000000  1
  Sc  Sc7  1  0.000000  0.559998  0.000000  1
  Co  Co8  1  0.876017  0.355258  0.500000  1
  Co  Co9  1  0.644742  0.520759  0.500000  1
  Co  Co10  1  0.479241  0.123983  0.500000  1
  Co  Co11  1  0.355258  0.876017  0.500000  1
  Co  Co12  1  0.520759  0.644742  0.500000  1
  Co  Co13  1  0.123983  0.479241  0.500000  1
  Co  Co14  1  0.805226  0.178833  0.000000  1
  Co  Co15  1  0.821167  0.626393  0.000000  1
  Co  Co16  1  0.373607  0.194774  0.000000  1
  Co  Co17  1  0.178833  0.805226  0.000000  1
  Co  Co18  1  0.626393  0.821167  0.000000  1
  Co  Co19  1  0.194774  0.373607  0.000000  1
  Co  Co20  1  0.278112  0.278112  0.500000  1
  Co  Co21  1  0.721888  0.000000  0.500000  1
  Co  Co22  1  0.000000  0.721888  0.500000  1
  Co  Co23  1  0.000000  0.000000  0.000000  1
  P  P24  1  0.692481  0.170517  0.500000  1
  P  P25  1  0.829483  0.521964  0.500000  1
  P  P26  1  0.478036  0.307519  0.500000  1
  P  P27  1  0.170517  0.692481  0.500000  1
  P  P28  1  0.521964  0.829483  0.500000  1
  P  P29  1  0.307519  0.478036  0.500000  1
  P  P30  1  0.179110  0.179110  0.000000  1
  P  P31  1  0.820890  0.000000  0.000000  1
  P  P32  1  0.000000  0.820890  0.000000  1
  P  P33  1  0.645288  0.645288  0.000000  1
  P  P34  1  0.354712  0.000000  0.000000  1
  P  P35  1  0.000000  0.354712  0.000000  1
