# generated using pymatgen
data_Li2Dy2Ni15
_symmetry_space_group_name_H-M   'P 1'
_cell_length_a   8.00362500
_cell_length_b   8.28333237
_cell_length_c   8.28333145
_cell_angle_alpha   119.81310251
_cell_angle_beta   90.00000000
_cell_angle_gamma   90.00000000
_symmetry_Int_Tables_number   1
_chemical_formula_structural   Li2Dy2Ni15
_chemical_formula_sum   'Li4 Dy4 Ni30'
_cell_volume   476.47741762
_cell_formula_units_Z   2
loop_
 _symmetry_equiv_pos_site_id
 _symmetry_equiv_pos_as_xyz
  1  'x, y, z'
loop_
 _atom_site_type_symbol
 _atom_site_label
 _atom_site_symmetry_multiplicity
 _atom_site_fract_x
 _atom_site_fract_y
 _atom_site_fract_z
 _atom_site_occupancy
  Li  Li0  1  0.612243  0.666600  0.333400  1
  Li  Li1  1  0.387757  0.333400  0.666600  1
  Li  Li2  1  0.112243  0.333400  0.666600  1
  Li  Li3  1  0.887757  0.666600  0.333400  1
  Dy  Dy4  1  0.750000  0.999986  0.000014  1
  Dy  Dy5  1  0.250000  0.000014  0.999986  1
  Dy  Dy6  1  0.250000  0.666639  0.333361  1
  Dy  Dy7  1  0.750000  0.333361  0.666639  1
  Ni  Ni8  1  0.500000  0.500000  0.000000  1
  Ni  Ni9  1  0.500000  0.500000  0.500000  1
  Ni  Ni10  1  0.500000  0.000000  0.500000  1
  Ni  Ni11  1  0.000000  0.500000  0.000000  1
  Ni  Ni12  1  0.000000  0.500000  0.500000  1
  Ni  Ni13  1  0.000000  0.000000  0.500000  1
  Ni  Ni14  1  0.750000  0.671880  0.032695  1
  Ni  Ni15  1  0.750000  0.360634  0.327687  1
  Ni  Ni16  1  0.750000  0.967120  0.639269  1
  Ni  Ni17  1  0.750000  0.360731  0.032880  1
  Ni  Ni18  1  0.750000  0.967305  0.328120  1
  Ni  Ni19  1  0.750000  0.672313  0.639366  1
  Ni  Ni20  1  0.250000  0.328120  0.967305  1
  Ni  Ni21  1  0.250000  0.639366  0.672313  1
  Ni  Ni22  1  0.250000  0.032880  0.360731  1
  Ni  Ni23  1  0.250000  0.639269  0.967120  1
  Ni  Ni24  1  0.250000  0.032695  0.671880  1
  Ni  Ni25  1  0.250000  0.327687  0.360634  1
  Ni  Ni26  1  0.482838  0.834747  0.669319  1
  Ni  Ni27  1  0.482743  0.834636  0.165364  1
  Ni  Ni28  1  0.482838  0.330681  0.165253  1
  Ni  Ni29  1  0.517162  0.165253  0.330681  1
  Ni  Ni30  1  0.517257  0.165364  0.834636  1
  Ni  Ni31  1  0.517162  0.669319  0.834747  1
  Ni  Ni32  1  0.982838  0.165253  0.330681  1
  Ni  Ni33  1  0.982743  0.165364  0.834636  1
  Ni  Ni34  1  0.982838  0.669319  0.834747  1
  Ni  Ni35  1  0.017162  0.834747  0.669319  1
  Ni  Ni36  1  0.017257  0.834636  0.165364  1
  Ni  Ni37  1  0.017162  0.330681  0.165253  1
