# generated using pymatgen
data_Al20Co5Ir3
_symmetry_space_group_name_H-M   'P 1'
_cell_length_a   7.80124600
_cell_length_b   7.78856977
_cell_length_c   7.72518100
_cell_angle_alpha   90.00000000
_cell_angle_beta   90.00000000
_cell_angle_gamma   120.05385328
_symmetry_Int_Tables_number   1
_chemical_formula_structural   Al20Co5Ir3
_chemical_formula_sum   'Al20 Co5 Ir3'
_cell_volume   406.27963394
_cell_formula_units_Z   1
loop_
 _symmetry_equiv_pos_site_id
 _symmetry_equiv_pos_as_xyz
  1  'x, y, z'
loop_
 _atom_site_type_symbol
 _atom_site_label
 _atom_site_symmetry_multiplicity
 _atom_site_fract_x
 _atom_site_fract_y
 _atom_site_fract_z
 _atom_site_occupancy
  Al  Al0  1  0.003047  0.006094  0.995379  1
  Al  Al1  1  0.003047  0.006094  0.504621  1
  Al  Al2  1  0.476435  0.952869  0.250000  1
  Al  Al3  1  0.519064  0.463675  0.750000  1
  Al  Al4  1  0.944610  0.463675  0.750000  1
  Al  Al5  1  0.056551  0.519799  0.250000  1
  Al  Al6  1  0.463250  0.519799  0.250000  1
  Al  Al7  1  0.531581  0.063164  0.750000  1
  Al  Al8  1  0.195418  0.390836  0.941816  1
  Al  Al9  1  0.805479  0.198003  0.444187  1
  Al  Al10  1  0.392524  0.198003  0.444187  1
  Al  Al11  1  0.609665  0.806847  0.933879  1
  Al  Al12  1  0.197182  0.806847  0.933879  1
  Al  Al13  1  0.803708  0.607415  0.064352  1
  Al  Al14  1  0.805479  0.198003  0.055813  1
  Al  Al15  1  0.803708  0.607415  0.435648  1
  Al  Al16  1  0.392524  0.198003  0.055813  1
  Al  Al17  1  0.609665  0.806847  0.566121  1
  Al  Al18  1  0.195418  0.390836  0.558184  1
  Al  Al19  1  0.197182  0.806847  0.566121  1
  Co  Co20  1  0.331935  0.663871  0.750000  1
  Co  Co21  1  0.665241  0.330480  0.250000  1
  Co  Co22  1  0.127787  0.255573  0.250000  1
  Co  Co23  1  0.870837  0.128081  0.750000  1
  Co  Co24  1  0.257243  0.128081  0.750000  1
  Ir  Ir25  1  0.741177  0.871083  0.250000  1
  Ir  Ir26  1  0.129905  0.871083  0.250000  1
  Ir  Ir27  1  0.870338  0.740677  0.750000  1
