# generated using pymatgen
data_Sc2MoOs3
_symmetry_space_group_name_H-M   'P 1'
_cell_length_a   5.31979600
_cell_length_b   5.31979472
_cell_length_c   8.42780700
_cell_angle_alpha   90.00000000
_cell_angle_beta   90.00000000
_cell_angle_gamma   120.00000796
_symmetry_Int_Tables_number   1
_chemical_formula_structural   Sc2MoOs3
_chemical_formula_sum   'Sc4 Mo2 Os6'
_cell_volume   206.55467598
_cell_formula_units_Z   2
loop_
 _symmetry_equiv_pos_site_id
 _symmetry_equiv_pos_as_xyz
  1  'x, y, z'
loop_
 _atom_site_type_symbol
 _atom_site_label
 _atom_site_symmetry_multiplicity
 _atom_site_fract_x
 _atom_site_fract_y
 _atom_site_fract_z
 _atom_site_occupancy
  Sc  Sc0  1  0.333333  0.666667  0.433866  1
  Sc  Sc1  1  0.666667  0.333333  0.566134  1
  Sc  Sc2  1  0.666667  0.333333  0.933866  1
  Sc  Sc3  1  0.333333  0.666667  0.066134  1
  Mo  Mo4  1  0.000000  0.000000  0.000000  1
  Mo  Mo5  1  0.000000  0.000000  0.500000  1
  Os  Os6  1  0.173888  0.347776  0.750000  1
  Os  Os7  1  0.173888  0.826112  0.750000  1
  Os  Os8  1  0.347776  0.173888  0.250000  1
  Os  Os9  1  0.826112  0.652224  0.250000  1
  Os  Os10  1  0.652224  0.826112  0.750000  1
  Os  Os11  1  0.826112  0.173888  0.250000  1
