# generated using pymatgen
data_Li2Re(PPd)3
_symmetry_space_group_name_H-M   'P 1'
_cell_length_a   6.65802731
_cell_length_b   6.65802837
_cell_length_c   3.26380200
_cell_angle_alpha   90.00000000
_cell_angle_beta   90.00000000
_cell_angle_gamma   119.17163721
_symmetry_Int_Tables_number   1
_chemical_formula_structural   Li2Re(PPd)3
_chemical_formula_sum   'Li2 Re1 P3 Pd3'
_cell_volume   126.33118715
_cell_formula_units_Z   1
loop_
 _symmetry_equiv_pos_site_id
 _symmetry_equiv_pos_as_xyz
  1  'x, y, z'
loop_
 _atom_site_type_symbol
 _atom_site_label
 _atom_site_symmetry_multiplicity
 _atom_site_fract_x
 _atom_site_fract_y
 _atom_site_fract_z
 _atom_site_occupancy
  Li  Li0  1  0.608276  0.997560  0.000000  1
  Li  Li1  1  0.997560  0.608276  0.000000  1
  Re  Re2  1  0.383122  0.383122  0.000000  1
  P  P3  1  0.343908  0.633107  0.500000  1
  P  P4  1  0.633107  0.343908  0.500000  1
  P  P5  1  0.027024  0.027024  0.000000  1
  Pd  Pd6  1  0.276775  0.962078  0.500000  1
  Pd  Pd7  1  0.962078  0.276775  0.500000  1
  Pd  Pd8  1  0.768149  0.768149  0.500000  1
