# generated using pymatgen
data_SrTh(AgSn)2
_symmetry_space_group_name_H-M   'P 1'
_cell_length_a   4.80618100
_cell_length_b   4.80618225
_cell_length_c   8.31033700
_cell_angle_alpha   90.00000000
_cell_angle_beta   90.00000000
_cell_angle_gamma   119.99999825
_symmetry_Int_Tables_number   1
_chemical_formula_structural   SrTh(AgSn)2
_chemical_formula_sum   'Sr1 Th1 Ag2 Sn2'
_cell_volume   166.24539826
_cell_formula_units_Z   1
loop_
 _symmetry_equiv_pos_site_id
 _symmetry_equiv_pos_as_xyz
  1  'x, y, z'
loop_
 _atom_site_type_symbol
 _atom_site_label
 _atom_site_symmetry_multiplicity
 _atom_site_fract_x
 _atom_site_fract_y
 _atom_site_fract_z
 _atom_site_occupancy
  Sr  Sr0  1  0.000000  0.000000  0.738977  1
  Th  Th1  1  0.000000  0.000000  0.239272  1
  Ag  Ag2  1  0.666667  0.333333  0.473924  1
  Ag  Ag3  1  0.333333  0.666667  0.014352  1
  Sn  Sn4  1  0.333333  0.666667  0.453947  1
  Sn  Sn5  1  0.666667  0.333333  0.015530  1
