# generated using pymatgen
data_Pr4Tm2FeBr10
_symmetry_space_group_name_H-M   'P 1'
_cell_length_a   7.56414755
_cell_length_b   9.33504937
_cell_length_c   9.47643663
_cell_angle_alpha   108.05432867
_cell_angle_beta   106.84458052
_cell_angle_gamma   95.67914008
_symmetry_Int_Tables_number   1
_chemical_formula_structural   Pr4Tm2FeBr10
_chemical_formula_sum   'Pr4 Tm2 Fe1 Br10'
_cell_volume   595.65874738
_cell_formula_units_Z   1
loop_
 _symmetry_equiv_pos_site_id
 _symmetry_equiv_pos_as_xyz
  1  'x, y, z'
loop_
 _atom_site_type_symbol
 _atom_site_label
 _atom_site_symmetry_multiplicity
 _atom_site_fract_x
 _atom_site_fract_y
 _atom_site_fract_z
 _atom_site_occupancy
  Pr  Pr0  1  0.121643  0.774821  0.048516  1
  Pr  Pr1  1  0.629624  0.811621  0.853892  1
  Pr  Pr2  1  0.882220  0.227034  0.957640  1
  Pr  Pr3  1  0.981949  0.104805  0.311260  1
  Tm  Tm4  1  0.357087  0.174970  0.129265  1
  Tm  Tm5  1  0.027675  0.907485  0.707741  1
  Fe  Fe6  1  0.999686  0.999183  0.001711  1
  Br  Br7  1  0.441166  0.084186  0.824384  1
  Br  Br8  1  0.751224  0.544182  0.919613  1
  Br  Br9  1  0.260423  0.444299  0.086118  1
  Br  Br10  1  0.915013  0.163025  0.635570  1
  Br  Br11  1  0.663616  0.733231  0.538680  1
  Br  Br12  1  0.545460  0.924627  0.176076  1
  Br  Br13  1  0.090844  0.831225  0.381731  1
  Br  Br14  1  0.767248  0.343404  0.251476  1
  Br  Br15  1  0.189346  0.653627  0.732255  1
  Br  Br16  1  0.375776  0.278274  0.444070  1
