# generated using pymatgen
data_Ba3DyTlO6
_symmetry_space_group_name_H-M   'P 1'
_cell_length_a   7.35608793
_cell_length_b   7.35575422
_cell_length_c   7.35615200
_cell_angle_alpha   93.27899024
_cell_angle_beta   93.27503412
_cell_angle_gamma   93.27636759
_symmetry_Int_Tables_number   1
_chemical_formula_structural   Ba3DyTlO6
_chemical_formula_sum   'Ba6 Dy2 Tl2 O12'
_cell_volume   396.00801663
_cell_formula_units_Z   2
loop_
 _symmetry_equiv_pos_site_id
 _symmetry_equiv_pos_as_xyz
  1  'x, y, z'
loop_
 _atom_site_type_symbol
 _atom_site_label
 _atom_site_symmetry_multiplicity
 _atom_site_fract_x
 _atom_site_fract_y
 _atom_site_fract_z
 _atom_site_occupancy
  Ba  Ba0  1  0.614152  0.885834  0.250003  1
  Ba  Ba1  1  0.250012  0.614166  0.885849  1
  Ba  Ba2  1  0.885851  0.250007  0.614158  1
  Ba  Ba3  1  0.385847  0.114162  0.749996  1
  Ba  Ba4  1  0.749992  0.385834  0.114151  1
  Ba  Ba5  1  0.114145  0.749994  0.385842  1
  Dy  Dy6  1  0.249995  0.249993  0.249987  1
  Dy  Dy7  1  0.749995  0.749997  0.750002  1
  Tl  Tl8  1  0.000004  0.000005  0.000003  1
  Tl  Tl9  1  0.500013  0.500010  0.500014  1
  O  O10  1  0.299360  0.969919  0.101497  1
  O  O11  1  0.101527  0.299363  0.969928  1
  O  O12  1  0.969936  0.101518  0.299362  1
  O  O13  1  0.530060  0.200629  0.398472  1
  O  O14  1  0.398486  0.530077  0.200643  1
  O  O15  1  0.200637  0.398490  0.530067  1
  O  O16  1  0.700639  0.030084  0.898501  1
  O  O17  1  0.898474  0.700640  0.030074  1
  O  O18  1  0.030065  0.898485  0.700635  1
  O  O19  1  0.469939  0.799362  0.601529  1
  O  O20  1  0.601515  0.469922  0.799356  1
  O  O21  1  0.799358  0.601505  0.469933  1
