# generated using pymatgen
data_Re2Ir2Ru3Rh
_symmetry_space_group_name_H-M   'P 1'
_cell_length_a   5.51716876
_cell_length_b   5.50550945
_cell_length_c   4.36552400
_cell_angle_alpha   90.00000000
_cell_angle_beta   90.00000000
_cell_angle_gamma   120.39899215
_symmetry_Int_Tables_number   1
_chemical_formula_structural   Re2Ir2Ru3Rh
_chemical_formula_sum   'Re2 Ir2 Ru3 Rh1'
_cell_volume   114.37224054
_cell_formula_units_Z   1
loop_
 _symmetry_equiv_pos_site_id
 _symmetry_equiv_pos_as_xyz
  1  'x, y, z'
loop_
 _atom_site_type_symbol
 _atom_site_label
 _atom_site_symmetry_multiplicity
 _atom_site_fract_x
 _atom_site_fract_y
 _atom_site_fract_z
 _atom_site_occupancy
  Re  Re0  1  0.334473  0.669267  0.750000  1
  Re  Re1  1  0.666506  0.330070  0.250000  1
  Ir  Ir2  1  0.832820  0.666321  0.750000  1
  Ir  Ir3  1  0.332979  0.167842  0.750000  1
  Ru  Ru4  1  0.664159  0.832982  0.250000  1
  Ru  Ru5  1  0.168444  0.831823  0.250000  1
  Ru  Ru6  1  0.832770  0.166966  0.750000  1
  Rh  Rh7  1  0.167851  0.334729  0.250000  1
