# generated using pymatgen
data_HoTm4Zr3(Co4P3)4
_symmetry_space_group_name_H-M   'P 1'
_cell_length_a   12.28380700
_cell_length_b   12.28380732
_cell_length_c   3.70420100
_cell_angle_alpha   90.00000000
_cell_angle_beta   90.00000000
_cell_angle_gamma   120.00000183
_symmetry_Int_Tables_number   1
_chemical_formula_structural   HoTm4Zr3(Co4P3)4
_chemical_formula_sum   'Ho1 Tm4 Zr3 Co16 P12'
_cell_volume   484.05102971
_cell_formula_units_Z   1
loop_
 _symmetry_equiv_pos_site_id
 _symmetry_equiv_pos_as_xyz
  1  'x, y, z'
loop_
 _atom_site_type_symbol
 _atom_site_label
 _atom_site_symmetry_multiplicity
 _atom_site_fract_x
 _atom_site_fract_y
 _atom_site_fract_z
 _atom_site_occupancy
  Ho  Ho0  1  0.333333  0.666667  0.000000  1
  Tm  Tm1  1  0.666667  0.333333  0.000000  1
  Tm  Tm2  1  0.817907  0.817904  0.500000  1
  Tm  Tm3  1  0.182096  0.000003  0.500000  1
  Tm  Tm4  1  0.999997  0.182093  0.500000  1
  Zr  Zr5  1  0.441537  0.441395  0.000000  1
  Zr  Zr6  1  0.558605  0.000142  0.000000  1
  Zr  Zr7  1  0.999858  0.558463  0.000000  1
  Co  Co8  1  0.874842  0.354863  0.500000  1
  Co  Co9  1  0.645137  0.519978  0.500000  1
  Co  Co10  1  0.480022  0.125158  0.500000  1
  Co  Co11  1  0.354867  0.875332  0.500000  1
  Co  Co12  1  0.520465  0.645133  0.500000  1
  Co  Co13  1  0.124668  0.479535  0.500000  1
  Co  Co14  1  0.805902  0.178757  0.000000  1
  Co  Co15  1  0.821243  0.627144  0.000000  1
  Co  Co16  1  0.372856  0.194098  0.000000  1
  Co  Co17  1  0.178593  0.805964  0.000000  1
  Co  Co18  1  0.627370  0.821407  0.000000  1
  Co  Co19  1  0.194036  0.372630  0.000000  1
  Co  Co20  1  0.276736  0.276675  0.500000  1
  Co  Co21  1  0.723325  0.000061  0.500000  1
  Co  Co22  1  0.999939  0.723264  0.500000  1
  Co  Co23  1  0.000000  0.000000  0.000000  1
  P  P24  1  0.693375  0.172700  0.500000  1
  P  P25  1  0.827300  0.520676  0.500000  1
  P  P26  1  0.479324  0.306625  0.500000  1
  P  P27  1  0.172204  0.693510  0.500000  1
  P  P28  1  0.521306  0.827796  0.500000  1
  P  P29  1  0.306490  0.478694  0.500000  1
  P  P30  1  0.177478  0.177455  0.000000  1
  P  P31  1  0.822545  0.000023  0.000000  1
  P  P32  1  0.999977  0.822522  0.000000  1
  P  P33  1  0.649709  0.649763  0.000000  1
  P  P34  1  0.350237  0.999945  0.000000  1
  P  P35  1  0.000055  0.350291  0.000000  1
