# generated using pymatgen
data_Lu3Si3NiIr
_symmetry_space_group_name_H-M   'P 1'
_cell_length_a   5.57356995
_cell_length_b   5.57356945
_cell_length_c   13.40784300
_cell_angle_alpha   89.75261325
_cell_angle_beta   90.24738673
_cell_angle_gamma   136.81991257
_symmetry_Int_Tables_number   1
_chemical_formula_structural   Lu3Si3NiIr
_chemical_formula_sum   'Lu6 Si6 Ni2 Ir2'
_cell_volume   285.01233805
_cell_formula_units_Z   2
loop_
 _symmetry_equiv_pos_site_id
 _symmetry_equiv_pos_as_xyz
  1  'x, y, z'
loop_
 _atom_site_type_symbol
 _atom_site_label
 _atom_site_symmetry_multiplicity
 _atom_site_fract_x
 _atom_site_fract_y
 _atom_site_fract_z
 _atom_site_occupancy
  Lu  Lu0  1  0.639702  0.360298  0.250792  1
  Lu  Lu1  1  0.360298  0.639702  0.749208  1
  Lu  Lu2  1  0.918635  0.081365  0.109840  1
  Lu  Lu3  1  0.081365  0.918635  0.890160  1
  Lu  Lu4  1  0.080337  0.919663  0.616777  1
  Lu  Lu5  1  0.919663  0.080337  0.383223  1
  Si  Si6  1  0.336106  0.663894  0.244226  1
  Si  Si7  1  0.663894  0.336106  0.755774  1
  Si  Si8  1  0.615185  0.384815  0.039790  1
  Si  Si9  1  0.384815  0.615185  0.960210  1
  Si  Si10  1  0.388288  0.611712  0.533197  1
  Si  Si11  1  0.611712  0.388288  0.466803  1
  Ni  Ni12  1  0.209697  0.790303  0.088085  1
  Ni  Ni13  1  0.790303  0.209697  0.911915  1
  Ir  Ir14  1  0.796408  0.203592  0.596948  1
  Ir  Ir15  1  0.203592  0.796408  0.403052  1
