# generated using pymatgen
data_Tm5Bi2Pd
_symmetry_space_group_name_H-M   'P 1'
_cell_length_a   7.96027200
_cell_length_b   9.04940500
_cell_length_c   12.18360900
_cell_angle_alpha   90.00000000
_cell_angle_beta   90.00000000
_cell_angle_gamma   90.00000000
_symmetry_Int_Tables_number   1
_chemical_formula_structural   Tm5Bi2Pd
_chemical_formula_sum   'Tm20 Bi8 Pd4'
_cell_volume   877.65511033
_cell_formula_units_Z   4
loop_
 _symmetry_equiv_pos_site_id
 _symmetry_equiv_pos_as_xyz
  1  'x, y, z'
loop_
 _atom_site_type_symbol
 _atom_site_label
 _atom_site_symmetry_multiplicity
 _atom_site_fract_x
 _atom_site_fract_y
 _atom_site_fract_z
 _atom_site_occupancy
  Tm  Tm0  1  0.165891  0.750000  0.212669  1
  Tm  Tm1  1  0.334109  0.750000  0.712669  1
  Tm  Tm2  1  0.834109  0.250000  0.787331  1
  Tm  Tm3  1  0.665891  0.250000  0.287331  1
  Tm  Tm4  1  0.456567  0.750000  0.000485  1
  Tm  Tm5  1  0.043433  0.750000  0.500485  1
  Tm  Tm6  1  0.543433  0.250000  0.999515  1
  Tm  Tm7  1  0.956567  0.250000  0.499515  1
  Tm  Tm8  1  0.629504  0.750000  0.303177  1
  Tm  Tm9  1  0.870496  0.750000  0.803177  1
  Tm  Tm10  1  0.370496  0.250000  0.696823  1
  Tm  Tm11  1  0.129504  0.250000  0.196823  1
  Tm  Tm12  1  0.821957  0.550265  0.066524  1
  Tm  Tm13  1  0.678043  0.949735  0.566524  1
  Tm  Tm14  1  0.178043  0.050265  0.933476  1
  Tm  Tm15  1  0.321957  0.449735  0.433476  1
  Tm  Tm16  1  0.178043  0.449735  0.933476  1
  Tm  Tm17  1  0.321957  0.050265  0.433476  1
  Tm  Tm18  1  0.821957  0.949735  0.066524  1
  Tm  Tm19  1  0.678043  0.550265  0.566524  1
  Bi  Bi20  1  0.932245  0.508924  0.326966  1
  Bi  Bi21  1  0.567755  0.991076  0.826966  1
  Bi  Bi22  1  0.067755  0.008924  0.673034  1
  Bi  Bi23  1  0.432245  0.491076  0.173034  1
  Bi  Bi24  1  0.067755  0.491076  0.673034  1
  Bi  Bi25  1  0.432245  0.008924  0.173034  1
  Bi  Bi26  1  0.932245  0.991076  0.326966  1
  Bi  Bi27  1  0.567755  0.508924  0.826966  1
  Pd  Pd28  1  0.414741  0.750000  0.486035  1
  Pd  Pd29  1  0.085259  0.750000  0.986035  1
  Pd  Pd30  1  0.585259  0.250000  0.513965  1
  Pd  Pd31  1  0.914741  0.250000  0.013965  1
