# generated using pymatgen
data_Ac2Th(GaIr)3
_symmetry_space_group_name_H-M   'P 1'
_cell_length_a   7.60889076
_cell_length_b   7.43323049
_cell_length_c   4.10422900
_cell_angle_alpha   90.00000000
_cell_angle_beta   90.00000000
_cell_angle_gamma   119.23921742
_symmetry_Int_Tables_number   1
_chemical_formula_structural   Ac2Th(GaIr)3
_chemical_formula_sum   'Ac2 Th1 Ga3 Ir3'
_cell_volume   202.55349574
_cell_formula_units_Z   1
loop_
 _symmetry_equiv_pos_site_id
 _symmetry_equiv_pos_as_xyz
  1  'x, y, z'
loop_
 _atom_site_type_symbol
 _atom_site_label
 _atom_site_symmetry_multiplicity
 _atom_site_fract_x
 _atom_site_fract_y
 _atom_site_fract_z
 _atom_site_occupancy
  Ac  Ac0  1  0.416356  0.416674  0.500000  1
  Ac  Ac1  1  0.583644  0.000318  0.500000  1
  Th  Th2  1  0.000000  0.581509  0.500000  1
  Ga  Ga3  1  0.780722  0.767411  0.000000  1
  Ga  Ga4  1  0.219278  0.986689  0.000000  1
  Ga  Ga5  1  0.000000  0.231458  0.000000  1
  Ir  Ir6  1  0.705001  0.365468  0.000000  1
  Ir  Ir7  1  0.294999  0.660467  0.000000  1
  Ir  Ir8  1  0.000000  0.990006  0.500000  1
