# generated using pymatgen
data_Y8Ti(Pd5Pt3)3
_symmetry_space_group_name_H-M   'P 1'
_cell_length_a   8.48015700
_cell_length_b   8.44166100
_cell_length_c   8.46247400
_cell_angle_alpha   90.00000000
_cell_angle_beta   90.00000000
_cell_angle_gamma   90.00000000
_symmetry_Int_Tables_number   1
_chemical_formula_structural   Y8Ti(Pd5Pt3)3
_chemical_formula_sum   'Y8 Ti1 Pd15 Pt9'
_cell_volume   605.79983113
_cell_formula_units_Z   1
loop_
 _symmetry_equiv_pos_site_id
 _symmetry_equiv_pos_as_xyz
  1  'x, y, z'
loop_
 _atom_site_type_symbol
 _atom_site_label
 _atom_site_symmetry_multiplicity
 _atom_site_fract_x
 _atom_site_fract_y
 _atom_site_fract_z
 _atom_site_occupancy
  Y  Y0  1  0.249039  0.250430  0.250277  1
  Y  Y1  1  0.749879  0.749518  0.750404  1
  Y  Y2  1  0.749879  0.749518  0.249596  1
  Y  Y3  1  0.750961  0.250430  0.749723  1
  Y  Y4  1  0.249039  0.250430  0.749723  1
  Y  Y5  1  0.250121  0.749518  0.249596  1
  Y  Y6  1  0.250121  0.749518  0.750404  1
  Y  Y7  1  0.750961  0.250430  0.250277  1
  Ti  Ti8  1  0.000000  0.001114  0.000000  1
  Pd  Pd9  1  0.500000  0.264113  0.000000  1
  Pd  Pd10  1  0.000000  0.735785  0.500000  1
  Pd  Pd11  1  0.500000  0.735956  0.000000  1
  Pd  Pd12  1  0.500000  0.000023  0.264361  1
  Pd  Pd13  1  0.264740  0.999728  0.500000  1
  Pd  Pd14  1  0.500000  0.000023  0.735639  1
  Pd  Pd15  1  0.735260  0.999728  0.500000  1
  Pd  Pd16  1  0.000000  0.500239  0.265406  1
  Pd  Pd17  1  0.000000  0.500239  0.734594  1
  Pd  Pd18  1  0.255039  0.499825  0.500000  1
  Pd  Pd19  1  0.744961  0.499825  0.500000  1
  Pd  Pd20  1  0.500000  0.254686  0.500000  1
  Pd  Pd21  1  0.500000  0.744987  0.500000  1
  Pd  Pd22  1  0.500000  0.499973  0.254734  1
  Pd  Pd23  1  0.500000  0.499973  0.745266  1
  Pt  Pt24  1  0.264167  0.499921  0.000000  1
  Pt  Pt25  1  0.735833  0.499921  0.000000  1
  Pt  Pt26  1  0.000000  0.263787  0.500000  1
  Pt  Pt27  1  0.300536  0.000173  0.000000  1
  Pt  Pt28  1  0.699464  0.000173  0.000000  1
  Pt  Pt29  1  0.000000  0.301843  0.000000  1
  Pt  Pt30  1  0.000000  0.699075  0.000000  1
  Pt  Pt31  1  0.000000  0.999548  0.300945  1
  Pt  Pt32  1  0.000000  0.999548  0.699055  1
