# generated using pymatgen
data_Li3Pr8Zn5PdRh7
_symmetry_space_group_name_H-M   'P 1'
_cell_length_a   4.09026700
_cell_length_b   7.35007373
_cell_length_c   16.67912472
_cell_angle_alpha   89.97917332
_cell_angle_beta   90.00000000
_cell_angle_gamma   90.00000000
_symmetry_Int_Tables_number   1
_chemical_formula_structural   Li3Pr8Zn5PdRh7
_chemical_formula_sum   'Li3 Pr8 Zn5 Pd1 Rh7'
_cell_volume   501.43723649
_cell_formula_units_Z   1
loop_
 _symmetry_equiv_pos_site_id
 _symmetry_equiv_pos_as_xyz
  1  'x, y, z'
loop_
 _atom_site_type_symbol
 _atom_site_label
 _atom_site_symmetry_multiplicity
 _atom_site_fract_x
 _atom_site_fract_y
 _atom_site_fract_z
 _atom_site_occupancy
  Li  Li0  1  0.750000  0.508398  0.940180  1
  Li  Li1  1  0.750000  0.006418  0.559468  1
  Li  Li2  1  0.750000  0.371876  0.651195  1
  Pr  Pr3  1  0.750000  0.454692  0.215549  1
  Pr  Pr4  1  0.750000  0.952388  0.281663  1
  Pr  Pr5  1  0.750000  0.833027  0.061195  1
  Pr  Pr6  1  0.250000  0.035621  0.723364  1
  Pr  Pr7  1  0.250000  0.166360  0.940653  1
  Pr  Pr8  1  0.250000  0.547281  0.786309  1
  Pr  Pr9  1  0.750000  0.336992  0.433420  1
  Pr  Pr10  1  0.250000  0.671616  0.559082  1
  Zn  Zn11  1  0.250000  0.994290  0.436594  1
  Zn  Zn12  1  0.250000  0.628112  0.348326  1
  Zn  Zn13  1  0.750000  0.868946  0.853319  1
  Zn  Zn14  1  0.250000  0.498620  0.057993  1
  Zn  Zn15  1  0.250000  0.126910  0.148676  1
  Pd  Pd16  1  0.250000  0.244093  0.561878  1
  Rh  Rh17  1  0.750000  0.254772  0.065834  1
  Rh  Rh18  1  0.250000  0.247378  0.312702  1
  Rh  Rh19  1  0.750000  0.244243  0.814194  1
  Rh  Rh20  1  0.250000  0.751046  0.937061  1
  Rh  Rh21  1  0.750000  0.754179  0.689956  1
  Rh  Rh22  1  0.750000  0.755094  0.434900  1
  Rh  Rh23  1  0.250000  0.747648  0.186488  1
