# generated using pymatgen
data_RbSrPrNdB24
_symmetry_space_group_name_H-M   'P 1'
_cell_length_a   7.23998712
_cell_length_b   7.23998759
_cell_length_c   5.92520900
_cell_angle_alpha   90.00000000
_cell_angle_beta   90.00000000
_cell_angle_gamma   109.33406821
_symmetry_Int_Tables_number   1
_chemical_formula_structural   RbSrPrNdB24
_chemical_formula_sum   'Rb1 Sr1 Pr1 Nd1 B24'
_cell_volume   293.06852710
_cell_formula_units_Z   1
loop_
 _symmetry_equiv_pos_site_id
 _symmetry_equiv_pos_as_xyz
  1  'x, y, z'
loop_
 _atom_site_type_symbol
 _atom_site_label
 _atom_site_symmetry_multiplicity
 _atom_site_fract_x
 _atom_site_fract_y
 _atom_site_fract_z
 _atom_site_occupancy
  Rb  Rb0  1  0.750432  0.249568  0.500000  1
  Sr  Sr1  1  0.997938  0.002062  0.000000  1
  Pr  Pr2  1  0.501455  0.498545  0.000000  1
  Nd  Nd3  1  0.250995  0.749005  0.500000  1
  B  B4  1  0.176969  0.326543  0.648493  1
  B  B5  1  0.927158  0.576154  0.149184  1
  B  B6  1  0.673457  0.823031  0.648493  1
  B  B7  1  0.423846  0.072842  0.149184  1
  B  B8  1  0.176969  0.326543  0.351507  1
  B  B9  1  0.927158  0.576154  0.850816  1
  B  B10  1  0.673457  0.823031  0.351507  1
  B  B11  1  0.423846  0.072842  0.850816  1
  B  B12  1  0.400707  0.398049  0.500000  1
  B  B13  1  0.149696  0.650692  0.000000  1
  B  B14  1  0.897719  0.899805  0.500000  1
  B  B15  1  0.647860  0.147686  0.000000  1
  B  B16  1  0.324081  0.174672  0.648544  1
  B  B17  1  0.076773  0.427898  0.149080  1
  B  B18  1  0.825328  0.675919  0.648544  1
  B  B19  1  0.572102  0.923227  0.149080  1
  B  B20  1  0.100195  0.102281  0.500000  1
  B  B21  1  0.852314  0.352140  0.000000  1
  B  B22  1  0.601951  0.599293  0.500000  1
  B  B23  1  0.349308  0.850304  0.000000  1
  B  B24  1  0.324081  0.174672  0.351456  1
  B  B25  1  0.076773  0.427898  0.850920  1
  B  B26  1  0.825328  0.675919  0.351456  1
  B  B27  1  0.572102  0.923227  0.850920  1
