# generated using pymatgen
data_Re2NO4F
_symmetry_space_group_name_H-M   'P 1'
_cell_length_a   5.44895906
_cell_length_b   5.44895942
_cell_length_c   3.79192000
_cell_angle_alpha   90.00000000
_cell_angle_beta   90.00000000
_cell_angle_gamma   92.35854540
_symmetry_Int_Tables_number   1
_chemical_formula_structural   Re2NO4F
_chemical_formula_sum   'Re2 N1 O4 F1'
_cell_volume   112.49111564
_cell_formula_units_Z   1
loop_
 _symmetry_equiv_pos_site_id
 _symmetry_equiv_pos_as_xyz
  1  'x, y, z'
loop_
 _atom_site_type_symbol
 _atom_site_label
 _atom_site_symmetry_multiplicity
 _atom_site_fract_x
 _atom_site_fract_y
 _atom_site_fract_z
 _atom_site_occupancy
  Re  Re0  1  0.481388  0.521427  0.500000  1
  Re  Re1  1  0.021427  0.981388  0.500000  1
  N  N2  1  0.259716  0.759716  0.500000  1
  O  O3  1  0.759751  0.740438  0.500000  1
  O  O4  1  0.240438  0.259751  0.500000  1
  O  O5  1  0.497838  0.502718  0.000000  1
  O  O6  1  0.002718  0.997838  0.000000  1
  F  F7  1  0.736724  0.236724  0.500000  1
