# generated using pymatgen
data_Sm2Er5Tm(Si3Rh)4
_symmetry_space_group_name_H-M   'P 1'
_cell_length_a   8.16252309
_cell_length_b   8.16240956
_cell_length_c   7.93141600
_cell_angle_alpha   90.00000000
_cell_angle_beta   90.00000000
_cell_angle_gamma   119.98378466
_symmetry_Int_Tables_number   1
_chemical_formula_structural   Sm2Er5Tm(Si3Rh)4
_chemical_formula_sum   'Sm2 Er5 Tm1 Si12 Rh4'
_cell_volume   457.71495722
_cell_formula_units_Z   1
loop_
 _symmetry_equiv_pos_site_id
 _symmetry_equiv_pos_as_xyz
  1  'x, y, z'
loop_
 _atom_site_type_symbol
 _atom_site_label
 _atom_site_symmetry_multiplicity
 _atom_site_fract_x
 _atom_site_fract_y
 _atom_site_fract_z
 _atom_site_occupancy
  Sm  Sm0  1  0.999948  0.000048  0.250000  1
  Sm  Sm1  1  0.000030  0.999960  0.750000  1
  Er  Er2  1  0.492479  0.984839  0.250000  1
  Er  Er3  1  0.015156  0.507517  0.250000  1
  Er  Er4  1  0.507456  0.492540  0.750000  1
  Er  Er5  1  0.985036  0.492548  0.750000  1
  Er  Er6  1  0.507446  0.014958  0.750000  1
  Tm  Tm7  1  0.492727  0.507271  0.250000  1
  Si  Si8  1  0.832074  0.167926  0.501954  1
  Si  Si9  1  0.832015  0.664185  0.501881  1
  Si  Si10  1  0.335809  0.167982  0.501881  1
  Si  Si11  1  0.832074  0.167926  0.998046  1
  Si  Si12  1  0.832015  0.664185  0.998119  1
  Si  Si13  1  0.335809  0.167982  0.998119  1
  Si  Si14  1  0.167806  0.832190  0.002020  1
  Si  Si15  1  0.664255  0.832015  0.002294  1
  Si  Si16  1  0.167984  0.335743  0.002295  1
  Si  Si17  1  0.167806  0.832190  0.497980  1
  Si  Si18  1  0.664255  0.832015  0.497706  1
  Si  Si19  1  0.167984  0.335743  0.497705  1
  Rh  Rh20  1  0.666466  0.333559  0.468212  1
  Rh  Rh21  1  0.666466  0.333559  0.031788  1
  Rh  Rh22  1  0.333452  0.666560  0.969303  1
  Rh  Rh23  1  0.333452  0.666560  0.530697  1
