# generated using pymatgen
data_Ho3ZrAl18Ir5Pt
_symmetry_space_group_name_H-M   'P 1'
_cell_length_a   7.54809016
_cell_length_b   7.53764958
_cell_length_c   9.41137473
_cell_angle_alpha   89.96170343
_cell_angle_beta   89.99840085
_cell_angle_gamma   119.63061951
_symmetry_Int_Tables_number   1
_chemical_formula_structural   Ho3ZrAl18Ir5Pt
_chemical_formula_sum   'Ho3 Zr1 Al18 Ir5 Pt1'
_cell_volume   465.43718738
_cell_formula_units_Z   1
loop_
 _symmetry_equiv_pos_site_id
 _symmetry_equiv_pos_as_xyz
  1  'x, y, z'
loop_
 _atom_site_type_symbol
 _atom_site_label
 _atom_site_symmetry_multiplicity
 _atom_site_fract_x
 _atom_site_fract_y
 _atom_site_fract_z
 _atom_site_occupancy
  Ho  Ho0  1  0.005518  0.327979  0.749355  1
  Ho  Ho1  1  0.670882  0.994936  0.250447  1
  Ho  Ho2  1  0.328700  0.005565  0.749406  1
  Zr  Zr3  1  0.994431  0.670313  0.249925  1
  Al  Al4  1  0.125881  0.122699  0.250325  1
  Al  Al5  1  0.871570  0.869297  0.749819  1
  Al  Al6  1  0.003073  0.337907  0.079867  1
  Al  Al7  1  0.002957  0.668738  0.928901  1
  Al  Al8  1  0.999907  0.664750  0.569395  1
  Al  Al9  1  0.332535  0.997695  0.421565  1
  Al  Al10  1  0.000246  0.337665  0.421264  1
  Al  Al11  1  0.664760  0.998636  0.574709  1
  Al  Al12  1  0.664923  0.995732  0.924307  1
  Al  Al13  1  0.328452  0.994624  0.080215  1
  Al  Al14  1  0.333577  0.333554  0.551349  1
  Al  Al15  1  0.669566  0.667525  0.442995  1
  Al  Al16  1  0.669003  0.669817  0.059546  1
  Al  Al17  1  0.330983  0.334349  0.946454  1
  Al  Al18  1  0.336120  0.549911  0.250414  1
  Al  Al19  1  0.661631  0.454218  0.747554  1
  Al  Al20  1  0.552952  0.343947  0.252237  1
  Al  Al21  1  0.450834  0.659501  0.749735  1
  Ir  Ir22  1  0.328803  0.672643  0.001038  1
  Ir  Ir23  1  0.328616  0.672427  0.499094  1
  Ir  Ir24  1  0.672280  0.327498  0.499761  1
  Ir  Ir25  1  0.999638  0.000769  0.000235  1
  Ir  Ir26  1  0.999939  0.000147  0.499891  1
  Pt  Pt27  1  0.672226  0.327158  0.000200  1
