# generated using pymatgen
data_LaPr2OsI3
_symmetry_space_group_name_H-M   'P 1'
_cell_length_a   4.40032800
_cell_length_b   9.49320177
_cell_length_c   12.72364950
_cell_angle_alpha   87.12769344
_cell_angle_beta   90.00000000
_cell_angle_gamma   90.00000000
_symmetry_Int_Tables_number   1
_chemical_formula_structural   LaPr2OsI3
_chemical_formula_sum   'La2 Pr4 Os2 I6'
_cell_volume   530.83983899
_cell_formula_units_Z   2
loop_
 _symmetry_equiv_pos_site_id
 _symmetry_equiv_pos_as_xyz
  1  'x, y, z'
loop_
 _atom_site_type_symbol
 _atom_site_label
 _atom_site_symmetry_multiplicity
 _atom_site_fract_x
 _atom_site_fract_y
 _atom_site_fract_z
 _atom_site_occupancy
  La  La0  1  0.750000  0.688065  0.117947  1
  La  La1  1  0.250000  0.885432  0.329478  1
  Pr  Pr2  1  0.250000  0.309107  0.880975  1
  Pr  Pr3  1  0.250000  0.906431  0.892370  1
  Pr  Pr4  1  0.750000  0.116515  0.669012  1
  Pr  Pr5  1  0.750000  0.097033  0.106466  1
  Os  Os6  1  0.250000  0.884830  0.125651  1
  Os  Os7  1  0.750000  0.110337  0.879941  1
  I  I8  1  0.250000  0.394050  0.132608  1
  I  I9  1  0.750000  0.135445  0.380856  1
  I  I10  1  0.750000  0.604514  0.864990  1
  I  I11  1  0.250000  0.363503  0.624685  1
  I  I12  1  0.750000  0.633450  0.376211  1
  I  I13  1  0.250000  0.871289  0.618811  1
