# generated using pymatgen
data_Cs2Ti3SnO9
_symmetry_space_group_name_H-M   'P 1'
_cell_length_a   7.58314500
_cell_length_b   7.58314507
_cell_length_c   10.95206200
_cell_angle_alpha   90.00000000
_cell_angle_beta   90.00000000
_cell_angle_gamma   120.00000407
_symmetry_Int_Tables_number   1
_chemical_formula_structural   Cs2Ti3SnO9
_chemical_formula_sum   'Cs4 Ti6 Sn2 O18'
_cell_volume   545.41268225
_cell_formula_units_Z   2
loop_
 _symmetry_equiv_pos_site_id
 _symmetry_equiv_pos_as_xyz
  1  'x, y, z'
loop_
 _atom_site_type_symbol
 _atom_site_label
 _atom_site_symmetry_multiplicity
 _atom_site_fract_x
 _atom_site_fract_y
 _atom_site_fract_z
 _atom_site_occupancy
  Cs  Cs0  1  0.333333  0.666667  0.060506  1
  Cs  Cs1  1  0.666667  0.333333  0.560506  1
  Cs  Cs2  1  0.666667  0.333333  0.939494  1
  Cs  Cs3  1  0.333333  0.666667  0.439494  1
  Ti  Ti4  1  0.372362  0.237014  0.250000  1
  Ti  Ti5  1  0.135349  0.372362  0.750000  1
  Ti  Ti6  1  0.237014  0.864651  0.750000  1
  Ti  Ti7  1  0.762986  0.135349  0.250000  1
  Ti  Ti8  1  0.864651  0.627638  0.250000  1
  Ti  Ti9  1  0.627638  0.762986  0.750000  1
  Sn  Sn10  1  0.000000  0.000000  0.000000  1
  Sn  Sn11  1  0.000000  0.000000  0.500000  1
  O  O12  1  0.492374  0.074096  0.250000  1
  O  O13  1  0.418279  0.492374  0.750000  1
  O  O14  1  0.074096  0.581721  0.750000  1
  O  O15  1  0.925904  0.418279  0.250000  1
  O  O16  1  0.581721  0.507626  0.250000  1
  O  O17  1  0.507626  0.925904  0.750000  1
  O  O18  1  0.236064  0.208281  0.110476  1
  O  O19  1  0.027783  0.236064  0.610476  1
  O  O20  1  0.208281  0.972217  0.610476  1
  O  O21  1  0.791719  0.027783  0.110476  1
  O  O22  1  0.972217  0.763936  0.110476  1
  O  O23  1  0.763936  0.791719  0.610476  1
  O  O24  1  0.763936  0.791719  0.889524  1
  O  O25  1  0.972217  0.763936  0.389524  1
  O  O26  1  0.791719  0.027783  0.389524  1
  O  O27  1  0.208281  0.972217  0.889524  1
  O  O28  1  0.027783  0.236064  0.889524  1
  O  O29  1  0.236064  0.208281  0.389524  1
