# generated using pymatgen
data_KMgBe3F9
_symmetry_space_group_name_H-M   'P 1'
_cell_length_a   6.63342400
_cell_length_b   6.63342290
_cell_length_c   9.67177400
_cell_angle_alpha   90.00000000
_cell_angle_beta   90.00000000
_cell_angle_gamma   119.99999553
_symmetry_Int_Tables_number   1
_chemical_formula_structural   KMgBe3F9
_chemical_formula_sum   'K2 Mg2 Be6 F18'
_cell_volume   368.56342426
_cell_formula_units_Z   2
loop_
 _symmetry_equiv_pos_site_id
 _symmetry_equiv_pos_as_xyz
  1  'x, y, z'
loop_
 _atom_site_type_symbol
 _atom_site_label
 _atom_site_symmetry_multiplicity
 _atom_site_fract_x
 _atom_site_fract_y
 _atom_site_fract_z
 _atom_site_occupancy
  K  K0  1  0.666667  0.333333  0.000000  1
  K  K1  1  0.666667  0.333333  0.500000  1
  Mg  Mg2  1  0.333333  0.666667  0.000000  1
  Mg  Mg3  1  0.333333  0.666667  0.500000  1
  Be  Be4  1  0.218861  0.940396  0.250000  1
  Be  Be5  1  0.218861  0.278465  0.750000  1
  Be  Be6  1  0.721535  0.940396  0.750000  1
  Be  Be7  1  0.059604  0.781139  0.750000  1
  Be  Be8  1  0.059604  0.278465  0.250000  1
  Be  Be9  1  0.721535  0.781139  0.250000  1
  F  F10  1  0.081526  0.663740  0.617471  1
  F  F11  1  0.582213  0.918474  0.617471  1
  F  F12  1  0.336260  0.417787  0.617471  1
  F  F13  1  0.336260  0.918474  0.382529  1
  F  F14  1  0.243394  0.191817  0.250000  1
  F  F15  1  0.948424  0.756606  0.250000  1
  F  F16  1  0.808183  0.051576  0.250000  1
  F  F17  1  0.808183  0.756606  0.750000  1
  F  F18  1  0.948424  0.191817  0.750000  1
  F  F19  1  0.243394  0.051576  0.750000  1
  F  F20  1  0.336260  0.918474  0.117470  1
  F  F21  1  0.582213  0.663740  0.382529  1
  F  F22  1  0.081526  0.417787  0.382529  1
  F  F23  1  0.081526  0.417787  0.117470  1
  F  F24  1  0.582213  0.663740  0.117470  1
  F  F25  1  0.081526  0.663740  0.882529  1
  F  F26  1  0.582213  0.918474  0.882529  1
  F  F27  1  0.336260  0.417787  0.882529  1
