# generated using pymatgen
data_Hf6CN4
_symmetry_space_group_name_H-M   'P 1'
_cell_length_a   5.58614866
_cell_length_b   5.58614842
_cell_length_c   5.57856898
_cell_angle_alpha   99.65785740
_cell_angle_beta   99.65784928
_cell_angle_gamma   120.03537623
_symmetry_Int_Tables_number   1
_chemical_formula_structural   Hf6CN4
_chemical_formula_sum   'Hf6 C1 N4'
_cell_volume   141.95763096
_cell_formula_units_Z   1
loop_
 _symmetry_equiv_pos_site_id
 _symmetry_equiv_pos_as_xyz
  1  'x, y, z'
loop_
 _atom_site_type_symbol
 _atom_site_label
 _atom_site_symmetry_multiplicity
 _atom_site_fract_x
 _atom_site_fract_y
 _atom_site_fract_z
 _atom_site_occupancy
  Hf  Hf0  1  0.430164  0.085238  0.252617  1
  Hf  Hf1  1  0.085238  0.430164  0.252617  1
  Hf  Hf2  1  0.740296  0.740296  0.259215  1
  Hf  Hf3  1  0.259705  0.259705  0.740785  1
  Hf  Hf4  1  0.914762  0.569836  0.747381  1
  Hf  Hf5  1  0.569836  0.914762  0.747381  1
  C  C6  1  0.499999  0.499999  0.500000  1
  N  N7  1  0.665730  0.334269  0.000000  1
  N  N8  1  0.334269  0.665730  0.000000  1
  N  N9  1  0.832886  0.167113  0.500000  1
  N  N10  1  0.167113  0.832886  0.500000  1
