# generated using pymatgen
data_PrNd5Mg2(Co4P3)4
_symmetry_space_group_name_H-M   'P 1'
_cell_length_a   3.79750700
_cell_length_b   10.77165700
_cell_length_c   12.51904300
_cell_angle_alpha   90.00000000
_cell_angle_beta   90.00000000
_cell_angle_gamma   90.00000000
_symmetry_Int_Tables_number   1
_chemical_formula_structural   PrNd5Mg2(Co4P3)4
_chemical_formula_sum   'Pr1 Nd5 Mg2 Co16 P12'
_cell_volume   512.09699809
_cell_formula_units_Z   1
loop_
 _symmetry_equiv_pos_site_id
 _symmetry_equiv_pos_as_xyz
  1  'x, y, z'
loop_
 _atom_site_type_symbol
 _atom_site_label
 _atom_site_symmetry_multiplicity
 _atom_site_fract_x
 _atom_site_fract_y
 _atom_site_fract_z
 _atom_site_occupancy
  Pr  Pr0  1  0.000000  0.500000  0.525430  1
  Nd  Nd1  1  0.500000  0.000000  0.474799  1
  Nd  Nd2  1  0.500000  0.820694  0.206615  1
  Nd  Nd3  1  0.500000  0.179306  0.206615  1
  Nd  Nd4  1  0.000000  0.679283  0.793549  1
  Nd  Nd5  1  0.000000  0.320717  0.793549  1
  Mg  Mg6  1  0.500000  0.500000  0.153545  1
  Mg  Mg7  1  0.000000  0.000000  0.846234  1
  Co  Co8  1  0.500000  0.500000  0.706530  1
  Co  Co9  1  0.000000  0.000000  0.293927  1
  Co  Co10  1  0.000000  0.500000  0.988694  1
  Co  Co11  1  0.500000  0.000000  0.011323  1
  Co  Co12  1  0.500000  0.332873  0.996938  1
  Co  Co13  1  0.500000  0.667127  0.996938  1
  Co  Co14  1  0.000000  0.167256  0.003063  1
  Co  Co15  1  0.000000  0.832744  0.003063  1
  Co  Co16  1  0.500000  0.296712  0.431449  1
  Co  Co17  1  0.500000  0.703288  0.431449  1
  Co  Co18  1  0.000000  0.202735  0.568454  1
  Co  Co19  1  0.000000  0.797265  0.568454  1
  Co  Co20  1  0.500000  0.880114  0.705360  1
  Co  Co21  1  0.500000  0.119886  0.705360  1
  Co  Co22  1  0.000000  0.620031  0.294480  1
  Co  Co23  1  0.000000  0.379969  0.294480  1
  P  P24  1  0.500000  0.500000  0.887678  1
  P  P25  1  0.000000  0.000000  0.112396  1
  P  P26  1  0.500000  0.500000  0.350074  1
  P  P27  1  0.000000  0.000000  0.649299  1
  P  P28  1  0.500000  0.303828  0.613417  1
  P  P29  1  0.500000  0.696172  0.613417  1
  P  P30  1  0.000000  0.195524  0.386731  1
  P  P31  1  0.000000  0.804476  0.386731  1
  P  P32  1  0.500000  0.840829  0.896811  1
  P  P33  1  0.500000  0.159171  0.896811  1
  P  P34  1  0.000000  0.659160  0.103168  1
  P  P35  1  0.000000  0.340840  0.103168  1
