# generated using pymatgen
data_TmLu(GaRu)2
_symmetry_space_group_name_H-M   'P 1'
_cell_length_a   4.05704200
_cell_length_b   6.92426300
_cell_length_c   7.90128400
_cell_angle_alpha   90.00000000
_cell_angle_beta   90.00000000
_cell_angle_gamma   90.00000000
_symmetry_Int_Tables_number   1
_chemical_formula_structural   TmLu(GaRu)2
_chemical_formula_sum   'Tm2 Lu2 Ga4 Ru4'
_cell_volume   221.96307406
_cell_formula_units_Z   2
loop_
 _symmetry_equiv_pos_site_id
 _symmetry_equiv_pos_as_xyz
  1  'x, y, z'
loop_
 _atom_site_type_symbol
 _atom_site_label
 _atom_site_symmetry_multiplicity
 _atom_site_fract_x
 _atom_site_fract_y
 _atom_site_fract_z
 _atom_site_occupancy
  Tm  Tm0  1  0.250000  0.973035  0.318666  1
  Tm  Tm1  1  0.250000  0.473035  0.181334  1
  Lu  Lu2  1  0.750000  0.026454  0.682020  1
  Lu  Lu3  1  0.750000  0.526454  0.817980  1
  Ga  Ga4  1  0.250000  0.350699  0.565840  1
  Ga  Ga5  1  0.250000  0.850699  0.934160  1
  Ga  Ga6  1  0.750000  0.649842  0.434912  1
  Ga  Ga7  1  0.750000  0.149842  0.065088  1
  Ru  Ru8  1  0.250000  0.230246  0.875303  1
  Ru  Ru9  1  0.250000  0.730246  0.624697  1
  Ru  Ru10  1  0.750000  0.769724  0.122231  1
  Ru  Ru11  1  0.750000  0.269724  0.377769  1
