# generated using pymatgen
data_PrNd4Y3(Si3Rh)4
_symmetry_space_group_name_H-M   'P 1'
_cell_length_a   8.25466906
_cell_length_b   8.25644415
_cell_length_c   8.22365400
_cell_angle_alpha   90.00000000
_cell_angle_beta   90.00000000
_cell_angle_gamma   120.00711287
_symmetry_Int_Tables_number   1
_chemical_formula_structural   PrNd4Y3(Si3Rh)4
_chemical_formula_sum   'Pr1 Nd4 Y3 Si12 Rh4'
_cell_volume   485.35224582
_cell_formula_units_Z   1
loop_
 _symmetry_equiv_pos_site_id
 _symmetry_equiv_pos_as_xyz
  1  'x, y, z'
loop_
 _atom_site_type_symbol
 _atom_site_label
 _atom_site_symmetry_multiplicity
 _atom_site_fract_x
 _atom_site_fract_y
 _atom_site_fract_z
 _atom_site_occupancy
  Pr  Pr0  1  0.991340  0.495669  0.250000  1
  Nd  Nd1  1  0.000069  0.000034  0.250000  1
  Nd  Nd2  1  0.999948  0.999974  0.750000  1
  Nd  Nd3  1  0.504220  0.495733  0.250000  1
  Nd  Nd4  1  0.504220  0.008486  0.250000  1
  Y  Y5  1  0.492907  0.507094  0.750000  1
  Y  Y6  1  0.492907  0.985811  0.750000  1
  Y  Y7  1  0.014193  0.507096  0.750000  1
  Si  Si8  1  0.166885  0.833453  0.507026  1
  Si  Si9  1  0.166885  0.333434  0.507026  1
  Si  Si10  1  0.666475  0.833238  0.506853  1
  Si  Si11  1  0.831598  0.167989  0.503898  1
  Si  Si12  1  0.831598  0.663607  0.503898  1
  Si  Si13  1  0.336542  0.168270  0.503650  1
  Si  Si14  1  0.831598  0.167989  0.996102  1
  Si  Si15  1  0.831598  0.663607  0.996102  1
  Si  Si16  1  0.336542  0.168270  0.996350  1
  Si  Si17  1  0.166885  0.833453  0.992974  1
  Si  Si18  1  0.166885  0.333434  0.992974  1
  Si  Si19  1  0.666475  0.833238  0.993147  1
  Rh  Rh20  1  0.333600  0.666800  0.491500  1
  Rh  Rh21  1  0.666517  0.333258  0.542522  1
  Rh  Rh22  1  0.666517  0.333258  0.957478  1
  Rh  Rh23  1  0.333600  0.666800  0.008500  1
