# generated using pymatgen
data_LiTm9Cd3Fe
_symmetry_space_group_name_H-M   'P 1'
_cell_length_a   9.22289000
_cell_length_b   9.22288947
_cell_length_c   9.44888500
_cell_angle_alpha   90.00000000
_cell_angle_beta   90.00000000
_cell_angle_gamma   119.99999473
_symmetry_Int_Tables_number   1
_chemical_formula_structural   LiTm9Cd3Fe
_chemical_formula_sum   'Li2 Tm18 Cd6 Fe2'
_cell_volume   696.05771400
_cell_formula_units_Z   2
loop_
 _symmetry_equiv_pos_site_id
 _symmetry_equiv_pos_as_xyz
  1  'x, y, z'
loop_
 _atom_site_type_symbol
 _atom_site_label
 _atom_site_symmetry_multiplicity
 _atom_site_fract_x
 _atom_site_fract_y
 _atom_site_fract_z
 _atom_site_occupancy
  Li  Li0  1  0.000000  0.000000  0.500000  1
  Li  Li1  1  0.000000  0.000000  0.000000  1
  Tm  Tm2  1  0.541879  0.458121  0.250000  1
  Tm  Tm3  1  0.541879  0.083756  0.250000  1
  Tm  Tm4  1  0.916244  0.458121  0.250000  1
  Tm  Tm5  1  0.458121  0.541879  0.750000  1
  Tm  Tm6  1  0.458121  0.916244  0.750000  1
  Tm  Tm7  1  0.083756  0.541879  0.750000  1
  Tm  Tm8  1  0.210037  0.789963  0.437678  1
  Tm  Tm9  1  0.210037  0.420073  0.437678  1
  Tm  Tm10  1  0.579927  0.789963  0.437678  1
  Tm  Tm11  1  0.789963  0.210037  0.562322  1
  Tm  Tm12  1  0.789963  0.579927  0.562322  1
  Tm  Tm13  1  0.420073  0.210037  0.562322  1
  Tm  Tm14  1  0.789963  0.210037  0.937678  1
  Tm  Tm15  1  0.789963  0.579927  0.937678  1
  Tm  Tm16  1  0.420073  0.210037  0.937678  1
  Tm  Tm17  1  0.210037  0.789963  0.062322  1
  Tm  Tm18  1  0.210037  0.420073  0.062322  1
  Tm  Tm19  1  0.579927  0.789963  0.062322  1
  Cd  Cd20  1  0.891634  0.108366  0.250000  1
  Cd  Cd21  1  0.891634  0.783269  0.250000  1
  Cd  Cd22  1  0.216731  0.108366  0.250000  1
  Cd  Cd23  1  0.108366  0.891634  0.750000  1
  Cd  Cd24  1  0.108366  0.216731  0.750000  1
  Cd  Cd25  1  0.783269  0.891634  0.750000  1
  Fe  Fe26  1  0.333333  0.666667  0.250000  1
  Fe  Fe27  1  0.666667  0.333333  0.750000  1
