# generated using pymatgen
data_HoTm15In4OsRh3
_symmetry_space_group_name_H-M   'P 1'
_cell_length_a   9.54004583
_cell_length_b   9.54004605
_cell_length_c   9.56523288
_cell_angle_alpha   59.96199710
_cell_angle_beta   59.96199440
_cell_angle_gamma   59.87004893
_symmetry_Int_Tables_number   1
_chemical_formula_structural   HoTm15In4OsRh3
_chemical_formula_sum   'Ho1 Tm15 In4 Os1 Rh3'
_cell_volume   614.61608343
_cell_formula_units_Z   1
loop_
 _symmetry_equiv_pos_site_id
 _symmetry_equiv_pos_as_xyz
  1  'x, y, z'
loop_
 _atom_site_type_symbol
 _atom_site_label
 _atom_site_symmetry_multiplicity
 _atom_site_fract_x
 _atom_site_fract_y
 _atom_site_fract_z
 _atom_site_occupancy
  Ho  Ho0  1  0.058171  0.058171  0.437285  1
  Tm  Tm1  1  0.446588  0.058642  0.436670  1
  Tm  Tm2  1  0.062090  0.438805  0.060372  1
  Tm  Tm3  1  0.048726  0.648445  0.650153  1
  Tm  Tm4  1  0.437998  0.437998  0.061252  1
  Tm  Tm5  1  0.648445  0.048726  0.650153  1
  Tm  Tm6  1  0.189214  0.809602  0.192669  1
  Tm  Tm7  1  0.191055  0.191055  0.809900  1
  Tm  Tm8  1  0.809021  0.809021  0.193722  1
  Tm  Tm9  1  0.438805  0.062090  0.060372  1
  Tm  Tm10  1  0.809602  0.189214  0.192669  1
  Tm  Tm11  1  0.058642  0.446588  0.436670  1
  Tm  Tm12  1  0.808901  0.192218  0.809650  1
  Tm  Tm13  1  0.192218  0.808901  0.809650  1
  Tm  Tm14  1  0.649600  0.649600  0.048244  1
  Tm  Tm15  1  0.651056  0.651056  0.650908  1
  In  In16  1  0.416763  0.416763  0.415771  1
  In  In17  1  0.749966  0.417680  0.415225  1
  In  In18  1  0.417680  0.749966  0.415225  1
  In  In19  1  0.417127  0.417127  0.748659  1
  Os  Os20  1  0.857285  0.857285  0.426701  1
  Rh  Rh21  1  0.858740  0.858740  0.860261  1
  Rh  Rh22  1  0.423601  0.858705  0.858912  1
  Rh  Rh23  1  0.858705  0.423601  0.858912  1
