# generated using pymatgen
data_La3Nd6Y3In20
_symmetry_space_group_name_H-M   'P 1'
_cell_length_a   6.72555728
_cell_length_b   10.62137182
_cell_length_c   12.54974956
_cell_angle_alpha   90.01644339
_cell_angle_beta   89.98656090
_cell_angle_gamma   90.04184248
_symmetry_Int_Tables_number   1
_chemical_formula_structural   La3Nd6Y3In20
_chemical_formula_sum   'La3 Nd6 Y3 In20'
_cell_volume   896.48659843
_cell_formula_units_Z   1
loop_
 _symmetry_equiv_pos_site_id
 _symmetry_equiv_pos_as_xyz
  1  'x, y, z'
loop_
 _atom_site_type_symbol
 _atom_site_label
 _atom_site_symmetry_multiplicity
 _atom_site_fract_x
 _atom_site_fract_y
 _atom_site_fract_z
 _atom_site_occupancy
  La  La0  1  0.887374  0.490419  0.143905  1
  La  La1  1  0.612616  0.011194  0.643162  1
  La  La2  1  0.110822  0.991270  0.855630  1
  Nd  Nd3  1  0.350324  0.749671  0.060143  1
  Nd  Nd4  1  0.389119  0.509385  0.356231  1
  Nd  Nd5  1  0.110316  0.508570  0.855422  1
  Nd  Nd6  1  0.389390  0.990764  0.356224  1
  Nd  Nd7  1  0.887849  0.009508  0.144121  1
  Nd  Nd8  1  0.612304  0.488833  0.643077  1
  Y  Y9  1  0.150247  0.750271  0.558961  1
  Y  Y10  1  0.649097  0.249610  0.939745  1
  Y  Y11  1  0.850152  0.250345  0.440369  1
  In  In12  1  0.617750  0.748835  0.504870  1
  In  In13  1  0.875500  0.750677  0.002034  1
  In  In14  1  0.383677  0.250398  0.495947  1
  In  In15  1  0.114837  0.250730  0.996880  1
  In  In16  1  0.659490  0.750690  0.246507  1
  In  In17  1  0.845939  0.748615  0.743237  1
  In  In18  1  0.346181  0.251409  0.755198  1
  In  In19  1  0.154614  0.249466  0.256351  1
  In  In20  1  0.111718  0.750388  0.287926  1
  In  In21  1  0.390195  0.748373  0.782346  1
  In  In22  1  0.891138  0.251504  0.715650  1
  In  In23  1  0.611353  0.248895  0.216778  1
  In  In24  1  0.874199  0.545053  0.405621  1
  In  In25  1  0.624024  0.955664  0.903866  1
  In  In26  1  0.126061  0.045883  0.594543  1
  In  In27  1  0.374228  0.450982  0.096040  1
  In  In28  1  0.126879  0.454882  0.596148  1
  In  In29  1  0.373492  0.048875  0.096888  1
  In  In30  1  0.874829  0.954811  0.404074  1
  In  In31  1  0.624286  0.544031  0.902106  1
