# generated using pymatgen
data_Pa3Co7(TcP3)2
_symmetry_space_group_name_H-M   'P 1'
_cell_length_a   3.80518800
_cell_length_b   10.63115400
_cell_length_c   12.35392700
_cell_angle_alpha   89.99988042
_cell_angle_beta   90.00005794
_cell_angle_gamma   90.00003662
_symmetry_Int_Tables_number   1
_chemical_formula_structural   Pa3Co7(TcP3)2
_chemical_formula_sum   'Pa6 Co14 Tc4 P12'
_cell_volume   499.76007544
_cell_formula_units_Z   2
loop_
 _symmetry_equiv_pos_site_id
 _symmetry_equiv_pos_as_xyz
  1  'x, y, z'
loop_
 _atom_site_type_symbol
 _atom_site_label
 _atom_site_symmetry_multiplicity
 _atom_site_fract_x
 _atom_site_fract_y
 _atom_site_fract_z
 _atom_site_occupancy
  Pa  Pa0  1  0.000001  0.499999  0.528573  1
  Pa  Pa1  1  0.500000  0.000005  0.475822  1
  Pa  Pa2  1  0.500000  0.819199  0.203883  1
  Pa  Pa3  1  0.500001  0.180809  0.203890  1
  Pa  Pa4  1  0.999999  0.681410  0.795276  1
  Pa  Pa5  1  0.000000  0.318593  0.795273  1
  Co  Co6  1  0.000000  0.499998  0.982809  1
  Co  Co7  1  0.500000  0.000001  0.015973  1
  Co  Co8  1  0.000000  0.194728  0.573738  1
  Co  Co9  1  0.000000  0.805273  0.573739  1
  Co  Co10  1  0.500000  0.878145  0.714022  1
  Co  Co11  1  0.500000  0.121856  0.714023  1
  Co  Co12  1  0.000000  0.623315  0.281272  1
  Co  Co13  1  0.999999  0.376675  0.281269  1
  Co  Co14  1  0.500000  0.331708  0.988727  1
  Co  Co15  1  0.500000  0.668290  0.988728  1
  Co  Co16  1  0.000000  0.167947  0.010165  1
  Co  Co17  1  0.000000  0.832060  0.010159  1
  Co  Co18  1  0.499999  0.499997  0.704646  1
  Co  Co19  1  0.000000  0.999994  0.296719  1
  Tc  Tc20  1  0.500000  0.299195  0.430455  1
  Tc  Tc21  1  0.500001  0.700812  0.430456  1
  Tc  Tc22  1  0.500000  0.499990  0.151352  1
  Tc  Tc23  1  0.000000  0.000001  0.846479  1
  P  P24  1  0.500000  0.308506  0.619360  1
  P  P25  1  0.500000  0.691490  0.619361  1
  P  P26  1  0.000000  0.184346  0.383827  1
  P  P27  1  0.000000  0.815657  0.383827  1
  P  P28  1  0.500000  0.499999  0.883055  1
  P  P29  1  0.000000  0.000001  0.117214  1
  P  P30  1  0.500001  0.848185  0.896923  1
  P  P31  1  0.500000  0.151819  0.896920  1
  P  P32  1  0.000001  0.651964  0.101748  1
  P  P33  1  0.000000  0.348037  0.101749  1
  P  P34  1  0.500000  0.499999  0.341582  1
  P  P35  1  0.000000  0.999999  0.656985  1
