# generated using pymatgen
data_Hf3Zn3Ir2Au
_symmetry_space_group_name_H-M   'P 1'
_cell_length_a   7.40899400
_cell_length_b   7.40899435
_cell_length_c   3.27408500
_cell_angle_alpha   90.00000000
_cell_angle_beta   90.00000000
_cell_angle_gamma   119.99998952
_symmetry_Int_Tables_number   1
_chemical_formula_structural   Hf3Zn3Ir2Au
_chemical_formula_sum   'Hf3 Zn3 Ir2 Au1'
_cell_volume   155.64641939
_cell_formula_units_Z   1
loop_
 _symmetry_equiv_pos_site_id
 _symmetry_equiv_pos_as_xyz
  1  'x, y, z'
loop_
 _atom_site_type_symbol
 _atom_site_label
 _atom_site_symmetry_multiplicity
 _atom_site_fract_x
 _atom_site_fract_y
 _atom_site_fract_z
 _atom_site_occupancy
  Hf  Hf0  1  0.398892  0.000000  0.000000  1
  Hf  Hf1  1  0.000000  0.398892  0.000000  1
  Hf  Hf2  1  0.601108  0.601108  0.000000  1
  Zn  Zn3  1  0.720342  0.000000  0.500000  1
  Zn  Zn4  1  0.279659  0.279658  0.500000  1
  Zn  Zn5  1  0.000000  0.720342  0.500000  1
  Ir  Ir6  1  0.666667  0.333334  0.500000  1
  Ir  Ir7  1  0.333333  0.666666  0.500000  1
  Au  Au8  1  0.000000  0.000000  0.000000  1
