# generated using pymatgen
data_HfSc4Pa3(InNi2)4
_symmetry_space_group_name_H-M   'P 1'
_cell_length_a   7.26493592
_cell_length_b   7.26659041
_cell_length_c   6.87645100
_cell_angle_alpha   90.00000000
_cell_angle_beta   90.00000000
_cell_angle_gamma   91.48495433
_symmetry_Int_Tables_number   1
_chemical_formula_structural   HfSc4Pa3(InNi2)4
_chemical_formula_sum   'Hf1 Sc4 Pa3 In4 Ni8'
_cell_volume   362.89496780
_cell_formula_units_Z   1
loop_
 _symmetry_equiv_pos_site_id
 _symmetry_equiv_pos_as_xyz
  1  'x, y, z'
loop_
 _atom_site_type_symbol
 _atom_site_label
 _atom_site_symmetry_multiplicity
 _atom_site_fract_x
 _atom_site_fract_y
 _atom_site_fract_z
 _atom_site_occupancy
  Hf  Hf0  1  0.676627  0.672890  0.000000  1
  Sc  Sc1  1  0.180831  0.818184  0.500000  1
  Sc  Sc2  1  0.326653  0.323383  0.000000  1
  Sc  Sc3  1  0.824996  0.175154  0.500000  1
  Sc  Sc4  1  0.832966  0.167269  0.000000  1
  Pa  Pa5  1  0.663329  0.661767  0.500000  1
  Pa  Pa6  1  0.155645  0.844926  0.000000  1
  Pa  Pa7  1  0.336242  0.335693  0.500000  1
  In  In8  1  0.507283  0.004937  0.756181  1
  In  In9  1  0.998038  0.491804  0.243521  1
  In  In10  1  0.998038  0.491804  0.756479  1
  In  In11  1  0.507283  0.004937  0.243819  1
  Ni  Ni12  1  0.131538  0.121624  0.273378  1
  Ni  Ni13  1  0.873964  0.866589  0.728497  1
  Ni  Ni14  1  0.873964  0.866589  0.271503  1
  Ni  Ni15  1  0.131538  0.121624  0.726622  1
  Ni  Ni16  1  0.369955  0.632988  0.219729  1
  Ni  Ni17  1  0.620579  0.382423  0.764212  1
  Ni  Ni18  1  0.369955  0.632988  0.780271  1
  Ni  Ni19  1  0.620579  0.382423  0.235788  1
