# generated using pymatgen
data_Pr17Sm3Si15Pd
_symmetry_space_group_name_H-M   'P 1'
_cell_length_a   7.92223804
_cell_length_b   7.89933860
_cell_length_c   15.25662403
_cell_angle_alpha   89.93807264
_cell_angle_beta   89.67716141
_cell_angle_gamma   90.20223490
_symmetry_Int_Tables_number   1
_chemical_formula_structural   Pr17Sm3Si15Pd
_chemical_formula_sum   'Pr17 Sm3 Si15 Pd1'
_cell_volume   954.74457489
_cell_formula_units_Z   1
loop_
 _symmetry_equiv_pos_site_id
 _symmetry_equiv_pos_as_xyz
  1  'x, y, z'
loop_
 _atom_site_type_symbol
 _atom_site_label
 _atom_site_symmetry_multiplicity
 _atom_site_fract_x
 _atom_site_fract_y
 _atom_site_fract_z
 _atom_site_occupancy
  Pr  Pr0  1  0.692683  0.688179  0.499120  1
  Pr  Pr1  1  0.374541  0.010216  0.447635  1
  Pr  Pr2  1  0.491886  0.871909  0.698936  1
  Pr  Pr3  1  0.509597  0.123974  0.197199  1
  Pr  Pr4  1  0.876227  0.488137  0.300137  1
  Pr  Pr5  1  0.122274  0.511953  0.801417  1
  Pr  Pr6  1  0.626705  0.988387  0.949439  1
  Pr  Pr7  1  0.001850  0.377111  0.550525  1
  Pr  Pr8  1  0.989161  0.625713  0.052107  1
  Pr  Pr9  1  0.134484  0.986970  0.875827  1
  Pr  Pr10  1  0.517136  0.631371  0.125925  1
  Pr  Pr11  1  0.477662  0.366499  0.628276  1
  Pr  Pr12  1  0.628652  0.517889  0.874361  1
  Pr  Pr13  1  0.371560  0.482236  0.372873  1
  Pr  Pr14  1  0.872217  0.020043  0.376452  1
  Pr  Pr15  1  0.982253  0.127340  0.123936  1
  Pr  Pr16  1  0.020259  0.874670  0.623185  1
  Sm  Sm17  1  0.307496  0.307475  0.999166  1
  Sm  Sm18  1  0.189523  0.808902  0.249983  1
  Sm  Sm19  1  0.807697  0.186554  0.751462  1
  Si  Si20  1  0.331429  0.693952  0.951585  1
  Si  Si21  1  0.663988  0.303647  0.451901  1
  Si  Si22  1  0.696381  0.333776  0.048872  1
  Si  Si23  1  0.304999  0.668910  0.547915  1
  Si  Si24  1  0.806421  0.831693  0.203000  1
  Si  Si25  1  0.168678  0.195092  0.297391  1
  Si  Si26  1  0.834867  0.805641  0.798052  1
  Si  Si27  1  0.287752  0.923317  0.060453  1
  Si  Si28  1  0.576719  0.787551  0.309126  1
  Si  Si29  1  0.432236  0.208672  0.814579  1
  Si  Si30  1  0.787164  0.577465  0.690727  1
  Si  Si31  1  0.212871  0.423646  0.189040  1
  Si  Si32  1  0.707459  0.076705  0.560341  1
  Si  Si33  1  0.922135  0.288436  0.940434  1
  Si  Si34  1  0.080427  0.714816  0.439493  1
  Pd  Pd35  1  0.192610  0.171154  0.699126  1
