# generated using pymatgen
data_Ac2NdTl5
_symmetry_space_group_name_H-M   'P 1'
_cell_length_a   6.92379922
_cell_length_b   6.92379946
_cell_length_c   10.99365300
_cell_angle_alpha   90.00000000
_cell_angle_beta   90.00000000
_cell_angle_gamma   102.46884609
_symmetry_Int_Tables_number   1
_chemical_formula_structural   Ac2NdTl5
_chemical_formula_sum   'Ac4 Nd2 Tl10'
_cell_volume   514.59405928
_cell_formula_units_Z   2
loop_
 _symmetry_equiv_pos_site_id
 _symmetry_equiv_pos_as_xyz
  1  'x, y, z'
loop_
 _atom_site_type_symbol
 _atom_site_label
 _atom_site_symmetry_multiplicity
 _atom_site_fract_x
 _atom_site_fract_y
 _atom_site_fract_z
 _atom_site_occupancy
  Ac  Ac0  1  0.204921  0.795079  0.500000  1
  Ac  Ac1  1  0.204921  0.795079  0.000000  1
  Ac  Ac2  1  0.795079  0.204921  0.500000  1
  Ac  Ac3  1  0.795079  0.204921  0.000000  1
  Nd  Nd4  1  0.639769  0.639769  0.250000  1
  Nd  Nd5  1  0.360231  0.360231  0.750000  1
  Tl  Tl6  1  0.008602  0.008601  0.250000  1
  Tl  Tl7  1  0.991399  0.991398  0.750000  1
  Tl  Tl8  1  0.314584  0.314584  0.049817  1
  Tl  Tl9  1  0.685416  0.685416  0.950183  1
  Tl  Tl10  1  0.314584  0.314584  0.450183  1
  Tl  Tl11  1  0.685416  0.685416  0.549817  1
  Tl  Tl12  1  0.495436  0.069986  0.250000  1
  Tl  Tl13  1  0.930014  0.504564  0.750000  1
  Tl  Tl14  1  0.504564  0.930014  0.750000  1
  Tl  Tl15  1  0.069986  0.495436  0.250000  1
