# generated using pymatgen
data_Hf3Ti2SiGe2N
_symmetry_space_group_name_H-M   'P 1'
_cell_length_a   7.77299050
_cell_length_b   7.77299013
_cell_length_c   5.38349000
_cell_angle_alpha   90.00000000
_cell_angle_beta   90.00000000
_cell_angle_gamma   120.19710367
_symmetry_Int_Tables_number   1
_chemical_formula_structural   Hf3Ti2SiGe2N
_chemical_formula_sum   'Hf6 Ti4 Si2 Ge4 N2'
_cell_volume   281.12844578
_cell_formula_units_Z   2
loop_
 _symmetry_equiv_pos_site_id
 _symmetry_equiv_pos_as_xyz
  1  'x, y, z'
loop_
 _atom_site_type_symbol
 _atom_site_label
 _atom_site_symmetry_multiplicity
 _atom_site_fract_x
 _atom_site_fract_y
 _atom_site_fract_z
 _atom_site_occupancy
  Hf  Hf0  1  0.235863  0.002644  0.250000  1
  Hf  Hf1  1  0.764137  0.997356  0.750000  1
  Hf  Hf2  1  0.002644  0.235863  0.250000  1
  Hf  Hf3  1  0.997356  0.764137  0.750000  1
  Hf  Hf4  1  0.761148  0.761148  0.250000  1
  Hf  Hf5  1  0.238852  0.238852  0.750000  1
  Ti  Ti6  1  0.335582  0.664418  0.000000  1
  Ti  Ti7  1  0.664418  0.335582  0.000000  1
  Ti  Ti8  1  0.664418  0.335582  0.500000  1
  Ti  Ti9  1  0.335582  0.664418  0.500000  1
  Si  Si10  1  0.409141  0.409141  0.250000  1
  Si  Si11  1  0.590859  0.590859  0.750000  1
  Ge  Ge12  1  0.592416  0.000942  0.250000  1
  Ge  Ge13  1  0.407584  0.999058  0.750000  1
  Ge  Ge14  1  0.000942  0.592416  0.250000  1
  Ge  Ge15  1  0.999058  0.407584  0.750000  1
  N  N16  1  0.000000  0.000000  0.000000  1
  N  N17  1  0.000000  0.000000  0.500000  1
