# generated using pymatgen
data_TbY4Sc3(Ni4As3)4
_symmetry_space_group_name_H-M   'P 1'
_cell_length_a   12.77793300
_cell_length_b   12.77793179
_cell_length_c   3.92956400
_cell_angle_alpha   90.00000000
_cell_angle_beta   90.00000000
_cell_angle_gamma   120.00307183
_symmetry_Int_Tables_number   1
_chemical_formula_structural   TbY4Sc3(Ni4As3)4
_chemical_formula_sum   'Tb1 Y4 Sc3 Ni16 As12'
_cell_volume   555.62621314
_cell_formula_units_Z   1
loop_
 _symmetry_equiv_pos_site_id
 _symmetry_equiv_pos_as_xyz
  1  'x, y, z'
loop_
 _atom_site_type_symbol
 _atom_site_label
 _atom_site_symmetry_multiplicity
 _atom_site_fract_x
 _atom_site_fract_y
 _atom_site_fract_z
 _atom_site_occupancy
  Tb  Tb0  1  0.183993  0.183993  0.500000  1
  Y  Y1  1  0.815997  0.000012  0.500000  1
  Y  Y2  1  0.000012  0.815997  0.500000  1
  Y  Y3  1  0.333309  0.666666  0.000000  1
  Y  Y4  1  0.666666  0.333309  0.000000  1
  Sc  Sc5  1  0.565604  0.565604  0.000000  1
  Sc  Sc6  1  0.434414  0.000020  0.000000  1
  Sc  Sc7  1  0.000020  0.434414  0.000000  1
  Ni  Ni8  1  0.721368  0.721368  0.500000  1
  Ni  Ni9  1  0.278622  0.999992  0.500000  1
  Ni  Ni10  1  0.999992  0.278622  0.500000  1
  Ni  Ni11  1  0.185041  0.378663  0.000000  1
  Ni  Ni12  1  0.621334  0.806385  0.000000  1
  Ni  Ni13  1  0.193612  0.814945  0.000000  1
  Ni  Ni14  1  0.806385  0.621334  0.000000  1
  Ni  Ni15  1  0.814945  0.193612  0.000000  1
  Ni  Ni16  1  0.378663  0.185041  0.000000  1
  Ni  Ni17  1  0.361260  0.481479  0.500000  1
  Ni  Ni18  1  0.518525  0.879783  0.500000  1
  Ni  Ni19  1  0.120216  0.638736  0.500000  1
  Ni  Ni20  1  0.879783  0.518525  0.500000  1
  Ni  Ni21  1  0.638736  0.120216  0.500000  1
  Ni  Ni22  1  0.481479  0.361260  0.500000  1
  Ni  Ni23  1  0.000002  0.000002  0.000000  1
  As  As24  1  0.821363  0.821363  0.000000  1
  As  As25  1  0.178648  0.999977  0.000000  1
  As  As26  1  0.999977  0.178648  0.000000  1
  As  As27  1  0.171502  0.479139  0.500000  1
  As  As28  1  0.520862  0.692350  0.500000  1
  As  As29  1  0.307656  0.828506  0.500000  1
  As  As30  1  0.692350  0.520862  0.500000  1
  As  As31  1  0.828506  0.307656  0.500000  1
  As  As32  1  0.479139  0.171502  0.500000  1
  As  As33  1  0.356517  0.356517  0.000000  1
  As  As34  1  0.643510  0.999990  0.000000  1
  As  As35  1  0.999990  0.643510  0.000000  1
