# generated using pymatgen
data_La4Cd3Ag10
_symmetry_space_group_name_H-M   'P 1'
_cell_length_a   8.90298104
_cell_length_b   8.90298142
_cell_length_c   10.47636300
_cell_angle_alpha   90.00000000
_cell_angle_beta   90.00000000
_cell_angle_gamma   108.50398606
_symmetry_Int_Tables_number   1
_chemical_formula_structural   La4Cd3Ag10
_chemical_formula_sum   'La8 Cd6 Ag20'
_cell_volume   787.45895628
_cell_formula_units_Z   2
loop_
 _symmetry_equiv_pos_site_id
 _symmetry_equiv_pos_as_xyz
  1  'x, y, z'
loop_
 _atom_site_type_symbol
 _atom_site_label
 _atom_site_symmetry_multiplicity
 _atom_site_fract_x
 _atom_site_fract_y
 _atom_site_fract_z
 _atom_site_occupancy
  La  La0  1  0.702549  0.297451  0.000000  1
  La  La1  1  0.297451  0.702549  0.000000  1
  La  La2  1  0.797451  0.202549  0.500000  1
  La  La3  1  0.202549  0.797451  0.500000  1
  La  La4  1  0.303168  0.303168  0.203282  1
  La  La5  1  0.696832  0.696832  0.796718  1
  La  La6  1  0.196832  0.196832  0.703282  1
  La  La7  1  0.803168  0.803168  0.296718  1
  Cd  Cd8  1  0.020395  0.520395  0.250000  1
  Cd  Cd9  1  0.979605  0.479605  0.750000  1
  Cd  Cd10  1  0.479605  0.979605  0.750000  1
  Cd  Cd11  1  0.520395  0.020395  0.250000  1
  Cd  Cd12  1  0.000000  0.000000  0.000000  1
  Cd  Cd13  1  0.500000  0.500000  0.500000  1
  Ag  Ag14  1  0.096057  0.096057  0.404811  1
  Ag  Ag15  1  0.903943  0.903943  0.595189  1
  Ag  Ag16  1  0.403943  0.403943  0.904811  1
  Ag  Ag17  1  0.596057  0.596057  0.095189  1
  Ag  Ag18  1  0.897337  0.172600  0.205470  1
  Ag  Ag19  1  0.102663  0.827400  0.794530  1
  Ag  Ag20  1  0.602663  0.327400  0.705470  1
  Ag  Ag21  1  0.672600  0.397337  0.294530  1
  Ag  Ag22  1  0.397337  0.672600  0.294530  1
  Ag  Ag23  1  0.327400  0.602663  0.705470  1
  Ag  Ag24  1  0.827400  0.102663  0.794530  1
  Ag  Ag25  1  0.172600  0.897337  0.205470  1
  Ag  Ag26  1  0.930725  0.659927  0.026977  1
  Ag  Ag27  1  0.069275  0.340073  0.973023  1
  Ag  Ag28  1  0.569275  0.840073  0.526977  1
  Ag  Ag29  1  0.159927  0.430725  0.473023  1
  Ag  Ag30  1  0.430725  0.159927  0.473023  1
  Ag  Ag31  1  0.840073  0.569275  0.526977  1
  Ag  Ag32  1  0.340073  0.069275  0.973023  1
  Ag  Ag33  1  0.659927  0.930725  0.026977  1
