# generated using pymatgen
data_Hf18CoRe4NiW4
_symmetry_space_group_name_H-M   'P 1'
_cell_length_a   8.66110224
_cell_length_b   8.66110073
_cell_length_c   8.45977100
_cell_angle_alpha   90.00000000
_cell_angle_beta   90.00000000
_cell_angle_gamma   120.15806103
_symmetry_Int_Tables_number   1
_chemical_formula_structural   Hf18CoRe4NiW4
_chemical_formula_sum   'Hf18 Co1 Re4 Ni1 W4'
_cell_volume   548.70835750
_cell_formula_units_Z   1
loop_
 _symmetry_equiv_pos_site_id
 _symmetry_equiv_pos_as_xyz
  1  'x, y, z'
loop_
 _atom_site_type_symbol
 _atom_site_label
 _atom_site_symmetry_multiplicity
 _atom_site_fract_x
 _atom_site_fract_y
 _atom_site_fract_z
 _atom_site_occupancy
  Hf  Hf0  1  0.199206  0.800794  0.441391  1
  Hf  Hf1  1  0.199011  0.397844  0.442370  1
  Hf  Hf2  1  0.602156  0.800989  0.442370  1
  Hf  Hf3  1  0.799299  0.200701  0.559837  1
  Hf  Hf4  1  0.799351  0.598747  0.558833  1
  Hf  Hf5  1  0.401253  0.200649  0.558833  1
  Hf  Hf6  1  0.799299  0.200701  0.940163  1
  Hf  Hf7  1  0.799351  0.598747  0.941167  1
  Hf  Hf8  1  0.401253  0.200649  0.941167  1
  Hf  Hf9  1  0.199206  0.800794  0.058609  1
  Hf  Hf10  1  0.199011  0.397844  0.057630  1
  Hf  Hf11  1  0.602156  0.800989  0.057630  1
  Hf  Hf12  1  0.541890  0.458110  0.250000  1
  Hf  Hf13  1  0.541353  0.083630  0.250000  1
  Hf  Hf14  1  0.916370  0.458647  0.250000  1
  Hf  Hf15  1  0.458316  0.541684  0.750000  1
  Hf  Hf16  1  0.458763  0.916670  0.750000  1
  Hf  Hf17  1  0.083330  0.541237  0.750000  1
  Co  Co18  1  0.666321  0.333679  0.750000  1
  Re  Re19  1  0.887669  0.776036  0.250000  1
  Re  Re20  1  0.223964  0.112331  0.250000  1
  Re  Re21  1  0.112483  0.224424  0.750000  1
  Re  Re22  1  0.775576  0.887517  0.750000  1
  Ni  Ni23  1  0.333440  0.666560  0.250000  1
  W  W24  1  0.888573  0.111427  0.250000  1
  W  W25  1  0.111356  0.888644  0.750000  1
  W  W26  1  0.000025  0.999975  0.500610  1
  W  W27  1  0.000025  0.999975  0.999390  1
