# generated using pymatgen
data_Yb2In5Pd4
_symmetry_space_group_name_H-M   'P 1'
_cell_length_a   4.53460000
_cell_length_b   9.56222848
_cell_length_c   10.92190854
_cell_angle_alpha   77.80948490
_cell_angle_beta   90.00000000
_cell_angle_gamma   90.00000000
_symmetry_Int_Tables_number   1
_chemical_formula_structural   Yb2In5Pd4
_chemical_formula_sum   'Yb4 In10 Pd8'
_cell_volume   462.90467890
_cell_formula_units_Z   2
loop_
 _symmetry_equiv_pos_site_id
 _symmetry_equiv_pos_as_xyz
  1  'x, y, z'
loop_
 _atom_site_type_symbol
 _atom_site_label
 _atom_site_symmetry_multiplicity
 _atom_site_fract_x
 _atom_site_fract_y
 _atom_site_fract_z
 _atom_site_occupancy
  Yb  Yb0  1  0.250000  0.327403  0.698191  1
  Yb  Yb1  1  0.750000  0.672597  0.301809  1
  Yb  Yb2  1  0.250000  0.223658  0.113942  1
  Yb  Yb3  1  0.750000  0.776342  0.886058  1
  In  In4  1  0.750000  0.081868  0.654155  1
  In  In5  1  0.250000  0.834157  0.650717  1
  In  In6  1  0.750000  0.426165  0.925575  1
  In  In7  1  0.750000  0.165843  0.349283  1
  In  In8  1  0.750000  0.592430  0.641447  1
  In  In9  1  0.250000  0.887697  0.071225  1
  In  In10  1  0.250000  0.573835  0.074425  1
  In  In11  1  0.250000  0.918132  0.345845  1
  In  In12  1  0.750000  0.112303  0.928775  1
  In  In13  1  0.250000  0.407570  0.358553  1
  Pd  Pd14  1  0.250000  0.016904  0.815150  1
  Pd  Pd15  1  0.250000  0.124713  0.506717  1
  Pd  Pd16  1  0.750000  0.424904  0.184394  1
  Pd  Pd17  1  0.750000  0.875287  0.493283  1
  Pd  Pd18  1  0.750000  0.983096  0.184850  1
  Pd  Pd19  1  0.750000  0.372038  0.508416  1
  Pd  Pd20  1  0.250000  0.575096  0.815606  1
  Pd  Pd21  1  0.250000  0.627962  0.491584  1
