# generated using pymatgen
data_Tm3PaZn2Rh3
_symmetry_space_group_name_H-M   'P 1'
_cell_length_a   7.50572948
_cell_length_b   7.50572899
_cell_length_c   3.78496300
_cell_angle_alpha   90.00000000
_cell_angle_beta   90.00000000
_cell_angle_gamma   121.05286419
_symmetry_Int_Tables_number   1
_chemical_formula_structural   Tm3PaZn2Rh3
_chemical_formula_sum   'Tm3 Pa1 Zn2 Rh3'
_cell_volume   182.67200766
_cell_formula_units_Z   1
loop_
 _symmetry_equiv_pos_site_id
 _symmetry_equiv_pos_as_xyz
  1  'x, y, z'
loop_
 _atom_site_type_symbol
 _atom_site_label
 _atom_site_symmetry_multiplicity
 _atom_site_fract_x
 _atom_site_fract_y
 _atom_site_fract_z
 _atom_site_occupancy
  Tm  Tm0  1  0.961243  0.411647  0.500000  1
  Tm  Tm1  1  0.639231  0.639231  0.500000  1
  Tm  Tm2  1  0.411647  0.961243  0.500000  1
  Pa  Pa3  1  0.260858  0.260858  0.000000  1
  Zn  Zn4  1  0.012620  0.746289  0.000000  1
  Zn  Zn5  1  0.746289  0.012620  0.000000  1
  Rh  Rh6  1  0.324239  0.632776  0.000000  1
  Rh  Rh7  1  0.011099  0.011099  0.500000  1
  Rh  Rh8  1  0.632776  0.324239  0.000000  1
