# generated using pymatgen
data_Dy5Hf2P12Ir12Ru5
_symmetry_space_group_name_H-M   'P 1'
_cell_length_a   12.64834017
_cell_length_b   12.85446417
_cell_length_c   3.96361900
_cell_angle_alpha   90.00000000
_cell_angle_beta   90.00000000
_cell_angle_gamma   119.40381311
_symmetry_Int_Tables_number   1
_chemical_formula_structural   Dy5Hf2P12Ir12Ru5
_chemical_formula_sum   'Dy5 Hf2 P12 Ir12 Ru5'
_cell_volume   561.42000174
_cell_formula_units_Z   1
loop_
 _symmetry_equiv_pos_site_id
 _symmetry_equiv_pos_as_xyz
  1  'x, y, z'
loop_
 _atom_site_type_symbol
 _atom_site_label
 _atom_site_symmetry_multiplicity
 _atom_site_fract_x
 _atom_site_fract_y
 _atom_site_fract_z
 _atom_site_occupancy
  Dy  Dy0  1  0.332393  0.664236  0.500000  1
  Dy  Dy1  1  0.665706  0.334152  0.500000  1
  Dy  Dy2  1  0.003690  0.816801  0.000000  1
  Dy  Dy3  1  0.188298  0.185498  0.000000  1
  Dy  Dy4  1  0.809725  0.999600  0.000000  1
  Hf  Hf5  1  0.994125  0.443119  0.500000  1
  Hf  Hf6  1  0.552915  0.556448  0.500000  1
  P  P7  1  0.011253  0.654639  0.500000  1
  P  P8  1  0.353212  0.349512  0.500000  1
  P  P9  1  0.634730  0.994920  0.500000  1
  P  P10  1  0.519493  0.692677  0.000000  1
  P  P11  1  0.308427  0.826007  0.000000  1
  P  P12  1  0.167187  0.477221  0.000000  1
  P  P13  1  0.480977  0.174022  0.000000  1
  P  P14  1  0.686955  0.519754  0.000000  1
  P  P15  1  0.825072  0.308100  0.000000  1
  P  P16  1  0.003178  0.177905  0.500000  1
  P  P17  1  0.822722  0.825769  0.500000  1
  P  P18  1  0.184975  0.000291  0.500000  1
  Ir  Ir19  1  0.507255  0.871140  0.000000  1
  Ir  Ir20  1  0.122594  0.638727  0.000000  1
  Ir  Ir21  1  0.360854  0.496227  0.000000  1
  Ir  Ir22  1  0.486181  0.361080  0.000000  1
  Ir  Ir23  1  0.860088  0.499678  0.000000  1
  Ir  Ir24  1  0.636379  0.131670  0.000000  1
  Ir  Ir25  1  0.994797  0.273980  0.000000  1
  Ir  Ir26  1  0.723485  0.722892  0.000000  1
  Ir  Ir27  1  0.289352  0.000346  0.000000  1
  Ir  Ir28  1  0.814559  0.631961  0.500000  1
  Ir  Ir29  1  0.813328  0.189261  0.500000  1
  Ir  Ir30  1  0.003813  0.000476  0.500000  1
  Ru  Ru31  1  0.456730  0.002583  0.500000  1
  Ru  Ru32  1  0.623096  0.805778  0.500000  1
  Ru  Ru33  1  0.205715  0.824564  0.500000  1
  Ru  Ru34  1  0.178450  0.372238  0.500000  1
  Ru  Ru35  1  0.378289  0.176730  0.500000  1
