# generated using pymatgen
data_Ho4B16Os3Ru
_symmetry_space_group_name_H-M   'P 1'
_cell_length_a   3.56004700
_cell_length_b   5.95786803
_cell_length_c   11.52684605
_cell_angle_alpha   90.01109614
_cell_angle_beta   90.00000000
_cell_angle_gamma   90.00000000
_symmetry_Int_Tables_number   1
_chemical_formula_structural   Ho4B16Os3Ru
_chemical_formula_sum   'Ho4 B16 Os3 Ru1'
_cell_volume   244.48774530
_cell_formula_units_Z   1
loop_
 _symmetry_equiv_pos_site_id
 _symmetry_equiv_pos_as_xyz
  1  'x, y, z'
loop_
 _atom_site_type_symbol
 _atom_site_label
 _atom_site_symmetry_multiplicity
 _atom_site_fract_x
 _atom_site_fract_y
 _atom_site_fract_z
 _atom_site_occupancy
  Ho  Ho0  1  0.000000  0.628590  0.649855  1
  Ho  Ho1  1  0.000000  0.371441  0.350204  1
  Ho  Ho2  1  0.000000  0.128614  0.849861  1
  Ho  Ho3  1  0.000000  0.871344  0.150123  1
  B  B4  1  0.500000  0.976069  0.692017  1
  B  B5  1  0.500000  0.023723  0.307951  1
  B  B6  1  0.500000  0.475936  0.808035  1
  B  B7  1  0.500000  0.524279  0.192023  1
  B  B8  1  0.500000  0.789744  0.814036  1
  B  B9  1  0.500000  0.210247  0.185924  1
  B  B10  1  0.500000  0.289670  0.685800  1
  B  B11  1  0.500000  0.710404  0.314294  1
  B  B12  1  0.500000  0.864043  0.969991  1
  B  B13  1  0.500000  0.135955  0.030070  1
  B  B14  1  0.500000  0.364249  0.530113  1
  B  B15  1  0.500000  0.635737  0.469733  1
  B  B16  1  0.500000  0.887627  0.546897  1
  B  B17  1  0.500000  0.112450  0.453137  1
  B  B18  1  0.500000  0.387344  0.953011  1
  B  B19  1  0.500000  0.612687  0.047032  1
  Os  Os20  1  0.000000  0.641627  0.906738  1
  Os  Os21  1  0.000000  0.358359  0.093199  1
  Os  Os22  1  0.000000  0.140880  0.593133  1
  Ru  Ru23  1  0.000000  0.858981  0.406826  1
