# generated using pymatgen
data_LiCr4InO8
_symmetry_space_group_name_H-M   'P 1'
_cell_length_a   6.07254867
_cell_length_b   6.07252959
_cell_length_c   6.07251100
_cell_angle_alpha   60.00009584
_cell_angle_beta   60.00019976
_cell_angle_gamma   59.99951751
_symmetry_Int_Tables_number   1
_chemical_formula_structural   LiCr4InO8
_chemical_formula_sum   'Li1 Cr4 In1 O8'
_cell_volume   158.34098531
_cell_formula_units_Z   1
loop_
 _symmetry_equiv_pos_site_id
 _symmetry_equiv_pos_as_xyz
  1  'x, y, z'
loop_
 _atom_site_type_symbol
 _atom_site_label
 _atom_site_symmetry_multiplicity
 _atom_site_fract_x
 _atom_site_fract_y
 _atom_site_fract_z
 _atom_site_occupancy
  Li  Li0  1  0.000000  0.000003  0.999998  1
  Cr  Cr1  1  0.371761  0.371762  0.371763  1
  Cr  Cr2  1  0.371761  0.371762  0.884713  1
  Cr  Cr3  1  0.371763  0.884710  0.371763  1
  Cr  Cr4  1  0.884713  0.371763  0.371762  1
  In  In5  1  0.750001  0.750000  0.750000  1
  O  O6  1  0.138427  0.138431  0.138426  1
  O  O7  1  0.138427  0.138431  0.584716  1
  O  O8  1  0.138432  0.584709  0.138430  1
  O  O9  1  0.584711  0.138432  0.138429  1
  O  O10  1  0.610744  0.610741  0.610746  1
  O  O11  1  0.610744  0.610741  0.167770  1
  O  O12  1  0.610741  0.167773  0.610743  1
  O  O13  1  0.167775  0.610740  0.610743  1
