# generated using pymatgen
data_ErTm15(ScSb3)4
_symmetry_space_group_name_H-M   'P 1'
_cell_length_a   7.88707849
_cell_length_b   9.12337109
_cell_length_c   11.62094800
_cell_angle_alpha   90.00445888
_cell_angle_beta   90.02013723
_cell_angle_gamma   90.00663023
_symmetry_Int_Tables_number   1
_chemical_formula_structural   ErTm15(ScSb3)4
_chemical_formula_sum   'Er1 Tm15 Sc4 Sb12'
_cell_volume   836.20551868
_cell_formula_units_Z   1
loop_
 _symmetry_equiv_pos_site_id
 _symmetry_equiv_pos_as_xyz
  1  'x, y, z'
loop_
 _atom_site_type_symbol
 _atom_site_label
 _atom_site_symmetry_multiplicity
 _atom_site_fract_x
 _atom_site_fract_y
 _atom_site_fract_z
 _atom_site_occupancy
  Er  Er0  1  0.697008  0.562120  0.059985  1
  Tm  Tm1  1  0.197053  0.561955  0.439995  1
  Tm  Tm2  1  0.696874  0.938381  0.059961  1
  Tm  Tm3  1  0.803103  0.061882  0.559957  1
  Tm  Tm4  1  0.303018  0.438128  0.940036  1
  Tm  Tm5  1  0.803022  0.438143  0.559993  1
  Tm  Tm6  1  0.303290  0.061885  0.940082  1
  Tm  Tm7  1  0.197018  0.938034  0.439924  1
  Tm  Tm8  1  0.184847  0.749973  0.720719  1
  Tm  Tm9  1  0.684847  0.749987  0.779326  1
  Tm  Tm10  1  0.815206  0.249991  0.279299  1
  Tm  Tm11  1  0.315201  0.250024  0.220664  1
  Tm  Tm12  1  0.855723  0.749928  0.285209  1
  Tm  Tm13  1  0.355754  0.749871  0.214846  1
  Tm  Tm14  1  0.144208  0.249982  0.714781  1
  Tm  Tm15  1  0.644233  0.249926  0.785291  1
  Sc  Sc16  1  0.028414  0.750036  0.988497  1
  Sc  Sc17  1  0.528396  0.750043  0.511517  1
  Sc  Sc18  1  0.971496  0.249914  0.011497  1
  Sc  Sc19  1  0.471528  0.249933  0.488467  1
  Sb  Sb20  1  0.933155  0.496320  0.831009  1
  Sb  Sb21  1  0.433165  0.003575  0.669005  1
  Sb  Sb22  1  0.066848  0.996239  0.168973  1
  Sb  Sb23  1  0.566826  0.503640  0.331039  1
  Sb  Sb24  1  0.066895  0.503653  0.168963  1
  Sb  Sb25  1  0.566782  0.996305  0.330942  1
  Sb  Sb26  1  0.933162  0.003625  0.831025  1
  Sb  Sb27  1  0.433187  0.496381  0.669020  1
  Sb  Sb28  1  0.906991  0.750034  0.541210  1
  Sb  Sb29  1  0.406877  0.750092  0.958748  1
  Sb  Sb30  1  0.092930  0.249995  0.458774  1
  Sb  Sb31  1  0.592945  0.250004  0.041247  1
