# generated using pymatgen
data_Nd2DyHfAl17GaIr6
_symmetry_space_group_name_H-M   'P 1'
_cell_length_a   7.57285200
_cell_length_b   7.56374896
_cell_length_c   9.47661000
_cell_angle_alpha   90.00000000
_cell_angle_beta   90.00000000
_cell_angle_gamma   119.50450680
_symmetry_Int_Tables_number   1
_chemical_formula_structural   Nd2DyHfAl17GaIr6
_chemical_formula_sum   'Nd2 Dy1 Hf1 Al17 Ga1 Ir6'
_cell_volume   472.41864568
_cell_formula_units_Z   1
loop_
 _symmetry_equiv_pos_site_id
 _symmetry_equiv_pos_as_xyz
  1  'x, y, z'
loop_
 _atom_site_type_symbol
 _atom_site_label
 _atom_site_symmetry_multiplicity
 _atom_site_fract_x
 _atom_site_fract_y
 _atom_site_fract_z
 _atom_site_occupancy
  Nd  Nd0  1  0.005908  0.324275  0.250000  1
  Nd  Nd1  1  0.326732  0.007494  0.250000  1
  Dy  Dy2  1  0.671988  0.996020  0.750000  1
  Hf  Hf3  1  0.997355  0.674392  0.750000  1
  Al  Al4  1  0.127131  0.124950  0.750000  1
  Al  Al5  1  0.000099  0.339335  0.581621  1
  Al  Al6  1  0.997829  0.664667  0.434691  1
  Al  Al7  1  0.997829  0.664667  0.065309  1
  Al  Al8  1  0.333027  0.997777  0.918380  1
  Al  Al9  1  0.000099  0.339335  0.918379  1
  Al  Al10  1  0.664071  0.996082  0.069918  1
  Al  Al11  1  0.664071  0.996082  0.430082  1
  Al  Al12  1  0.333027  0.997777  0.581620  1
  Al  Al13  1  0.335339  0.335654  0.042008  1
  Al  Al14  1  0.669437  0.667097  0.938665  1
  Al  Al15  1  0.669437  0.667097  0.561335  1
  Al  Al16  1  0.335339  0.335654  0.457992  1
  Al  Al17  1  0.336386  0.550576  0.750000  1
  Al  Al18  1  0.661993  0.454124  0.250000  1
  Al  Al19  1  0.556595  0.344393  0.750000  1
  Al  Al20  1  0.452032  0.660146  0.250000  1
  Ga  Ga21  1  0.863009  0.861196  0.250000  1
  Ir  Ir22  1  0.673194  0.329946  0.502771  1
  Ir  Ir23  1  0.328908  0.672813  0.503565  1
  Ir  Ir24  1  0.328908  0.672813  0.996435  1
  Ir  Ir25  1  0.673194  0.329946  0.997229  1
  Ir  Ir26  1  0.998531  0.997845  0.506348  1
  Ir  Ir27  1  0.998531  0.997845  0.993652  1
