# generated using pymatgen
data_Y4Ho3FeBr12
_symmetry_space_group_name_H-M   'P 1'
_cell_length_a   9.23566548
_cell_length_b   9.15311862
_cell_length_c   9.22323400
_cell_angle_alpha   106.73162764
_cell_angle_beta   106.98987204
_cell_angle_gamma   106.86351978
_symmetry_Int_Tables_number   1
_chemical_formula_structural   Y4Ho3FeBr12
_chemical_formula_sum   'Y4 Ho3 Fe1 Br12'
_cell_volume   651.76322113
_cell_formula_units_Z   1
loop_
 _symmetry_equiv_pos_site_id
 _symmetry_equiv_pos_as_xyz
  1  'x, y, z'
loop_
 _atom_site_type_symbol
 _atom_site_label
 _atom_site_symmetry_multiplicity
 _atom_site_fract_x
 _atom_site_fract_y
 _atom_site_fract_z
 _atom_site_occupancy
  Y  Y0  1  0.806240  0.520879  0.598832  1
  Y  Y1  1  0.405747  0.205782  0.478390  1
  Y  Y2  1  0.478773  0.402019  0.194411  1
  Y  Y3  1  0.594327  0.793967  0.520270  1
  Ho  Ho4  1  0.998343  0.000694  0.000834  1
  Ho  Ho5  1  0.522201  0.596675  0.802398  1
  Ho  Ho6  1  0.197674  0.479697  0.402735  1
  Fe  Fe7  1  0.500356  0.499974  0.499875  1
  Br  Br8  1  0.666389  0.960525  0.884344  1
  Br  Br9  1  0.720274  0.177780  0.569460  1
  Br  Br10  1  0.885336  0.667687  0.964060  1
  Br  Br11  1  0.278420  0.820010  0.430421  1
  Br  Br12  1  0.180684  0.570729  0.722110  1
  Br  Br13  1  0.039661  0.116074  0.333081  1
  Br  Br14  1  0.570310  0.722667  0.178637  1
  Br  Br15  1  0.112846  0.333645  0.038239  1
  Br  Br16  1  0.823414  0.429792  0.278631  1
  Br  Br17  1  0.428749  0.277609  0.819285  1
  Br  Br18  1  0.960582  0.886487  0.669490  1
  Br  Br19  1  0.329673  0.037308  0.114498  1
