# generated using pymatgen
data_K2Zr4PbSe10
_symmetry_space_group_name_H-M   'P 1'
_cell_length_a   6.80106079
_cell_length_b   11.45731810
_cell_length_c   9.11423000
_cell_angle_alpha   59.88406281
_cell_angle_beta   68.29058961
_cell_angle_gamma   90.21345969
_symmetry_Int_Tables_number   1
_chemical_formula_structural   K2Zr4PbSe10
_chemical_formula_sum   'K2 Zr4 Pb1 Se10'
_cell_volume   554.69315056
_cell_formula_units_Z   1
loop_
 _symmetry_equiv_pos_site_id
 _symmetry_equiv_pos_as_xyz
  1  'x, y, z'
loop_
 _atom_site_type_symbol
 _atom_site_label
 _atom_site_symmetry_multiplicity
 _atom_site_fract_x
 _atom_site_fract_y
 _atom_site_fract_z
 _atom_site_occupancy
  K  K0  1  0.783617  0.074394  0.427697  1
  K  K1  1  0.007428  0.526861  0.984152  1
  Zr  Zr2  1  0.402308  0.800254  0.196305  1
  Zr  Zr3  1  0.200693  0.398783  0.594627  1
  Zr  Zr4  1  0.599694  0.202606  0.802802  1
  Zr  Zr5  1  0.998288  0.997772  0.999783  1
  Pb  Pb6  1  0.801429  0.600644  0.403989  1
  Se  Se7  1  0.018011  0.861816  0.330997  1
  Se  Se8  1  0.595192  0.034036  0.153445  1
  Se  Se9  1  0.194895  0.240413  0.948053  1
  Se  Se10  1  0.790855  0.413840  0.784109  1
  Se  Se11  1  0.350475  0.638023  0.553356  1
  Se  Se12  1  0.401022  0.962145  0.852677  1
  Se  Se13  1  0.001859  0.164912  0.647294  1
  Se  Se14  1  0.589372  0.336555  0.466322  1
  Se  Se15  1  0.252998  0.560943  0.237852  1
  Se  Se16  1  0.811864  0.786002  0.016541  1
