# generated using pymatgen
data_SmLu2Al2Co9B4
_symmetry_space_group_name_H-M   'P 1'
_cell_length_a   5.12257432
_cell_length_b   5.12009304
_cell_length_c   9.54159200
_cell_angle_alpha   90.00017259
_cell_angle_beta   89.99978361
_cell_angle_gamma   119.97353612
_symmetry_Int_Tables_number   1
_chemical_formula_structural   SmLu2Al2Co9B4
_chemical_formula_sum   'Sm1 Lu2 Al2 Co9 B4'
_cell_volume   216.78705507
_cell_formula_units_Z   1
loop_
 _symmetry_equiv_pos_site_id
 _symmetry_equiv_pos_as_xyz
  1  'x, y, z'
loop_
 _atom_site_type_symbol
 _atom_site_label
 _atom_site_symmetry_multiplicity
 _atom_site_fract_x
 _atom_site_fract_y
 _atom_site_fract_z
 _atom_site_occupancy
  Sm  Sm0  1  0.999987  0.000005  0.999887  1
  Lu  Lu1  1  0.999989  0.999990  0.340317  1
  Lu  Lu2  1  0.000005  0.000005  0.659727  1
  Al  Al3  1  0.333230  0.666654  0.999912  1
  Al  Al4  1  0.666743  0.333352  0.999911  1
  Co  Co5  1  0.499994  0.999989  0.500087  1
  Co  Co6  1  0.500001  0.500001  0.499962  1
  Co  Co7  1  0.000001  0.500008  0.500042  1
  Co  Co8  1  0.499994  0.999997  0.208643  1
  Co  Co9  1  0.499993  0.499996  0.208651  1
  Co  Co10  1  0.999997  0.500007  0.208632  1
  Co  Co11  1  0.499996  0.999999  0.791284  1
  Co  Co12  1  0.499993  0.499999  0.791450  1
  Co  Co13  1  0.999993  0.499997  0.791354  1
  B  B14  1  0.333345  0.666664  0.349982  1
  B  B15  1  0.666642  0.333335  0.349981  1
  B  B16  1  0.666454  0.333290  0.650089  1
  B  B17  1  0.333541  0.666713  0.650090  1
