# generated using pymatgen
data_LiYb2SmCd2Sn3
_symmetry_space_group_name_H-M   'P 1'
_cell_length_a   7.58006901
_cell_length_b   7.55352560
_cell_length_c   4.67497000
_cell_angle_alpha   90.00000000
_cell_angle_beta   90.00000000
_cell_angle_gamma   119.88422254
_symmetry_Int_Tables_number   1
_chemical_formula_structural   LiYb2SmCd2Sn3
_chemical_formula_sum   'Li1 Yb2 Sm1 Cd2 Sn3'
_cell_volume   232.08005218
_cell_formula_units_Z   1
loop_
 _symmetry_equiv_pos_site_id
 _symmetry_equiv_pos_as_xyz
  1  'x, y, z'
loop_
 _atom_site_type_symbol
 _atom_site_label
 _atom_site_symmetry_multiplicity
 _atom_site_fract_x
 _atom_site_fract_y
 _atom_site_fract_z
 _atom_site_occupancy
  Li  Li0  1  0.000000  0.764064  0.000000  1
  Yb  Yb1  1  0.566289  0.567769  0.500000  1
  Yb  Yb2  1  0.433711  0.001479  0.500000  1
  Sm  Sm3  1  0.000000  0.426471  0.500000  1
  Cd  Cd4  1  0.247825  0.245404  0.000000  1
  Cd  Cd5  1  0.752175  0.997579  0.000000  1
  Sn  Sn6  1  0.322729  0.666654  0.000000  1
  Sn  Sn7  1  0.677271  0.343925  0.000000  1
  Sn  Sn8  1  0.000000  0.986654  0.500000  1
