# generated using pymatgen
data_Sr8Mg4Cd4Si15Sn
_symmetry_space_group_name_H-M   'P 1'
_cell_length_a   4.45575200
_cell_length_b   11.54811335
_cell_length_c   14.55043536
_cell_angle_alpha   89.68885460
_cell_angle_beta   90.00000000
_cell_angle_gamma   90.00000000
_symmetry_Int_Tables_number   1
_chemical_formula_structural   Sr8Mg4Cd4Si15Sn
_chemical_formula_sum   'Sr8 Mg4 Cd4 Si15 Sn1'
_cell_volume   748.68931103
_cell_formula_units_Z   1
loop_
 _symmetry_equiv_pos_site_id
 _symmetry_equiv_pos_as_xyz
  1  'x, y, z'
loop_
 _atom_site_type_symbol
 _atom_site_label
 _atom_site_symmetry_multiplicity
 _atom_site_fract_x
 _atom_site_fract_y
 _atom_site_fract_z
 _atom_site_occupancy
  Sr  Sr0  1  0.250000  0.524033  0.197627  1
  Sr  Sr1  1  0.250000  0.737474  0.940131  1
  Sr  Sr2  1  0.750000  0.260221  0.061663  1
  Sr  Sr3  1  0.750000  0.242237  0.559317  1
  Sr  Sr4  1  0.250000  0.757249  0.438618  1
  Sr  Sr5  1  0.250000  0.975139  0.691130  1
  Sr  Sr6  1  0.750000  0.024942  0.303856  1
  Sr  Sr7  1  0.750000  0.476865  0.801815  1
  Mg  Mg8  1  0.250000  0.676923  0.686122  1
  Mg  Mg9  1  0.750000  0.320161  0.310315  1
  Mg  Mg10  1  0.750000  0.188513  0.807157  1
  Mg  Mg11  1  0.250000  0.819058  0.191513  1
  Cd  Cd12  1  0.250000  0.441085  0.439505  1
  Cd  Cd13  1  0.750000  0.557192  0.558068  1
  Cd  Cd14  1  0.750000  0.941684  0.069229  1
  Cd  Cd15  1  0.250000  0.069616  0.950891  1
  Si  Si16  1  0.250000  0.452250  0.634065  1
  Si  Si17  1  0.750000  0.546155  0.363668  1
  Si  Si18  1  0.250000  0.028569  0.464845  1
  Si  Si19  1  0.250000  0.048878  0.140476  1
  Si  Si20  1  0.250000  0.274732  0.720409  1
  Si  Si21  1  0.750000  0.725541  0.278724  1
  Si  Si22  1  0.750000  0.758499  0.772240  1
  Si  Si23  1  0.250000  0.211626  0.392963  1
  Si  Si24  1  0.750000  0.970388  0.532536  1
  Si  Si25  1  0.750000  0.530734  0.033391  1
  Si  Si26  1  0.250000  0.470324  0.967202  1
  Si  Si27  1  0.250000  0.291774  0.892241  1
  Si  Si28  1  0.750000  0.786437  0.603507  1
  Si  Si29  1  0.750000  0.710468  0.108702  1
  Si  Si30  1  0.250000  0.228340  0.223165  1
  Sn  Sn31  1  0.750000  0.952893  0.864906  1
