# generated using pymatgen
data_Dy5Tc6P12Ir13
_symmetry_space_group_name_H-M   'P 1'
_cell_length_a   12.66500700
_cell_length_b   12.66500692
_cell_length_c   3.99340800
_cell_angle_alpha   90.00000000
_cell_angle_beta   90.00000000
_cell_angle_gamma   119.99999759
_symmetry_Int_Tables_number   1
_chemical_formula_structural   Dy5Tc6P12Ir13
_chemical_formula_sum   'Dy5 Tc6 P12 Ir13'
_cell_volume   554.73451941
_cell_formula_units_Z   1
loop_
 _symmetry_equiv_pos_site_id
 _symmetry_equiv_pos_as_xyz
  1  'x, y, z'
loop_
 _atom_site_type_symbol
 _atom_site_label
 _atom_site_symmetry_multiplicity
 _atom_site_fract_x
 _atom_site_fract_y
 _atom_site_fract_z
 _atom_site_occupancy
  Dy  Dy0  1  0.333333  0.666667  0.500000  1
  Dy  Dy1  1  0.666667  0.333333  0.500000  1
  Dy  Dy2  1  0.000239  0.812128  0.000000  1
  Dy  Dy3  1  0.187872  0.188111  0.000000  1
  Dy  Dy4  1  0.811889  0.999761  0.000000  1
  Tc  Tc5  1  0.990561  0.446632  0.500000  1
  Tc  Tc6  1  0.553368  0.543929  0.500000  1
  Tc  Tc7  1  0.456071  0.009439  0.500000  1
  Tc  Tc8  1  0.620424  0.799308  0.500000  1
  Tc  Tc9  1  0.200692  0.821116  0.500000  1
  Tc  Tc10  1  0.178884  0.379576  0.500000  1
  P  P11  1  0.006976  0.638539  0.500000  1
  P  P12  1  0.361461  0.368438  0.500000  1
  P  P13  1  0.631562  0.993024  0.500000  1
  P  P14  1  0.521360  0.694025  0.000000  1
  P  P15  1  0.305975  0.827335  0.000000  1
  P  P16  1  0.172665  0.478640  0.000000  1
  P  P17  1  0.482307  0.168183  0.000000  1
  P  P18  1  0.685876  0.517693  0.000000  1
  P  P19  1  0.831817  0.314124  0.000000  1
  P  P20  1  0.003894  0.182601  0.500000  1
  P  P21  1  0.817399  0.821293  0.500000  1
  P  P22  1  0.178707  0.996106  0.500000  1
  Ir  Ir23  1  0.506742  0.874511  0.000000  1
  Ir  Ir24  1  0.125489  0.632232  0.000000  1
  Ir  Ir25  1  0.367768  0.493258  0.000000  1
  Ir  Ir26  1  0.493716  0.358066  0.000000  1
  Ir  Ir27  1  0.864351  0.506284  0.000000  1
  Ir  Ir28  1  0.641934  0.135649  0.000000  1
  Ir  Ir29  1  0.995141  0.281562  0.000000  1
  Ir  Ir30  1  0.718438  0.713580  0.000000  1
  Ir  Ir31  1  0.286420  0.004859  0.000000  1
  Ir  Ir32  1  0.374134  0.185040  0.500000  1
  Ir  Ir33  1  0.810906  0.625866  0.500000  1
  Ir  Ir34  1  0.814960  0.189094  0.500000  1
  Ir  Ir35  1  0.000000  0.000000  0.500000  1
