# generated using pymatgen
data_Zr10Hg6CO
_symmetry_space_group_name_H-M   'P 1'
_cell_length_a   8.67286400
_cell_length_b   8.67286539
_cell_length_c   5.51461600
_cell_angle_alpha   90.00000000
_cell_angle_beta   90.00000000
_cell_angle_gamma   120.00000995
_symmetry_Int_Tables_number   1
_chemical_formula_structural   Zr10Hg6CO
_chemical_formula_sum   'Zr10 Hg6 C1 O1'
_cell_volume   359.22868364
_cell_formula_units_Z   1
loop_
 _symmetry_equiv_pos_site_id
 _symmetry_equiv_pos_as_xyz
  1  'x, y, z'
loop_
 _atom_site_type_symbol
 _atom_site_label
 _atom_site_symmetry_multiplicity
 _atom_site_fract_x
 _atom_site_fract_y
 _atom_site_fract_z
 _atom_site_occupancy
  Zr  Zr0  1  0.666667  0.333333  0.000000  1
  Zr  Zr1  1  0.333333  0.666667  0.000000  1
  Zr  Zr2  1  0.217038  0.000000  0.254457  1
  Zr  Zr3  1  0.000000  0.217038  0.254457  1
  Zr  Zr4  1  0.782962  0.782962  0.254457  1
  Zr  Zr5  1  0.666667  0.333333  0.500000  1
  Zr  Zr6  1  0.333333  0.666667  0.500000  1
  Zr  Zr7  1  0.782962  0.000000  0.745543  1
  Zr  Zr8  1  0.000000  0.782962  0.745543  1
  Zr  Zr9  1  0.217038  0.217038  0.745543  1
  Hg  Hg10  1  0.600087  0.000000  0.249654  1
  Hg  Hg11  1  0.000000  0.600087  0.249654  1
  Hg  Hg12  1  0.399913  0.399913  0.249654  1
  Hg  Hg13  1  0.399913  0.000000  0.750346  1
  Hg  Hg14  1  0.000000  0.399913  0.750346  1
  Hg  Hg15  1  0.600087  0.600087  0.750346  1
  C  C16  1  0.000000  0.000000  0.500000  1
  O  O17  1  0.000000  0.000000  0.000000  1
