# generated using pymatgen
data_Pr(AgO2)2
_symmetry_space_group_name_H-M   'P 1'
_cell_length_a   6.78476238
_cell_length_b   6.78476192
_cell_length_c   6.78476283
_cell_angle_alpha   126.10622178
_cell_angle_beta   126.10622570
_cell_angle_gamma   79.71362886
_symmetry_Int_Tables_number   1
_chemical_formula_structural   Pr(AgO2)2
_chemical_formula_sum   'Pr2 Ag4 O8'
_cell_volume   196.94174043
_cell_formula_units_Z   2
loop_
 _symmetry_equiv_pos_site_id
 _symmetry_equiv_pos_as_xyz
  1  'x, y, z'
loop_
 _atom_site_type_symbol
 _atom_site_label
 _atom_site_symmetry_multiplicity
 _atom_site_fract_x
 _atom_site_fract_y
 _atom_site_fract_z
 _atom_site_occupancy
  Pr  Pr0  1  0.750000  0.250000  0.500000  1
  Pr  Pr1  1  0.000000  0.000000  0.000000  1
  Ag  Ag2  1  0.375000  0.125000  0.750000  1
  Ag  Ag3  1  0.375000  0.625000  0.250000  1
  Ag  Ag4  1  0.875000  0.625000  0.250000  1
  Ag  Ag5  1  0.375000  0.625000  0.750000  1
  O  O6  1  0.043029  0.000923  0.652378  1
  O  O7  1  0.609349  0.956971  0.957894  1
  O  O8  1  0.999077  0.651454  0.042106  1
  O  O9  1  0.401454  0.859349  0.152378  1
  O  O10  1  0.750923  0.598546  0.457894  1
  O  O11  1  0.140651  0.293029  0.542106  1
  O  O12  1  0.348546  0.390651  0.347622  1
  O  O13  1  0.706971  0.249077  0.847622  1
