# generated using pymatgen
data_Rb4I2O9
_symmetry_space_group_name_H-M   'P 1'
_cell_length_a   6.51017400
_cell_length_b   6.51017308
_cell_length_c   16.04422100
_cell_angle_alpha   90.00000000
_cell_angle_beta   90.00000000
_cell_angle_gamma   120.00000470
_symmetry_Int_Tables_number   1
_chemical_formula_structural   Rb4I2O9
_chemical_formula_sum   'Rb8 I4 O18'
_cell_volume   588.89026847
_cell_formula_units_Z   2
loop_
 _symmetry_equiv_pos_site_id
 _symmetry_equiv_pos_as_xyz
  1  'x, y, z'
loop_
 _atom_site_type_symbol
 _atom_site_label
 _atom_site_symmetry_multiplicity
 _atom_site_fract_x
 _atom_site_fract_y
 _atom_site_fract_z
 _atom_site_occupancy
  Rb  Rb0  1  0.000000  0.000000  0.000000  1
  Rb  Rb1  1  0.000000  0.000000  0.500000  1
  Rb  Rb2  1  0.000000  0.000000  0.250000  1
  Rb  Rb3  1  0.000000  0.000000  0.750000  1
  Rb  Rb4  1  0.333333  0.666667  0.407994  1
  Rb  Rb5  1  0.666667  0.333333  0.907994  1
  Rb  Rb6  1  0.666667  0.333333  0.592006  1
  Rb  Rb7  1  0.333333  0.666667  0.092006  1
  I  I8  1  0.333333  0.666667  0.659169  1
  I  I9  1  0.666667  0.333333  0.159169  1
  I  I10  1  0.666667  0.333333  0.340831  1
  I  I11  1  0.333333  0.666667  0.840831  1
  O  O12  1  0.191189  0.808811  0.895842  1
  O  O13  1  0.191189  0.382378  0.895842  1
  O  O14  1  0.617622  0.808811  0.895842  1
  O  O15  1  0.382378  0.191189  0.395842  1
  O  O16  1  0.808811  0.617622  0.104158  1
  O  O17  1  0.808811  0.191189  0.395842  1
  O  O18  1  0.808811  0.617622  0.395842  1
  O  O19  1  0.191189  0.808811  0.604158  1
  O  O20  1  0.617622  0.808811  0.604158  1
  O  O21  1  0.382378  0.191189  0.104158  1
  O  O22  1  0.808811  0.191189  0.104158  1
  O  O23  1  0.191189  0.382378  0.604158  1
  O  O24  1  0.538117  0.076234  0.250000  1
  O  O25  1  0.461883  0.538117  0.750000  1
  O  O26  1  0.076234  0.538117  0.750000  1
  O  O27  1  0.923766  0.461883  0.250000  1
  O  O28  1  0.538117  0.461883  0.250000  1
  O  O29  1  0.461883  0.923766  0.750000  1
