# generated using pymatgen
data_Ba2SrSi2Pt7
_symmetry_space_group_name_H-M   'P 1'
_cell_length_a   8.96468124
_cell_length_b   8.96468037
_cell_length_c   8.96468000
_cell_angle_alpha   37.45411839
_cell_angle_beta   37.45412564
_cell_angle_gamma   37.45412218
_symmetry_Int_Tables_number   1
_chemical_formula_structural   Ba2SrSi2Pt7
_chemical_formula_sum   'Ba2 Sr1 Si2 Pt7'
_cell_volume   238.92583251
_cell_formula_units_Z   1
loop_
 _symmetry_equiv_pos_site_id
 _symmetry_equiv_pos_as_xyz
  1  'x, y, z'
loop_
 _atom_site_type_symbol
 _atom_site_label
 _atom_site_symmetry_multiplicity
 _atom_site_fract_x
 _atom_site_fract_y
 _atom_site_fract_z
 _atom_site_occupancy
  Ba  Ba0  1  0.357325  0.357325  0.357325  1
  Ba  Ba1  1  0.642675  0.642675  0.642675  1
  Sr  Sr2  1  0.500000  0.500000  0.500000  1
  Si  Si3  1  0.169190  0.169190  0.169190  1
  Si  Si4  1  0.830810  0.830810  0.830810  1
  Pt  Pt5  1  0.000000  0.000000  0.000000  1
  Pt  Pt6  1  0.576172  0.067774  0.067773  1
  Pt  Pt7  1  0.067774  0.576172  0.067773  1
  Pt  Pt8  1  0.932226  0.932226  0.423829  1
  Pt  Pt9  1  0.067774  0.067774  0.576171  1
  Pt  Pt10  1  0.932226  0.423828  0.932227  1
  Pt  Pt11  1  0.423828  0.932226  0.932227  1
