# generated using pymatgen
data_NdY2Ho3Ta2O14
_symmetry_space_group_name_H-M   'P 1'
_cell_length_a   6.49669312
_cell_length_b   6.50761621
_cell_length_c   7.51895811
_cell_angle_alpha   89.89375104
_cell_angle_beta   90.12862654
_cell_angle_gamma   108.72112451
_symmetry_Int_Tables_number   1
_chemical_formula_structural   NdY2Ho3Ta2O14
_chemical_formula_sum   'Nd1 Y2 Ho3 Ta2 O14'
_cell_volume   301.06669552
_cell_formula_units_Z   1
loop_
 _symmetry_equiv_pos_site_id
 _symmetry_equiv_pos_as_xyz
  1  'x, y, z'
loop_
 _atom_site_type_symbol
 _atom_site_label
 _atom_site_symmetry_multiplicity
 _atom_site_fract_x
 _atom_site_fract_y
 _atom_site_fract_z
 _atom_site_occupancy
  Nd  Nd0  1  0.518692  0.519515  0.500369  1
  Y  Y1  1  0.462924  0.462566  0.999460  1
  Y  Y2  1  0.999402  0.534229  0.240487  1
  Ho  Ho3  1  0.998863  0.465559  0.745046  1
  Ho  Ho4  1  0.534590  0.000080  0.759616  1
  Ho  Ho5  1  0.465957  0.998701  0.254808  1
  Ta  Ta6  1  0.001848  0.001707  0.500453  1
  Ta  Ta7  1  0.997390  0.997290  0.999569  1
  O  O8  1  0.931908  0.066782  0.749619  1
  O  O9  1  0.067265  0.934437  0.250417  1
  O  O10  1  0.359310  0.642873  0.241559  1
  O  O11  1  0.642387  0.357242  0.758146  1
  O  O12  1  0.366676  0.632966  0.757990  1
  O  O13  1  0.630686  0.365480  0.242229  1
  O  O14  1  0.326870  0.078996  0.974396  1
  O  O15  1  0.674412  0.924935  0.473316  1
  O  O16  1  0.313057  0.057512  0.542535  1
  O  O17  1  0.692305  0.951801  0.043284  1
  O  O18  1  0.060115  0.313521  0.459979  1
  O  O19  1  0.950296  0.692288  0.955771  1
  O  O20  1  0.924102  0.674711  0.527482  1
  O  O21  1  0.080947  0.326808  0.023469  1
