# generated using pymatgen
data_Cs4Rb2V3RhBr18
_symmetry_space_group_name_H-M   'P 1'
_cell_length_a   7.68561000
_cell_length_b   7.68561043
_cell_length_c   19.36103500
_cell_angle_alpha   90.00000000
_cell_angle_beta   90.00000000
_cell_angle_gamma   119.99999815
_symmetry_Int_Tables_number   1
_chemical_formula_structural   Cs4Rb2V3RhBr18
_chemical_formula_sum   'Cs4 Rb2 V3 Rh1 Br18'
_cell_volume   990.41205927
_cell_formula_units_Z   1
loop_
 _symmetry_equiv_pos_site_id
 _symmetry_equiv_pos_as_xyz
  1  'x, y, z'
loop_
 _atom_site_type_symbol
 _atom_site_label
 _atom_site_symmetry_multiplicity
 _atom_site_fract_x
 _atom_site_fract_y
 _atom_site_fract_z
 _atom_site_occupancy
  Cs  Cs0  1  0.666667  0.333333  0.571513  1
  Cs  Cs1  1  0.333333  0.666667  0.071432  1
  Cs  Cs2  1  0.333333  0.666667  0.429644  1
  Cs  Cs3  1  0.666667  0.333333  0.930872  1
  Rb  Rb4  1  0.000000  0.000000  0.250288  1
  Rb  Rb5  1  0.000000  0.000000  0.746890  1
  V  V6  1  0.666667  0.333333  0.333946  1
  V  V7  1  0.333333  0.666667  0.834760  1
  V  V8  1  0.666667  0.333333  0.166225  1
  Rh  Rh9  1  0.333333  0.666667  0.669556  1
  Br  Br10  1  0.824122  0.648243  0.404549  1
  Br  Br11  1  0.179101  0.820899  0.596217  1
  Br  Br12  1  0.641798  0.820899  0.596217  1
  Br  Br13  1  0.824122  0.175878  0.404549  1
  Br  Br14  1  0.351757  0.175878  0.404549  1
  Br  Br15  1  0.175297  0.350596  0.903830  1
  Br  Br16  1  0.026767  0.513383  0.748425  1
  Br  Br17  1  0.649404  0.824703  0.903830  1
  Br  Br18  1  0.823994  0.647988  0.095329  1
  Br  Br19  1  0.179101  0.358202  0.596217  1
  Br  Br20  1  0.486617  0.973233  0.748425  1
  Br  Br21  1  0.513089  0.486911  0.249941  1
  Br  Br22  1  0.486617  0.513383  0.748425  1
  Br  Br23  1  0.175297  0.824703  0.903830  1
  Br  Br24  1  0.352012  0.176006  0.095329  1
  Br  Br25  1  0.973822  0.486911  0.249941  1
  Br  Br26  1  0.513089  0.026178  0.249941  1
  Br  Br27  1  0.823994  0.176006  0.095329  1
