# generated using pymatgen
data_AcYb7Bi6
_symmetry_space_group_name_H-M   'P 1'
_cell_length_a   8.44938511
_cell_length_b   8.44601508
_cell_length_c   8.44601336
_cell_angle_alpha   109.46313926
_cell_angle_beta   109.47930713
_cell_angle_gamma   109.47930379
_symmetry_Int_Tables_number   1
_chemical_formula_structural   AcYb7Bi6
_chemical_formula_sum   'Ac1 Yb7 Bi6'
_cell_volume   463.94175730
_cell_formula_units_Z   1
loop_
 _symmetry_equiv_pos_site_id
 _symmetry_equiv_pos_as_xyz
  1  'x, y, z'
loop_
 _atom_site_type_symbol
 _atom_site_label
 _atom_site_symmetry_multiplicity
 _atom_site_fract_x
 _atom_site_fract_y
 _atom_site_fract_z
 _atom_site_occupancy
  Ac  Ac0  1  0.144063  0.500000  0.000000  1
  Yb  Yb1  1  0.645827  0.500000  0.000000  1
  Yb  Yb2  1  0.500388  0.000695  0.650509  1
  Yb  Yb3  1  0.356874  0.352555  0.357190  1
  Yb  Yb4  1  0.504320  0.004635  0.147445  1
  Yb  Yb5  1  0.999693  0.649814  0.499305  1
  Yb  Yb6  1  0.849879  0.849491  0.850186  1
  Yb  Yb7  1  0.999684  0.142810  0.495365  1
  Bi  Bi8  1  0.375363  0.625016  0.746345  1
  Bi  Bi9  1  0.872684  0.243962  0.129545  1
  Bi  Bi10  1  0.629017  0.753655  0.378671  1
  Bi  Bi11  1  0.128722  0.885583  0.256038  1
  Bi  Bi12  1  0.250347  0.121329  0.874984  1
  Bi  Bi13  1  0.743139  0.370455  0.614417  1
