# generated using pymatgen
data_Ce3In3Rh2Au
_symmetry_space_group_name_H-M   'P 1'
_cell_length_a   7.65433100
_cell_length_b   7.65433167
_cell_length_c   4.07227500
_cell_angle_alpha   90.00000000
_cell_angle_beta   90.00000000
_cell_angle_gamma   120.00001008
_symmetry_Int_Tables_number   1
_chemical_formula_structural   Ce3In3Rh2Au
_chemical_formula_sum   'Ce3 In3 Rh2 Au1'
_cell_volume   206.62468335
_cell_formula_units_Z   1
loop_
 _symmetry_equiv_pos_site_id
 _symmetry_equiv_pos_as_xyz
  1  'x, y, z'
loop_
 _atom_site_type_symbol
 _atom_site_label
 _atom_site_symmetry_multiplicity
 _atom_site_fract_x
 _atom_site_fract_y
 _atom_site_fract_z
 _atom_site_occupancy
  Ce  Ce0  1  0.984622  0.582570  0.000000  1
  Ce  Ce1  1  0.417430  0.402052  0.000000  1
  Ce  Ce2  1  0.597948  0.015378  0.000000  1
  In  In3  1  0.753881  0.749861  0.500000  1
  In  In4  1  0.995980  0.246119  0.500000  1
  In  In5  1  0.250139  0.004020  0.500000  1
  Rh  Rh6  1  0.666667  0.333333  0.500000  1
  Rh  Rh7  1  0.000000  0.000000  0.000000  1
  Au  Au8  1  0.333333  0.666667  0.500000  1
