# generated using pymatgen
data_KLaTa6Cl18
_symmetry_space_group_name_H-M   'P 1'
_cell_length_a   10.33641333
_cell_length_b   10.33641359
_cell_length_c   10.33641269
_cell_angle_alpha   55.29786593
_cell_angle_beta   55.29786833
_cell_angle_gamma   55.29787013
_symmetry_Int_Tables_number   1
_chemical_formula_structural   KLaTa6Cl18
_chemical_formula_sum   'K1 La1 Ta6 Cl18'
_cell_volume   695.57040474
_cell_formula_units_Z   1
loop_
 _symmetry_equiv_pos_site_id
 _symmetry_equiv_pos_as_xyz
  1  'x, y, z'
loop_
 _atom_site_type_symbol
 _atom_site_label
 _atom_site_symmetry_multiplicity
 _atom_site_fract_x
 _atom_site_fract_y
 _atom_site_fract_z
 _atom_site_occupancy
  K  K0  1  0.221697  0.221697  0.221697  1
  La  La1  1  0.498574  0.498574  0.498574  1
  Ta  Ta2  1  0.803275  0.144922  0.917162  1
  Ta  Ta3  1  0.917162  0.803275  0.144922  1
  Ta  Ta4  1  0.144922  0.917162  0.803275  1
  Ta  Ta5  1  0.197550  0.855371  0.082087  1
  Ta  Ta6  1  0.082087  0.197550  0.855371  1
  Ta  Ta7  1  0.855371  0.082087  0.197550  1
  Cl  Cl8  1  0.861664  0.408312  0.731215  1
  Cl  Cl9  1  0.731215  0.861664  0.408312  1
  Cl  Cl10  1  0.408312  0.731215  0.861664  1
  Cl  Cl11  1  0.138434  0.590684  0.269591  1
  Cl  Cl12  1  0.269591  0.138434  0.590684  1
  Cl  Cl13  1  0.590684  0.269591  0.138434  1
  Cl  Cl14  1  0.537730  0.332786  0.815251  1
  Cl  Cl15  1  0.815251  0.537730  0.332786  1
  Cl  Cl16  1  0.332786  0.815251  0.537730  1
  Cl  Cl17  1  0.455577  0.668075  0.190455  1
  Cl  Cl18  1  0.190455  0.455577  0.668075  1
  Cl  Cl19  1  0.668075  0.190455  0.455577  1
  Cl  Cl20  1  0.666014  0.937020  0.074029  1
  Cl  Cl21  1  0.074029  0.666014  0.937020  1
  Cl  Cl22  1  0.937020  0.074029  0.666014  1
  Cl  Cl23  1  0.334033  0.063135  0.926498  1
  Cl  Cl24  1  0.926498  0.334033  0.063135  1
  Cl  Cl25  1  0.063135  0.926498  0.334033  1
