# generated using pymatgen
data_LaY5Zn4Pt13
_symmetry_space_group_name_H-M   'P 1'
_cell_length_a   8.31105440
_cell_length_b   8.31103302
_cell_length_c   8.31103351
_cell_angle_alpha   109.54018125
_cell_angle_beta   109.43665447
_cell_angle_gamma   109.43665057
_symmetry_Int_Tables_number   1
_chemical_formula_structural   LaY5Zn4Pt13
_chemical_formula_sum   'La1 Y5 Zn4 Pt13'
_cell_volume   441.92122577
_cell_formula_units_Z   1
loop_
 _symmetry_equiv_pos_site_id
 _symmetry_equiv_pos_as_xyz
  1  'x, y, z'
loop_
 _atom_site_type_symbol
 _atom_site_label
 _atom_site_symmetry_multiplicity
 _atom_site_fract_x
 _atom_site_fract_y
 _atom_site_fract_z
 _atom_site_occupancy
  La  La0  1  0.999995  0.704551  0.704551  1
  Y  Y1  1  0.698020  0.698754  0.000731  1
  Y  Y2  1  0.301979  0.000736  0.302713  1
  Y  Y3  1  0.000001  0.304345  0.304345  1
  Y  Y4  1  0.301979  0.302713  0.000736  1
  Y  Y5  1  0.698020  0.000731  0.698754  1
  Zn  Zn6  1  0.000001  0.999580  0.494887  1
  Zn  Zn7  1  0.000001  0.494887  0.999580  1
  Zn  Zn8  1  0.504693  0.999579  0.999579  1
  Zn  Zn9  1  0.495308  0.494888  0.494888  1
  Pt  Pt10  1  0.331990  0.332025  0.664018  1
  Pt  Pt11  1  0.668011  0.000036  0.332029  1
  Pt  Pt12  1  0.000000  0.671396  0.326723  1
  Pt  Pt13  1  0.668011  0.332029  0.000036  1
  Pt  Pt14  1  0.331990  0.664018  0.332025  1
  Pt  Pt15  1  0.000000  0.326723  0.671396  1
  Pt  Pt16  1  0.334273  0.666321  0.000593  1
  Pt  Pt17  1  0.334273  0.000593  0.666321  1
  Pt  Pt18  1  0.655322  0.326719  0.326719  1
  Pt  Pt19  1  0.665728  0.666321  0.332048  1
  Pt  Pt20  1  0.665728  0.332048  0.666321  1
  Pt  Pt21  1  0.344677  0.671398  0.671398  1
  Pt  Pt22  1  0.999999  0.009608  0.009608  1
