# generated using pymatgen
data_TmLu3Os5Ru3
_symmetry_space_group_name_H-M   'P 1'
_cell_length_a   5.27793023
_cell_length_b   5.27784972
_cell_length_c   8.86469700
_cell_angle_alpha   89.99700423
_cell_angle_beta   90.00275564
_cell_angle_gamma   121.17093411
_symmetry_Int_Tables_number   1
_chemical_formula_structural   TmLu3Os5Ru3
_chemical_formula_sum   'Tm1 Lu3 Os5 Ru3'
_cell_volume   211.28516835
_cell_formula_units_Z   1
loop_
 _symmetry_equiv_pos_site_id
 _symmetry_equiv_pos_as_xyz
  1  'x, y, z'
loop_
 _atom_site_type_symbol
 _atom_site_label
 _atom_site_symmetry_multiplicity
 _atom_site_fract_x
 _atom_site_fract_y
 _atom_site_fract_z
 _atom_site_occupancy
  Tm  Tm0  1  0.334251  0.665746  0.433060  1
  Lu  Lu1  1  0.665667  0.334336  0.567154  1
  Lu  Lu2  1  0.665671  0.334335  0.932977  1
  Lu  Lu3  1  0.334293  0.665728  0.066926  1
  Os  Os4  1  0.168663  0.341595  0.750159  1
  Os  Os5  1  0.171717  0.828302  0.750158  1
  Os  Os6  1  0.339930  0.173054  0.249752  1
  Os  Os7  1  0.826960  0.660076  0.249736  1
  Os  Os8  1  0.658386  0.831305  0.750153  1
  Ru  Ru9  1  0.003919  0.996071  0.000443  1
  Ru  Ru10  1  0.826583  0.173387  0.249775  1
  Ru  Ru11  1  0.003963  0.996063  0.499707  1
