# generated using pymatgen
data_Hf2CoSn2Ir
_symmetry_space_group_name_H-M   'P 1'
_cell_length_a   7.29519000
_cell_length_b   7.29519048
_cell_length_c   7.12210600
_cell_angle_alpha   90.00000000
_cell_angle_beta   90.00000000
_cell_angle_gamma   119.99998874
_symmetry_Int_Tables_number   1
_chemical_formula_structural   Hf2CoSn2Ir
_chemical_formula_sum   'Hf6 Co3 Sn6 Ir3'
_cell_volume   328.25576153
_cell_formula_units_Z   3
loop_
 _symmetry_equiv_pos_site_id
 _symmetry_equiv_pos_as_xyz
  1  'x, y, z'
loop_
 _atom_site_type_symbol
 _atom_site_label
 _atom_site_symmetry_multiplicity
 _atom_site_fract_x
 _atom_site_fract_y
 _atom_site_fract_z
 _atom_site_occupancy
  Hf  Hf0  1  0.011708  0.400890  0.752950  1
  Hf  Hf1  1  0.599110  0.610819  0.752950  1
  Hf  Hf2  1  0.389181  0.988292  0.752950  1
  Hf  Hf3  1  0.978930  0.386882  0.251089  1
  Hf  Hf4  1  0.613118  0.592047  0.251089  1
  Hf  Hf5  1  0.407953  0.021070  0.251089  1
  Co  Co6  1  0.000000  0.000000  0.755113  1
  Co  Co7  1  0.000000  0.000000  0.246305  1
  Co  Co8  1  0.666667  0.333333  0.950613  1
  Sn  Sn9  1  0.257002  0.258174  0.500131  1
  Sn  Sn10  1  0.001172  0.742998  0.500131  1
  Sn  Sn11  1  0.989724  0.729053  0.000314  1
  Sn  Sn12  1  0.741826  0.998828  0.500131  1
  Sn  Sn13  1  0.739329  0.010276  0.000314  1
  Sn  Sn14  1  0.270947  0.260671  0.000314  1
  Ir  Ir15  1  0.333333  0.666667  0.472315  1
  Ir  Ir16  1  0.666667  0.333333  0.534904  1
  Ir  Ir17  1  0.333333  0.666667  0.027299  1
