# generated using pymatgen
data_YEr5Al24Ru7Pt
_symmetry_space_group_name_H-M   'P 1'
_cell_length_a   8.80452887
_cell_length_b   8.80257408
_cell_length_c   9.52646903
_cell_angle_alpha   89.79856679
_cell_angle_beta   90.19331516
_cell_angle_gamma   119.84368610
_symmetry_Int_Tables_number   1
_chemical_formula_structural   YEr5Al24Ru7Pt
_chemical_formula_sum   'Y1 Er5 Al24 Ru7 Pt1'
_cell_volume   640.40818033
_cell_formula_units_Z   1
loop_
 _symmetry_equiv_pos_site_id
 _symmetry_equiv_pos_as_xyz
  1  'x, y, z'
loop_
 _atom_site_type_symbol
 _atom_site_label
 _atom_site_symmetry_multiplicity
 _atom_site_fract_x
 _atom_site_fract_y
 _atom_site_fract_z
 _atom_site_occupancy
  Y  Y0  1  0.192336  0.387177  0.250293  1
  Er  Er1  1  0.807511  0.612351  0.749599  1
  Er  Er2  1  0.612602  0.807820  0.250381  1
  Er  Er3  1  0.387648  0.192465  0.749614  1
  Er  Er4  1  0.194863  0.805471  0.250414  1
  Er  Er5  1  0.805182  0.194859  0.749581  1
  Al  Al6  1  0.330939  0.669432  0.020281  1
  Al  Al7  1  0.669176  0.330837  0.979519  1
  Al  Al8  1  0.666861  0.333158  0.517190  1
  Al  Al9  1  0.333270  0.667087  0.483010  1
  Al  Al10  1  0.162619  0.323762  0.579246  1
  Al  Al11  1  0.837365  0.676168  0.420977  1
  Al  Al12  1  0.676213  0.837351  0.579071  1
  Al  Al13  1  0.842465  0.676556  0.078274  1
  Al  Al14  1  0.323860  0.162469  0.421065  1
  Al  Al15  1  0.157519  0.323373  0.921520  1
  Al  Al16  1  0.162460  0.837484  0.578735  1
  Al  Al17  1  0.323459  0.157411  0.078194  1
  Al  Al18  1  0.837308  0.162347  0.421393  1
  Al  Al19  1  0.676592  0.842441  0.921695  1
  Al  Al20  1  0.837402  0.162252  0.078115  1
  Al  Al21  1  0.162361  0.837576  0.921758  1
  Al  Al22  1  0.560259  0.121119  0.248690  1
  Al  Al23  1  0.439702  0.878804  0.751316  1
  Al  Al24  1  0.878544  0.439798  0.248684  1
  Al  Al25  1  0.121139  0.560264  0.751304  1
  Al  Al26  1  0.562049  0.438358  0.252004  1
  Al  Al27  1  0.438295  0.561683  0.748008  1
  Al  Al28  1  0.999376  0.999935  0.250004  1
  Al  Al29  1  0.000390  0.999580  0.750000  1
  Ru  Ru30  1  0.500060  0.000093  0.999946  1
  Ru  Ru31  1  0.999850  0.500069  0.999813  1
  Ru  Ru32  1  0.500063  0.000120  0.500061  1
  Ru  Ru33  1  0.999878  0.500083  0.500167  1
  Ru  Ru34  1  0.500227  0.500073  0.500153  1
  Ru  Ru35  1  0.000027  0.000059  0.000052  1
  Ru  Ru36  1  0.000030  0.000077  0.499939  1
  Pt  Pt37  1  0.500101  0.500038  0.999933  1
