# generated using pymatgen
data_LiHf2AsP2Pd3
_symmetry_space_group_name_H-M   'P 1'
_cell_length_a   6.60467700
_cell_length_b   6.76833218
_cell_length_c   3.70913700
_cell_angle_alpha   90.00000000
_cell_angle_beta   90.00000000
_cell_angle_gamma   119.20332413
_symmetry_Int_Tables_number   1
_chemical_formula_structural   LiHf2AsP2Pd3
_chemical_formula_sum   'Li1 Hf2 As1 P2 Pd3'
_cell_volume   144.73298445
_cell_formula_units_Z   1
loop_
 _symmetry_equiv_pos_site_id
 _symmetry_equiv_pos_as_xyz
  1  'x, y, z'
loop_
 _atom_site_type_symbol
 _atom_site_label
 _atom_site_symmetry_multiplicity
 _atom_site_fract_x
 _atom_site_fract_y
 _atom_site_fract_z
 _atom_site_occupancy
  Li  Li0  1  0.597835  0.000000  0.000000  1
  Hf  Hf1  1  0.996282  0.590662  0.000000  1
  Hf  Hf2  1  0.405620  0.409338  0.000000  1
  As  As3  1  0.009325  0.000000  0.000000  1
  P  P4  1  0.319176  0.651462  0.500000  1
  P  P5  1  0.667715  0.348538  0.500000  1
  Pd  Pd6  1  0.294436  0.000000  0.500000  1
  Pd  Pd7  1  0.982187  0.254763  0.500000  1
  Pd  Pd8  1  0.727424  0.745237  0.500000  1
