# generated using pymatgen
data_SmV(FeGe)2
_symmetry_space_group_name_H-M   'P 1'
_cell_length_a   4.01574100
_cell_length_b   4.01574149
_cell_length_c   13.69967300
_cell_angle_alpha   90.00000000
_cell_angle_beta   90.00000000
_cell_angle_gamma   120.00000419
_symmetry_Int_Tables_number   1
_chemical_formula_structural   SmV(FeGe)2
_chemical_formula_sum   'Sm2 V2 Fe4 Ge4'
_cell_volume   191.32523567
_cell_formula_units_Z   2
loop_
 _symmetry_equiv_pos_site_id
 _symmetry_equiv_pos_as_xyz
  1  'x, y, z'
loop_
 _atom_site_type_symbol
 _atom_site_label
 _atom_site_symmetry_multiplicity
 _atom_site_fract_x
 _atom_site_fract_y
 _atom_site_fract_z
 _atom_site_occupancy
  Sm  Sm0  1  0.000000  0.000000  0.250000  1
  Sm  Sm1  1  0.000000  0.000000  0.750000  1
  V  V2  1  0.000000  0.000000  0.000000  1
  V  V3  1  0.000000  0.000000  0.500000  1
  Fe  Fe4  1  0.666666  0.333333  0.059852  1
  Fe  Fe5  1  0.666666  0.333333  0.440147  1
  Fe  Fe6  1  0.333333  0.666666  0.559852  1
  Fe  Fe7  1  0.333333  0.666666  0.940148  1
  Ge  Ge8  1  0.333333  0.666666  0.114918  1
  Ge  Ge9  1  0.333333  0.666666  0.385082  1
  Ge  Ge10  1  0.666666  0.333333  0.614917  1
  Ge  Ge11  1  0.666666  0.333333  0.885082  1
