# generated using pymatgen
data_TbGd2HfPt2
_symmetry_space_group_name_H-M   'P 1'
_cell_length_a   4.74124900
_cell_length_b   7.16503840
_cell_length_c   8.45467600
_cell_angle_alpha   89.98092816
_cell_angle_beta   90.00000000
_cell_angle_gamma   90.00000000
_symmetry_Int_Tables_number   1
_chemical_formula_structural   TbGd2HfPt2
_chemical_formula_sum   'Tb2 Gd4 Hf2 Pt4'
_cell_volume   287.21573665
_cell_formula_units_Z   2
loop_
 _symmetry_equiv_pos_site_id
 _symmetry_equiv_pos_as_xyz
  1  'x, y, z'
loop_
 _atom_site_type_symbol
 _atom_site_label
 _atom_site_symmetry_multiplicity
 _atom_site_fract_x
 _atom_site_fract_y
 _atom_site_fract_z
 _atom_site_occupancy
  Tb  Tb0  1  0.750000  0.018547  0.667938  1
  Tb  Tb1  1  0.250000  0.981453  0.332062  1
  Gd  Gd2  1  0.750000  0.146200  0.085066  1
  Gd  Gd3  1  0.250000  0.853800  0.914934  1
  Gd  Gd4  1  0.750000  0.509599  0.819109  1
  Gd  Gd5  1  0.250000  0.490401  0.180891  1
  Hf  Hf6  1  0.750000  0.644335  0.425740  1
  Hf  Hf7  1  0.250000  0.355665  0.574260  1
  Pt  Pt8  1  0.750000  0.275465  0.421018  1
  Pt  Pt9  1  0.250000  0.724535  0.578982  1
  Pt  Pt10  1  0.750000  0.744231  0.110060  1
  Pt  Pt11  1  0.250000  0.255769  0.889940  1
