# generated using pymatgen
data_Ce4Lu8IrOs3
_symmetry_space_group_name_H-M   'P 1'
_cell_length_a   7.19070003
_cell_length_b   9.15768400
_cell_length_c   6.28856800
_cell_angle_alpha   90.00000000
_cell_angle_beta   89.99708695
_cell_angle_gamma   90.00000000
_symmetry_Int_Tables_number   1
_chemical_formula_structural   Ce4Lu8IrOs3
_chemical_formula_sum   'Ce4 Lu8 Ir1 Os3'
_cell_volume   414.10319965
_cell_formula_units_Z   1
loop_
 _symmetry_equiv_pos_site_id
 _symmetry_equiv_pos_as_xyz
  1  'x, y, z'
loop_
 _atom_site_type_symbol
 _atom_site_label
 _atom_site_symmetry_multiplicity
 _atom_site_fract_x
 _atom_site_fract_y
 _atom_site_fract_z
 _atom_site_occupancy
  Ce  Ce0  1  0.540749  0.250000  0.861271  1
  Ce  Ce1  1  0.046381  0.250000  0.634357  1
  Ce  Ce2  1  0.454367  0.750000  0.135556  1
  Ce  Ce3  1  0.953562  0.750000  0.363334  1
  Lu  Lu4  1  0.673280  0.063594  0.337163  1
  Lu  Lu5  1  0.174479  0.437459  0.163490  1
  Lu  Lu6  1  0.325916  0.564263  0.663537  1
  Lu  Lu7  1  0.826202  0.935379  0.833827  1
  Lu  Lu8  1  0.325916  0.935737  0.663537  1
  Lu  Lu9  1  0.826202  0.564621  0.833827  1
  Lu  Lu10  1  0.673280  0.436406  0.337163  1
  Lu  Lu11  1  0.174479  0.062541  0.163490  1
  Ir  Ir12  1  0.875216  0.250000  0.045547  1
  Os  Os13  1  0.369769  0.250000  0.463532  1
  Os  Os14  1  0.129525  0.750000  0.967635  1
  Os  Os15  1  0.630677  0.750000  0.532730  1
