# generated using pymatgen
data_K12CrP3O16
_symmetry_space_group_name_H-M   'P 1'
_cell_length_a   6.01276800
_cell_length_b   8.21563700
_cell_length_c   11.37102100
_cell_angle_alpha   90.00000000
_cell_angle_beta   90.00000000
_cell_angle_gamma   90.00000000
_symmetry_Int_Tables_number   1
_chemical_formula_structural   K12CrP3O16
_chemical_formula_sum   'K12 Cr1 P3 O16'
_cell_volume   561.71387400
_cell_formula_units_Z   1
loop_
 _symmetry_equiv_pos_site_id
 _symmetry_equiv_pos_as_xyz
  1  'x, y, z'
loop_
 _atom_site_type_symbol
 _atom_site_label
 _atom_site_symmetry_multiplicity
 _atom_site_fract_x
 _atom_site_fract_y
 _atom_site_fract_z
 _atom_site_occupancy
  K  K0  1  0.806365  0.493667  0.646786  1
  K  K1  1  0.192495  0.986678  0.354364  1
  K  K2  1  0.305936  0.509820  0.854927  1
  K  K3  1  0.142760  0.250000  0.063309  1
  K  K4  1  0.634998  0.750000  0.431234  1
  K  K5  1  0.862617  0.750000  0.929887  1
  K  K6  1  0.305936  0.990180  0.854927  1
  K  K7  1  0.366152  0.250000  0.573916  1
  K  K8  1  0.694702  0.492949  0.142211  1
  K  K9  1  0.192495  0.513322  0.354364  1
  K  K10  1  0.806365  0.006333  0.646786  1
  K  K11  1  0.694702  0.007051  0.142211  1
  Cr  Cr12  1  0.780679  0.250000  0.385018  1
  P  P13  1  0.719258  0.250000  0.884413  1
  P  P14  1  0.217749  0.750000  0.616689  1
  P  P15  1  0.281888  0.750000  0.114675  1
  O  O16  1  0.052313  0.750000  0.509559  1
  O  O17  1  0.613712  0.079633  0.389211  1
  O  O18  1  0.133780  0.906092  0.109541  1
  O  O19  1  0.866927  0.406434  0.888836  1
  O  O20  1  0.133780  0.593908  0.109541  1
  O  O21  1  0.578027  0.250000  0.768730  1
  O  O22  1  0.365652  0.906111  0.612621  1
  O  O23  1  0.448286  0.750000  0.007946  1
  O  O24  1  0.613712  0.420367  0.389211  1
  O  O25  1  0.941013  0.250000  0.259229  1
  O  O26  1  0.554838  0.250000  0.991682  1
  O  O27  1  0.866927  0.093566  0.888836  1
  O  O28  1  0.365652  0.593889  0.612621  1
  O  O29  1  0.962141  0.250000  0.503273  1
  O  O30  1  0.076177  0.750000  0.732583  1
  O  O31  1  0.421967  0.750000  0.230862  1
