# generated using pymatgen
data_Ba4Fe(RuO4)3
_symmetry_space_group_name_H-M   'P 1'
_cell_length_a   10.18665800
_cell_length_b   10.18665790
_cell_length_c   10.18665794
_cell_angle_alpha   33.23798672
_cell_angle_beta   33.23798855
_cell_angle_gamma   33.23798476
_symmetry_Int_Tables_number   1
_chemical_formula_structural   Ba4Fe(RuO4)3
_chemical_formula_sum   'Ba4 Fe1 Ru3 O12'
_cell_volume   282.72158159
_cell_formula_units_Z   1
loop_
 _symmetry_equiv_pos_site_id
 _symmetry_equiv_pos_as_xyz
  1  'x, y, z'
loop_
 _atom_site_type_symbol
 _atom_site_label
 _atom_site_symmetry_multiplicity
 _atom_site_fract_x
 _atom_site_fract_y
 _atom_site_fract_z
 _atom_site_occupancy
  Ba  Ba0  1  0.710641  0.710641  0.710641  1
  Ba  Ba1  1  0.289359  0.289359  0.289359  1
  Ba  Ba2  1  0.874568  0.874568  0.874568  1
  Ba  Ba3  1  0.125432  0.125432  0.125432  1
  Fe  Fe4  1  0.000000  0.000000  0.000000  1
  Ru  Ru5  1  0.410736  0.410736  0.410736  1
  Ru  Ru6  1  0.500000  0.500000  0.500000  1
  Ru  Ru7  1  0.589264  0.589264  0.589264  1
  O  O8  1  0.208347  0.208347  0.704000  1
  O  O9  1  0.704000  0.208347  0.208347  1
  O  O10  1  0.208347  0.704000  0.208347  1
  O  O11  1  0.791653  0.296000  0.791653  1
  O  O12  1  0.791653  0.791653  0.296000  1
  O  O13  1  0.296000  0.791653  0.791653  1
  O  O14  1  0.387717  0.387717  0.856023  1
  O  O15  1  0.856023  0.387717  0.387717  1
  O  O16  1  0.143977  0.612283  0.612283  1
  O  O17  1  0.612283  0.612283  0.143977  1
  O  O18  1  0.612283  0.143977  0.612283  1
  O  O19  1  0.387717  0.856023  0.387717  1
