# generated using pymatgen
data_Yb3DyLu4(B6Ru)4
_symmetry_space_group_name_H-M   'P 1'
_cell_length_a   3.61424700
_cell_length_b   9.07746839
_cell_length_c   11.46552800
_cell_angle_alpha   89.94894951
_cell_angle_beta   90.00000000
_cell_angle_gamma   90.00000000
_symmetry_Int_Tables_number   1
_chemical_formula_structural   Yb3DyLu4(B6Ru)4
_chemical_formula_sum   'Yb3 Dy1 Lu4 B24 Ru4'
_cell_volume   376.16333427
_cell_formula_units_Z   1
loop_
 _symmetry_equiv_pos_site_id
 _symmetry_equiv_pos_as_xyz
  1  'x, y, z'
loop_
 _atom_site_type_symbol
 _atom_site_label
 _atom_site_symmetry_multiplicity
 _atom_site_fract_x
 _atom_site_fract_y
 _atom_site_fract_z
 _atom_site_occupancy
  Yb  Yb0  1  0.000000  0.324558  0.414657  1
  Yb  Yb1  1  0.000000  0.675396  0.584802  1
  Yb  Yb2  1  0.000000  0.823119  0.085907  1
  Dy  Dy3  1  0.000000  0.176139  0.915157  1
  Lu  Lu4  1  0.000000  0.941290  0.367026  1
  Lu  Lu5  1  0.000000  0.057818  0.631120  1
  Lu  Lu6  1  0.000000  0.443289  0.132531  1
  Lu  Lu7  1  0.000000  0.558497  0.868335  1
  B  B8  1  0.500000  0.553566  0.432737  1
  B  B9  1  0.500000  0.445746  0.568002  1
  B  B10  1  0.500000  0.054146  0.067091  1
  B  B11  1  0.500000  0.945508  0.933057  1
  B  B12  1  0.500000  0.749652  0.417403  1
  B  B13  1  0.500000  0.250163  0.582692  1
  B  B14  1  0.500000  0.250257  0.082210  1
  B  B15  1  0.500000  0.750464  0.917785  1
  B  B16  1  0.500000  0.791520  0.263926  1
  B  B17  1  0.500000  0.208042  0.736128  1
  B  B18  1  0.500000  0.291789  0.235130  1
  B  B19  1  0.500000  0.709168  0.764639  1
  B  B20  1  0.500000  0.630360  0.185117  1
  B  B21  1  0.500000  0.369711  0.815771  1
  B  B22  1  0.500000  0.130567  0.314309  1
  B  B23  1  0.500000  0.869855  0.684581  1
  B  B24  1  0.500000  0.982536  0.211083  1
  B  B25  1  0.500000  0.017225  0.788140  1
  B  B26  1  0.500000  0.483133  0.288546  1
  B  B27  1  0.500000  0.516766  0.712182  1
  B  B28  1  0.500000  0.597948  0.026927  1
  B  B29  1  0.500000  0.401858  0.973240  1
  B  B30  1  0.500000  0.096115  0.473141  1
  B  B31  1  0.500000  0.903678  0.525938  1
  Ru  Ru32  1  0.000000  0.639341  0.319817  1
  Ru  Ru33  1  0.000000  0.359473  0.681598  1
  Ru  Ru34  1  0.000000  0.139080  0.179676  1
  Ru  Ru35  1  0.000000  0.862229  0.819599  1
