# generated using pymatgen
data_La3Ho6ErC4I15
_symmetry_space_group_name_H-M   'P 1'
_cell_length_a   9.70696419
_cell_length_b   10.47466824
_cell_length_c   11.63930670
_cell_angle_alpha   93.15379735
_cell_angle_beta   114.20489132
_cell_angle_gamma   109.47108490
_symmetry_Int_Tables_number   1
_chemical_formula_structural   La3Ho6ErC4I15
_chemical_formula_sum   'La3 Ho6 Er1 C4 I15'
_cell_volume   992.07281749
_cell_formula_units_Z   1
loop_
 _symmetry_equiv_pos_site_id
 _symmetry_equiv_pos_as_xyz
  1  'x, y, z'
loop_
 _atom_site_type_symbol
 _atom_site_label
 _atom_site_symmetry_multiplicity
 _atom_site_fract_x
 _atom_site_fract_y
 _atom_site_fract_z
 _atom_site_occupancy
  La  La0  1  0.705555  0.568493  0.044628  1
  La  La1  1  0.293185  0.433035  0.955342  1
  La  La2  1  0.664549  0.254275  0.836091  1
  Ho  Ho3  1  0.589896  0.542634  0.335752  1
  Ho  Ho4  1  0.352718  0.742053  0.162296  1
  Ho  Ho5  1  0.764674  0.871424  0.251061  1
  Ho  Ho6  1  0.525672  0.187039  0.097821  1
  Ho  Ho7  1  0.239438  0.126777  0.751830  1
  Ho  Ho8  1  0.406222  0.457287  0.663800  1
  Er  Er9  1  0.473335  0.813949  0.902159  1
  C  C10  1  0.482377  0.296670  0.938260  1
  C  C11  1  0.517341  0.706387  0.062111  1
  C  C12  1  0.453652  0.361566  0.832318  1
  C  C13  1  0.545088  0.639142  0.167513  1
  I  I14  1  0.220027  0.909312  0.941338  1
  I  I15  1  0.115470  0.194923  0.482668  1
  I  I16  1  0.168380  0.568126  0.698347  1
  I  I17  1  0.392373  0.962229  0.653282  1
  I  I18  1  0.695521  0.738757  0.809625  1
  I  I19  1  0.300786  0.261337  0.188308  1
  I  I20  1  0.829567  0.431685  0.302172  1
  I  I21  1  0.882679  0.803243  0.519327  1
  I  I22  1  0.357444  0.627169  0.405231  1
  I  I23  1  0.050618  0.844906  0.226526  1
  I  I24  1  0.783542  0.086500  0.069458  1
  I  I25  1  0.637157  0.381759  0.582552  1
  I  I26  1  0.950439  0.154199  0.774419  1
  I  I27  1  0.590363  0.022549  0.338814  1
  I  I28  1  0.011929  0.512576  0.006948  1
