# generated using pymatgen
data_EuAgAs4F24
_symmetry_space_group_name_H-M   'P 1'
_cell_length_a   9.90662999
_cell_length_b   9.90662985
_cell_length_c   9.90662900
_cell_angle_alpha   132.08432377
_cell_angle_beta   132.08431525
_cell_angle_gamma   70.09588750
_symmetry_Int_Tables_number   1
_chemical_formula_structural   EuAgAs4F24
_chemical_formula_sum   'Eu1 Ag1 As4 F24'
_cell_volume   524.97336165
_cell_formula_units_Z   1
loop_
 _symmetry_equiv_pos_site_id
 _symmetry_equiv_pos_as_xyz
  1  'x, y, z'
loop_
 _atom_site_type_symbol
 _atom_site_label
 _atom_site_symmetry_multiplicity
 _atom_site_fract_x
 _atom_site_fract_y
 _atom_site_fract_z
 _atom_site_occupancy
  Eu  Eu0  1  0.750000  0.250000  0.500000  1
  Ag  Ag1  1  0.000000  0.000000  0.000000  1
  As  As2  1  0.777622  0.777622  0.000000  1
  As  As3  1  0.222378  0.222378  0.000000  1
  As  As4  1  0.969244  0.469244  0.500000  1
  As  As5  1  0.530756  0.030756  0.500000  1
  F  F6  1  0.854306  0.744683  0.191472  1
  F  F7  1  0.553211  0.662835  0.808528  1
  F  F8  1  0.422590  0.804125  0.307166  1
  F  F9  1  0.337165  0.145694  0.890377  1
  F  F10  1  0.255317  0.446789  0.109623  1
  F  F11  1  0.195875  0.503040  0.618464  1
  F  F12  1  0.650383  0.261485  0.678676  1
  F  F13  1  0.738515  0.417191  0.388898  1
  F  F14  1  0.028294  0.349617  0.611102  1
  F  F15  1  0.105502  0.290871  0.109095  1
  F  F16  1  0.181775  0.996406  0.890905  1
  F  F17  1  0.582809  0.971706  0.321324  1
  F  F18  1  0.709129  0.818225  0.814631  1
  F  F19  1  0.003594  0.894498  0.185369  1
  F  F20  1  0.320586  0.088579  0.336373  1
  F  F21  1  0.911421  0.247794  0.232008  1
  F  F22  1  0.015786  0.679414  0.767992  1
  F  F23  1  0.440926  0.279034  0.278851  1
  F  F24  1  0.000184  0.162075  0.721149  1
  F  F25  1  0.752206  0.984214  0.663627  1
  F  F26  1  0.720966  0.999816  0.161891  1
  F  F27  1  0.837925  0.559074  0.838109  1
  F  F28  1  0.496960  0.115423  0.692834  1
  F  F29  1  0.884577  0.577410  0.381536  1
