# generated using pymatgen
data_CaNdB4Rh5
_symmetry_space_group_name_H-M   'P 1'
_cell_length_a   7.53812038
_cell_length_b   6.32732030
_cell_length_c   5.65901723
_cell_angle_alpha   77.71597738
_cell_angle_beta   55.10069255
_cell_angle_gamma   47.18332954
_symmetry_Int_Tables_number   1
_chemical_formula_structural   CaNdB4Rh5
_chemical_formula_sum   'Ca1 Nd1 B4 Rh5'
_cell_volume   155.27107690
_cell_formula_units_Z   1
loop_
 _symmetry_equiv_pos_site_id
 _symmetry_equiv_pos_as_xyz
  1  'x, y, z'
loop_
 _atom_site_type_symbol
 _atom_site_label
 _atom_site_symmetry_multiplicity
 _atom_site_fract_x
 _atom_site_fract_y
 _atom_site_fract_z
 _atom_site_occupancy
  Ca  Ca0  1  0.145942  0.145942  0.854058  1
  Nd  Nd1  1  0.859160  0.859160  0.140840  1
  B  B2  1  0.789039  0.470488  0.529512  1
  B  B3  1  0.208453  0.529627  0.470373  1
  B  B4  1  0.529627  0.208453  0.791547  1
  B  B5  1  0.470488  0.789039  0.210961  1
  Rh  Rh6  1  0.500114  0.500114  0.499886  1
  Rh  Rh7  1  0.500030  0.500030  0.999970  1
  Rh  Rh8  1  0.000030  0.000030  0.499970  1
  Rh  Rh9  1  0.748558  0.748558  0.751442  1
  Rh  Rh10  1  0.248558  0.248558  0.251442  1
