# generated using pymatgen
data_HfAlGa5Cu6
_symmetry_space_group_name_H-M   'P 1'
_cell_length_a   5.20569705
_cell_length_b   6.51147859
_cell_length_c   6.51147848
_cell_angle_alpha   100.16010942
_cell_angle_beta   113.56144510
_cell_angle_gamma   66.43854867
_symmetry_Int_Tables_number   1
_chemical_formula_structural   HfAlGa5Cu6
_chemical_formula_sum   'Hf1 Al1 Ga5 Cu6'
_cell_volume   185.41426161
_cell_formula_units_Z   1
loop_
 _symmetry_equiv_pos_site_id
 _symmetry_equiv_pos_as_xyz
  1  'x, y, z'
loop_
 _atom_site_type_symbol
 _atom_site_label
 _atom_site_symmetry_multiplicity
 _atom_site_fract_x
 _atom_site_fract_y
 _atom_site_fract_z
 _atom_site_occupancy
  Hf  Hf0  1  0.001035  0.998965  0.001035  1
  Al  Al1  1  0.316929  0.183071  0.816929  1
  Ga  Ga2  1  0.661696  0.338304  0.661696  1
  Ga  Ga3  1  0.342528  0.657472  0.342528  1
  Ga  Ga4  1  0.001793  0.344128  0.347715  1
  Ga  Ga5  1  0.001793  0.652285  0.655872  1
  Ga  Ga6  1  0.671177  0.828823  0.171177  1
  Cu  Cu7  1  0.501746  0.998154  0.500395  1
  Cu  Cu8  1  0.000495  0.998154  0.500395  1
  Cu  Cu9  1  0.501746  0.499605  0.001846  1
  Cu  Cu10  1  0.000495  0.499605  0.001846  1
  Cu  Cu11  1  0.499283  0.761621  0.760189  1
  Cu  Cu12  1  0.499283  0.239811  0.238379  1
