# generated using pymatgen
data_PuGa5Pt3
_symmetry_space_group_name_H-M   'P 1'
_cell_length_a   4.08063400
_cell_length_b   7.50058600
_cell_length_c   21.02163100
_cell_angle_alpha   90.00000000
_cell_angle_beta   90.00000000
_cell_angle_gamma   90.00000000
_symmetry_Int_Tables_number   1
_chemical_formula_structural   PuGa5Pt3
_chemical_formula_sum   'Pu4 Ga20 Pt12'
_cell_volume   643.41213446
_cell_formula_units_Z   4
loop_
 _symmetry_equiv_pos_site_id
 _symmetry_equiv_pos_as_xyz
  1  'x, y, z'
loop_
 _atom_site_type_symbol
 _atom_site_label
 _atom_site_symmetry_multiplicity
 _atom_site_fract_x
 _atom_site_fract_y
 _atom_site_fract_z
 _atom_site_occupancy
  Pu  Pu0  1  0.250000  0.117698  0.640569  1
  Pu  Pu1  1  0.750000  0.882302  0.359431  1
  Pu  Pu2  1  0.250000  0.382302  0.140569  1
  Pu  Pu3  1  0.750000  0.617698  0.859431  1
  Ga  Ga4  1  0.750000  0.351509  0.382000  1
  Ga  Ga5  1  0.750000  0.881300  0.983689  1
  Ga  Ga6  1  0.750000  0.678458  0.200097  1
  Ga  Ga7  1  0.250000  0.869467  0.489714  1
  Ga  Ga8  1  0.250000  0.630533  0.989714  1
  Ga  Ga9  1  0.250000  0.321542  0.799903  1
  Ga  Ga10  1  0.750000  0.077324  0.206634  1
  Ga  Ga11  1  0.250000  0.648491  0.618000  1
  Ga  Ga12  1  0.250000  0.577324  0.293366  1
  Ga  Ga13  1  0.250000  0.178458  0.299903  1
  Ga  Ga14  1  0.750000  0.148491  0.882000  1
  Ga  Ga15  1  0.250000  0.922676  0.793366  1
  Ga  Ga16  1  0.750000  0.369467  0.010286  1
  Ga  Ga17  1  0.750000  0.618700  0.483689  1
  Ga  Ga18  1  0.750000  0.130533  0.510286  1
  Ga  Ga19  1  0.250000  0.118700  0.016311  1
  Ga  Ga20  1  0.250000  0.851509  0.118000  1
  Ga  Ga21  1  0.250000  0.381300  0.516311  1
  Ga  Ga22  1  0.750000  0.422676  0.706634  1
  Ga  Ga23  1  0.750000  0.821542  0.700097  1
  Pt  Pt24  1  0.750000  0.380868  0.260437  1
  Pt  Pt25  1  0.250000  0.880868  0.239563  1
  Pt  Pt26  1  0.250000  0.619132  0.739563  1
  Pt  Pt27  1  0.750000  0.119132  0.760437  1
  Pt  Pt28  1  0.250000  0.159218  0.425043  1
  Pt  Pt29  1  0.750000  0.424566  0.586098  1
  Pt  Pt30  1  0.750000  0.075434  0.086098  1
  Pt  Pt31  1  0.250000  0.924566  0.913902  1
  Pt  Pt32  1  0.750000  0.840782  0.574957  1
  Pt  Pt33  1  0.250000  0.340782  0.925043  1
  Pt  Pt34  1  0.750000  0.659218  0.074957  1
  Pt  Pt35  1  0.250000  0.575434  0.413902  1
