# generated using pymatgen
data_Pr5Dy3Si12IrRh3
_symmetry_space_group_name_H-M   'P 1'
_cell_length_a   8.25963000
_cell_length_b   8.25963051
_cell_length_c   8.26450000
_cell_angle_alpha   90.00000000
_cell_angle_beta   90.00000000
_cell_angle_gamma   119.99999794
_symmetry_Int_Tables_number   1
_chemical_formula_structural   Pr5Dy3Si12IrRh3
_chemical_formula_sum   'Pr5 Dy3 Si12 Ir1 Rh3'
_cell_volume   488.27943999
_cell_formula_units_Z   1
loop_
 _symmetry_equiv_pos_site_id
 _symmetry_equiv_pos_as_xyz
  1  'x, y, z'
loop_
 _atom_site_type_symbol
 _atom_site_label
 _atom_site_symmetry_multiplicity
 _atom_site_fract_x
 _atom_site_fract_y
 _atom_site_fract_z
 _atom_site_occupancy
  Pr  Pr0  1  0.000000  0.000000  0.248951  1
  Pr  Pr1  1  0.000000  0.000000  0.750300  1
  Pr  Pr2  1  0.504185  0.495815  0.250079  1
  Pr  Pr3  1  0.504185  0.008372  0.250079  1
  Pr  Pr4  1  0.991628  0.495815  0.250079  1
  Dy  Dy5  1  0.492422  0.507578  0.749934  1
  Dy  Dy6  1  0.492422  0.984844  0.749934  1
  Dy  Dy7  1  0.015156  0.507578  0.749934  1
  Si  Si8  1  0.166696  0.833304  0.506853  1
  Si  Si9  1  0.166696  0.333394  0.506853  1
  Si  Si10  1  0.666606  0.833304  0.506853  1
  Si  Si11  1  0.831285  0.168715  0.504965  1
  Si  Si12  1  0.831285  0.662569  0.504965  1
  Si  Si13  1  0.337431  0.168715  0.504965  1
  Si  Si14  1  0.831436  0.168564  0.995467  1
  Si  Si15  1  0.831436  0.662870  0.995467  1
  Si  Si16  1  0.337130  0.168564  0.995467  1
  Si  Si17  1  0.166769  0.833231  0.992313  1
  Si  Si18  1  0.166769  0.333539  0.992313  1
  Si  Si19  1  0.666461  0.833231  0.992313  1
  Ir  Ir20  1  0.333333  0.666667  0.495664  1
  Rh  Rh21  1  0.666667  0.333333  0.543982  1
  Rh  Rh22  1  0.666667  0.333333  0.954227  1
  Rh  Rh23  1  0.333333  0.666667  0.008039  1
