# generated using pymatgen
data_TbY2In3SnPt2
_symmetry_space_group_name_H-M   'P 1'
_cell_length_a   7.63730018
_cell_length_b   7.64266220
_cell_length_c   4.17599700
_cell_angle_alpha   90.00000000
_cell_angle_beta   90.00000000
_cell_angle_gamma   120.04037094
_symmetry_Int_Tables_number   1
_chemical_formula_structural   TbY2In3SnPt2
_chemical_formula_sum   'Tb1 Y2 In3 Sn1 Pt2'
_cell_volume   211.00780414
_cell_formula_units_Z   1
loop_
 _symmetry_equiv_pos_site_id
 _symmetry_equiv_pos_as_xyz
  1  'x, y, z'
loop_
 _atom_site_type_symbol
 _atom_site_label
 _atom_site_symmetry_multiplicity
 _atom_site_fract_x
 _atom_site_fract_y
 _atom_site_fract_z
 _atom_site_occupancy
  Tb  Tb0  1  0.586403  0.606415  0.000000  1
  Y  Y1  1  0.393637  0.980430  0.000000  1
  Y  Y2  1  0.019451  0.413103  0.000000  1
  In  In3  1  0.243506  0.255240  0.500000  1
  In  In4  1  0.011862  0.756410  0.500000  1
  In  In5  1  0.744737  0.988603  0.500000  1
  Sn  Sn6  1  0.666867  0.333097  0.500000  1
  Pt  Pt7  1  0.999962  0.000026  0.000000  1
  Pt  Pt8  1  0.333573  0.666677  0.500000  1
