# generated using pymatgen
data_Ho4ThMn2O12
_symmetry_space_group_name_H-M   'P 1'
_cell_length_a   6.83583115
_cell_length_b   6.83583051
_cell_length_c   7.22809650
_cell_angle_alpha   74.71301971
_cell_angle_beta   74.71301883
_cell_angle_gamma   50.22018897
_symmetry_Int_Tables_number   1
_chemical_formula_structural   Ho4ThMn2O12
_chemical_formula_sum   'Ho4 Th1 Mn2 O12'
_cell_volume   248.32366472
_cell_formula_units_Z   1
loop_
 _symmetry_equiv_pos_site_id
 _symmetry_equiv_pos_as_xyz
  1  'x, y, z'
loop_
 _atom_site_type_symbol
 _atom_site_label
 _atom_site_symmetry_multiplicity
 _atom_site_fract_x
 _atom_site_fract_y
 _atom_site_fract_z
 _atom_site_occupancy
  Ho  Ho0  1  0.306157  0.306157  0.351623  1
  Ho  Ho1  1  0.693843  0.693843  0.648377  1
  Ho  Ho2  1  0.303044  0.303044  0.844081  1
  Ho  Ho3  1  0.696956  0.696956  0.155919  1
  Th  Th4  1  0.000000  0.000000  0.500000  1
  Mn  Mn5  1  0.752763  0.247237  0.000000  1
  Mn  Mn6  1  0.247237  0.752763  0.000000  1
  O  O7  1  0.900734  0.423217  0.917904  1
  O  O8  1  0.423217  0.900734  0.917904  1
  O  O9  1  0.099266  0.576783  0.082096  1
  O  O10  1  0.576783  0.099266  0.082096  1
  O  O11  1  0.095686  0.596100  0.575523  1
  O  O12  1  0.596100  0.095686  0.575523  1
  O  O13  1  0.904314  0.403900  0.424477  1
  O  O14  1  0.403900  0.904314  0.424477  1
  O  O15  1  0.999426  0.999426  0.822935  1
  O  O16  1  0.000574  0.000574  0.177065  1
  O  O17  1  0.499213  0.499213  0.818194  1
  O  O18  1  0.500787  0.500787  0.181806  1
