# generated using pymatgen
data_CsCa(RuO4)2
_symmetry_space_group_name_H-M   'P 1'
_cell_length_a   6.04748313
_cell_length_b   6.01609553
_cell_length_c   8.44681859
_cell_angle_alpha   89.99999855
_cell_angle_beta   90.11943226
_cell_angle_gamma   119.82845174
_symmetry_Int_Tables_number   1
_chemical_formula_structural   CsCa(RuO4)2
_chemical_formula_sum   'Cs1 Ca1 Ru2 O8'
_cell_volume   266.59995868
_cell_formula_units_Z   1
loop_
 _symmetry_equiv_pos_site_id
 _symmetry_equiv_pos_as_xyz
  1  'x, y, z'
loop_
 _atom_site_type_symbol
 _atom_site_label
 _atom_site_symmetry_multiplicity
 _atom_site_fract_x
 _atom_site_fract_y
 _atom_site_fract_z
 _atom_site_occupancy
  Cs  Cs0  1  0.000000  0.000000  0.500001  1
  Ca  Ca1  1  0.000000  0.000000  0.000000  1
  Ru  Ru2  1  0.665939  0.332969  0.242827  1
  Ru  Ru3  1  0.334061  0.667030  0.757173  1
  O  O4  1  0.345708  0.172855  0.174431  1
  O  O5  1  0.827716  0.172790  0.174965  1
  O  O6  1  0.827715  0.654926  0.174965  1
  O  O7  1  0.666295  0.333147  0.450624  1
  O  O8  1  0.333705  0.666852  0.549376  1
  O  O9  1  0.172285  0.345075  0.825035  1
  O  O10  1  0.172285  0.827211  0.825035  1
  O  O11  1  0.654292  0.827146  0.825569  1
