# generated using pymatgen
data_Tm4RuI4
_symmetry_space_group_name_H-M   'P 1'
_cell_length_a   11.26525464
_cell_length_b   11.26525693
_cell_length_c   6.11113803
_cell_angle_alpha   89.24052319
_cell_angle_beta   89.24052596
_cell_angle_gamma   88.66376586
_symmetry_Int_Tables_number   1
_chemical_formula_structural   Tm4RuI4
_chemical_formula_sum   'Tm8 Ru2 I8'
_cell_volume   775.19598210
_cell_formula_units_Z   2
loop_
 _symmetry_equiv_pos_site_id
 _symmetry_equiv_pos_as_xyz
  1  'x, y, z'
loop_
 _atom_site_type_symbol
 _atom_site_label
 _atom_site_symmetry_multiplicity
 _atom_site_fract_x
 _atom_site_fract_y
 _atom_site_fract_z
 _atom_site_occupancy
  Tm  Tm0  1  0.195586  0.917620  0.995609  1
  Tm  Tm1  1  0.804414  0.082380  0.004391  1
  Tm  Tm2  1  0.082380  0.804414  0.504391  1
  Tm  Tm3  1  0.917620  0.195586  0.495609  1
  Tm  Tm4  1  0.806177  0.922243  0.507013  1
  Tm  Tm5  1  0.193823  0.077757  0.492987  1
  Tm  Tm6  1  0.077757  0.193823  0.992987  1
  Tm  Tm7  1  0.922243  0.806177  0.007013  1
  Ru  Ru8  1  0.000299  0.999701  0.250000  1
  Ru  Ru9  1  0.999701  0.000299  0.750000  1
  I  I10  1  0.356903  0.848399  0.512442  1
  I  I11  1  0.643097  0.151601  0.487558  1
  I  I12  1  0.151601  0.643097  0.987558  1
  I  I13  1  0.848399  0.356903  0.012442  1
  I  I14  1  0.352076  0.145067  0.995753  1
  I  I15  1  0.647924  0.854933  0.004247  1
  I  I16  1  0.854933  0.647924  0.504247  1
  I  I17  1  0.145067  0.352076  0.495753  1
