# generated using pymatgen
data_Zr8In4CuNi7
_symmetry_space_group_name_H-M   'P 1'
_cell_length_a   7.23793912
_cell_length_b   7.23998294
_cell_length_c   6.71283114
_cell_angle_alpha   89.99765194
_cell_angle_beta   89.97711926
_cell_angle_gamma   89.50346377
_symmetry_Int_Tables_number   1
_chemical_formula_structural   Zr8In4CuNi7
_chemical_formula_sum   'Zr8 In4 Cu1 Ni7'
_cell_volume   351.75627023
_cell_formula_units_Z   1
loop_
 _symmetry_equiv_pos_site_id
 _symmetry_equiv_pos_as_xyz
  1  'x, y, z'
loop_
 _atom_site_type_symbol
 _atom_site_label
 _atom_site_symmetry_multiplicity
 _atom_site_fract_x
 _atom_site_fract_y
 _atom_site_fract_z
 _atom_site_occupancy
  Zr  Zr0  1  0.662707  0.341994  0.995474  1
  Zr  Zr1  1  0.341998  0.662694  0.995475  1
  Zr  Zr2  1  0.839036  0.839015  0.499196  1
  Zr  Zr3  1  0.155119  0.155092  0.504811  1
  Zr  Zr4  1  0.173471  0.173466  0.997421  1
  Zr  Zr5  1  0.822322  0.822333  0.000157  1
  Zr  Zr6  1  0.323316  0.682706  0.503765  1
  Zr  Zr7  1  0.682709  0.323332  0.503770  1
  In  In8  1  0.500301  0.999808  0.249193  1
  In  In9  1  0.999813  0.500244  0.249151  1
  In  In10  1  0.002652  0.500641  0.750683  1
  In  In11  1  0.500658  0.002641  0.750679  1
  Cu  Cu12  1  0.374761  0.374745  0.277836  1
  Ni  Ni13  1  0.622654  0.622655  0.271760  1
  Ni  Ni14  1  0.124939  0.874176  0.226923  1
  Ni  Ni15  1  0.874123  0.125001  0.227069  1
  Ni  Ni16  1  0.625513  0.625506  0.727266  1
  Ni  Ni17  1  0.375467  0.375463  0.726980  1
  Ni  Ni18  1  0.124073  0.874396  0.771205  1
  Ni  Ni19  1  0.874368  0.124091  0.771185  1
