# generated using pymatgen
data_Y7Tm13Cd6TcRu
_symmetry_space_group_name_H-M   'P 1'
_cell_length_a   9.50425509
_cell_length_b   9.50299158
_cell_length_c   9.80673785
_cell_angle_alpha   89.99999691
_cell_angle_beta   90.07552816
_cell_angle_gamma   119.99560559
_symmetry_Int_Tables_number   1
_chemical_formula_structural   Y7Tm13Cd6TcRu
_chemical_formula_sum   'Y7 Tm13 Cd6 Tc1 Ru1'
_cell_volume   767.10065272
_cell_formula_units_Z   1
loop_
 _symmetry_equiv_pos_site_id
 _symmetry_equiv_pos_as_xyz
  1  'x, y, z'
loop_
 _atom_site_type_symbol
 _atom_site_label
 _atom_site_symmetry_multiplicity
 _atom_site_fract_x
 _atom_site_fract_y
 _atom_site_fract_z
 _atom_site_occupancy
  Y  Y0  1  0.580997  0.790499  0.058206  1
  Y  Y1  1  0.539058  0.460102  0.250547  1
  Y  Y2  1  0.539058  0.078956  0.250547  1
  Y  Y3  1  0.922136  0.461068  0.249948  1
  Y  Y4  1  0.459609  0.539581  0.749312  1
  Y  Y5  1  0.459609  0.920028  0.749312  1
  Y  Y6  1  0.080429  0.540215  0.749980  1
  Tm  Tm7  1  0.000061  0.000030  0.500137  1
  Tm  Tm8  1  0.001021  0.000510  0.999484  1
  Tm  Tm9  1  0.209950  0.789762  0.441437  1
  Tm  Tm10  1  0.209950  0.420188  0.441437  1
  Tm  Tm11  1  0.579775  0.789887  0.442062  1
  Tm  Tm12  1  0.789688  0.210483  0.559245  1
  Tm  Tm13  1  0.789688  0.579203  0.559245  1
  Tm  Tm14  1  0.420700  0.210349  0.559244  1
  Tm  Tm15  1  0.790026  0.211077  0.940494  1
  Tm  Tm16  1  0.790026  0.578947  0.940494  1
  Tm  Tm17  1  0.420839  0.210419  0.940749  1
  Tm  Tm18  1  0.209285  0.789706  0.058662  1
  Tm  Tm19  1  0.209285  0.419579  0.058662  1
  Cd  Cd20  1  0.886274  0.113887  0.250083  1
  Cd  Cd21  1  0.886274  0.772389  0.250083  1
  Cd  Cd22  1  0.227590  0.113796  0.250139  1
  Cd  Cd23  1  0.113686  0.886587  0.749897  1
  Cd  Cd24  1  0.113686  0.227098  0.749897  1
  Cd  Cd25  1  0.773091  0.886546  0.749701  1
  Tc  Tc26  1  0.331548  0.665774  0.251135  1
  Ru  Ru27  1  0.666663  0.333331  0.749864  1
