# generated using pymatgen
data_Th10Al4Tc5Ru
_symmetry_space_group_name_H-M   'P 1'
_cell_length_a   8.57208179
_cell_length_b   8.56997592
_cell_length_c   8.57266853
_cell_angle_alpha   109.50810322
_cell_angle_beta   109.61078821
_cell_angle_gamma   109.46103528
_symmetry_Int_Tables_number   1
_chemical_formula_structural   Th10Al4Tc5Ru
_chemical_formula_sum   'Th10 Al4 Tc5 Ru1'
_cell_volume   483.79916556
_cell_formula_units_Z   1
loop_
 _symmetry_equiv_pos_site_id
 _symmetry_equiv_pos_as_xyz
  1  'x, y, z'
loop_
 _atom_site_type_symbol
 _atom_site_label
 _atom_site_symmetry_multiplicity
 _atom_site_fract_x
 _atom_site_fract_y
 _atom_site_fract_z
 _atom_site_occupancy
  Th  Th0  1  0.464202  0.156994  0.213412  1
  Th  Th1  1  0.157080  0.212234  0.464228  1
  Th  Th2  1  0.212529  0.463262  0.155210  1
  Th  Th3  1  0.407014  0.689021  0.906364  1
  Th  Th4  1  0.690093  0.906840  0.406967  1
  Th  Th5  1  0.905613  0.406751  0.689503  1
  Th  Th6  1  0.657849  0.102245  0.852598  1
  Th  Th7  1  0.100281  0.852134  0.656647  1
  Th  Th8  1  0.850809  0.656754  0.100640  1
  Th  Th9  1  0.624779  0.624711  0.624658  1
  Al  Al10  1  0.407082  0.310442  0.908585  1
  Al  Al11  1  0.309903  0.908250  0.407676  1
  Al  Al12  1  0.909978  0.408205  0.310604  1
  Al  Al13  1  0.004101  0.004433  0.004121  1
  Tc  Tc14  1  0.030195  0.157634  0.781265  1
  Tc  Tc15  1  0.158143  0.780764  0.030113  1
  Tc  Tc16  1  0.782171  0.031270  0.158364  1
  Tc  Tc17  1  0.659766  0.533782  0.286728  1
  Tc  Tc18  1  0.532984  0.284746  0.659255  1
  Ru  Ru19  1  0.285433  0.659531  0.533064  1
