# generated using pymatgen
data_Nd6VP12Rh17
_symmetry_space_group_name_H-M   'P 1'
_cell_length_a   3.96524900
_cell_length_b   11.28609700
_cell_length_c   12.92457000
_cell_angle_alpha   90.00000000
_cell_angle_beta   90.00000000
_cell_angle_gamma   90.00000000
_symmetry_Int_Tables_number   1
_chemical_formula_structural   Nd6VP12Rh17
_chemical_formula_sum   'Nd6 V1 P12 Rh17'
_cell_volume   578.40274566
_cell_formula_units_Z   1
loop_
 _symmetry_equiv_pos_site_id
 _symmetry_equiv_pos_as_xyz
  1  'x, y, z'
loop_
 _atom_site_type_symbol
 _atom_site_label
 _atom_site_symmetry_multiplicity
 _atom_site_fract_x
 _atom_site_fract_y
 _atom_site_fract_z
 _atom_site_occupancy
  Nd  Nd0  1  0.000000  0.500000  0.518162  1
  Nd  Nd1  1  0.500000  0.000000  0.479954  1
  Nd  Nd2  1  0.500000  0.815748  0.205127  1
  Nd  Nd3  1  0.500000  0.184252  0.205127  1
  Nd  Nd4  1  0.000000  0.682574  0.797511  1
  Nd  Nd5  1  0.000000  0.317426  0.797511  1
  V  V6  1  0.500000  0.500000  0.156934  1
  P  P7  1  0.500000  0.500000  0.880940  1
  P  P8  1  0.000000  0.000000  0.117957  1
  P  P9  1  0.500000  0.500000  0.340096  1
  P  P10  1  0.000000  0.000000  0.653510  1
  P  P11  1  0.500000  0.313123  0.616934  1
  P  P12  1  0.500000  0.686877  0.616934  1
  P  P13  1  0.000000  0.188738  0.383384  1
  P  P14  1  0.000000  0.811262  0.383384  1
  P  P15  1  0.500000  0.848022  0.892169  1
  P  P16  1  0.500000  0.151978  0.892169  1
  P  P17  1  0.000000  0.652238  0.108599  1
  P  P18  1  0.000000  0.347762  0.108599  1
  Rh  Rh19  1  0.000000  0.000000  0.833076  1
  Rh  Rh20  1  0.500000  0.500000  0.701315  1
  Rh  Rh21  1  0.000000  0.000000  0.297402  1
  Rh  Rh22  1  0.000000  0.500000  0.988387  1
  Rh  Rh23  1  0.500000  0.000000  0.017245  1
  Rh  Rh24  1  0.500000  0.333455  0.994107  1
  Rh  Rh25  1  0.500000  0.666545  0.994107  1
  Rh  Rh26  1  0.000000  0.166583  0.007776  1
  Rh  Rh27  1  0.000000  0.833417  0.007776  1
  Rh  Rh28  1  0.500000  0.291071  0.431779  1
  Rh  Rh29  1  0.500000  0.708929  0.431779  1
  Rh  Rh30  1  0.000000  0.205824  0.570284  1
  Rh  Rh31  1  0.000000  0.794176  0.570284  1
  Rh  Rh32  1  0.500000  0.874774  0.710757  1
  Rh  Rh33  1  0.500000  0.125226  0.710757  1
  Rh  Rh34  1  0.000000  0.623781  0.289084  1
  Rh  Rh35  1  0.000000  0.376219  0.289084  1
