# generated using pymatgen
data_Mn3V13Re3Si12Tc
_symmetry_space_group_name_H-M   'P 1'
_cell_length_a   6.99533155
_cell_length_b   6.99486487
_cell_length_c   13.26755950
_cell_angle_alpha   89.98452638
_cell_angle_beta   90.01818301
_cell_angle_gamma   140.31778119
_symmetry_Int_Tables_number   1
_chemical_formula_structural   Mn3V13Re3Si12Tc
_chemical_formula_sum   'Mn3 V13 Re3 Si12 Tc1'
_cell_volume   414.53317048
_cell_formula_units_Z   1
loop_
 _symmetry_equiv_pos_site_id
 _symmetry_equiv_pos_as_xyz
  1  'x, y, z'
loop_
 _atom_site_type_symbol
 _atom_site_label
 _atom_site_symmetry_multiplicity
 _atom_site_fract_x
 _atom_site_fract_y
 _atom_site_fract_z
 _atom_site_occupancy
  Mn  Mn0  1  0.502374  0.502529  0.999803  1
  Mn  Mn1  1  0.500432  0.499576  0.500430  1
  Mn  Mn2  1  0.000224  0.000408  0.999730  1
  V  V3  1  0.844766  0.652287  0.678713  1
  V  V4  1  0.349246  0.153623  0.177840  1
  V  V5  1  0.653140  0.843149  0.320413  1
  V  V6  1  0.153419  0.348787  0.822751  1
  V  V7  1  0.657218  0.849686  0.675047  1
  V  V8  1  0.152870  0.348764  0.174594  1
  V  V9  1  0.848174  0.657570  0.324346  1
  V  V10  1  0.348348  0.153262  0.825256  1
  V  V11  1  0.422845  0.071740  0.400754  1
  V  V12  1  0.928665  0.573421  0.901420  1
  V  V13  1  0.070704  0.422998  0.599546  1
  V  V14  1  0.572715  0.929060  0.098641  1
  V  V15  1  0.000335  0.999340  0.500294  1
  Re  Re16  1  0.573728  0.928606  0.899893  1
  Re  Re17  1  0.424941  0.070945  0.599777  1
  Re  Re18  1  0.928564  0.573753  0.100573  1
  Si  Si19  1  0.247233  0.747356  0.749904  1
  Si  Si20  1  0.748468  0.247554  0.251050  1
  Si  Si21  1  0.752680  0.253182  0.750172  1
  Si  Si22  1  0.252279  0.751491  0.250787  1
  Si  Si23  1  0.253231  0.256758  0.663240  1
  Si  Si24  1  0.750667  0.754684  0.158433  1
  Si  Si25  1  0.255421  0.253614  0.337311  1
  Si  Si26  1  0.754276  0.750433  0.840684  1
  Si  Si27  1  0.575845  0.901796  0.498515  1
  Si  Si28  1  0.090922  0.411983  0.999563  1
  Si  Si29  1  0.903016  0.575373  0.499950  1
  Si  Si30  1  0.411612  0.091323  0.000545  1
  Tc  Tc31  1  0.071638  0.424947  0.400025  1
