# generated using pymatgen
data_Sc22Fe2(TcPt)3
_symmetry_space_group_name_H-M   'P 1'
_cell_length_a   9.50623194
_cell_length_b   9.45116037
_cell_length_c   9.49060000
_cell_angle_alpha   60.24667452
_cell_angle_beta   59.67105067
_cell_angle_gamma   59.90399207
_symmetry_Int_Tables_number   1
_chemical_formula_structural   Sc22Fe2(TcPt)3
_chemical_formula_sum   'Sc22 Fe2 Tc3 Pt3'
_cell_volume   602.09385316
_cell_formula_units_Z   1
loop_
 _symmetry_equiv_pos_site_id
 _symmetry_equiv_pos_as_xyz
  1  'x, y, z'
loop_
 _atom_site_type_symbol
 _atom_site_label
 _atom_site_symmetry_multiplicity
 _atom_site_fract_x
 _atom_site_fract_y
 _atom_site_fract_z
 _atom_site_occupancy
  Sc  Sc0  1  0.808480  0.808480  0.191520  1
  Sc  Sc1  1  0.190977  0.809023  0.191373  1
  Sc  Sc2  1  0.808667  0.191333  0.192026  1
  Sc  Sc3  1  0.191520  0.191520  0.808480  1
  Sc  Sc4  1  0.809023  0.190977  0.808627  1
  Sc  Sc5  1  0.191333  0.808667  0.807974  1
  Sc  Sc6  1  0.613578  0.617363  0.158436  1
  Sc  Sc7  1  0.618079  0.157413  0.613776  1
  Sc  Sc8  1  0.157413  0.618079  0.610732  1
  Sc  Sc9  1  0.617363  0.613578  0.610624  1
  Sc  Sc10  1  0.386422  0.382637  0.841564  1
  Sc  Sc11  1  0.381921  0.842587  0.386224  1
  Sc  Sc12  1  0.842587  0.381921  0.389268  1
  Sc  Sc13  1  0.382637  0.386422  0.389376  1
  Sc  Sc14  1  0.846286  0.840847  0.472618  1
  Sc  Sc15  1  0.843917  0.475716  0.836927  1
  Sc  Sc16  1  0.475716  0.843917  0.843441  1
  Sc  Sc17  1  0.840847  0.846286  0.840247  1
  Sc  Sc18  1  0.153714  0.159153  0.527382  1
  Sc  Sc19  1  0.156083  0.524284  0.163073  1
  Sc  Sc20  1  0.524284  0.156083  0.156559  1
  Sc  Sc21  1  0.159153  0.153714  0.159753  1
  Fe  Fe22  1  0.000000  0.000000  0.000000  1
  Fe  Fe23  1  0.500000  0.500000  0.500000  1
  Tc  Tc24  1  0.000000  0.000000  0.500000  1
  Tc  Tc25  1  0.000000  0.500000  0.500000  1
  Tc  Tc26  1  0.500000  0.000000  0.000000  1
  Pt  Pt27  1  0.500000  0.000000  0.500000  1
  Pt  Pt28  1  0.500000  0.500000  0.000000  1
  Pt  Pt29  1  0.000000  0.500000  0.000000  1
