# generated using pymatgen
data_Ho7Sc(OsI4)2
_symmetry_space_group_name_H-M   'P 1'
_cell_length_a   11.11213102
_cell_length_b   11.05541223
_cell_length_c   6.11784058
_cell_angle_alpha   89.55739787
_cell_angle_beta   89.34483481
_cell_angle_gamma   88.83197821
_symmetry_Int_Tables_number   1
_chemical_formula_structural   Ho7Sc(OsI4)2
_chemical_formula_sum   'Ho7 Sc1 Os2 I8'
_cell_volume   751.34536866
_cell_formula_units_Z   1
loop_
 _symmetry_equiv_pos_site_id
 _symmetry_equiv_pos_as_xyz
  1  'x, y, z'
loop_
 _atom_site_type_symbol
 _atom_site_label
 _atom_site_symmetry_multiplicity
 _atom_site_fract_x
 _atom_site_fract_y
 _atom_site_fract_z
 _atom_site_occupancy
  Ho  Ho0  1  0.797675  0.084227  0.003273  1
  Ho  Ho1  1  0.087196  0.797301  0.501828  1
  Ho  Ho2  1  0.916937  0.202712  0.497547  1
  Ho  Ho3  1  0.800269  0.919575  0.506268  1
  Ho  Ho4  1  0.202630  0.077441  0.493237  1
  Ho  Ho5  1  0.079993  0.200705  0.993726  1
  Ho  Ho6  1  0.920789  0.798789  0.005738  1
  Sc  Sc7  1  0.187245  0.921784  0.995843  1
  Os  Os8  1  0.000478  0.999809  0.248936  1
  Os  Os9  1  0.000311  0.999916  0.750494  1
  I  I10  1  0.362892  0.842367  0.505471  1
  I  I11  1  0.637890  0.157683  0.497430  1
  I  I12  1  0.161368  0.645882  0.997786  1
  I  I13  1  0.843122  0.363738  0.002467  1
  I  I14  1  0.355511  0.139868  0.001647  1
  I  I15  1  0.642134  0.849461  0.998229  1
  I  I16  1  0.852183  0.639815  0.498155  1
  I  I17  1  0.151377  0.358927  0.501924  1
