# generated using pymatgen
data_TbTm19(SiBi2)4
_symmetry_space_group_name_H-M   'P 1'
_cell_length_a   7.96819543
_cell_length_b   9.10013400
_cell_length_c   11.87927412
_cell_angle_alpha   90.00000000
_cell_angle_beta   90.06854568
_cell_angle_gamma   90.00000000
_symmetry_Int_Tables_number   1
_chemical_formula_structural   TbTm19(SiBi2)4
_chemical_formula_sum   'Tb1 Tm19 Si4 Bi8'
_cell_volume   861.38510500
_cell_formula_units_Z   1
loop_
 _symmetry_equiv_pos_site_id
 _symmetry_equiv_pos_as_xyz
  1  'x, y, z'
loop_
 _atom_site_type_symbol
 _atom_site_label
 _atom_site_symmetry_multiplicity
 _atom_site_fract_x
 _atom_site_fract_y
 _atom_site_fract_z
 _atom_site_occupancy
  Tb  Tb0  1  0.333371  0.750000  0.286633  1
  Tm  Tm1  1  0.678891  0.945198  0.438079  1
  Tm  Tm2  1  0.821018  0.554689  0.937535  1
  Tm  Tm3  1  0.320505  0.445294  0.562123  1
  Tm  Tm4  1  0.179322  0.055304  0.062029  1
  Tm  Tm5  1  0.320505  0.054706  0.562123  1
  Tm  Tm6  1  0.179322  0.444696  0.062029  1
  Tm  Tm7  1  0.678891  0.554802  0.438079  1
  Tm  Tm8  1  0.821018  0.945311  0.937535  1
  Tm  Tm9  1  0.166676  0.750000  0.787331  1
  Tm  Tm10  1  0.666238  0.250000  0.712514  1
  Tm  Tm11  1  0.834161  0.250000  0.211863  1
  Tm  Tm12  1  0.038603  0.750000  0.498365  1
  Tm  Tm13  1  0.461746  0.750000  0.997767  1
  Tm  Tm14  1  0.960370  0.250000  0.502277  1
  Tm  Tm15  1  0.539376  0.250000  0.001439  1
  Tm  Tm16  1  0.862020  0.750000  0.205255  1
  Tm  Tm17  1  0.637260  0.750000  0.706214  1
  Tm  Tm18  1  0.136906  0.250000  0.794586  1
  Tm  Tm19  1  0.363338  0.250000  0.294399  1
  Si  Si20  1  0.090321  0.750000  0.022357  1
  Si  Si21  1  0.410352  0.750000  0.523913  1
  Si  Si22  1  0.910353  0.250000  0.977953  1
  Si  Si23  1  0.589399  0.250000  0.478608  1
  Bi  Bi24  1  0.569487  0.989909  0.173623  1
  Bi  Bi25  1  0.932125  0.511308  0.674589  1
  Bi  Bi26  1  0.431938  0.488618  0.825479  1
  Bi  Bi27  1  0.066469  0.012004  0.325806  1
  Bi  Bi28  1  0.431938  0.011382  0.825479  1
  Bi  Bi29  1  0.066469  0.487996  0.325806  1
  Bi  Bi30  1  0.569487  0.510091  0.173623  1
  Bi  Bi31  1  0.932125  0.988692  0.674589  1
