# generated using pymatgen
data_La2(PrAu2)3
_symmetry_space_group_name_H-M   'P 1'
_cell_length_a   17.02364040
_cell_length_b   17.02364058
_cell_length_c   4.30878500
_cell_angle_alpha   90.00000000
_cell_angle_beta   90.00000000
_cell_angle_gamma   166.06599220
_symmetry_Int_Tables_number   1
_chemical_formula_structural   La2(PrAu2)3
_chemical_formula_sum   'La2 Pr3 Au6'
_cell_volume   300.69326485
_cell_formula_units_Z   1
loop_
 _symmetry_equiv_pos_site_id
 _symmetry_equiv_pos_as_xyz
  1  'x, y, z'
loop_
 _atom_site_type_symbol
 _atom_site_label
 _atom_site_symmetry_multiplicity
 _atom_site_fract_x
 _atom_site_fract_y
 _atom_site_fract_z
 _atom_site_occupancy
  La  La0  1  0.000114  0.999886  0.000000  1
  La  La1  1  0.802193  0.197806  0.500000  1
  Pr  Pr2  1  0.614716  0.385284  0.000000  1
  Pr  Pr3  1  0.385144  0.614856  0.000000  1
  Pr  Pr4  1  0.195986  0.804013  0.500000  1
  Au  Au5  1  0.719431  0.280569  0.000000  1
  Au  Au6  1  0.281846  0.718154  0.000000  1
  Au  Au7  1  0.900051  0.099949  0.500000  1
  Au  Au8  1  0.541593  0.458406  0.500000  1
  Au  Au9  1  0.458734  0.541265  0.500000  1
  Au  Au10  1  0.100190  0.899810  0.500000  1
