# generated using pymatgen
data_Tb12Th4MgHg3Rh4
_symmetry_space_group_name_H-M   'P 1'
_cell_length_a   9.77795890
_cell_length_b   9.76383341
_cell_length_c   9.76383400
_cell_angle_alpha   60.00000477
_cell_angle_beta   60.04778110
_cell_angle_gamma   60.04778193
_symmetry_Int_Tables_number   1
_chemical_formula_structural   Tb12Th4MgHg3Rh4
_chemical_formula_sum   'Tb12 Th4 Mg1 Hg3 Rh4'
_cell_volume   659.61003017
_cell_formula_units_Z   1
loop_
 _symmetry_equiv_pos_site_id
 _symmetry_equiv_pos_as_xyz
  1  'x, y, z'
loop_
 _atom_site_type_symbol
 _atom_site_label
 _atom_site_symmetry_multiplicity
 _atom_site_fract_x
 _atom_site_fract_y
 _atom_site_fract_z
 _atom_site_occupancy
  Tb  Tb0  1  0.810319  0.189172  0.189172  1
  Tb  Tb1  1  0.185510  0.813009  0.813009  1
  Tb  Tb2  1  0.185510  0.813009  0.188473  1
  Tb  Tb3  1  0.810319  0.189172  0.811337  1
  Tb  Tb4  1  0.185510  0.188473  0.813009  1
  Tb  Tb5  1  0.810319  0.811337  0.189172  1
  Tb  Tb6  1  0.931344  0.566728  0.566728  1
  Tb  Tb7  1  0.563643  0.935631  0.935631  1
  Tb  Tb8  1  0.563643  0.935631  0.565094  1
  Tb  Tb9  1  0.931344  0.566728  0.935200  1
  Tb  Tb10  1  0.563643  0.565094  0.935631  1
  Tb  Tb11  1  0.931344  0.935200  0.566728  1
  Th  Th12  1  0.350032  0.349083  0.349083  1
  Th  Th13  1  0.350032  0.349083  0.951802  1
  Th  Th14  1  0.350032  0.951802  0.349083  1
  Th  Th15  1  0.949487  0.350171  0.350171  1
  Mg  Mg16  1  0.272036  0.575988  0.575988  1
  Hg  Hg17  1  0.584775  0.587349  0.587349  1
  Hg  Hg18  1  0.584775  0.587349  0.240528  1
  Hg  Hg19  1  0.584775  0.240528  0.587349  1
  Rh  Rh20  1  0.144777  0.143829  0.143829  1
  Rh  Rh21  1  0.144777  0.143829  0.567563  1
  Rh  Rh22  1  0.144777  0.567563  0.143829  1
  Rh  Rh23  1  0.567278  0.144240  0.144240  1
