# generated using pymatgen
data_Li5Hf(TiIr2)6
_symmetry_space_group_name_H-M   'P 1'
_cell_length_a   4.33139200
_cell_length_b   6.11055800
_cell_length_c   12.94036401
_cell_angle_alpha   90.00000000
_cell_angle_beta   89.99643429
_cell_angle_gamma   90.00000000
_symmetry_Int_Tables_number   1
_chemical_formula_structural   Li5Hf(TiIr2)6
_chemical_formula_sum   'Li5 Hf1 Ti6 Ir12'
_cell_volume   342.49548689
_cell_formula_units_Z   1
loop_
 _symmetry_equiv_pos_site_id
 _symmetry_equiv_pos_as_xyz
  1  'x, y, z'
loop_
 _atom_site_type_symbol
 _atom_site_label
 _atom_site_symmetry_multiplicity
 _atom_site_fract_x
 _atom_site_fract_y
 _atom_site_fract_z
 _atom_site_occupancy
  Li  Li0  1  0.499559  0.500000  0.168577  1
  Li  Li1  1  0.999560  0.000000  0.335109  1
  Li  Li2  1  0.499998  0.500000  0.500003  1
  Li  Li3  1  0.000440  0.000000  0.664896  1
  Li  Li4  1  0.500440  0.500000  0.831418  1
  Hf  Hf5  1  0.999998  0.000000  0.000007  1
  Ti  Ti6  1  0.999999  0.500000  0.000002  1
  Ti  Ti7  1  0.499710  0.000000  0.178467  1
  Ti  Ti8  1  0.999639  0.500000  0.339638  1
  Ti  Ti9  1  0.499998  0.000000  0.499998  1
  Ti  Ti10  1  0.000361  0.500000  0.660358  1
  Ti  Ti11  1  0.500290  0.000000  0.821529  1
  Ir  Ir12  1  0.500000  0.257051  0.000002  1
  Ir  Ir13  1  0.500000  0.742949  0.000002  1
  Ir  Ir14  1  0.999665  0.254960  0.170179  1
  Ir  Ir15  1  0.999665  0.745039  0.170179  1
  Ir  Ir16  1  0.499638  0.252159  0.335082  1
  Ir  Ir17  1  0.499638  0.747842  0.335082  1
  Ir  Ir18  1  0.999999  0.248640  0.499997  1
  Ir  Ir19  1  0.999999  0.751359  0.499997  1
  Ir  Ir20  1  0.500360  0.252160  0.664915  1
  Ir  Ir21  1  0.500360  0.747841  0.664915  1
  Ir  Ir22  1  0.000335  0.254954  0.829823  1
  Ir  Ir23  1  0.000335  0.745045  0.829823  1
