# generated using pymatgen
data_La18Tb2Si15Pd
_symmetry_space_group_name_H-M   'P 1'
_cell_length_a   8.03268830
_cell_length_b   8.04762277
_cell_length_c   15.30335100
_cell_angle_alpha   90.30811019
_cell_angle_beta   89.38641296
_cell_angle_gamma   89.98637317
_symmetry_Int_Tables_number   1
_chemical_formula_structural   La18Tb2Si15Pd
_chemical_formula_sum   'La18 Tb2 Si15 Pd1'
_cell_volume   989.19944233
_cell_formula_units_Z   1
loop_
 _symmetry_equiv_pos_site_id
 _symmetry_equiv_pos_as_xyz
  1  'x, y, z'
loop_
 _atom_site_type_symbol
 _atom_site_label
 _atom_site_symmetry_multiplicity
 _atom_site_fract_x
 _atom_site_fract_y
 _atom_site_fract_z
 _atom_site_occupancy
  La  La0  1  0.978839  0.129946  0.129163  1
  La  La1  1  0.028140  0.871837  0.618375  1
  La  La2  1  0.627308  0.519746  0.873381  1
  La  La3  1  0.484905  0.377863  0.623282  1
  La  La4  1  0.513237  0.624535  0.130214  1
  La  La5  1  0.126525  0.978866  0.876799  1
  La  La6  1  0.989563  0.620510  0.056909  1
  La  La7  1  0.018488  0.366019  0.542962  1
  La  La8  1  0.621692  0.986983  0.949190  1
  La  La9  1  0.121422  0.508357  0.802047  1
  La  La10  1  0.866383  0.479318  0.298118  1
  La  La11  1  0.505648  0.121199  0.200966  1
  La  La12  1  0.495006  0.878795  0.695302  1
  La  La13  1  0.384996  0.024139  0.451309  1
  La  La14  1  0.703733  0.695194  0.496212  1
  La  La15  1  0.812201  0.191352  0.747972  1
  La  La16  1  0.183072  0.801644  0.263354  1
  La  La17  1  0.301156  0.305916  0.001241  1
  Tb  Tb18  1  0.377918  0.479205  0.374931  1
  Tb  Tb19  1  0.859404  0.023306  0.370641  1
  Si  Si20  1  0.918521  0.288704  0.941008  1
  Si  Si21  1  0.716761  0.083537  0.555083  1
  Si  Si22  1  0.213900  0.417237  0.197780  1
  Si  Si23  1  0.795893  0.578778  0.687602  1
  Si  Si24  1  0.422785  0.209168  0.808282  1
  Si  Si25  1  0.573093  0.789435  0.311964  1
  Si  Si26  1  0.286236  0.920526  0.063532  1
  Si  Si27  1  0.832474  0.804802  0.794920  1
  Si  Si28  1  0.161181  0.202520  0.310613  1
  Si  Si29  1  0.798092  0.833716  0.204029  1
  Si  Si30  1  0.314709  0.669427  0.538430  1
  Si  Si31  1  0.693881  0.330957  0.048310  1
  Si  Si32  1  0.668305  0.304923  0.446806  1
  Si  Si33  1  0.328973  0.694492  0.956174  1
  Si  Si34  1  0.201451  0.168282  0.698951  1
  Pd  Pd35  1  0.074109  0.718768  0.434146  1
