# generated using pymatgen
data_Tm20Si3Bi8As
_symmetry_space_group_name_H-M   'P 1'
_cell_length_a   7.95383869
_cell_length_b   9.08847900
_cell_length_c   11.89658871
_cell_angle_alpha   90.00000000
_cell_angle_beta   89.83156708
_cell_angle_gamma   90.00000000
_symmetry_Int_Tables_number   1
_chemical_formula_structural   Tm20Si3Bi8As
_chemical_formula_sum   'Tm20 Si3 Bi8 As1'
_cell_volume   859.98040863
_cell_formula_units_Z   1
loop_
 _symmetry_equiv_pos_site_id
 _symmetry_equiv_pos_as_xyz
  1  'x, y, z'
loop_
 _atom_site_type_symbol
 _atom_site_label
 _atom_site_symmetry_multiplicity
 _atom_site_fract_x
 _atom_site_fract_y
 _atom_site_fract_z
 _atom_site_occupancy
  Tm  Tm0  1  0.679845  0.944681  0.438169  1
  Tm  Tm1  1  0.818329  0.553330  0.936333  1
  Tm  Tm2  1  0.320159  0.444965  0.562201  1
  Tm  Tm3  1  0.179277  0.058449  0.062539  1
  Tm  Tm4  1  0.320159  0.055035  0.562201  1
  Tm  Tm5  1  0.179277  0.441551  0.062539  1
  Tm  Tm6  1  0.679845  0.555319  0.438169  1
  Tm  Tm7  1  0.818329  0.946670  0.936333  1
  Tm  Tm8  1  0.340037  0.750000  0.291380  1
  Tm  Tm9  1  0.165409  0.750000  0.784992  1
  Tm  Tm10  1  0.662820  0.250000  0.711975  1
  Tm  Tm11  1  0.836621  0.250000  0.212359  1
  Tm  Tm12  1  0.038441  0.750000  0.497720  1
  Tm  Tm13  1  0.463328  0.750000  0.999040  1
  Tm  Tm14  1  0.960467  0.250000  0.501150  1
  Tm  Tm15  1  0.539796  0.250000  0.001569  1
  Tm  Tm16  1  0.862033  0.750000  0.206134  1
  Tm  Tm17  1  0.636438  0.750000  0.706767  1
  Tm  Tm18  1  0.135907  0.250000  0.794595  1
  Tm  Tm19  1  0.363901  0.250000  0.294081  1
  Si  Si20  1  0.410593  0.750000  0.524370  1
  Si  Si21  1  0.911558  0.250000  0.979157  1
  Si  Si22  1  0.590119  0.250000  0.477600  1
  Bi  Bi23  1  0.569479  0.989269  0.174116  1
  Bi  Bi24  1  0.930851  0.510917  0.674033  1
  Bi  Bi25  1  0.429264  0.489157  0.826534  1
  Bi  Bi26  1  0.069739  0.010155  0.324836  1
  Bi  Bi27  1  0.429264  0.010843  0.826534  1
  Bi  Bi28  1  0.069739  0.489845  0.324836  1
  Bi  Bi29  1  0.569479  0.510731  0.174116  1
  Bi  Bi30  1  0.930851  0.989083  0.674033  1
  As  As31  1  0.088645  0.750000  0.019590  1
