# generated using pymatgen
data_Li(In4Ir)2
_symmetry_space_group_name_H-M   'P 1'
_cell_length_a   6.97084559
_cell_length_b   7.01215700
_cell_length_c   9.96010283
_cell_angle_alpha   90.00000000
_cell_angle_beta   96.62606147
_cell_angle_gamma   90.00000000
_symmetry_Int_Tables_number   1
_chemical_formula_structural   Li(In4Ir)2
_chemical_formula_sum   'Li2 In16 Ir4'
_cell_volume   483.60442212
_cell_formula_units_Z   2
loop_
 _symmetry_equiv_pos_site_id
 _symmetry_equiv_pos_as_xyz
  1  'x, y, z'
loop_
 _atom_site_type_symbol
 _atom_site_label
 _atom_site_symmetry_multiplicity
 _atom_site_fract_x
 _atom_site_fract_y
 _atom_site_fract_z
 _atom_site_occupancy
  Li  Li0  1  0.500000  0.000000  0.000000  1
  Li  Li1  1  0.500001  0.499999  0.500000  1
  In  In2  1  0.126171  0.810565  0.003640  1
  In  In3  1  0.709287  0.630097  0.044402  1
  In  In4  1  0.583776  0.292441  0.229193  1
  In  In5  1  0.093317  0.472700  0.232817  1
  In  In6  1  0.906684  0.972701  0.267184  1
  In  In7  1  0.416225  0.792442  0.270808  1
  In  In8  1  0.290713  0.130097  0.455597  1
  In  In9  1  0.873829  0.310566  0.496360  1
  In  In10  1  0.126170  0.689435  0.503639  1
  In  In11  1  0.709288  0.869903  0.544403  1
  In  In12  1  0.583775  0.207558  0.729193  1
  In  In13  1  0.093317  0.027299  0.732817  1
  In  In14  1  0.906683  0.527298  0.767184  1
  In  In15  1  0.416225  0.707558  0.770808  1
  In  In16  1  0.290713  0.369903  0.955597  1
  In  In17  1  0.873830  0.189435  0.996360  1
  Ir  Ir18  1  0.231303  0.125072  0.170070  1
  Ir  Ir19  1  0.768695  0.625073  0.329931  1
  Ir  Ir20  1  0.231304  0.374927  0.670070  1
  Ir  Ir21  1  0.768696  0.874926  0.829931  1
