# generated using pymatgen
data_Tb5Er(Sc2Pb3)2
_symmetry_space_group_name_H-M   'P 1'
_cell_length_a   8.91780400
_cell_length_b   8.90867312
_cell_length_c   6.38303300
_cell_angle_alpha   90.00000000
_cell_angle_beta   90.00000000
_cell_angle_gamma   120.03391805
_symmetry_Int_Tables_number   1
_chemical_formula_structural   Tb5Er(Sc2Pb3)2
_chemical_formula_sum   'Tb5 Er1 Sc4 Pb6'
_cell_volume   439.01578263
_cell_formula_units_Z   1
loop_
 _symmetry_equiv_pos_site_id
 _symmetry_equiv_pos_as_xyz
  1  'x, y, z'
loop_
 _atom_site_type_symbol
 _atom_site_label
 _atom_site_symmetry_multiplicity
 _atom_site_fract_x
 _atom_site_fract_y
 _atom_site_fract_z
 _atom_site_occupancy
  Tb  Tb0  1  0.238873  0.000000  0.250000  1
  Tb  Tb1  1  0.238202  0.238402  0.750000  1
  Tb  Tb2  1  0.999800  0.761598  0.750000  1
  Tb  Tb3  1  0.999732  0.238140  0.250000  1
  Tb  Tb4  1  0.761592  0.761860  0.250000  1
  Er  Er5  1  0.761467  0.000000  0.750000  1
  Sc  Sc6  1  0.333353  0.666635  0.999904  1
  Sc  Sc7  1  0.666719  0.333365  0.500096  1
  Sc  Sc8  1  0.666719  0.333365  0.999904  1
  Sc  Sc9  1  0.333353  0.666635  0.500096  1
  Pb  Pb10  1  0.600075  0.000000  0.250000  1
  Pb  Pb11  1  0.600502  0.601369  0.750000  1
  Pb  Pb12  1  0.999134  0.398631  0.750000  1
  Pb  Pb13  1  0.999948  0.600085  0.250000  1
  Pb  Pb14  1  0.399863  0.399915  0.250000  1
  Pb  Pb15  1  0.400670  0.000000  0.750000  1
