# generated using pymatgen
data_SrNdDy2(Ir2O7)2
_symmetry_space_group_name_H-M   'P 1'
_cell_length_a   7.34349510
_cell_length_b   7.32807975
_cell_length_c   7.31172400
_cell_angle_alpha   60.07380419
_cell_angle_beta   60.14301418
_cell_angle_gamma   60.08796602
_symmetry_Int_Tables_number   1
_chemical_formula_structural   SrNdDy2(Ir2O7)2
_chemical_formula_sum   'Sr1 Nd1 Dy2 Ir4 O14'
_cell_volume   278.86627882
_cell_formula_units_Z   1
loop_
 _symmetry_equiv_pos_site_id
 _symmetry_equiv_pos_as_xyz
  1  'x, y, z'
loop_
 _atom_site_type_symbol
 _atom_site_label
 _atom_site_symmetry_multiplicity
 _atom_site_fract_x
 _atom_site_fract_y
 _atom_site_fract_z
 _atom_site_occupancy
  Sr  Sr0  1  0.125000  0.625000  0.125000  1
  Nd  Nd1  1  0.625000  0.125000  0.125000  1
  Dy  Dy2  1  0.125000  0.125000  0.625000  1
  Dy  Dy3  1  0.125000  0.125000  0.125000  1
  Ir  Ir4  1  0.125000  0.625000  0.625000  1
  Ir  Ir5  1  0.625000  0.125000  0.625000  1
  Ir  Ir6  1  0.625000  0.625000  0.125000  1
  Ir  Ir7  1  0.625000  0.625000  0.625000  1
  O  O8  1  0.696773  0.710240  0.296493  1
  O  O9  1  0.293428  0.291448  0.707562  1
  O  O10  1  0.713918  0.291101  0.700765  1
  O  O11  1  0.294699  0.718674  0.296153  1
  O  O12  1  0.294699  0.718674  0.690473  1
  O  O13  1  0.713918  0.291101  0.294215  1
  O  O14  1  0.553227  0.539760  0.953507  1
  O  O15  1  0.956572  0.958552  0.542438  1
  O  O16  1  0.536082  0.958899  0.549235  1
  O  O17  1  0.955301  0.531326  0.953847  1
  O  O18  1  0.955301  0.531326  0.559527  1
  O  O19  1  0.536082  0.958899  0.955785  1
  O  O20  1  0.246581  0.230671  0.261374  1
  O  O21  1  0.003419  0.019329  0.988626  1
