# generated using pymatgen
data_Ba(Ti5S8)2
_symmetry_space_group_name_H-M   'P 1'
_cell_length_a   6.83264027
_cell_length_b   9.11373082
_cell_length_c   9.47230267
_cell_angle_alpha   72.75194642
_cell_angle_beta   68.81026337
_cell_angle_gamma   79.13464067
_symmetry_Int_Tables_number   1
_chemical_formula_structural   Ba(Ti5S8)2
_chemical_formula_sum   'Ba1 Ti10 S16'
_cell_volume   523.04059116
_cell_formula_units_Z   1
loop_
 _symmetry_equiv_pos_site_id
 _symmetry_equiv_pos_as_xyz
  1  'x, y, z'
loop_
 _atom_site_type_symbol
 _atom_site_label
 _atom_site_symmetry_multiplicity
 _atom_site_fract_x
 _atom_site_fract_y
 _atom_site_fract_z
 _atom_site_occupancy
  Ba  Ba0  1  0.000000  0.000000  0.000000  1
  Ti  Ti1  1  0.819583  0.417419  0.151641  1
  Ti  Ti2  1  0.319531  0.414769  0.151879  1
  Ti  Ti3  1  0.680469  0.585231  0.848121  1
  Ti  Ti4  1  0.180417  0.582581  0.848359  1
  Ti  Ti5  1  0.500000  0.000000  0.500000  1
  Ti  Ti6  1  0.000000  0.000000  0.500000  1
  Ti  Ti7  1  0.831911  0.684695  0.492825  1
  Ti  Ti8  1  0.332402  0.683459  0.492562  1
  Ti  Ti9  1  0.667598  0.316541  0.507438  1
  Ti  Ti10  1  0.168089  0.315305  0.507175  1
  S  S11  1  0.631666  0.827180  0.321784  1
  S  S12  1  0.132103  0.827122  0.321709  1
  S  S13  1  0.867897  0.172878  0.678291  1
  S  S14  1  0.368334  0.172820  0.678216  1
  S  S15  1  0.961782  0.483148  0.334836  1
  S  S16  1  0.461290  0.482913  0.334967  1
  S  S17  1  0.538710  0.517087  0.665033  1
  S  S18  1  0.038218  0.516852  0.665164  1
  S  S19  1  0.331808  0.675238  0.997644  1
  S  S20  1  0.832357  0.677042  0.997273  1
  S  S21  1  0.167643  0.322958  0.002727  1
  S  S22  1  0.668192  0.324762  0.002356  1
  S  S23  1  0.796894  0.151548  0.330906  1
  S  S24  1  0.296283  0.151237  0.331632  1
  S  S25  1  0.703717  0.848763  0.668368  1
  S  S26  1  0.203106  0.848452  0.669094  1
