# generated using pymatgen
data_SmTmCo3P7Ru9
_symmetry_space_group_name_H-M   'P 1'
_cell_length_a   9.32589200
_cell_length_b   9.32589117
_cell_length_c   3.82614300
_cell_angle_alpha   90.00000000
_cell_angle_beta   90.00000000
_cell_angle_gamma   119.99999586
_symmetry_Int_Tables_number   1
_chemical_formula_structural   SmTmCo3P7Ru9
_chemical_formula_sum   'Sm1 Tm1 Co3 P7 Ru9'
_cell_volume   288.18579621
_cell_formula_units_Z   1
loop_
 _symmetry_equiv_pos_site_id
 _symmetry_equiv_pos_as_xyz
  1  'x, y, z'
loop_
 _atom_site_type_symbol
 _atom_site_label
 _atom_site_symmetry_multiplicity
 _atom_site_fract_x
 _atom_site_fract_y
 _atom_site_fract_z
 _atom_site_occupancy
  Sm  Sm0  1  0.666667  0.333333  0.000000  1
  Tm  Tm1  1  0.000000  0.000000  0.500000  1
  Co  Co2  1  0.491433  0.935824  0.000000  1
  Co  Co3  1  0.064176  0.555610  0.000000  1
  Co  Co4  1  0.444390  0.508567  0.000000  1
  P  P5  1  0.333333  0.666667  0.000000  1
  P  P6  1  0.447443  0.065467  0.500000  1
  P  P7  1  0.934533  0.381977  0.500000  1
  P  P8  1  0.618023  0.552557  0.500000  1
  P  P9  1  0.745965  0.968897  0.000000  1
  P  P10  1  0.031103  0.777066  0.000000  1
  P  P11  1  0.222934  0.254035  0.000000  1
  Ru  Ru12  1  0.759440  0.730180  0.000000  1
  Ru  Ru13  1  0.269820  0.029259  0.000000  1
  Ru  Ru14  1  0.970741  0.240560  0.000000  1
  Ru  Ru15  1  0.717029  0.100537  0.500000  1
  Ru  Ru16  1  0.899463  0.616491  0.500000  1
  Ru  Ru17  1  0.383509  0.282971  0.500000  1
  Ru  Ru18  1  0.538807  0.752243  0.500000  1
  Ru  Ru19  1  0.247757  0.786565  0.500000  1
  Ru  Ru20  1  0.213435  0.461193  0.500000  1
