# generated using pymatgen
data_Yb2Er13Tm5Ir12
_symmetry_space_group_name_H-M   'P 1'
_cell_length_a   10.77093654
_cell_length_b   10.80428601
_cell_length_c   6.32073503
_cell_angle_alpha   90.00475080
_cell_angle_beta   90.23791659
_cell_angle_gamma   90.00163641
_symmetry_Int_Tables_number   1
_chemical_formula_structural   Yb2Er13Tm5Ir12
_chemical_formula_sum   'Yb2 Er13 Tm5 Ir12'
_cell_volume   735.55199557
_cell_formula_units_Z   1
loop_
 _symmetry_equiv_pos_site_id
 _symmetry_equiv_pos_as_xyz
  1  'x, y, z'
loop_
 _atom_site_type_symbol
 _atom_site_label
 _atom_site_symmetry_multiplicity
 _atom_site_fract_x
 _atom_site_fract_y
 _atom_site_fract_z
 _atom_site_occupancy
  Yb  Yb0  1  0.288930  0.087824  0.374329  1
  Yb  Yb1  1  0.288972  0.912215  0.874373  1
  Er  Er2  1  0.709006  0.086267  0.878145  1
  Er  Er3  1  0.709006  0.913747  0.378119  1
  Er  Er4  1  0.586895  0.792360  0.876716  1
  Er  Er5  1  0.586900  0.207638  0.376723  1
  Er  Er6  1  0.412628  0.792745  0.378002  1
  Er  Er7  1  0.412602  0.207259  0.878036  1
  Er  Er8  1  0.209612  0.413393  0.623568  1
  Er  Er9  1  0.209601  0.586469  0.123584  1
  Er  Er10  1  0.791305  0.412609  0.121643  1
  Er  Er11  1  0.791221  0.587364  0.621626  1
  Er  Er12  1  0.912838  0.709485  0.123772  1
  Er  Er13  1  0.912895  0.290489  0.623738  1
  Er  Er14  1  0.087269  0.708668  0.622164  1
  Tm  Tm15  1  0.087199  0.291510  0.121960  1
  Tm  Tm16  1  0.000609  0.999563  0.499922  1
  Tm  Tm17  1  0.000647  0.000548  0.999961  1
  Tm  Tm18  1  0.500194  0.499884  0.998857  1
  Tm  Tm19  1  0.500186  0.500112  0.498831  1
  Ir  Ir20  1  0.848725  0.153605  0.250103  1
  Ir  Ir21  1  0.848608  0.846454  0.750164  1
  Ir  Ir22  1  0.147711  0.159588  0.754145  1
  Ir  Ir23  1  0.147765  0.840519  0.253829  1
  Ir  Ir24  1  0.651969  0.345890  0.750407  1
  Ir  Ir25  1  0.651970  0.654108  0.250424  1
  Ir  Ir26  1  0.347386  0.351415  0.246253  1
  Ir  Ir27  1  0.347530  0.648528  0.746326  1
  Ir  Ir28  1  0.504772  0.000251  0.123425  1
  Ir  Ir29  1  0.504780  0.999750  0.623425  1
  Ir  Ir30  1  0.000132  0.500176  0.878857  1
  Ir  Ir31  1  0.000142  0.499567  0.378575  1
