# generated using pymatgen
data_Ho5Co16(P4Rh)3
_symmetry_space_group_name_H-M   'P 1'
_cell_length_a   12.04359400
_cell_length_b   12.04359506
_cell_length_c   3.70510800
_cell_angle_alpha   90.00000000
_cell_angle_beta   90.00000000
_cell_angle_gamma   120.00000259
_symmetry_Int_Tables_number   1
_chemical_formula_structural   Ho5Co16(P4Rh)3
_chemical_formula_sum   'Ho5 Co16 P12 Rh3'
_cell_volume   465.41860861
_cell_formula_units_Z   1
loop_
 _symmetry_equiv_pos_site_id
 _symmetry_equiv_pos_as_xyz
  1  'x, y, z'
loop_
 _atom_site_type_symbol
 _atom_site_label
 _atom_site_symmetry_multiplicity
 _atom_site_fract_x
 _atom_site_fract_y
 _atom_site_fract_z
 _atom_site_occupancy
  Ho  Ho0  1  0.666667  0.333333  0.000000  1
  Ho  Ho1  1  0.333333  0.666667  0.000000  1
  Ho  Ho2  1  0.815582  0.815582  0.500000  1
  Ho  Ho3  1  0.184418  0.000000  0.500000  1
  Ho  Ho4  1  0.000000  0.184418  0.500000  1
  Co  Co5  1  0.874106  0.358144  0.500000  1
  Co  Co6  1  0.641856  0.515962  0.500000  1
  Co  Co7  1  0.484038  0.125894  0.500000  1
  Co  Co8  1  0.358144  0.874106  0.500000  1
  Co  Co9  1  0.515962  0.641856  0.500000  1
  Co  Co10  1  0.125894  0.484038  0.500000  1
  Co  Co11  1  0.804241  0.179976  0.000000  1
  Co  Co12  1  0.820024  0.624263  0.000000  1
  Co  Co13  1  0.375737  0.195759  0.000000  1
  Co  Co14  1  0.179976  0.804241  0.000000  1
  Co  Co15  1  0.624263  0.820024  0.000000  1
  Co  Co16  1  0.195759  0.375737  0.000000  1
  Co  Co17  1  0.282931  0.282931  0.500000  1
  Co  Co18  1  0.717069  0.000000  0.500000  1
  Co  Co19  1  0.000000  0.717069  0.500000  1
  Co  Co20  1  0.000000  0.000000  0.000000  1
  P  P21  1  0.689351  0.168082  0.500000  1
  P  P22  1  0.831918  0.521270  0.500000  1
  P  P23  1  0.478730  0.310649  0.500000  1
  P  P24  1  0.168082  0.689351  0.500000  1
  P  P25  1  0.521270  0.831918  0.500000  1
  P  P26  1  0.310649  0.478730  0.500000  1
  P  P27  1  0.179929  0.179929  0.000000  1
  P  P28  1  0.820071  0.000000  0.000000  1
  P  P29  1  0.000000  0.820071  0.000000  1
  P  P30  1  0.638113  0.638113  0.000000  1
  P  P31  1  0.361887  0.000000  0.000000  1
  P  P32  1  0.000000  0.361887  0.000000  1
  Rh  Rh33  1  0.447616  0.447616  0.000000  1
  Rh  Rh34  1  0.552384  0.000000  0.000000  1
  Rh  Rh35  1  0.000000  0.552384  0.000000  1
