# generated using pymatgen
data_YbGd3Tc3B16Mo
_symmetry_space_group_name_H-M   'P 1'
_cell_length_a   5.99911122
_cell_length_b   11.62974189
_cell_length_c   3.61030300
_cell_angle_alpha   90.00000000
_cell_angle_beta   90.00000000
_cell_angle_gamma   89.99620555
_symmetry_Int_Tables_number   1
_chemical_formula_structural   YbGd3Tc3B16Mo
_chemical_formula_sum   'Yb1 Gd3 Tc3 B16 Mo1'
_cell_volume   251.88403454
_cell_formula_units_Z   1
loop_
 _symmetry_equiv_pos_site_id
 _symmetry_equiv_pos_as_xyz
  1  'x, y, z'
loop_
 _atom_site_type_symbol
 _atom_site_label
 _atom_site_symmetry_multiplicity
 _atom_site_fract_x
 _atom_site_fract_y
 _atom_site_fract_z
 _atom_site_occupancy
  Yb  Yb0  1  0.626030  0.348617  0.000000  1
  Gd  Gd1  1  0.372940  0.650487  0.000000  1
  Gd  Gd2  1  0.127354  0.150550  0.000000  1
  Gd  Gd3  1  0.873021  0.850931  0.000000  1
  Tc  Tc4  1  0.633140  0.086519  0.000000  1
  Tc  Tc5  1  0.367776  0.914495  0.000000  1
  Tc  Tc6  1  0.129336  0.415721  0.000000  1
  B  B7  1  0.783949  0.185294  0.500000  1
  B  B8  1  0.215960  0.815863  0.500000  1
  B  B9  1  0.285621  0.315085  0.500000  1
  B  B10  1  0.711932  0.686010  0.500000  1
  B  B11  1  0.863015  0.031966  0.500000  1
  B  B12  1  0.137024  0.968660  0.500000  1
  B  B13  1  0.364828  0.466414  0.500000  1
  B  B14  1  0.632836  0.531112  0.500000  1
  B  B15  1  0.886184  0.450913  0.500000  1
  B  B16  1  0.115463  0.545440  0.500000  1
  B  B17  1  0.387674  0.047433  0.500000  1
  B  B18  1  0.612624  0.953534  0.500000  1
  B  B19  1  0.977650  0.307312  0.500000  1
  B  B20  1  0.025084  0.693047  0.500000  1
  B  B21  1  0.476218  0.192186  0.500000  1
  B  B22  1  0.523408  0.809056  0.500000  1
  Mo  Mo23  1  0.870935  0.583353  0.000000  1
