# generated using pymatgen
data_Ca7MnNbCrN9
_symmetry_space_group_name_H-M   'P 1'
_cell_length_a   9.99390500
_cell_length_b   6.09614424
_cell_length_c   9.04013424
_cell_angle_alpha   87.58955614
_cell_angle_beta   90.00000000
_cell_angle_gamma   90.00000000
_symmetry_Int_Tables_number   1
_chemical_formula_structural   Ca7MnNbCrN9
_chemical_formula_sum   'Ca14 Mn2 Nb2 Cr2 N18'
_cell_volume   550.27640132
_cell_formula_units_Z   2
loop_
 _symmetry_equiv_pos_site_id
 _symmetry_equiv_pos_as_xyz
  1  'x, y, z'
loop_
 _atom_site_type_symbol
 _atom_site_label
 _atom_site_symmetry_multiplicity
 _atom_site_fract_x
 _atom_site_fract_y
 _atom_site_fract_z
 _atom_site_occupancy
  Ca  Ca0  1  0.933544  0.424654  0.163103  1
  Ca  Ca1  1  0.078389  0.245416  0.493835  1
  Ca  Ca2  1  0.250000  0.087479  0.804942  1
  Ca  Ca3  1  0.434337  0.566245  0.836024  1
  Ca  Ca4  1  0.582105  0.752422  0.507796  1
  Ca  Ca5  1  0.580919  0.070748  0.826479  1
  Ca  Ca6  1  0.919081  0.070748  0.826479  1
  Ca  Ca7  1  0.418431  0.938690  0.170270  1
  Ca  Ca8  1  0.421611  0.245416  0.493835  1
  Ca  Ca9  1  0.081569  0.938690  0.170270  1
  Ca  Ca10  1  0.917895  0.752422  0.507796  1
  Ca  Ca11  1  0.065663  0.566245  0.836024  1
  Ca  Ca12  1  0.750000  0.917214  0.202640  1
  Ca  Ca13  1  0.566456  0.424654  0.163103  1
  Mn  Mn14  1  0.250000  0.326751  0.065329  1
  Mn  Mn15  1  0.750000  0.462770  0.725974  1
  Nb  Nb16  1  0.750000  0.284728  0.445422  1
  Nb  Nb17  1  0.250000  0.722017  0.561568  1
  Cr  Cr18  1  0.750000  0.676327  0.933920  1
  Cr  Cr19  1  0.250000  0.539799  0.275446  1
  N  N20  1  0.406487  0.226740  0.977408  1
  N  N21  1  0.250000  0.235154  0.273125  1
  N  N22  1  0.902898  0.112631  0.340227  1
  N  N23  1  0.606746  0.359701  0.624552  1
  N  N24  1  0.750000  0.559394  0.334450  1
  N  N25  1  0.250000  0.642126  0.079250  1
  N  N26  1  0.893254  0.359701  0.624552  1
  N  N27  1  0.393309  0.631117  0.367159  1
  N  N28  1  0.750000  0.371273  0.933348  1
  N  N29  1  0.097940  0.881975  0.656390  1
  N  N30  1  0.750000  0.777401  0.736641  1
  N  N31  1  0.106691  0.631117  0.367159  1
  N  N32  1  0.599861  0.765860  0.017047  1
  N  N33  1  0.250000  0.445169  0.667364  1
  N  N34  1  0.402060  0.881975  0.656390  1
  N  N35  1  0.597102  0.112631  0.340227  1
  N  N36  1  0.093513  0.226740  0.977408  1
  N  N37  1  0.900139  0.765860  0.017047  1
