# generated using pymatgen
data_DyYHo2(MoN3)4
_symmetry_space_group_name_H-M   'P 1'
_cell_length_a   7.30624817
_cell_length_b   7.30624794
_cell_length_c   6.26347420
_cell_angle_alpha   73.69862710
_cell_angle_beta   73.69861320
_cell_angle_gamma   81.37252847
_symmetry_Int_Tables_number   1
_chemical_formula_structural   DyYHo2(MoN3)4
_chemical_formula_sum   'Dy1 Y1 Ho2 Mo4 N12'
_cell_volume   307.08768522
_cell_formula_units_Z   1
loop_
 _symmetry_equiv_pos_site_id
 _symmetry_equiv_pos_as_xyz
  1  'x, y, z'
loop_
 _atom_site_type_symbol
 _atom_site_label
 _atom_site_symmetry_multiplicity
 _atom_site_fract_x
 _atom_site_fract_y
 _atom_site_fract_z
 _atom_site_occupancy
  Dy  Dy0  1  0.704783  0.295217  0.250000  1
  Y  Y1  1  0.295680  0.704320  0.750000  1
  Ho  Ho2  1  0.913514  0.086486  0.750000  1
  Ho  Ho3  1  0.086868  0.913132  0.250000  1
  Mo  Mo4  1  0.800640  0.618299  0.768538  1
  Mo  Mo5  1  0.198983  0.381366  0.231821  1
  Mo  Mo6  1  0.618634  0.801017  0.268179  1
  Mo  Mo7  1  0.381701  0.199360  0.731462  1
  N  N8  1  0.219859  0.999587  0.847826  1
  N  N9  1  0.363025  0.351466  0.439010  1
  N  N10  1  0.636956  0.648608  0.560709  1
  N  N11  1  0.626004  0.110750  0.659403  1
  N  N12  1  0.000413  0.780141  0.652174  1
  N  N13  1  0.780713  0.000677  0.152004  1
  N  N14  1  0.109137  0.625406  0.160915  1
  N  N15  1  0.889250  0.373996  0.840597  1
  N  N16  1  0.999323  0.219287  0.347996  1
  N  N17  1  0.351392  0.363044  0.939291  1
  N  N18  1  0.648534  0.636975  0.060990  1
  N  N19  1  0.374594  0.890863  0.339085  1
