# generated using pymatgen
data_Y4ZnPdPt2
_symmetry_space_group_name_H-M   'P 1'
_cell_length_a   4.57347900
_cell_length_b   5.59092755
_cell_length_c   7.12752686
_cell_angle_alpha   89.86545768
_cell_angle_beta   90.00000000
_cell_angle_gamma   90.00000000
_symmetry_Int_Tables_number   1
_chemical_formula_structural   Y4ZnPdPt2
_chemical_formula_sum   'Y4 Zn1 Pd1 Pt2'
_cell_volume   182.25028614
_cell_formula_units_Z   1
loop_
 _symmetry_equiv_pos_site_id
 _symmetry_equiv_pos_as_xyz
  1  'x, y, z'
loop_
 _atom_site_type_symbol
 _atom_site_label
 _atom_site_symmetry_multiplicity
 _atom_site_fract_x
 _atom_site_fract_y
 _atom_site_fract_z
 _atom_site_occupancy
  Y  Y0  1  0.000000  0.642625  0.313173  1
  Y  Y1  1  0.000000  0.848748  0.820806  1
  Y  Y2  1  0.500000  0.371269  0.689172  1
  Y  Y3  1  0.500000  0.136768  0.175431  1
  Zn  Zn4  1  0.000000  0.136861  0.468059  1
  Pd  Pd5  1  0.000000  0.339920  0.958016  1
  Pt  Pt6  1  0.500000  0.873820  0.532182  1
  Pt  Pt7  1  0.500000  0.649989  0.043162  1
