# generated using pymatgen
data_SmY6TmC10
_symmetry_space_group_name_H-M   'P 1'
_cell_length_a   3.69748800
_cell_length_b   6.61971903
_cell_length_c   11.96282217
_cell_angle_alpha   89.76377618
_cell_angle_beta   90.00000000
_cell_angle_gamma   90.00000000
_symmetry_Int_Tables_number   1
_chemical_formula_structural   SmY6TmC10
_chemical_formula_sum   'Sm1 Y6 Tm1 C10'
_cell_volume   292.80351461
_cell_formula_units_Z   1
loop_
 _symmetry_equiv_pos_site_id
 _symmetry_equiv_pos_as_xyz
  1  'x, y, z'
loop_
 _atom_site_type_symbol
 _atom_site_label
 _atom_site_symmetry_multiplicity
 _atom_site_fract_x
 _atom_site_fract_y
 _atom_site_fract_z
 _atom_site_occupancy
  Sm  Sm0  1  0.000000  0.753957  0.456106  1
  Y  Y1  1  0.000000  0.747630  0.954562  1
  Y  Y2  1  0.000000  0.235427  0.041580  1
  Y  Y3  1  0.500000  0.108286  0.802674  1
  Y  Y4  1  0.500000  0.892838  0.194781  1
  Y  Y5  1  0.500000  0.604101  0.697760  1
  Y  Y6  1  0.500000  0.390627  0.304489  1
  Tm  Tm7  1  0.000000  0.266754  0.543527  1
  C  C8  1  0.500000  0.506312  0.502612  1
  C  C9  1  0.500000  0.985360  0.000532  1
  C  C10  1  0.000000  0.364247  0.735377  1
  C  C11  1  0.000000  0.642457  0.257827  1
  C  C12  1  0.000000  0.856016  0.760169  1
  C  C13  1  0.000000  0.133157  0.238733  1
  C  C14  1  0.000000  0.383446  0.846702  1
  C  C15  1  0.000000  0.570009  0.154480  1
  C  C16  1  0.000000  0.123872  0.350108  1
  C  C17  1  0.000000  0.935505  0.657983  1
