# generated using pymatgen
data_Tm4Ga7AsRh16
_symmetry_space_group_name_H-M   'P 1'
_cell_length_a   4.23537900
_cell_length_b   9.26121285
_cell_length_c   11.32109109
_cell_angle_alpha   89.95019713
_cell_angle_beta   90.00000000
_cell_angle_gamma   90.00000000
_symmetry_Int_Tables_number   1
_chemical_formula_structural   Tm4Ga7AsRh16
_chemical_formula_sum   'Tm4 Ga7 As1 Rh16'
_cell_volume   444.06675982
_cell_formula_units_Z   1
loop_
 _symmetry_equiv_pos_site_id
 _symmetry_equiv_pos_as_xyz
  1  'x, y, z'
loop_
 _atom_site_type_symbol
 _atom_site_label
 _atom_site_symmetry_multiplicity
 _atom_site_fract_x
 _atom_site_fract_y
 _atom_site_fract_z
 _atom_site_occupancy
  Tm  Tm0  1  0.250000  0.142658  0.829128  1
  Tm  Tm1  1  0.250000  0.355266  0.323241  1
  Tm  Tm2  1  0.750000  0.855497  0.173572  1
  Tm  Tm3  1  0.750000  0.647785  0.674041  1
  Ga  Ga4  1  0.250000  0.087190  0.135457  1
  Ga  Ga5  1  0.750000  0.587193  0.362986  1
  Ga  Ga6  1  0.750000  0.911765  0.865535  1
  Ga  Ga7  1  0.250000  0.611552  0.060960  1
  Ga  Ga8  1  0.250000  0.888121  0.560492  1
  Ga  Ga9  1  0.750000  0.387993  0.940320  1
  Ga  Ga10  1  0.750000  0.111537  0.438726  1
  As  As11  1  0.250000  0.413387  0.635768  1
  Rh  Rh12  1  0.250000  0.615928  0.501808  1
  Rh  Rh13  1  0.250000  0.877392  0.000989  1
  Rh  Rh14  1  0.750000  0.379237  0.498795  1
  Rh  Rh15  1  0.750000  0.121821  0.999295  1
  Rh  Rh16  1  0.250000  0.703924  0.273256  1
  Rh  Rh17  1  0.250000  0.798406  0.772377  1
  Rh  Rh18  1  0.750000  0.298399  0.728512  1
  Rh  Rh19  1  0.750000  0.203007  0.227281  1
  Rh  Rh20  1  0.250000  0.174711  0.563827  1
  Rh  Rh21  1  0.250000  0.332868  0.062528  1
  Rh  Rh22  1  0.750000  0.830547  0.438027  1
  Rh  Rh23  1  0.750000  0.665755  0.936624  1
  Rh  Rh24  1  0.250000  0.001943  0.343443  1
  Rh  Rh25  1  0.250000  0.496050  0.836385  1
  Rh  Rh26  1  0.750000  0.998758  0.658549  1
  Rh  Rh27  1  0.750000  0.501310  0.158079  1
