# generated using pymatgen
data_Er12Fe3CoSnPt
_symmetry_space_group_name_H-M   'P 1'
_cell_length_a   8.24426718
_cell_length_b   8.24426747
_cell_length_c   8.24426771
_cell_angle_alpha   110.97980856
_cell_angle_beta   110.59206780
_cell_angle_gamma   106.87286462
_symmetry_Int_Tables_number   1
_chemical_formula_structural   Er12Fe3CoSnPt
_chemical_formula_sum   'Er12 Fe3 Co1 Sn1 Pt1'
_cell_volume   430.68776831
_cell_formula_units_Z   1
loop_
 _symmetry_equiv_pos_site_id
 _symmetry_equiv_pos_as_xyz
  1  'x, y, z'
loop_
 _atom_site_type_symbol
 _atom_site_label
 _atom_site_symmetry_multiplicity
 _atom_site_fract_x
 _atom_site_fract_y
 _atom_site_fract_z
 _atom_site_occupancy
  Er  Er0  1  0.311979  0.616692  0.301431  1
  Er  Er1  1  0.684740  0.383309  0.695288  1
  Er  Er2  1  0.311979  0.010547  0.695288  1
  Er  Er3  1  0.684740  0.989453  0.301431  1
  Er  Er4  1  0.416182  0.215524  0.200659  1
  Er  Er5  1  0.583218  0.783626  0.799591  1
  Er  Er6  1  0.015965  0.216374  0.799591  1
  Er  Er7  1  0.985135  0.784476  0.200659  1
  Er  Er8  1  0.185472  0.288239  0.473710  1
  Er  Er9  1  0.813323  0.711004  0.524327  1
  Er  Er10  1  0.185472  0.711761  0.897233  1
  Er  Er11  1  0.813323  0.288996  0.102318  1
  Fe  Fe12  1  0.106621  0.608603  0.498018  1
  Fe  Fe13  1  0.889416  0.391398  0.498018  1
  Fe  Fe14  1  0.389389  0.000000  0.389389  1
  Co  Co15  1  0.624185  0.000000  0.624185  1
  Sn  Sn16  1  0.499441  0.500000  0.999441  1
  Pt  Pt17  1  0.999423  0.000000  0.999423  1
