# generated using pymatgen
data_Sr4CaTb(RuO6)2
_symmetry_space_group_name_H-M   'P 1'
_cell_length_a   5.81343906
_cell_length_b   5.89265736
_cell_length_c   8.26031762
_cell_angle_alpha   89.92290681
_cell_angle_beta   90.45794831
_cell_angle_gamma   89.98933626
_symmetry_Int_Tables_number   1
_chemical_formula_structural   Sr4CaTb(RuO6)2
_chemical_formula_sum   'Sr4 Ca1 Tb1 Ru2 O12'
_cell_volume   282.96113323
_cell_formula_units_Z   1
loop_
 _symmetry_equiv_pos_site_id
 _symmetry_equiv_pos_as_xyz
  1  'x, y, z'
loop_
 _atom_site_type_symbol
 _atom_site_label
 _atom_site_symmetry_multiplicity
 _atom_site_fract_x
 _atom_site_fract_y
 _atom_site_fract_z
 _atom_site_occupancy
  Sr  Sr0  1  0.009040  0.538977  0.245320  1
  Sr  Sr1  1  0.490528  0.042508  0.246864  1
  Sr  Sr2  1  0.509473  0.957492  0.753136  1
  Sr  Sr3  1  0.990960  0.461024  0.754681  1
  Ca  Ca4  1  0.500000  0.499999  0.999999  1
  Tb  Tb5  1  0.000000  0.000000  0.500000  1
  Ru  Ru6  1  0.000000  0.000000  0.000000  1
  Ru  Ru7  1  0.500000  0.499999  0.500000  1
  O  O8  1  0.266831  0.808232  0.040170  1
  O  O9  1  0.186948  0.268817  0.042464  1
  O  O10  1  0.921220  0.978553  0.233759  1
  O  O11  1  0.578017  0.478360  0.272382  1
  O  O12  1  0.307507  0.773455  0.456473  1
  O  O13  1  0.228464  0.303294  0.458595  1
  O  O14  1  0.771537  0.696706  0.541404  1
  O  O15  1  0.692493  0.226545  0.543527  1
  O  O16  1  0.421983  0.521639  0.727618  1
  O  O17  1  0.078780  0.021447  0.766241  1
  O  O18  1  0.813053  0.731183  0.957535  1
  O  O19  1  0.733169  0.191766  0.959830  1
