# generated using pymatgen
data_Er2CoSi2Ru
_symmetry_space_group_name_H-M   'P 1'
_cell_length_a   4.24644700
_cell_length_b   6.85585900
_cell_length_c   7.04600200
_cell_angle_alpha   90.00000000
_cell_angle_beta   90.00000000
_cell_angle_gamma   90.00000000
_symmetry_Int_Tables_number   1
_chemical_formula_structural   Er2CoSi2Ru
_chemical_formula_sum   'Er4 Co2 Si4 Ru2'
_cell_volume   205.13055133
_cell_formula_units_Z   2
loop_
 _symmetry_equiv_pos_site_id
 _symmetry_equiv_pos_as_xyz
  1  'x, y, z'
loop_
 _atom_site_type_symbol
 _atom_site_label
 _atom_site_symmetry_multiplicity
 _atom_site_fract_x
 _atom_site_fract_y
 _atom_site_fract_z
 _atom_site_occupancy
  Er  Er0  1  0.750000  0.518296  0.808668  1
  Er  Er1  1  0.750000  0.018296  0.691332  1
  Er  Er2  1  0.250000  0.491968  0.187497  1
  Er  Er3  1  0.250000  0.991968  0.312503  1
  Co  Co4  1  0.250000  0.646360  0.568973  1
  Co  Co5  1  0.250000  0.146360  0.931027  1
  Si  Si6  1  0.750000  0.198531  0.098616  1
  Si  Si7  1  0.750000  0.698531  0.401384  1
  Si  Si8  1  0.250000  0.804057  0.886913  1
  Si  Si9  1  0.250000  0.304057  0.613087  1
  Ru  Ru10  1  0.750000  0.340788  0.434750  1
  Ru  Ru11  1  0.750000  0.840788  0.065250  1
