# generated using pymatgen
data_Er4Mo2(OsRu)3
_symmetry_space_group_name_H-M   'P 1'
_cell_length_a   5.34021758
_cell_length_b   5.36290409
_cell_length_c   9.11896500
_cell_angle_alpha   90.00000000
_cell_angle_beta   90.00000000
_cell_angle_gamma   122.87955933
_symmetry_Int_Tables_number   1
_chemical_formula_structural   Er4Mo2(OsRu)3
_chemical_formula_sum   'Er4 Mo2 Os3 Ru3'
_cell_volume   219.32464271
_cell_formula_units_Z   1
loop_
 _symmetry_equiv_pos_site_id
 _symmetry_equiv_pos_as_xyz
  1  'x, y, z'
loop_
 _atom_site_type_symbol
 _atom_site_label
 _atom_site_symmetry_multiplicity
 _atom_site_fract_x
 _atom_site_fract_y
 _atom_site_fract_z
 _atom_site_occupancy
  Er  Er0  1  0.341812  0.669606  0.435383  1
  Er  Er1  1  0.668148  0.340299  0.564738  1
  Er  Er2  1  0.668148  0.340299  0.935262  1
  Er  Er3  1  0.341812  0.669606  0.064617  1
  Mo  Mo4  1  0.160220  0.324670  0.750000  1
  Mo  Mo5  1  0.324361  0.164717  0.250000  1
  Os  Os6  1  0.171974  0.824827  0.750000  1
  Os  Os7  1  0.824054  0.656247  0.250000  1
  Os  Os8  1  0.653793  0.824677  0.750000  1
  Ru  Ru9  1  0.011274  0.005314  0.000720  1
  Ru  Ru10  1  0.823129  0.174426  0.250000  1
  Ru  Ru11  1  0.011274  0.005314  0.499280  1
