# generated using pymatgen
data_Tm9Ge4B16Mo
_symmetry_space_group_name_H-M   'P 1'
_cell_length_a   7.13967100
_cell_length_b   7.13967100
_cell_length_c   7.76220900
_cell_angle_alpha   90.00000000
_cell_angle_beta   90.00000000
_cell_angle_gamma   90.00000000
_symmetry_Int_Tables_number   1
_chemical_formula_structural   Tm9Ge4B16Mo
_chemical_formula_sum   'Tm9 Ge4 B16 Mo1'
_cell_volume   395.67784299
_cell_formula_units_Z   1
loop_
 _symmetry_equiv_pos_site_id
 _symmetry_equiv_pos_as_xyz
  1  'x, y, z'
loop_
 _atom_site_type_symbol
 _atom_site_label
 _atom_site_symmetry_multiplicity
 _atom_site_fract_x
 _atom_site_fract_y
 _atom_site_fract_z
 _atom_site_occupancy
  Tm  Tm0  1  0.682552  0.178208  0.228162  1
  Tm  Tm1  1  0.317448  0.821792  0.771838  1
  Tm  Tm2  1  0.317448  0.821792  0.228162  1
  Tm  Tm3  1  0.821792  0.682552  0.228162  1
  Tm  Tm4  1  0.821792  0.682552  0.771838  1
  Tm  Tm5  1  0.682552  0.178208  0.771838  1
  Tm  Tm6  1  0.178208  0.317448  0.771838  1
  Tm  Tm7  1  0.178208  0.317448  0.228162  1
  Tm  Tm8  1  0.500000  0.500000  0.500000  1
  Ge  Ge9  1  0.115736  0.636527  0.500000  1
  Ge  Ge10  1  0.884264  0.363473  0.500000  1
  Ge  Ge11  1  0.363473  0.115736  0.500000  1
  Ge  Ge12  1  0.636527  0.884264  0.500000  1
  B  B13  1  0.172688  0.039523  0.000000  1
  B  B14  1  0.827312  0.960477  0.000000  1
  B  B15  1  0.960477  0.172688  0.000000  1
  B  B16  1  0.327421  0.539196  0.000000  1
  B  B17  1  0.039523  0.827312  0.000000  1
  B  B18  1  0.672579  0.460804  0.000000  1
  B  B19  1  0.539196  0.672579  0.000000  1
  B  B20  1  0.460804  0.327421  0.000000  1
  B  B21  1  0.090374  0.589799  0.000000  1
  B  B22  1  0.909626  0.410201  0.000000  1
  B  B23  1  0.410201  0.090374  0.000000  1
  B  B24  1  0.589799  0.909626  0.000000  1
  B  B25  1  0.000000  0.000000  0.174690  1
  B  B26  1  0.000000  0.000000  0.825310  1
  B  B27  1  0.500000  0.500000  0.831529  1
  B  B28  1  0.500000  0.500000  0.168471  1
  Mo  Mo29  1  0.000000  0.000000  0.500000  1
