# generated using pymatgen
data_Li2Zr6BCl15
_symmetry_space_group_name_H-M   'P 1'
_cell_length_a   8.96797703
_cell_length_b   8.96797750
_cell_length_c   8.96797746
_cell_angle_alpha   108.47056644
_cell_angle_beta   108.47056750
_cell_angle_gamma   111.49161491
_symmetry_Int_Tables_number   1
_chemical_formula_structural   Li2Zr6BCl15
_chemical_formula_sum   'Li2 Zr6 B1 Cl15'
_cell_volume   554.69572966
_cell_formula_units_Z   1
loop_
 _symmetry_equiv_pos_site_id
 _symmetry_equiv_pos_as_xyz
  1  'x, y, z'
loop_
 _atom_site_type_symbol
 _atom_site_label
 _atom_site_symmetry_multiplicity
 _atom_site_fract_x
 _atom_site_fract_y
 _atom_site_fract_z
 _atom_site_occupancy
  Li  Li0  1  0.250000  0.750000  0.500000  1
  Li  Li1  1  0.750000  0.250000  0.500000  1
  Zr  Zr2  1  0.768214  0.768214  0.000000  1
  Zr  Zr3  1  0.000000  0.219590  0.219590  1
  Zr  Zr4  1  0.219590  0.000000  0.219590  1
  Zr  Zr5  1  0.231786  0.231786  0.000000  1
  Zr  Zr6  1  0.000000  0.780410  0.780410  1
  Zr  Zr7  1  0.780410  0.000000  0.780410  1
  B  B8  1  0.000000  0.000000  0.000000  1
  Cl  Cl9  1  0.500000  0.500000  0.000000  1
  Cl  Cl10  1  0.000000  0.500000  0.500000  1
  Cl  Cl11  1  0.500000  0.000000  0.500000  1
  Cl  Cl12  1  0.242348  0.242348  0.484696  1
  Cl  Cl13  1  0.994479  0.748566  0.245913  1
  Cl  Cl14  1  0.748566  0.994479  0.245913  1
  Cl  Cl15  1  0.242348  0.757652  0.000000  1
  Cl  Cl16  1  0.497347  0.251434  0.245913  1
  Cl  Cl17  1  0.251434  0.005521  0.754087  1
  Cl  Cl18  1  0.757652  0.242348  0.000000  1
  Cl  Cl19  1  0.005521  0.251434  0.754087  1
  Cl  Cl20  1  0.251434  0.497347  0.245913  1
  Cl  Cl21  1  0.757652  0.757652  0.515304  1
  Cl  Cl22  1  0.502653  0.748566  0.754087  1
  Cl  Cl23  1  0.748566  0.502653  0.754087  1
