# generated using pymatgen
data_ErTiFe4P3
_symmetry_space_group_name_H-M   'P 1'
_cell_length_a   3.67663900
_cell_length_b   10.53794100
_cell_length_c   12.04625000
_cell_angle_alpha   90.00000000
_cell_angle_beta   90.00000000
_cell_angle_gamma   90.00000000
_symmetry_Int_Tables_number   1
_chemical_formula_structural   ErTiFe4P3
_chemical_formula_sum   'Er4 Ti4 Fe16 P12'
_cell_volume   466.72237780
_cell_formula_units_Z   4
loop_
 _symmetry_equiv_pos_site_id
 _symmetry_equiv_pos_as_xyz
  1  'x, y, z'
loop_
 _atom_site_type_symbol
 _atom_site_label
 _atom_site_symmetry_multiplicity
 _atom_site_fract_x
 _atom_site_fract_y
 _atom_site_fract_z
 _atom_site_occupancy
  Er  Er0  1  0.250000  0.581084  0.705542  1
  Er  Er1  1  0.250000  0.918916  0.205542  1
  Er  Er2  1  0.750000  0.418916  0.294458  1
  Er  Er3  1  0.750000  0.081084  0.794458  1
  Ti  Ti4  1  0.250000  0.699191  0.987749  1
  Ti  Ti5  1  0.250000  0.800809  0.487749  1
  Ti  Ti6  1  0.750000  0.300809  0.012251  1
  Ti  Ti7  1  0.750000  0.199191  0.512251  1
  Fe  Fe8  1  0.250000  0.406699  0.493860  1
  Fe  Fe9  1  0.250000  0.093302  0.993860  1
  Fe  Fe10  1  0.750000  0.593301  0.506140  1
  Fe  Fe11  1  0.750000  0.906699  0.006140  1
  Fe  Fe12  1  0.250000  0.217216  0.178771  1
  Fe  Fe13  1  0.250000  0.282784  0.678771  1
  Fe  Fe14  1  0.750000  0.782784  0.821229  1
  Fe  Fe15  1  0.750000  0.717216  0.321229  1
  Fe  Fe16  1  0.250000  0.872344  0.705704  1
  Fe  Fe17  1  0.250000  0.627656  0.205704  1
  Fe  Fe18  1  0.750000  0.127656  0.294296  1
  Fe  Fe19  1  0.750000  0.372344  0.794296  1
  Fe  Fe20  1  0.250000  0.460953  0.930996  1
  Fe  Fe21  1  0.250000  0.039047  0.430996  1
  Fe  Fe22  1  0.750000  0.539047  0.069004  1
  Fe  Fe23  1  0.750000  0.960953  0.569004  1
  P  P24  1  0.250000  0.430797  0.114846  1
  P  P25  1  0.250000  0.069203  0.614846  1
  P  P26  1  0.750000  0.569203  0.885154  1
  P  P27  1  0.750000  0.930797  0.385154  1
  P  P28  1  0.250000  0.262171  0.870139  1
  P  P29  1  0.250000  0.237829  0.370139  1
  P  P30  1  0.750000  0.737829  0.129861  1
  P  P31  1  0.750000  0.762171  0.629861  1
  P  P32  1  0.250000  0.588941  0.394023  1
  P  P33  1  0.250000  0.911059  0.894023  1
  P  P34  1  0.750000  0.411059  0.605977  1
  P  P35  1  0.750000  0.088941  0.105977  1
