# generated using pymatgen
data_Tb16Cd4Ni3Ru
_symmetry_space_group_name_H-M   'P 1'
_cell_length_a   9.59983474
_cell_length_b   9.59983514
_cell_length_c   9.59983549
_cell_angle_alpha   59.67691410
_cell_angle_beta   59.67691283
_cell_angle_gamma   59.67691550
_symmetry_Int_Tables_number   1
_chemical_formula_structural   Tb16Cd4Ni3Ru
_chemical_formula_sum   'Tb16 Cd4 Ni3 Ru1'
_cell_volume   620.97896404
_cell_formula_units_Z   1
loop_
 _symmetry_equiv_pos_site_id
 _symmetry_equiv_pos_as_xyz
  1  'x, y, z'
loop_
 _atom_site_type_symbol
 _atom_site_label
 _atom_site_symmetry_multiplicity
 _atom_site_fract_x
 _atom_site_fract_y
 _atom_site_fract_z
 _atom_site_occupancy
  Tb  Tb0  1  0.347863  0.347863  0.347863  1
  Tb  Tb1  1  0.350561  0.350561  0.953974  1
  Tb  Tb2  1  0.350561  0.953974  0.350561  1
  Tb  Tb3  1  0.953974  0.350561  0.350561  1
  Tb  Tb4  1  0.810157  0.188570  0.188570  1
  Tb  Tb5  1  0.187128  0.810756  0.810756  1
  Tb  Tb6  1  0.188570  0.810157  0.188570  1
  Tb  Tb7  1  0.810756  0.187128  0.810756  1
  Tb  Tb8  1  0.188570  0.188570  0.810157  1
  Tb  Tb9  1  0.810756  0.810756  0.187128  1
  Tb  Tb10  1  0.936078  0.565841  0.565841  1
  Tb  Tb11  1  0.559142  0.937587  0.937587  1
  Tb  Tb12  1  0.565841  0.936078  0.565841  1
  Tb  Tb13  1  0.937587  0.559142  0.937587  1
  Tb  Tb14  1  0.565841  0.565841  0.936078  1
  Tb  Tb15  1  0.937587  0.937587  0.559142  1
  Cd  Cd16  1  0.580054  0.580054  0.580054  1
  Cd  Cd17  1  0.580055  0.580055  0.256093  1
  Cd  Cd18  1  0.580055  0.256093  0.580055  1
  Cd  Cd19  1  0.256093  0.580055  0.580055  1
  Ni  Ni20  1  0.142608  0.142608  0.574640  1
  Ni  Ni21  1  0.142608  0.574640  0.142608  1
  Ni  Ni22  1  0.574640  0.142608  0.142608  1
  Ru  Ru23  1  0.142912  0.142912  0.142912  1
