# generated using pymatgen
data_Sc5Mo3(P3Ir4)4
_symmetry_space_group_name_H-M   'P 1'
_cell_length_a   12.59096500
_cell_length_b   12.59096428
_cell_length_c   3.93147000
_cell_angle_alpha   90.00000000
_cell_angle_beta   90.00000000
_cell_angle_gamma   119.99999928
_symmetry_Int_Tables_number   1
_chemical_formula_structural   Sc5Mo3(P3Ir4)4
_chemical_formula_sum   'Sc5 Mo3 P12 Ir16'
_cell_volume   539.76361934
_cell_formula_units_Z   1
loop_
 _symmetry_equiv_pos_site_id
 _symmetry_equiv_pos_as_xyz
  1  'x, y, z'
loop_
 _atom_site_type_symbol
 _atom_site_label
 _atom_site_symmetry_multiplicity
 _atom_site_fract_x
 _atom_site_fract_y
 _atom_site_fract_z
 _atom_site_occupancy
  Sc  Sc0  1  0.333333  0.666667  0.000000  1
  Sc  Sc1  1  0.666667  0.333333  0.000000  1
  Sc  Sc2  1  0.812903  0.000000  0.500000  1
  Sc  Sc3  1  0.000000  0.812903  0.500000  1
  Sc  Sc4  1  0.187097  0.187097  0.500000  1
  Mo  Mo5  1  0.453310  0.000000  0.000000  1
  Mo  Mo6  1  0.000000  0.453310  0.000000  1
  Mo  Mo7  1  0.546690  0.546690  0.000000  1
  P  P8  1  0.174977  0.000000  0.000000  1
  P  P9  1  0.000000  0.174977  0.000000  1
  P  P10  1  0.825023  0.825023  0.000000  1
  P  P11  1  0.168929  0.484380  0.500000  1
  P  P12  1  0.515620  0.684547  0.500000  1
  P  P13  1  0.315453  0.831071  0.500000  1
  P  P14  1  0.684547  0.515620  0.500000  1
  P  P15  1  0.831071  0.315453  0.500000  1
  P  P16  1  0.484380  0.168929  0.500000  1
  P  P17  1  0.640585  0.000000  0.000000  1
  P  P18  1  0.000000  0.640585  0.000000  1
  P  P19  1  0.359415  0.359415  0.000000  1
  Ir  Ir20  1  0.357076  0.492445  0.500000  1
  Ir  Ir21  1  0.507555  0.864631  0.500000  1
  Ir  Ir22  1  0.135369  0.642924  0.500000  1
  Ir  Ir23  1  0.864631  0.507555  0.500000  1
  Ir  Ir24  1  0.642924  0.135369  0.500000  1
  Ir  Ir25  1  0.492445  0.357076  0.500000  1
  Ir  Ir26  1  0.179326  0.371280  0.000000  1
  Ir  Ir27  1  0.628720  0.808047  0.000000  1
  Ir  Ir28  1  0.191953  0.820674  0.000000  1
  Ir  Ir29  1  0.808047  0.628720  0.000000  1
  Ir  Ir30  1  0.820674  0.191953  0.000000  1
  Ir  Ir31  1  0.371280  0.179326  0.000000  1
  Ir  Ir32  1  0.284106  0.000000  0.500000  1
  Ir  Ir33  1  0.000000  0.284106  0.500000  1
  Ir  Ir34  1  0.715894  0.715894  0.500000  1
  Ir  Ir35  1  0.000000  0.000000  0.000000  1
