# generated using pymatgen
data_Y6MnB14Ru
_symmetry_space_group_name_H-M   'P 1'
_cell_length_a   8.06226798
_cell_length_b   8.06226795
_cell_length_c   9.32930500
_cell_angle_alpha   90.00000000
_cell_angle_beta   90.00000000
_cell_angle_gamma   155.01461560
_symmetry_Int_Tables_number   1
_chemical_formula_structural   Y6MnB14Ru
_chemical_formula_sum   'Y6 Mn1 B14 Ru1'
_cell_volume   256.13819901
_cell_formula_units_Z   1
loop_
 _symmetry_equiv_pos_site_id
 _symmetry_equiv_pos_as_xyz
  1  'x, y, z'
loop_
 _atom_site_type_symbol
 _atom_site_label
 _atom_site_symmetry_multiplicity
 _atom_site_fract_x
 _atom_site_fract_y
 _atom_site_fract_z
 _atom_site_occupancy
  Y  Y0  1  0.894779  0.105221  0.442168  1
  Y  Y1  1  0.104685  0.895315  0.563524  1
  Y  Y2  1  0.894779  0.105221  0.057832  1
  Y  Y3  1  0.104685  0.895315  0.936476  1
  Y  Y4  1  0.243775  0.756225  0.250000  1
  Y  Y5  1  0.759202  0.240798  0.750000  1
  Mn  Mn6  1  0.946797  0.053203  0.750000  1
  B  B7  1  0.727020  0.272980  0.466409  1
  B  B8  1  0.272380  0.727620  0.533832  1
  B  B9  1  0.727020  0.272980  0.033591  1
  B  B10  1  0.272380  0.727620  0.966168  1
  B  B11  1  0.631478  0.368522  0.150671  1
  B  B12  1  0.370164  0.629836  0.846334  1
  B  B13  1  0.631478  0.368522  0.349329  1
  B  B14  1  0.370164  0.629836  0.653666  1
  B  B15  1  0.520533  0.479467  0.096002  1
  B  B16  1  0.478353  0.521647  0.901440  1
  B  B17  1  0.520533  0.479467  0.403998  1
  B  B18  1  0.478353  0.521647  0.598560  1
  B  B19  1  0.457489  0.542511  0.250000  1
  B  B20  1  0.539877  0.460123  0.750000  1
  Ru  Ru21  1  0.054076  0.945924  0.250000  1
