# generated using pymatgen
data_Ho5BSe4
_symmetry_space_group_name_H-M   'P 1'
_cell_length_a   6.96511064
_cell_length_b   6.96511139
_cell_length_c   6.96511120
_cell_angle_alpha   99.50629009
_cell_angle_beta   99.50627691
_cell_angle_gamma   132.04302092
_symmetry_Int_Tables_number   1
_chemical_formula_structural   Ho5BSe4
_chemical_formula_sum   'Ho5 B1 Se4'
_cell_volume   229.28016898
_cell_formula_units_Z   1
loop_
 _symmetry_equiv_pos_site_id
 _symmetry_equiv_pos_as_xyz
  1  'x, y, z'
loop_
 _atom_site_type_symbol
 _atom_site_label
 _atom_site_symmetry_multiplicity
 _atom_site_fract_x
 _atom_site_fract_y
 _atom_site_fract_z
 _atom_site_occupancy
  Ho  Ho0  1  0.409389  0.768922  0.178311  1
  Ho  Ho1  1  0.000000  0.000000  0.000000  1
  Ho  Ho2  1  0.590611  0.231078  0.821689  1
  Ho  Ho3  1  0.231078  0.409389  0.640465  1
  Ho  Ho4  1  0.768922  0.590611  0.359535  1
  B  B5  1  0.500000  0.500000  0.000000  1
  Se  Se6  1  0.093416  0.695437  0.788852  1
  Se  Se7  1  0.695437  0.906584  0.602019  1
  Se  Se8  1  0.304563  0.093416  0.397981  1
  Se  Se9  1  0.906584  0.304563  0.211148  1
