# generated using pymatgen
data_YHo7Cd2RuPt
_symmetry_space_group_name_H-M   'P 1'
_cell_length_a   9.61356751
_cell_length_b   9.61356832
_cell_length_c   9.65590400
_cell_angle_alpha   59.85421813
_cell_angle_beta   59.85421531
_cell_angle_gamma   59.71013676
_symmetry_Int_Tables_number   1
_chemical_formula_structural   YHo7Cd2RuPt
_chemical_formula_sum   'Y2 Ho14 Cd4 Ru2 Pt2'
_cell_volume   628.24698415
_cell_formula_units_Z   2
loop_
 _symmetry_equiv_pos_site_id
 _symmetry_equiv_pos_as_xyz
  1  'x, y, z'
loop_
 _atom_site_type_symbol
 _atom_site_label
 _atom_site_symmetry_multiplicity
 _atom_site_fract_x
 _atom_site_fract_y
 _atom_site_fract_z
 _atom_site_occupancy
  Y  Y0  1  0.563610  0.563610  0.936390  1
  Y  Y1  1  0.937852  0.937852  0.562148  1
  Ho  Ho2  1  0.349326  0.349326  0.352536  1
  Ho  Ho3  1  0.349326  0.349326  0.948812  1
  Ho  Ho4  1  0.346968  0.954035  0.349499  1
  Ho  Ho5  1  0.954035  0.346968  0.349499  1
  Ho  Ho6  1  0.815117  0.188170  0.190288  1
  Ho  Ho7  1  0.188170  0.815117  0.806425  1
  Ho  Ho8  1  0.188170  0.815117  0.190288  1
  Ho  Ho9  1  0.815117  0.188170  0.806425  1
  Ho  Ho10  1  0.187966  0.187966  0.812034  1
  Ho  Ho11  1  0.808380  0.808380  0.191620  1
  Ho  Ho12  1  0.937389  0.559220  0.566223  1
  Ho  Ho13  1  0.559220  0.937389  0.937168  1
  Ho  Ho14  1  0.559220  0.937389  0.566223  1
  Ho  Ho15  1  0.937389  0.559220  0.937168  1
  Cd  Cd16  1  0.579963  0.579963  0.581389  1
  Cd  Cd17  1  0.579963  0.579963  0.258684  1
  Cd  Cd18  1  0.580832  0.255543  0.581813  1
  Cd  Cd19  1  0.255543  0.580832  0.581813  1
  Ru  Ru20  1  0.144018  0.144018  0.138032  1
  Ru  Ru21  1  0.144018  0.144018  0.573932  1
  Pt  Pt22  1  0.144387  0.574023  0.140796  1
  Pt  Pt23  1  0.574023  0.144387  0.140796  1
