# generated using pymatgen
data_LiCd5
_symmetry_space_group_name_H-M   'P 1'
_cell_length_a   5.37145200
_cell_length_b   5.37145230
_cell_length_c   5.13007300
_cell_angle_alpha   90.00000000
_cell_angle_beta   90.00000000
_cell_angle_gamma   60.00015680
_symmetry_Int_Tables_number   1
_chemical_formula_structural   LiCd5
_chemical_formula_sum   'Li1 Cd5'
_cell_volume   128.18531822
_cell_formula_units_Z   1
loop_
 _symmetry_equiv_pos_site_id
 _symmetry_equiv_pos_as_xyz
  1  'x, y, z'
loop_
 _atom_site_type_symbol
 _atom_site_label
 _atom_site_symmetry_multiplicity
 _atom_site_fract_x
 _atom_site_fract_y
 _atom_site_fract_z
 _atom_site_occupancy
  Li  Li0  1  0.999998  0.000002  0.000000  1
  Cd  Cd1  1  0.333333  0.333335  0.000000  1
  Cd  Cd2  1  0.666665  0.666667  0.000000  1
  Cd  Cd3  1  0.668720  0.999999  0.500000  1
  Cd  Cd4  1  0.000001  0.331279  0.500000  1
  Cd  Cd5  1  0.331279  0.668721  0.500000  1
