# generated using pymatgen
data_TmPa3(ZnRh)4
_symmetry_space_group_name_H-M   'P 1'
_cell_length_a   3.92087800
_cell_length_b   6.98870508
_cell_length_c   8.30696531
_cell_angle_alpha   90.17288377
_cell_angle_beta   90.00000000
_cell_angle_gamma   90.00000000
_symmetry_Int_Tables_number   1
_chemical_formula_structural   TmPa3(ZnRh)4
_chemical_formula_sum   'Tm1 Pa3 Zn4 Rh4'
_cell_volume   227.62526406
_cell_formula_units_Z   1
loop_
 _symmetry_equiv_pos_site_id
 _symmetry_equiv_pos_as_xyz
  1  'x, y, z'
loop_
 _atom_site_type_symbol
 _atom_site_label
 _atom_site_symmetry_multiplicity
 _atom_site_fract_x
 _atom_site_fract_y
 _atom_site_fract_z
 _atom_site_occupancy
  Tm  Tm0  1  0.250000  0.056798  0.311224  1
  Pa  Pa1  1  0.250000  0.558510  0.189401  1
  Pa  Pa2  1  0.750000  0.449318  0.817037  1
  Pa  Pa3  1  0.750000  0.949400  0.679976  1
  Zn  Zn4  1  0.250000  0.617968  0.557543  1
  Zn  Zn5  1  0.750000  0.363133  0.441898  1
  Zn  Zn6  1  0.750000  0.886778  0.060404  1
  Zn  Zn7  1  0.250000  0.119694  0.946435  1
  Rh  Rh8  1  0.250000  0.731264  0.866263  1
  Rh  Rh9  1  0.750000  0.285384  0.120363  1
  Rh  Rh10  1  0.750000  0.751749  0.367614  1
  Rh  Rh11  1  0.250000  0.230003  0.641843  1
