# generated using pymatgen
data_DyTi2AlAu3
_symmetry_space_group_name_H-M   'P 1'
_cell_length_a   5.66819710
_cell_length_b   5.66819732
_cell_length_c   5.64521034
_cell_angle_alpha   101.53438546
_cell_angle_beta   101.53438443
_cell_angle_gamma   126.99246529
_symmetry_Int_Tables_number   1
_chemical_formula_structural   DyTi2AlAu3
_chemical_formula_sum   'Dy1 Ti2 Al1 Au3'
_cell_volume   129.50826858
_cell_formula_units_Z   1
loop_
 _symmetry_equiv_pos_site_id
 _symmetry_equiv_pos_as_xyz
  1  'x, y, z'
loop_
 _atom_site_type_symbol
 _atom_site_label
 _atom_site_symmetry_multiplicity
 _atom_site_fract_x
 _atom_site_fract_y
 _atom_site_fract_z
 _atom_site_occupancy
  Dy  Dy0  1  0.004281  0.995719  0.000000  1
  Ti  Ti1  1  0.246306  0.753694  0.500000  1
  Ti  Ti2  1  0.746306  0.253694  0.500000  1
  Al  Al3  1  0.306858  0.693142  0.000000  1
  Au  Au4  1  0.309430  0.321272  0.630703  1
  Au  Au5  1  0.678728  0.690570  0.369297  1
  Au  Au6  1  0.708093  0.291907  0.000000  1
