# generated using pymatgen
data_CeGdHo4Ta2O14
_symmetry_space_group_name_H-M   'P 1'
_cell_length_a   6.48902866
_cell_length_b   6.48902822
_cell_length_c   7.52740390
_cell_angle_alpha   89.95498510
_cell_angle_beta   90.04501245
_cell_angle_gamma   108.69096367
_symmetry_Int_Tables_number   1
_chemical_formula_structural   CeGdHo4Ta2O14
_chemical_formula_sum   'Ce1 Gd1 Ho4 Ta2 O14'
_cell_volume   300.24373331
_cell_formula_units_Z   1
loop_
 _symmetry_equiv_pos_site_id
 _symmetry_equiv_pos_as_xyz
  1  'x, y, z'
loop_
 _atom_site_type_symbol
 _atom_site_label
 _atom_site_symmetry_multiplicity
 _atom_site_fract_x
 _atom_site_fract_y
 _atom_site_fract_z
 _atom_site_occupancy
  Ce  Ce0  1  0.513674  0.513674  0.500000  1
  Gd  Gd1  1  0.471345  0.471345  0.000000  1
  Ho  Ho2  1  0.000408  0.534838  0.241985  1
  Ho  Ho3  1  0.999031  0.465578  0.744169  1
  Ho  Ho4  1  0.534838  0.000408  0.758015  1
  Ho  Ho5  1  0.465578  0.999031  0.255831  1
  Ta  Ta6  1  0.000222  0.000222  0.500000  1
  Ta  Ta7  1  0.998143  0.998143  0.000000  1
  O  O8  1  0.932620  0.067882  0.749962  1
  O  O9  1  0.067882  0.932620  0.250038  1
  O  O10  1  0.357667  0.643006  0.246301  1
  O  O11  1  0.643006  0.357667  0.753699  1
  O  O12  1  0.366428  0.634110  0.753753  1
  O  O13  1  0.634110  0.366428  0.246247  1
  O  O14  1  0.326969  0.078353  0.974031  1
  O  O15  1  0.674763  0.926532  0.473255  1
  O  O16  1  0.313023  0.057996  0.542530  1
  O  O17  1  0.690151  0.947262  0.043055  1
  O  O18  1  0.057996  0.313023  0.457470  1
  O  O19  1  0.947262  0.690151  0.956945  1
  O  O20  1  0.926532  0.674763  0.526745  1
  O  O21  1  0.078353  0.326969  0.025969  1
