# generated using pymatgen
data_Tb5Sc3Pt4
_symmetry_space_group_name_H-M   'P 1'
_cell_length_a   4.68500700
_cell_length_b   7.04486517
_cell_length_c   8.51545860
_cell_angle_alpha   89.91026277
_cell_angle_beta   90.00000000
_cell_angle_gamma   90.00000000
_symmetry_Int_Tables_number   1
_chemical_formula_structural   Tb5Sc3Pt4
_chemical_formula_sum   'Tb5 Sc3 Pt4'
_cell_volume   281.05443250
_cell_formula_units_Z   1
loop_
 _symmetry_equiv_pos_site_id
 _symmetry_equiv_pos_as_xyz
  1  'x, y, z'
loop_
 _atom_site_type_symbol
 _atom_site_label
 _atom_site_symmetry_multiplicity
 _atom_site_fract_x
 _atom_site_fract_y
 _atom_site_fract_z
 _atom_site_occupancy
  Tb  Tb0  1  0.250000  0.993260  0.323897  1
  Tb  Tb1  1  0.750000  0.018608  0.681324  1
  Tb  Tb2  1  0.250000  0.481336  0.169194  1
  Tb  Tb3  1  0.750000  0.512984  0.825199  1
  Tb  Tb4  1  0.750000  0.644237  0.422617  1
  Sc  Sc5  1  0.250000  0.354726  0.577260  1
  Sc  Sc6  1  0.750000  0.140073  0.073950  1
  Sc  Sc7  1  0.250000  0.860487  0.927056  1
  Pt  Pt8  1  0.250000  0.243183  0.903526  1
  Pt  Pt9  1  0.750000  0.756046  0.086385  1
  Pt  Pt10  1  0.250000  0.750268  0.604444  1
  Pt  Pt11  1  0.750000  0.244793  0.405146  1
