# generated using pymatgen
data_Pu3NpPa6O20
_symmetry_space_group_name_H-M   'P 1'
_cell_length_a   10.14893303
_cell_length_b   10.14893456
_cell_length_c   6.61445200
_cell_angle_alpha   83.72489590
_cell_angle_beta   83.72488927
_cell_angle_gamma   141.63505430
_symmetry_Int_Tables_number   1
_chemical_formula_structural   Pu3NpPa6O20
_chemical_formula_sum   'Pu3 Np1 Pa6 O20'
_cell_volume   398.77557101
_cell_formula_units_Z   1
loop_
 _symmetry_equiv_pos_site_id
 _symmetry_equiv_pos_as_xyz
  1  'x, y, z'
loop_
 _atom_site_type_symbol
 _atom_site_label
 _atom_site_symmetry_multiplicity
 _atom_site_fract_x
 _atom_site_fract_y
 _atom_site_fract_z
 _atom_site_occupancy
  Pu  Pu0  1  0.500000  0.500000  0.000000  1
  Pu  Pu1  1  0.200225  0.799775  0.500000  1
  Pu  Pu2  1  0.799775  0.200225  0.500000  1
  Np  Np3  1  0.000000  0.000000  0.500000  1
  Pa  Pa4  1  0.901145  0.098855  0.000000  1
  Pa  Pa5  1  0.400449  0.599551  0.500000  1
  Pa  Pa6  1  0.098855  0.901145  0.000000  1
  Pa  Pa7  1  0.699405  0.300595  0.000000  1
  Pa  Pa8  1  0.599551  0.400449  0.500000  1
  Pa  Pa9  1  0.300595  0.699405  0.000000  1
  O  O10  1  0.270099  0.472467  0.875527  1
  O  O11  1  0.880549  0.880549  0.878771  1
  O  O12  1  0.770545  0.970538  0.367979  1
  O  O13  1  0.029462  0.229455  0.632021  1
  O  O14  1  0.472467  0.270099  0.875527  1
  O  O15  1  0.377341  0.377341  0.381777  1
  O  O16  1  0.622659  0.622659  0.618223  1
  O  O17  1  0.069796  0.670445  0.887748  1
  O  O18  1  0.527533  0.729901  0.124473  1
  O  O19  1  0.970538  0.770545  0.367979  1
  O  O20  1  0.229455  0.029462  0.632021  1
  O  O21  1  0.670445  0.069796  0.887748  1
  O  O22  1  0.119451  0.119451  0.121229  1
  O  O23  1  0.579016  0.184955  0.364586  1
  O  O24  1  0.815045  0.420984  0.635414  1
  O  O25  1  0.420984  0.815045  0.635414  1
  O  O26  1  0.729901  0.527533  0.124473  1
  O  O27  1  0.184955  0.579016  0.364586  1
  O  O28  1  0.329555  0.930204  0.112252  1
  O  O29  1  0.930204  0.329555  0.112252  1
