# generated using pymatgen
data_LiLa2Ni2As2P2Pd
_symmetry_space_group_name_H-M   'P 1'
_cell_length_a   4.21198100
_cell_length_b   4.21198100
_cell_length_c   9.95549600
_cell_angle_alpha   90.00000000
_cell_angle_beta   90.00000000
_cell_angle_gamma   90.00000000
_symmetry_Int_Tables_number   1
_chemical_formula_structural   LiLa2Ni2As2P2Pd
_chemical_formula_sum   'Li1 La2 Ni2 As2 P2 Pd1'
_cell_volume   176.61830359
_cell_formula_units_Z   1
loop_
 _symmetry_equiv_pos_site_id
 _symmetry_equiv_pos_as_xyz
  1  'x, y, z'
loop_
 _atom_site_type_symbol
 _atom_site_label
 _atom_site_symmetry_multiplicity
 _atom_site_fract_x
 _atom_site_fract_y
 _atom_site_fract_z
 _atom_site_occupancy
  Li  Li0  1  0.500000  0.500000  0.500000  1
  La  La1  1  0.000000  0.500000  0.769353  1
  La  La2  1  0.500000  0.000000  0.230647  1
  Ni  Ni3  1  0.000000  0.500000  0.095344  1
  Ni  Ni4  1  0.500000  0.000000  0.904656  1
  As  As5  1  0.000000  0.500000  0.345054  1
  As  As6  1  0.500000  0.000000  0.654946  1
  P  P7  1  0.000000  0.000000  0.000000  1
  P  P8  1  0.500000  0.500000  0.000000  1
  Pd  Pd9  1  0.000000  0.000000  0.500000  1
