# generated using pymatgen
data_Tb5Th3(Sc3Ga4)4
_symmetry_space_group_name_H-M   'P 1'
_cell_length_a   7.34171694
_cell_length_b   7.61771531
_cell_length_c   14.50868709
_cell_angle_alpha   89.97325270
_cell_angle_beta   90.14497472
_cell_angle_gamma   89.98090428
_symmetry_Int_Tables_number   1
_chemical_formula_structural   Tb5Th3(Sc3Ga4)4
_chemical_formula_sum   'Tb5 Th3 Sc12 Ga16'
_cell_volume   811.42620073
_cell_formula_units_Z   1
loop_
 _symmetry_equiv_pos_site_id
 _symmetry_equiv_pos_as_xyz
  1  'x, y, z'
loop_
 _atom_site_type_symbol
 _atom_site_label
 _atom_site_symmetry_multiplicity
 _atom_site_fract_x
 _atom_site_fract_y
 _atom_site_fract_z
 _atom_site_occupancy
  Tb  Tb0  1  0.988051  0.822412  0.594288  1
  Tb  Tb1  1  0.509544  0.322079  0.096951  1
  Tb  Tb2  1  0.012056  0.178416  0.404856  1
  Tb  Tb3  1  0.511963  0.320986  0.405759  1
  Tb  Tb4  1  0.488203  0.678237  0.593953  1
  Th  Th5  1  0.009943  0.177700  0.096727  1
  Th  Th6  1  0.987205  0.823263  0.905077  1
  Th  Th7  1  0.488586  0.676844  0.904516  1
  Sc  Sc8  1  0.163683  0.499305  0.747054  1
  Sc  Sc9  1  0.835950  0.498601  0.251752  1
  Sc  Sc10  1  0.337206  0.002796  0.251909  1
  Sc  Sc11  1  0.663300  0.000463  0.747258  1
  Sc  Sc12  1  0.329227  0.172565  0.622033  1
  Sc  Sc13  1  0.670933  0.827552  0.376667  1
  Sc  Sc14  1  0.171662  0.672067  0.376478  1
  Sc  Sc15  1  0.670486  0.828284  0.125613  1
  Sc  Sc16  1  0.828702  0.327233  0.621954  1
  Sc  Sc17  1  0.329708  0.171863  0.875423  1
  Sc  Sc18  1  0.831076  0.327042  0.875099  1
  Sc  Sc19  1  0.172032  0.671832  0.125496  1
  Ga  Ga20  1  0.031736  0.120025  0.748867  1
  Ga  Ga21  1  0.968737  0.880679  0.250749  1
  Ga  Ga22  1  0.468245  0.618854  0.249566  1
  Ga  Ga23  1  0.531770  0.379514  0.749615  1
  Ga  Ga24  1  0.286442  0.875203  0.748896  1
  Ga  Ga25  1  0.712726  0.125578  0.250802  1
  Ga  Ga26  1  0.216946  0.374411  0.250287  1
  Ga  Ga27  1  0.786164  0.624505  0.749016  1
  Ga  Ga28  1  0.160424  0.465421  0.540735  1
  Ga  Ga29  1  0.840026  0.534321  0.459521  1
  Ga  Ga30  1  0.339592  0.964289  0.459409  1
  Ga  Ga31  1  0.836672  0.536231  0.041278  1
  Ga  Ga32  1  0.660566  0.034253  0.540772  1
  Ga  Ga33  1  0.160487  0.460970  0.959990  1
  Ga  Ga34  1  0.657706  0.041493  0.960493  1
  Ga  Ga35  1  0.342244  0.964710  0.041140  1
