# generated using pymatgen
data_Hf6VTc5P6
_symmetry_space_group_name_H-M   'P 1'
_cell_length_a   7.60590848
_cell_length_b   7.59622396
_cell_length_c   7.59508097
_cell_angle_alpha   127.10283715
_cell_angle_beta   125.94918361
_cell_angle_gamma   79.00801676
_symmetry_Int_Tables_number   1
_chemical_formula_structural   Hf6VTc5P6
_chemical_formula_sum   'Hf6 V1 Tc5 P6'
_cell_volume   274.08898281
_cell_formula_units_Z   1
loop_
 _symmetry_equiv_pos_site_id
 _symmetry_equiv_pos_as_xyz
  1  'x, y, z'
loop_
 _atom_site_type_symbol
 _atom_site_label
 _atom_site_symmetry_multiplicity
 _atom_site_fract_x
 _atom_site_fract_y
 _atom_site_fract_z
 _atom_site_occupancy
  Hf  Hf0  1  0.455140  0.659069  0.707636  1
  Hf  Hf1  1  0.547437  0.251536  0.206402  1
  Hf  Hf2  1  0.750253  0.848451  0.597988  1
  Hf  Hf3  1  0.250627  0.848360  0.097529  1
  Hf  Hf4  1  0.045069  0.254357  0.705160  1
  Hf  Hf5  1  0.950396  0.657122  0.202011  1
  V  V6  1  0.625865  0.253259  0.630452  1
  Tc  Tc7  1  0.499514  0.503260  0.006179  1
  Tc  Tc8  1  0.999789  0.500103  0.498983  1
  Tc  Tc9  1  0.124803  0.252806  0.128467  1
  Tc  Tc10  1  0.880196  0.007631  0.132279  1
  Tc  Tc11  1  0.371495  0.003708  0.627479  1
  P  P12  1  0.257287  0.255425  0.506798  1
  P  P13  1  0.747772  0.251473  0.997449  1
  P  P14  1  0.332735  0.587014  0.254140  1
  P  P15  1  0.665843  0.923926  0.258450  1
  P  P16  1  0.165769  0.919249  0.751437  1
  P  P17  1  0.830010  0.582851  0.750762  1
