# generated using pymatgen
data_ReRuOF10
_symmetry_space_group_name_H-M   'P 1'
_cell_length_a   6.72393800
_cell_length_b   8.14344185
_cell_length_c   8.15671486
_cell_angle_alpha   85.64012743
_cell_angle_beta   90.00000000
_cell_angle_gamma   90.00000000
_symmetry_Int_Tables_number   1
_chemical_formula_structural   ReRuOF10
_chemical_formula_sum   'Re2 Ru2 O2 F20'
_cell_volume   445.33662512
_cell_formula_units_Z   2
loop_
 _symmetry_equiv_pos_site_id
 _symmetry_equiv_pos_as_xyz
  1  'x, y, z'
loop_
 _atom_site_type_symbol
 _atom_site_label
 _atom_site_symmetry_multiplicity
 _atom_site_fract_x
 _atom_site_fract_y
 _atom_site_fract_z
 _atom_site_occupancy
  Re  Re0  1  0.010667  0.807400  0.191390  1
  Re  Re1  1  0.010667  0.192600  0.808610  1
  Ru  Ru2  1  0.513708  0.331188  0.327741  1
  Ru  Ru3  1  0.513708  0.668812  0.672259  1
  O  O4  1  0.022979  0.344737  0.657127  1
  O  O5  1  0.022979  0.655263  0.342873  1
  F  F6  1  0.288800  0.769340  0.569575  1
  F  F7  1  0.001226  0.014833  0.681334  1
  F  F8  1  0.994834  0.000000  0.000000  1
  F  F9  1  0.347037  0.473652  0.196848  1
  F  F10  1  0.017570  0.318697  0.987255  1
  F  F11  1  0.280110  0.154840  0.836698  1
  F  F12  1  0.504642  0.500000  0.500000  1
  F  F13  1  0.737622  0.819805  0.169609  1
  F  F14  1  0.001226  0.985167  0.318666  1
  F  F15  1  0.519674  0.177776  0.170985  1
  F  F16  1  0.738600  0.558555  0.764745  1
  F  F17  1  0.280110  0.845160  0.163302  1
  F  F18  1  0.681070  0.201931  0.470948  1
  F  F19  1  0.017570  0.681303  0.012745  1
  F  F20  1  0.737622  0.180195  0.830391  1
  F  F21  1  0.519674  0.822224  0.829015  1
  F  F22  1  0.681070  0.798069  0.529052  1
  F  F23  1  0.347037  0.526348  0.803152  1
  F  F24  1  0.738600  0.441445  0.235255  1
  F  F25  1  0.288800  0.230660  0.430425  1
