# generated using pymatgen
data_Y20Bi7Te5
_symmetry_space_group_name_H-M   'P 1'
_cell_length_a   8.18604491
_cell_length_b   9.45640822
_cell_length_c   11.95421601
_cell_angle_alpha   89.96869341
_cell_angle_beta   89.96481631
_cell_angle_gamma   90.08965256
_symmetry_Int_Tables_number   1
_chemical_formula_structural   Y20Bi7Te5
_chemical_formula_sum   'Y20 Bi7 Te5'
_cell_volume   925.38137791
_cell_formula_units_Z   1
loop_
 _symmetry_equiv_pos_site_id
 _symmetry_equiv_pos_as_xyz
  1  'x, y, z'
loop_
 _atom_site_type_symbol
 _atom_site_label
 _atom_site_symmetry_multiplicity
 _atom_site_fract_x
 _atom_site_fract_y
 _atom_site_fract_z
 _atom_site_occupancy
  Y  Y0  1  0.025628  0.749936  0.988547  1
  Y  Y1  1  0.525374  0.750978  0.511795  1
  Y  Y2  1  0.974106  0.250272  0.010814  1
  Y  Y3  1  0.473975  0.248944  0.490183  1
  Y  Y4  1  0.182081  0.752039  0.717666  1
  Y  Y5  1  0.681237  0.750129  0.781742  1
  Y  Y6  1  0.819469  0.250186  0.282702  1
  Y  Y7  1  0.319403  0.250087  0.217601  1
  Y  Y8  1  0.310194  0.438513  0.941105  1
  Y  Y9  1  0.809579  0.059848  0.558956  1
  Y  Y10  1  0.690252  0.939516  0.057790  1
  Y  Y11  1  0.191082  0.561030  0.442366  1
  Y  Y12  1  0.690057  0.560847  0.057878  1
  Y  Y13  1  0.190479  0.939647  0.442470  1
  Y  Y14  1  0.310029  0.060540  0.940555  1
  Y  Y15  1  0.809414  0.439211  0.558499  1
  Y  Y16  1  0.355040  0.750198  0.212597  1
  Y  Y17  1  0.855121  0.749410  0.287661  1
  Y  Y18  1  0.643647  0.248330  0.787454  1
  Y  Y19  1  0.144955  0.249666  0.712256  1
  Bi  Bi20  1  0.931046  0.495551  0.825262  1
  Bi  Bi21  1  0.569035  0.503959  0.326333  1
  Bi  Bi22  1  0.069250  0.996019  0.174347  1
  Bi  Bi23  1  0.568694  0.996080  0.326274  1
  Bi  Bi24  1  0.069294  0.504060  0.174332  1
  Bi  Bi25  1  0.431089  0.495763  0.674466  1
  Bi  Bi26  1  0.930500  0.004193  0.825193  1
  Te  Te27  1  0.430283  0.005473  0.673023  1
  Te  Te28  1  0.408760  0.750094  0.957308  1
  Te  Te29  1  0.908343  0.749771  0.542309  1
  Te  Te30  1  0.591371  0.249896  0.041873  1
  Te  Te31  1  0.091212  0.249814  0.458642  1
