# generated using pymatgen
data_TmNi2(AsRu)3
_symmetry_space_group_name_H-M   'P 1'
_cell_length_a   3.89545700
_cell_length_b   11.15534000
_cell_length_c   12.47567000
_cell_angle_alpha   90.00000000
_cell_angle_beta   90.00000000
_cell_angle_gamma   90.00000000
_symmetry_Int_Tables_number   1
_chemical_formula_structural   TmNi2(AsRu)3
_chemical_formula_sum   'Tm4 Ni8 As12 Ru12'
_cell_volume   542.13207740
_cell_formula_units_Z   4
loop_
 _symmetry_equiv_pos_site_id
 _symmetry_equiv_pos_as_xyz
  1  'x, y, z'
loop_
 _atom_site_type_symbol
 _atom_site_label
 _atom_site_symmetry_multiplicity
 _atom_site_fract_x
 _atom_site_fract_y
 _atom_site_fract_z
 _atom_site_occupancy
  Tm  Tm0  1  0.250000  0.589815  0.703690  1
  Tm  Tm1  1  0.250000  0.910185  0.203690  1
  Tm  Tm2  1  0.750000  0.410185  0.296310  1
  Tm  Tm3  1  0.750000  0.089815  0.796310  1
  Ni  Ni4  1  0.250000  0.890591  0.695761  1
  Ni  Ni5  1  0.250000  0.609409  0.195761  1
  Ni  Ni6  1  0.750000  0.109409  0.304239  1
  Ni  Ni7  1  0.750000  0.390591  0.804239  1
  Ni  Ni8  1  0.250000  0.466579  0.928267  1
  Ni  Ni9  1  0.250000  0.033421  0.428267  1
  Ni  Ni10  1  0.750000  0.533421  0.071733  1
  Ni  Ni11  1  0.750000  0.966579  0.571733  1
  As  As12  1  0.250000  0.416364  0.111695  1
  As  As13  1  0.250000  0.083636  0.611695  1
  As  As14  1  0.750000  0.583636  0.888305  1
  As  As15  1  0.750000  0.916364  0.388305  1
  As  As16  1  0.250000  0.269738  0.876912  1
  As  As17  1  0.250000  0.230262  0.376912  1
  As  As18  1  0.750000  0.730262  0.123088  1
  As  As19  1  0.750000  0.769738  0.623088  1
  As  As20  1  0.250000  0.598208  0.385716  1
  As  As21  1  0.250000  0.901792  0.885716  1
  As  As22  1  0.750000  0.401792  0.614284  1
  As  As23  1  0.750000  0.098208  0.114284  1
  Ru  Ru24  1  0.250000  0.710103  0.986723  1
  Ru  Ru25  1  0.250000  0.789897  0.486723  1
  Ru  Ru26  1  0.750000  0.289897  0.013277  1
  Ru  Ru27  1  0.750000  0.210103  0.513277  1
  Ru  Ru28  1  0.250000  0.407996  0.486378  1
  Ru  Ru29  1  0.250000  0.092004  0.986378  1
  Ru  Ru30  1  0.750000  0.592004  0.513622  1
  Ru  Ru31  1  0.750000  0.907996  0.013622  1
  Ru  Ru32  1  0.250000  0.218280  0.182969  1
  Ru  Ru33  1  0.250000  0.281720  0.682969  1
  Ru  Ru34  1  0.750000  0.781720  0.817031  1
  Ru  Ru35  1  0.750000  0.718280  0.317031  1
