# generated using pymatgen
data_TiMn3(Si3Mo4)4
_symmetry_space_group_name_H-M   'P 1'
_cell_length_a   7.23631778
_cell_length_b   7.23533857
_cell_length_c   13.59686606
_cell_angle_alpha   89.99172001
_cell_angle_beta   90.01070784
_cell_angle_gamma   140.75954111
_symmetry_Int_Tables_number   1
_chemical_formula_structural   TiMn3(Si3Mo4)4
_chemical_formula_sum   'Ti1 Mn3 Si12 Mo16'
_cell_volume   450.32728563
_cell_formula_units_Z   1
loop_
 _symmetry_equiv_pos_site_id
 _symmetry_equiv_pos_as_xyz
  1  'x, y, z'
loop_
 _atom_site_type_symbol
 _atom_site_label
 _atom_site_symmetry_multiplicity
 _atom_site_fract_x
 _atom_site_fract_y
 _atom_site_fract_z
 _atom_site_occupancy
  Ti  Ti0  1  0.070499  0.424094  0.401869  1
  Mn  Mn1  1  0.500151  0.500718  0.999745  1
  Mn  Mn2  1  0.498895  0.500041  0.499242  1
  Mn  Mn3  1  0.000122  0.000417  0.999916  1
  Si  Si4  1  0.250382  0.750493  0.750693  1
  Si  Si5  1  0.749234  0.249170  0.248692  1
  Si  Si6  1  0.749646  0.249683  0.750598  1
  Si  Si7  1  0.251036  0.750487  0.248769  1
  Si  Si8  1  0.266583  0.266852  0.662165  1
  Si  Si9  1  0.751115  0.750647  0.157415  1
  Si  Si10  1  0.266699  0.266625  0.336781  1
  Si  Si11  1  0.751170  0.750825  0.843190  1
  Si  Si12  1  0.571353  0.895571  0.500168  1
  Si  Si13  1  0.092796  0.406684  0.000248  1
  Si  Si14  1  0.895395  0.572051  0.501043  1
  Si  Si15  1  0.407067  0.092610  0.999780  1
  Mo  Mo16  1  0.571855  0.927510  0.903450  1
  Mo  Mo17  1  0.425193  0.071177  0.598437  1
  Mo  Mo18  1  0.927352  0.571833  0.095784  1
  Mo  Mo19  1  0.848764  0.654362  0.678713  1
  Mo  Mo20  1  0.347600  0.152319  0.175803  1
  Mo  Mo21  1  0.653110  0.850493  0.321260  1
  Mo  Mo22  1  0.152486  0.347746  0.823338  1
  Mo  Mo23  1  0.653711  0.847938  0.679457  1
  Mo  Mo24  1  0.152989  0.347706  0.178235  1
  Mo  Mo25  1  0.851602  0.651856  0.322781  1
  Mo  Mo26  1  0.347801  0.152232  0.823513  1
  Mo  Mo27  1  0.426166  0.071837  0.400250  1
  Mo  Mo28  1  0.927744  0.571546  0.903437  1
  Mo  Mo29  1  0.070677  0.426940  0.598967  1
  Mo  Mo30  1  0.572025  0.927279  0.096604  1
  Mo  Mo31  1  0.998776  0.000253  0.499659  1
