# generated using pymatgen
data_La2SnPtAu
_symmetry_space_group_name_H-M   'P 1'
_cell_length_a   8.13474795
_cell_length_b   8.13474890
_cell_length_c   3.94210400
_cell_angle_alpha   90.00000000
_cell_angle_beta   90.00000000
_cell_angle_gamma   90.34365579
_symmetry_Int_Tables_number   1
_chemical_formula_structural   La2SnPtAu
_chemical_formula_sum   'La4 Sn2 Pt2 Au2'
_cell_volume   260.86061791
_cell_formula_units_Z   2
loop_
 _symmetry_equiv_pos_site_id
 _symmetry_equiv_pos_as_xyz
  1  'x, y, z'
loop_
 _atom_site_type_symbol
 _atom_site_label
 _atom_site_symmetry_multiplicity
 _atom_site_fract_x
 _atom_site_fract_y
 _atom_site_fract_z
 _atom_site_occupancy
  La  La0  1  0.683125  0.183125  0.500000  1
  La  La1  1  0.316875  0.816875  0.500000  1
  La  La2  1  0.166877  0.333123  0.500000  1
  La  La3  1  0.833123  0.666877  0.500000  1
  Sn  Sn4  1  0.000000  0.000000  0.000000  1
  Sn  Sn5  1  0.500000  0.500000  0.000000  1
  Pt  Pt6  1  0.128025  0.628025  0.000000  1
  Pt  Pt7  1  0.871975  0.371975  0.000000  1
  Au  Au8  1  0.626739  0.873261  0.000000  1
  Au  Au9  1  0.373261  0.126739  0.000000  1
