# generated using pymatgen
data_Pr7Nd2PaRh8
_symmetry_space_group_name_H-M   'P 1'
_cell_length_a   7.65752200
_cell_length_b   7.75255301
_cell_length_c   15.03402400
_cell_angle_alpha   90.15400487
_cell_angle_beta   90.00000000
_cell_angle_gamma   90.00000000
_symmetry_Int_Tables_number   1
_chemical_formula_structural   Pr7Nd2PaRh8
_chemical_formula_sum   'Pr14 Nd4 Pa2 Rh16'
_cell_volume   892.49680035
_cell_formula_units_Z   2
loop_
 _symmetry_equiv_pos_site_id
 _symmetry_equiv_pos_as_xyz
  1  'x, y, z'
loop_
 _atom_site_type_symbol
 _atom_site_label
 _atom_site_symmetry_multiplicity
 _atom_site_fract_x
 _atom_site_fract_y
 _atom_site_fract_z
 _atom_site_occupancy
  Pr  Pr0  1  0.335350  0.835388  0.120636  1
  Pr  Pr1  1  0.835350  0.664612  0.379364  1
  Pr  Pr2  1  0.333597  0.833123  0.379435  1
  Pr  Pr3  1  0.833597  0.666877  0.120565  1
  Pr  Pr4  1  0.664394  0.164842  0.879450  1
  Pr  Pr5  1  0.164394  0.335158  0.620550  1
  Pr  Pr6  1  0.516110  0.683057  0.594737  1
  Pr  Pr7  1  0.016110  0.816943  0.905263  1
  Pr  Pr8  1  0.486599  0.315985  0.096799  1
  Pr  Pr9  1  0.986599  0.184015  0.403201  1
  Pr  Pr10  1  0.484455  0.319536  0.408559  1
  Pr  Pr11  1  0.984455  0.180464  0.091441  1
  Pr  Pr12  1  0.512838  0.678274  0.907356  1
  Pr  Pr13  1  0.012838  0.821726  0.592644  1
  Nd  Nd14  1  0.821282  0.513675  0.748871  1
  Nd  Nd15  1  0.321282  0.986325  0.751129  1
  Nd  Nd16  1  0.173830  0.489314  0.249889  1
  Nd  Nd17  1  0.673830  0.010686  0.250111  1
  Pa  Pa18  1  0.663438  0.155548  0.624621  1
  Pa  Pa19  1  0.163438  0.344452  0.875379  1
  Rh  Rh20  1  0.695620  0.975501  0.476946  1
  Rh  Rh21  1  0.195620  0.524499  0.023054  1
  Rh  Rh22  1  0.295401  0.071122  0.955085  1
  Rh  Rh23  1  0.795401  0.428878  0.544915  1
  Rh  Rh24  1  0.349806  0.034025  0.551116  1
  Rh  Rh25  1  0.849806  0.465975  0.948884  1
  Rh  Rh26  1  0.664467  0.969990  0.043479  1
  Rh  Rh27  1  0.164467  0.530010  0.456521  1
  Rh  Rh28  1  0.463153  0.367311  0.749215  1
  Rh  Rh29  1  0.963153  0.132689  0.750785  1
  Rh  Rh30  1  0.538170  0.604979  0.251825  1
  Rh  Rh31  1  0.038170  0.895021  0.248175  1
  Rh  Rh32  1  0.702549  0.882610  0.738179  1
  Rh  Rh33  1  0.202549  0.617390  0.761821  1
  Rh  Rh34  1  0.298939  0.142945  0.250953  1
  Rh  Rh35  1  0.798939  0.357055  0.249047  1
