# generated using pymatgen
data_ErLu4Si12Ir19
_symmetry_space_group_name_H-M   'P 1'
_cell_length_a   12.80358700
_cell_length_b   12.80358673
_cell_length_c   3.96818200
_cell_angle_alpha   90.00000000
_cell_angle_beta   90.00000000
_cell_angle_gamma   120.00000328
_symmetry_Int_Tables_number   1
_chemical_formula_structural   ErLu4Si12Ir19
_chemical_formula_sum   'Er1 Lu4 Si12 Ir19'
_cell_volume   563.35934735
_cell_formula_units_Z   1
loop_
 _symmetry_equiv_pos_site_id
 _symmetry_equiv_pos_as_xyz
  1  'x, y, z'
loop_
 _atom_site_type_symbol
 _atom_site_label
 _atom_site_symmetry_multiplicity
 _atom_site_fract_x
 _atom_site_fract_y
 _atom_site_fract_z
 _atom_site_occupancy
  Er  Er0  1  0.333333  0.666667  0.000000  1
  Lu  Lu1  1  0.666667  0.333333  0.000000  1
  Lu  Lu2  1  0.814979  0.814989  0.500000  1
  Lu  Lu3  1  0.185011  0.999989  0.500000  1
  Lu  Lu4  1  0.000011  0.185021  0.500000  1
  Si  Si5  1  0.687836  0.169331  0.500000  1
  Si  Si6  1  0.830669  0.518504  0.500000  1
  Si  Si7  1  0.481496  0.312164  0.500000  1
  Si  Si8  1  0.169113  0.687898  0.500000  1
  Si  Si9  1  0.518784  0.830887  0.500000  1
  Si  Si10  1  0.312102  0.481216  0.500000  1
  Si  Si11  1  0.632577  0.632602  0.000000  1
  Si  Si12  1  0.367398  0.999975  0.000000  1
  Si  Si13  1  0.000025  0.367423  0.000000  1
  Si  Si14  1  0.180606  0.180584  0.000000  1
  Si  Si15  1  0.819416  0.000022  0.000000  1
  Si  Si16  1  0.999978  0.819394  0.000000  1
  Ir  Ir17  1  0.806559  0.182764  0.000000  1
  Ir  Ir18  1  0.817236  0.623795  0.000000  1
  Ir  Ir19  1  0.376205  0.193441  0.000000  1
  Ir  Ir20  1  0.182648  0.806639  0.000000  1
  Ir  Ir21  1  0.623991  0.817352  0.000000  1
  Ir  Ir22  1  0.193361  0.376009  0.000000  1
  Ir  Ir23  1  0.447185  0.447222  0.000000  1
  Ir  Ir24  1  0.552778  0.999962  0.000000  1
  Ir  Ir25  1  0.000038  0.552815  0.000000  1
  Ir  Ir26  1  0.282140  0.282099  0.500000  1
  Ir  Ir27  1  0.717901  0.000040  0.500000  1
  Ir  Ir28  1  0.999960  0.717860  0.500000  1
  Ir  Ir29  1  0.873019  0.361436  0.500000  1
  Ir  Ir30  1  0.638564  0.511585  0.500000  1
  Ir  Ir31  1  0.488415  0.126981  0.500000  1
  Ir  Ir32  1  0.361455  0.873396  0.500000  1
  Ir  Ir33  1  0.511943  0.638545  0.500000  1
  Ir  Ir34  1  0.126604  0.488057  0.500000  1
  Ir  Ir35  1  0.000000  0.000000  0.000000  1
