# generated using pymatgen
data_Pa2Mn17C3
_symmetry_space_group_name_H-M   'P 1'
_cell_length_a   6.41181044
_cell_length_b   6.41181068
_cell_length_c   6.41181122
_cell_angle_alpha   83.32204939
_cell_angle_beta   83.32204280
_cell_angle_gamma   83.32204212
_symmetry_Int_Tables_number   1
_chemical_formula_structural   Pa2Mn17C3
_chemical_formula_sum   'Pa2 Mn17 C3'
_cell_volume   258.61851537
_cell_formula_units_Z   1
loop_
 _symmetry_equiv_pos_site_id
 _symmetry_equiv_pos_as_xyz
  1  'x, y, z'
loop_
 _atom_site_type_symbol
 _atom_site_label
 _atom_site_symmetry_multiplicity
 _atom_site_fract_x
 _atom_site_fract_y
 _atom_site_fract_z
 _atom_site_occupancy
  Pa  Pa0  1  0.650890  0.650890  0.650890  1
  Pa  Pa1  1  0.349110  0.349110  0.349110  1
  Mn  Mn2  1  0.000000  0.000000  0.500000  1
  Mn  Mn3  1  0.500000  0.000000  0.000000  1
  Mn  Mn4  1  0.000000  0.500000  0.000000  1
  Mn  Mn5  1  0.726456  0.273544  0.000000  1
  Mn  Mn6  1  0.000000  0.726456  0.273544  1
  Mn  Mn7  1  0.273544  0.000000  0.726456  1
  Mn  Mn8  1  0.000000  0.273544  0.726456  1
  Mn  Mn9  1  0.726456  0.000000  0.273544  1
  Mn  Mn10  1  0.273544  0.726456  0.000000  1
  Mn  Mn11  1  0.345849  0.345849  0.857851  1
  Mn  Mn12  1  0.857851  0.345849  0.345849  1
  Mn  Mn13  1  0.345849  0.857851  0.345849  1
  Mn  Mn14  1  0.654151  0.654151  0.142149  1
  Mn  Mn15  1  0.142149  0.654151  0.654151  1
  Mn  Mn16  1  0.654151  0.142149  0.654151  1
  Mn  Mn17  1  0.903180  0.903180  0.903180  1
  Mn  Mn18  1  0.096820  0.096820  0.096820  1
  C  C19  1  0.500000  0.500000  0.000000  1
  C  C20  1  0.000000  0.500000  0.500000  1
  C  C21  1  0.500000  0.000000  0.500000  1
