# generated using pymatgen
data_TmLu3Tc7Mo
_symmetry_space_group_name_H-M   'P 1'
_cell_length_a   5.37848100
_cell_length_b   5.37848109
_cell_length_c   8.71961600
_cell_angle_alpha   90.00000000
_cell_angle_beta   90.00000000
_cell_angle_gamma   120.00000557
_symmetry_Int_Tables_number   1
_chemical_formula_structural   TmLu3Tc7Mo
_chemical_formula_sum   'Tm1 Lu3 Tc7 Mo1'
_cell_volume   218.44758715
_cell_formula_units_Z   1
loop_
 _symmetry_equiv_pos_site_id
 _symmetry_equiv_pos_as_xyz
  1  'x, y, z'
loop_
 _atom_site_type_symbol
 _atom_site_label
 _atom_site_symmetry_multiplicity
 _atom_site_fract_x
 _atom_site_fract_y
 _atom_site_fract_z
 _atom_site_occupancy
  Tm  Tm0  1  0.333333  0.666667  0.061787  1
  Lu  Lu1  1  0.333333  0.666667  0.436327  1
  Lu  Lu2  1  0.666667  0.333333  0.563840  1
  Lu  Lu3  1  0.666667  0.333333  0.937862  1
  Tc  Tc4  1  0.000000  0.000000  0.000121  1
  Tc  Tc5  1  0.828151  0.171849  0.250697  1
  Tc  Tc6  1  0.828151  0.656303  0.250697  1
  Tc  Tc7  1  0.343697  0.171849  0.250697  1
  Tc  Tc8  1  0.171817  0.828183  0.749217  1
  Tc  Tc9  1  0.171817  0.343635  0.749217  1
  Tc  Tc10  1  0.656365  0.828183  0.749217  1
  Mo  Mo11  1  0.000000  0.000000  0.500318  1
