# generated using pymatgen
data_Sm2(TcB2)3
_symmetry_space_group_name_H-M   'P 1'
_cell_length_a   6.25883918
_cell_length_b   6.25883923
_cell_length_c   7.57765834
_cell_angle_alpha   89.40533643
_cell_angle_beta   89.40533163
_cell_angle_gamma   114.22135050
_symmetry_Int_Tables_number   1
_chemical_formula_structural   Sm2(TcB2)3
_chemical_formula_sum   'Sm4 Tc6 B12'
_cell_volume   270.65903908
_cell_formula_units_Z   2
loop_
 _symmetry_equiv_pos_site_id
 _symmetry_equiv_pos_as_xyz
  1  'x, y, z'
loop_
 _atom_site_type_symbol
 _atom_site_label
 _atom_site_symmetry_multiplicity
 _atom_site_fract_x
 _atom_site_fract_y
 _atom_site_fract_z
 _atom_site_occupancy
  Sm  Sm0  1  0.440149  0.095915  0.175320  1
  Sm  Sm1  1  0.904085  0.559851  0.324680  1
  Sm  Sm2  1  0.559851  0.904085  0.824680  1
  Sm  Sm3  1  0.095915  0.440149  0.675320  1
  Tc  Tc4  1  0.803954  0.989684  0.411270  1
  Tc  Tc5  1  0.010316  0.196046  0.088730  1
  Tc  Tc6  1  0.196046  0.010316  0.588730  1
  Tc  Tc7  1  0.989684  0.803954  0.911270  1
  Tc  Tc8  1  0.414352  0.585648  0.250000  1
  Tc  Tc9  1  0.585648  0.414352  0.750000  1
  B  B10  1  0.152326  0.242980  0.369080  1
  B  B11  1  0.757020  0.847674  0.130920  1
  B  B12  1  0.847674  0.757020  0.630920  1
  B  B13  1  0.242980  0.152326  0.869080  1
  B  B14  1  0.158243  0.584334  0.018484  1
  B  B15  1  0.415666  0.841757  0.481516  1
  B  B16  1  0.841757  0.415666  0.981516  1
  B  B17  1  0.584334  0.158243  0.518484  1
  B  B18  1  0.350152  0.442145  0.966499  1
  B  B19  1  0.557855  0.649848  0.533501  1
  B  B20  1  0.649848  0.557855  0.033501  1
  B  B21  1  0.442145  0.350152  0.466499  1
