# generated using pymatgen
data_K4ThNpCl12
_symmetry_space_group_name_H-M   'P 1'
_cell_length_a   7.82569228
_cell_length_b   7.41406749
_cell_length_c   12.83396000
_cell_angle_alpha   55.02846169
_cell_angle_beta   89.94011015
_cell_angle_gamma   89.91019378
_symmetry_Int_Tables_number   1
_chemical_formula_structural   K4ThNpCl12
_chemical_formula_sum   'K4 Th1 Np1 Cl12'
_cell_volume   610.17574780
_cell_formula_units_Z   1
loop_
 _symmetry_equiv_pos_site_id
 _symmetry_equiv_pos_as_xyz
  1  'x, y, z'
loop_
 _atom_site_type_symbol
 _atom_site_label
 _atom_site_symmetry_multiplicity
 _atom_site_fract_x
 _atom_site_fract_y
 _atom_site_fract_z
 _atom_site_occupancy
  K  K0  1  0.581144  0.724412  0.253452  1
  K  K1  1  0.082009  0.272011  0.249285  1
  K  K2  1  0.418856  0.275588  0.746548  1
  K  K3  1  0.917991  0.727989  0.750715  1
  Th  Th4  1  0.000000  0.000000  0.000000  1
  Np  Np5  1  0.500000  0.000000  0.500000  1
  Cl  Cl6  1  0.979890  0.849802  0.246416  1
  Cl  Cl7  1  0.480520  0.143597  0.261075  1
  Cl  Cl8  1  0.020110  0.150198  0.753584  1
  Cl  Cl9  1  0.519480  0.856403  0.738925  1
  Cl  Cl10  1  0.678729  0.657941  0.552640  1
  Cl  Cl11  1  0.182902  0.351350  0.946454  1
  Cl  Cl12  1  0.321271  0.342059  0.447360  1
  Cl  Cl13  1  0.817098  0.648650  0.053546  1
  Cl  Cl14  1  0.707096  0.225802  0.952942  1
  Cl  Cl15  1  0.215860  0.780018  0.546023  1
  Cl  Cl16  1  0.292904  0.774198  0.047058  1
  Cl  Cl17  1  0.784140  0.219982  0.453977  1
