# generated using pymatgen
data_Ce2CoCuSn
_symmetry_space_group_name_H-M   'P 1'
_cell_length_a   7.52990448
_cell_length_b   7.52990376
_cell_length_c   3.68954800
_cell_angle_alpha   90.00000000
_cell_angle_beta   90.00000000
_cell_angle_gamma   91.08415504
_symmetry_Int_Tables_number   1
_chemical_formula_structural   Ce2CoCuSn
_chemical_formula_sum   'Ce4 Co2 Cu2 Sn2'
_cell_volume   209.15791515
_cell_formula_units_Z   2
loop_
 _symmetry_equiv_pos_site_id
 _symmetry_equiv_pos_as_xyz
  1  'x, y, z'
loop_
 _atom_site_type_symbol
 _atom_site_label
 _atom_site_symmetry_multiplicity
 _atom_site_fract_x
 _atom_site_fract_y
 _atom_site_fract_z
 _atom_site_occupancy
  Ce  Ce0  1  0.688609  0.188609  0.500000  1
  Ce  Ce1  1  0.311391  0.811391  0.500000  1
  Ce  Ce2  1  0.162729  0.337271  0.500000  1
  Ce  Ce3  1  0.837271  0.662729  0.500000  1
  Co  Co4  1  0.132544  0.632544  0.000000  1
  Co  Co5  1  0.867456  0.367456  0.000000  1
  Cu  Cu6  1  0.619229  0.880771  0.000000  1
  Cu  Cu7  1  0.380771  0.119229  0.000000  1
  Sn  Sn8  1  0.000000  0.000000  0.000000  1
  Sn  Sn9  1  0.500000  0.500000  0.000000  1
