# generated using pymatgen
data_Ho20Cd3Pd3Ru2
_symmetry_space_group_name_H-M   'P 1'
_cell_length_a   9.52593700
_cell_length_b   9.52593687
_cell_length_c   9.48043600
_cell_angle_alpha   90.00000000
_cell_angle_beta   90.00000000
_cell_angle_gamma   120.00000392
_symmetry_Int_Tables_number   1
_chemical_formula_structural   Ho20Cd3Pd3Ru2
_chemical_formula_sum   'Ho20 Cd3 Pd3 Ru2'
_cell_volume   745.03097548
_cell_formula_units_Z   1
loop_
 _symmetry_equiv_pos_site_id
 _symmetry_equiv_pos_as_xyz
  1  'x, y, z'
loop_
 _atom_site_type_symbol
 _atom_site_label
 _atom_site_symmetry_multiplicity
 _atom_site_fract_x
 _atom_site_fract_y
 _atom_site_fract_z
 _atom_site_occupancy
  Ho  Ho0  1  0.000000  0.000000  0.445552  1
  Ho  Ho1  1  0.000000  0.000000  0.054448  1
  Ho  Ho2  1  0.209204  0.790796  0.440472  1
  Ho  Ho3  1  0.209204  0.418409  0.440472  1
  Ho  Ho4  1  0.581591  0.790796  0.440472  1
  Ho  Ho5  1  0.792414  0.207586  0.556426  1
  Ho  Ho6  1  0.792414  0.584827  0.556426  1
  Ho  Ho7  1  0.415173  0.207586  0.556426  1
  Ho  Ho8  1  0.792414  0.207586  0.943574  1
  Ho  Ho9  1  0.792414  0.584827  0.943574  1
  Ho  Ho10  1  0.415173  0.207586  0.943574  1
  Ho  Ho11  1  0.209204  0.790796  0.059528  1
  Ho  Ho12  1  0.209204  0.418409  0.059528  1
  Ho  Ho13  1  0.581591  0.790796  0.059528  1
  Ho  Ho14  1  0.540184  0.459816  0.250000  1
  Ho  Ho15  1  0.540184  0.080366  0.250000  1
  Ho  Ho16  1  0.919634  0.459816  0.250000  1
  Ho  Ho17  1  0.459076  0.540924  0.750000  1
  Ho  Ho18  1  0.459076  0.918153  0.750000  1
  Ho  Ho19  1  0.081847  0.540924  0.750000  1
  Cd  Cd20  1  0.108063  0.891937  0.750000  1
  Cd  Cd21  1  0.108063  0.216124  0.750000  1
  Cd  Cd22  1  0.783876  0.891937  0.750000  1
  Pd  Pd23  1  0.866901  0.133099  0.250000  1
  Pd  Pd24  1  0.866901  0.733804  0.250000  1
  Pd  Pd25  1  0.266196  0.133099  0.250000  1
  Ru  Ru26  1  0.333333  0.666667  0.250000  1
  Ru  Ru27  1  0.666667  0.333333  0.750000  1
