# generated using pymatgen
data_Li4Pr3ThAs8
_symmetry_space_group_name_H-M   'P 1'
_cell_length_a   4.01970800
_cell_length_b   4.03329007
_cell_length_c   21.20956291
_cell_angle_alpha   90.34298066
_cell_angle_beta   90.00000000
_cell_angle_gamma   90.00000000
_symmetry_Int_Tables_number   1
_chemical_formula_structural   Li4Pr3ThAs8
_chemical_formula_sum   'Li4 Pr3 Th1 As8'
_cell_volume   343.85702456
_cell_formula_units_Z   1
loop_
 _symmetry_equiv_pos_site_id
 _symmetry_equiv_pos_as_xyz
  1  'x, y, z'
loop_
 _atom_site_type_symbol
 _atom_site_label
 _atom_site_symmetry_multiplicity
 _atom_site_fract_x
 _atom_site_fract_y
 _atom_site_fract_z
 _atom_site_occupancy
  Li  Li0  1  0.250000  0.227822  0.251442  1
  Li  Li1  1  0.750000  0.728232  0.251270  1
  Li  Li2  1  0.750000  0.771662  0.749828  1
  Li  Li3  1  0.250000  0.271458  0.749836  1
  Pr  Pr4  1  0.750000  0.237539  0.385931  1
  Pr  Pr5  1  0.750000  0.269815  0.884545  1
  Pr  Pr6  1  0.250000  0.729680  0.116930  1
  Th  Th7  1  0.250000  0.762143  0.611605  1
  As  As8  1  0.250000  0.772457  0.826044  1
  As  As9  1  0.750000  0.227647  0.171969  1
  As  As10  1  0.750000  0.265560  0.666162  1
  As  As11  1  0.250000  0.732292  0.330914  1
  As  As12  1  0.250000  0.254900  0.502032  1
  As  As13  1  0.250000  0.220323  0.000475  1
  As  As14  1  0.750000  0.779842  0.999094  1
  As  As15  1  0.750000  0.748628  0.501924  1
