# generated using pymatgen
data_Tm3Si3Ru2
_symmetry_space_group_name_H-M   'P 1'
_cell_length_a   5.68254026
_cell_length_b   5.68254050
_cell_length_c   13.64033700
_cell_angle_alpha   90.00000000
_cell_angle_beta   90.00000000
_cell_angle_gamma   137.15223280
_symmetry_Int_Tables_number   1
_chemical_formula_structural   Tm3Si3Ru2
_chemical_formula_sum   'Tm6 Si6 Ru4'
_cell_volume   299.53858806
_cell_formula_units_Z   2
loop_
 _symmetry_equiv_pos_site_id
 _symmetry_equiv_pos_as_xyz
  1  'x, y, z'
loop_
 _atom_site_type_symbol
 _atom_site_label
 _atom_site_symmetry_multiplicity
 _atom_site_fract_x
 _atom_site_fract_y
 _atom_site_fract_z
 _atom_site_occupancy
  Tm  Tm0  1  0.924614  0.075386  0.385591  1
  Tm  Tm1  1  0.075386  0.924614  0.614409  1
  Tm  Tm2  1  0.924614  0.075386  0.114409  1
  Tm  Tm3  1  0.075386  0.924614  0.885591  1
  Tm  Tm4  1  0.644121  0.355879  0.250000  1
  Tm  Tm5  1  0.355879  0.644121  0.750000  1
  Si  Si6  1  0.615957  0.384043  0.461504  1
  Si  Si7  1  0.384043  0.615957  0.538496  1
  Si  Si8  1  0.615957  0.384043  0.038496  1
  Si  Si9  1  0.384043  0.615957  0.961504  1
  Si  Si10  1  0.332687  0.667313  0.250000  1
  Si  Si11  1  0.667313  0.332687  0.750000  1
  Ru  Ru12  1  0.787104  0.212896  0.917902  1
  Ru  Ru13  1  0.212896  0.787104  0.082098  1
  Ru  Ru14  1  0.787104  0.212896  0.582098  1
  Ru  Ru15  1  0.212896  0.787104  0.417902  1
