# generated using pymatgen
data_Sm6Mg3Re6MoN24
_symmetry_space_group_name_H-M   'P 1'
_cell_length_a   11.13099093
_cell_length_b   11.23790869
_cell_length_c   11.23790850
_cell_angle_alpha   109.66314047
_cell_angle_beta   109.27860979
_cell_angle_gamma   109.27861071
_symmetry_Int_Tables_number   1
_chemical_formula_structural   Sm6Mg3Re6MoN24
_chemical_formula_sum   'Sm12 Mg6 Re12 Mo2 N48'
_cell_volume   1084.70032522
_cell_formula_units_Z   2
loop_
 _symmetry_equiv_pos_site_id
 _symmetry_equiv_pos_as_xyz
  1  'x, y, z'
loop_
 _atom_site_type_symbol
 _atom_site_label
 _atom_site_symmetry_multiplicity
 _atom_site_fract_x
 _atom_site_fract_y
 _atom_site_fract_z
 _atom_site_occupancy
  Sm  Sm0  1  0.376107  0.752214  0.126107  1
  Sm  Sm1  1  0.250000  0.373893  0.126107  1
  Sm  Sm2  1  0.375967  0.125967  0.251934  1
  Sm  Sm3  1  0.876107  0.626107  0.252214  1
  Sm  Sm4  1  0.750000  0.125967  0.374033  1
  Sm  Sm5  1  0.124033  0.248066  0.374033  1
  Sm  Sm6  1  0.875967  0.751934  0.625967  1
  Sm  Sm7  1  0.250000  0.874033  0.625967  1
  Sm  Sm8  1  0.123893  0.373893  0.747786  1
  Sm  Sm9  1  0.624033  0.874033  0.748066  1
  Sm  Sm10  1  0.623893  0.247786  0.873893  1
  Sm  Sm11  1  0.750000  0.626107  0.873893  1
  Mg  Mg12  1  0.000000  0.000000  0.000000  1
  Mg  Mg13  1  0.500000  0.000000  0.000000  1
  Mg  Mg14  1  0.000000  0.000000  0.500000  1
  Mg  Mg15  1  0.500000  0.000000  0.500000  1
  Mg  Mg16  1  0.000000  0.500000  0.500000  1
  Mg  Mg17  1  0.500000  0.500000  0.500000  1
  Re  Re18  1  0.878454  0.252427  0.126519  1
  Re  Re19  1  0.748065  0.874093  0.126519  1
  Re  Re20  1  0.621546  0.373481  0.247573  1
  Re  Re21  1  0.126027  0.874093  0.247573  1
  Re  Re22  1  0.248065  0.626519  0.374093  1
  Re  Re23  1  0.626027  0.747573  0.374093  1
  Re  Re24  1  0.373973  0.252427  0.625907  1
  Re  Re25  1  0.751935  0.373481  0.625907  1
  Re  Re26  1  0.873973  0.125907  0.752427  1
  Re  Re27  1  0.378454  0.626519  0.752427  1
  Re  Re28  1  0.251935  0.125907  0.873481  1
  Re  Re29  1  0.121546  0.747573  0.873481  1
  Mo  Mo30  1  0.000000  0.500000  0.000000  1
  Mo  Mo31  1  0.500000  0.500000  0.000000  1
  N  N32  1  0.212223  0.122095  0.016702  1
  N  N33  1  0.304479  0.894607  0.016702  1
  N  N34  1  0.886984  0.404706  0.084297  1
  N  N35  1  0.697313  0.679592  0.084297  1
  N  N36  1  0.613017  0.415703  0.095294  1
  N  N37  1  0.982279  0.679592  0.095294  1
  N  N38  1  0.020109  0.210194  0.119307  1
  N  N39  1  0.599199  0.909114  0.119307  1
  N  N40  1  0.197313  0.584297  0.179592  1
  N  N41  1  0.482279  0.595295  0.179592  1
  N  N42  1  0.591067  0.193536  0.212754  1
  N  N43  1  0.121686  0.019218  0.212754  1
  N  N44  1  0.479891  0.380693  0.289806  1
  N  N45  1  0.309915  0.909114  0.289806  1
  N  N46  1  0.897532  0.019218  0.306464  1
  N  N47  1  0.908933  0.287246  0.306464  1
  N  N48  1  0.287777  0.483298  0.377905  1
  N  N49  1  0.590127  0.894607  0.377905  1
  N  N50  1  0.804479  0.516702  0.394607  1
  N  N51  1  0.090127  0.877905  0.394607  1
  N  N52  1  0.099198  0.619308  0.409114  1
  N  N53  1  0.809915  0.789806  0.409114  1
  N  N54  1  0.602469  0.193536  0.480782  1
  N  N55  1  0.378314  0.287246  0.480782  1
  N  N56  1  0.621687  0.712754  0.519218  1
  N  N57  1  0.397532  0.806464  0.519218  1
  N  N58  1  0.190085  0.210194  0.590886  1
  N  N59  1  0.900802  0.380693  0.590886  1
  N  N60  1  0.909873  0.122095  0.605394  1
  N  N61  1  0.195521  0.483298  0.605394  1
  N  N62  1  0.409873  0.105393  0.622096  1
  N  N63  1  0.712223  0.516702  0.622096  1
  N  N64  1  0.102468  0.980782  0.693536  1
  N  N65  1  0.091067  0.712754  0.693536  1
  N  N66  1  0.690085  0.090886  0.710194  1
  N  N67  1  0.520109  0.619308  0.710194  1
  N  N68  1  0.408933  0.806464  0.787246  1
  N  N69  1  0.878314  0.980782  0.787246  1
  N  N70  1  0.517721  0.404706  0.820408  1
  N  N71  1  0.802687  0.415703  0.820408  1
  N  N72  1  0.979891  0.789806  0.880693  1
  N  N73  1  0.400802  0.090886  0.880693  1
  N  N74  1  0.017721  0.320408  0.904706  1
  N  N75  1  0.386984  0.584297  0.904706  1
  N  N76  1  0.302687  0.320408  0.915703  1
  N  N77  1  0.113016  0.595295  0.915703  1
  N  N78  1  0.695521  0.105393  0.983298  1
  N  N79  1  0.787777  0.877905  0.983298  1
