# generated using pymatgen
data_La3ErP7Ir8
_symmetry_space_group_name_H-M   'P 1'
_cell_length_a   4.00190400
_cell_length_b   12.83158512
_cell_length_c   13.29117700
_cell_angle_alpha   81.23427645
_cell_angle_beta   90.00000000
_cell_angle_gamma   90.00000000
_symmetry_Int_Tables_number   1
_chemical_formula_structural   La3ErP7Ir8
_chemical_formula_sum   'La6 Er2 P14 Ir16'
_cell_volume   674.54026779
_cell_formula_units_Z   2
loop_
 _symmetry_equiv_pos_site_id
 _symmetry_equiv_pos_as_xyz
  1  'x, y, z'
loop_
 _atom_site_type_symbol
 _atom_site_label
 _atom_site_symmetry_multiplicity
 _atom_site_fract_x
 _atom_site_fract_y
 _atom_site_fract_z
 _atom_site_occupancy
  La  La0  1  0.750000  0.482724  0.706732  1
  La  La1  1  0.250000  0.517276  0.293268  1
  La  La2  1  0.750000  0.719565  0.894694  1
  La  La3  1  0.250000  0.103179  0.788519  1
  La  La4  1  0.750000  0.896821  0.211481  1
  La  La5  1  0.250000  0.280435  0.105306  1
  Er  Er6  1  0.750000  0.792746  0.558848  1
  Er  Er7  1  0.250000  0.207254  0.441152  1
  P  P8  1  0.250000  0.908466  0.413577  1
  P  P9  1  0.750000  0.473607  0.127089  1
  P  P10  1  0.250000  0.526393  0.872911  1
  P  P11  1  0.750000  0.091534  0.586423  1
  P  P12  1  0.250000  0.742601  0.081447  1
  P  P13  1  0.750000  0.257399  0.918553  1
  P  P14  1  0.750000  0.156313  0.285561  1
  P  P15  1  0.250000  0.843687  0.714439  1
  P  P16  1  0.250000  0.053217  0.099544  1
  P  P17  1  0.750000  0.946783  0.900456  1
  P  P18  1  0.250000  0.313192  0.685835  1
  P  P19  1  0.750000  0.686808  0.314165  1
  P  P20  1  0.250000  0.610758  0.561976  1
  P  P21  1  0.750000  0.389242  0.438024  1
  Ir  Ir22  1  0.250000  0.988077  0.574608  1
  Ir  Ir23  1  0.750000  0.011923  0.425392  1
  Ir  Ir24  1  0.250000  0.663998  0.727431  1
  Ir  Ir25  1  0.750000  0.336002  0.272569  1
  Ir  Ir26  1  0.250000  0.552668  0.047162  1
  Ir  Ir27  1  0.750000  0.447332  0.952838  1
  Ir  Ir28  1  0.250000  0.063382  0.275558  1
  Ir  Ir29  1  0.750000  0.936618  0.724442  1
  Ir  Ir30  1  0.250000  0.421914  0.524706  1
  Ir  Ir31  1  0.750000  0.578086  0.475294  1
  Ir  Ir32  1  0.250000  0.916420  0.997054  1
  Ir  Ir33  1  0.750000  0.083580  0.002946  1
  Ir  Ir34  1  0.250000  0.730191  0.400343  1
  Ir  Ir35  1  0.750000  0.269809  0.599657  1
  Ir  Ir36  1  0.250000  0.340107  0.858250  1
  Ir  Ir37  1  0.750000  0.659893  0.141750  1
