# generated using pymatgen
data_RbLi6EuO6
_symmetry_space_group_name_H-M   'P 1'
_cell_length_a   5.54130301
_cell_length_b   5.54130668
_cell_length_c   5.54130323
_cell_angle_alpha   101.79204288
_cell_angle_beta   101.79297460
_cell_angle_gamma   101.79229648
_symmetry_Int_Tables_number   1
_chemical_formula_structural   RbLi6EuO6
_chemical_formula_sum   'Rb1 Li6 Eu1 O6'
_cell_volume   157.57465151
_cell_formula_units_Z   1
loop_
 _symmetry_equiv_pos_site_id
 _symmetry_equiv_pos_as_xyz
  1  'x, y, z'
loop_
 _atom_site_type_symbol
 _atom_site_label
 _atom_site_symmetry_multiplicity
 _atom_site_fract_x
 _atom_site_fract_y
 _atom_site_fract_z
 _atom_site_occupancy
  Rb  Rb0  1  0.500000  0.499999  0.500002  1
  Li  Li1  1  0.655858  0.344144  0.000003  1
  Li  Li2  1  0.344141  0.655855  0.999999  1
  Li  Li3  1  0.655858  0.999999  0.344143  1
  Li  Li4  1  0.999998  0.655858  0.344142  1
  Li  Li5  1  0.344143  0.000001  0.655857  1
  Li  Li6  1  0.000003  0.344144  0.655858  1
  Eu  Eu7  1  0.000000  0.000000  0.000000  1
  O  O8  1  0.717358  0.717361  0.105103  1
  O  O9  1  0.894898  0.282640  0.282641  1
  O  O10  1  0.282642  0.894890  0.282641  1
  O  O11  1  0.717359  0.105112  0.717359  1
  O  O12  1  0.105102  0.717361  0.717359  1
  O  O13  1  0.282641  0.282639  0.894896  1
