# generated using pymatgen
data_Ac8Zn3Si12Rh
_symmetry_space_group_name_H-M   'P 1'
_cell_length_a   11.84758452
_cell_length_b   10.20946211
_cell_length_c   8.47554300
_cell_angle_alpha   78.09434964
_cell_angle_beta   57.53025092
_cell_angle_gamma   44.42641923
_symmetry_Int_Tables_number   1
_chemical_formula_structural   Ac8Zn3Si12Rh
_chemical_formula_sum   'Ac8 Zn3 Si12 Rh1'
_cell_volume   577.57456950
_cell_formula_units_Z   1
loop_
 _symmetry_equiv_pos_site_id
 _symmetry_equiv_pos_as_xyz
  1  'x, y, z'
loop_
 _atom_site_type_symbol
 _atom_site_label
 _atom_site_symmetry_multiplicity
 _atom_site_fract_x
 _atom_site_fract_y
 _atom_site_fract_z
 _atom_site_occupancy
  Ac  Ac0  1  0.374106  0.377425  0.626957  1
  Ac  Ac1  1  0.626957  0.621512  0.374106  1
  Ac  Ac2  1  0.872898  0.871132  0.627409  1
  Ac  Ac3  1  0.627409  0.628562  0.872898  1
  Ac  Ac4  1  0.877026  0.870876  0.124312  1
  Ac  Ac5  1  0.124312  0.127785  0.877026  1
  Ac  Ac6  1  0.370549  0.375449  0.126061  1
  Ac  Ac7  1  0.126061  0.127941  0.370549  1
  Zn  Zn8  1  0.832692  0.167308  0.832692  1
  Zn  Zn9  1  0.166783  0.833217  0.166783  1
  Zn  Zn10  1  0.417160  0.082840  0.417160  1
  Si  Si11  1  0.665706  0.334294  0.665706  1
  Si  Si12  1  0.334522  0.665478  0.334522  1
  Si  Si13  1  0.587325  0.912675  0.587325  1
  Si  Si14  1  0.919781  0.580219  0.919781  1
  Si  Si15  1  0.332907  0.665852  0.833009  1
  Si  Si16  1  0.169487  0.832565  0.665484  1
  Si  Si17  1  0.833009  0.168231  0.332907  1
  Si  Si18  1  0.665484  0.332463  0.169487  1
  Si  Si19  1  0.920134  0.582557  0.409722  1
  Si  Si20  1  0.073751  0.423736  0.588511  1
  Si  Si21  1  0.409722  0.087587  0.920134  1
  Si  Si22  1  0.588511  0.914003  0.073751  1
  Rh  Rh23  1  0.083707  0.416293  0.083707  1
