# generated using pymatgen
data_ErTm5MnBi2
_symmetry_space_group_name_H-M   'P 1'
_cell_length_a   8.21207600
_cell_length_b   8.20735314
_cell_length_c   4.23363900
_cell_angle_alpha   90.00000000
_cell_angle_beta   90.00000000
_cell_angle_gamma   120.01902925
_symmetry_Int_Tables_number   1
_chemical_formula_structural   ErTm5MnBi2
_chemical_formula_sum   'Er1 Tm5 Mn1 Bi2'
_cell_volume   247.06841364
_cell_formula_units_Z   1
loop_
 _symmetry_equiv_pos_site_id
 _symmetry_equiv_pos_as_xyz
  1  'x, y, z'
loop_
 _atom_site_type_symbol
 _atom_site_label
 _atom_site_symmetry_multiplicity
 _atom_site_fract_x
 _atom_site_fract_y
 _atom_site_fract_z
 _atom_site_occupancy
  Er  Er0  1  0.611454  0.000000  0.500000  1
  Tm  Tm1  1  0.231306  0.000000  0.000000  1
  Tm  Tm2  1  0.999933  0.612023  0.500000  1
  Tm  Tm3  1  0.387910  0.387977  0.500000  1
  Tm  Tm4  1  0.768859  0.768577  0.000000  1
  Tm  Tm5  1  0.000283  0.231423  0.000000  1
  Mn  Mn6  1  0.000519  0.000000  0.500000  1
  Bi  Bi7  1  0.333053  0.666372  0.000000  1
  Bi  Bi8  1  0.666683  0.333628  0.000000  1
