# generated using pymatgen
data_ScPa3(GeIr)4
_symmetry_space_group_name_H-M   'P 1'
_cell_length_a   4.32073600
_cell_length_b   6.84087778
_cell_length_c   7.64744190
_cell_angle_alpha   90.83206002
_cell_angle_beta   90.00000000
_cell_angle_gamma   90.00000000
_symmetry_Int_Tables_number   1
_chemical_formula_structural   ScPa3(GeIr)4
_chemical_formula_sum   'Sc1 Pa3 Ge4 Ir4'
_cell_volume   226.01639978
_cell_formula_units_Z   1
loop_
 _symmetry_equiv_pos_site_id
 _symmetry_equiv_pos_as_xyz
  1  'x, y, z'
loop_
 _atom_site_type_symbol
 _atom_site_label
 _atom_site_symmetry_multiplicity
 _atom_site_fract_x
 _atom_site_fract_y
 _atom_site_fract_z
 _atom_site_occupancy
  Sc  Sc0  1  0.750000  0.506260  0.800854  1
  Pa  Pa1  1  0.250000  0.993953  0.298082  1
  Pa  Pa2  1  0.250000  0.495199  0.198112  1
  Pa  Pa3  1  0.750000  0.009757  0.702027  1
  Ge  Ge4  1  0.250000  0.333047  0.594561  1
  Ge  Ge5  1  0.250000  0.808152  0.910166  1
  Ge  Ge6  1  0.750000  0.676702  0.420737  1
  Ge  Ge7  1  0.750000  0.182022  0.079090  1
  Ir  Ir8  1  0.250000  0.222420  0.912443  1
  Ir  Ir9  1  0.250000  0.727357  0.583958  1
  Ir  Ir10  1  0.750000  0.770884  0.089075  1
  Ir  Ir11  1  0.750000  0.274247  0.410895  1
