# generated using pymatgen
data_SrNd(H4Pd)2
_symmetry_space_group_name_H-M   'P 1'
_cell_length_a   3.84583937
_cell_length_b   5.25099600
_cell_length_c   6.54737702
_cell_angle_alpha   90.00000000
_cell_angle_beta   107.09097408
_cell_angle_gamma   90.00000000
_symmetry_Int_Tables_number   1
_chemical_formula_structural   SrNd(H4Pd)2
_chemical_formula_sum   'Sr1 Nd1 H8 Pd2'
_cell_volume   126.38195580
_cell_formula_units_Z   1
loop_
 _symmetry_equiv_pos_site_id
 _symmetry_equiv_pos_as_xyz
  1  'x, y, z'
loop_
 _atom_site_type_symbol
 _atom_site_label
 _atom_site_symmetry_multiplicity
 _atom_site_fract_x
 _atom_site_fract_y
 _atom_site_fract_z
 _atom_site_occupancy
  Sr  Sr0  1  0.864112  0.750000  0.227815  1
  Nd  Nd1  1  0.133955  0.249999  0.768608  1
  H  H2  1  0.302633  0.021614  0.105682  1
  H  H3  1  0.302633  0.478385  0.105682  1
  H  H4  1  0.919181  0.249999  0.338205  1
  H  H5  1  0.503174  0.007030  0.506508  1
  H  H6  1  0.503174  0.492971  0.506508  1
  H  H7  1  0.093086  0.750000  0.686163  1
  H  H8  1  0.687096  0.480210  0.873623  1
  H  H9  1  0.687096  0.019789  0.873623  1
  Pd  Pd10  1  0.406976  0.249999  0.313467  1
  Pd  Pd11  1  0.596881  0.750000  0.694114  1
