# generated using pymatgen
data_PdBr35
_symmetry_space_group_name_H-M   'P 1'
_cell_length_a   15.98197694
_cell_length_b   11.40028128
_cell_length_c   10.79188300
_cell_angle_alpha   88.81408278
_cell_angle_beta   66.02770512
_cell_angle_gamma   92.31545406
_symmetry_Int_Tables_number   1
_chemical_formula_structural   PdBr35
_chemical_formula_sum   'Pd1 Br35'
_cell_volume   1793.71352310
_cell_formula_units_Z   1
loop_
 _symmetry_equiv_pos_site_id
 _symmetry_equiv_pos_as_xyz
  1  'x, y, z'
loop_
 _atom_site_type_symbol
 _atom_site_label
 _atom_site_symmetry_multiplicity
 _atom_site_fract_x
 _atom_site_fract_y
 _atom_site_fract_z
 _atom_site_occupancy
  Pd  Pd0  1  0.237632  0.450731  0.442732  1
  Br  Br1  1  0.512251  0.261996  0.517732  1
  Br  Br2  1  0.769300  0.575560  0.552096  1
  Br  Br3  1  0.495545  0.680158  0.746175  1
  Br  Br4  1  0.046710  0.887187  0.874497  1
  Br  Br5  1  0.891915  0.160489  0.001177  1
  Br  Br6  1  0.649702  0.321741  0.290033  1
  Br  Br7  1  0.624779  0.349581  0.837279  1
  Br  Br8  1  0.358769  0.748587  0.707054  1
  Br  Br9  1  0.336104  0.583089  0.236037  1
  Br  Br10  1  0.642509  0.144620  0.807178  1
  Br  Br11  1  0.905711  0.535985  0.344811  1
  Br  Br12  1  0.050167  0.954970  0.649012  1
  Br  Br13  1  0.892921  0.104110  0.239300  1
  Br  Br14  1  0.888974  0.219497  0.781521  1
  Br  Br15  1  0.651883  0.048242  0.236312  1
  Br  Br16  1  0.019457  0.815242  0.118816  1
  Br  Br17  1  0.371397  0.970338  0.719653  1
  Br  Br18  1  0.897709  0.313285  0.302789  1
  Br  Br19  1  0.868011  0.930815  0.722456  1
  Br  Br20  1  0.898568  0.663680  0.788110  1
  Br  Br21  1  0.319930  0.026939  0.290074  1
  Br  Br22  1  0.333106  0.305615  0.283399  1
  Br  Br23  1  0.633893  0.613000  0.788309  1
  Br  Br24  1  0.114728  0.433171  0.360543  1
  Br  Br25  1  0.701963  0.907678  0.793843  1
  Br  Br26  1  0.872353  0.454365  0.799288  1
  Br  Br27  1  0.492311  0.037603  0.262245  1
  Br  Br28  1  0.154393  0.297597  0.618272  1
  Br  Br29  1  0.671405  0.772405  0.270550  1
  Br  Br30  1  0.845477  0.796588  0.197838  1
  Br  Br31  1  0.377546  0.195303  0.732855  1
  Br  Br32  1  0.347049  0.486517  0.549291  1
  Br  Br33  1  0.653585  0.544778  0.268366  1
  Br  Br34  1  0.152470  0.607366  0.588561  1
  Br  Br35  1  0.319779  0.801173  0.281798  1
