# generated using pymatgen
data_Tm2PaFe2Si7
_symmetry_space_group_name_H-M   'P 1'
_cell_length_a   12.28025400
_cell_length_b   12.28025424
_cell_length_c   4.02535800
_cell_angle_alpha   90.00000000
_cell_angle_beta   90.00000000
_cell_angle_gamma   160.84734303
_symmetry_Int_Tables_number   1
_chemical_formula_structural   Tm2PaFe2Si7
_chemical_formula_sum   'Tm2 Pa1 Fe2 Si7'
_cell_volume   199.16232508
_cell_formula_units_Z   1
loop_
 _symmetry_equiv_pos_site_id
 _symmetry_equiv_pos_as_xyz
  1  'x, y, z'
loop_
 _atom_site_type_symbol
 _atom_site_label
 _atom_site_symmetry_multiplicity
 _atom_site_fract_x
 _atom_site_fract_y
 _atom_site_fract_z
 _atom_site_occupancy
  Tm  Tm0  1  0.098218  0.901782  0.500000  1
  Tm  Tm1  1  0.467948  0.532052  0.500000  1
  Pa  Pa2  1  0.782970  0.217030  0.000000  1
  Fe  Fe3  1  0.655648  0.344352  0.000000  1
  Fe  Fe4  1  0.910474  0.089526  0.000000  1
  Si  Si5  1  0.371385  0.628615  0.000000  1
  Si  Si6  1  0.561165  0.438835  0.000000  1
  Si  Si7  1  0.870926  0.129074  0.500000  1
  Si  Si8  1  0.004996  0.995004  0.000000  1
  Si  Si9  1  0.194726  0.805274  0.000000  1
  Si  Si10  1  0.283058  0.716942  0.500000  1
  Si  Si11  1  0.695188  0.304812  0.500000  1
