# generated using pymatgen
data_Zn(S8Br)3
_symmetry_space_group_name_H-M   'P 1'
_cell_length_a   15.10186995
_cell_length_b   15.10187006
_cell_length_c   15.10186946
_cell_angle_alpha   118.90412609
_cell_angle_beta   118.90412529
_cell_angle_gamma   118.90412040
_symmetry_Int_Tables_number   1
_chemical_formula_structural   Zn(S8Br)3
_chemical_formula_sum   'Zn1 S24 Br3'
_cell_volume   932.43083499
_cell_formula_units_Z   1
loop_
 _symmetry_equiv_pos_site_id
 _symmetry_equiv_pos_as_xyz
  1  'x, y, z'
loop_
 _atom_site_type_symbol
 _atom_site_label
 _atom_site_symmetry_multiplicity
 _atom_site_fract_x
 _atom_site_fract_y
 _atom_site_fract_z
 _atom_site_occupancy
  Zn  Zn0  1  0.939885  0.939885  0.939885  1
  S  S1  1  0.809785  0.529882  0.529882  1
  S  S2  1  0.529882  0.529882  0.809785  1
  S  S3  1  0.529882  0.809785  0.529882  1
  S  S4  1  0.240645  0.369594  0.628712  1
  S  S5  1  0.358602  0.959191  0.358602  1
  S  S6  1  0.358602  0.358602  0.959191  1
  S  S7  1  0.959191  0.358602  0.358602  1
  S  S8  1  0.120811  0.733901  0.249545  1
  S  S9  1  0.249545  0.120811  0.733901  1
  S  S10  1  0.733901  0.249545  0.120811  1
  S  S11  1  0.733901  0.120811  0.249545  1
  S  S12  1  0.249545  0.733901  0.120811  1
  S  S13  1  0.120811  0.249545  0.733901  1
  S  S14  1  0.353326  0.884328  0.535193  1
  S  S15  1  0.535193  0.353326  0.884328  1
  S  S16  1  0.884328  0.535193  0.353326  1
  S  S17  1  0.884328  0.353326  0.535193  1
  S  S18  1  0.535193  0.884328  0.353326  1
  S  S19  1  0.353326  0.535193  0.884328  1
  S  S20  1  0.240645  0.628712  0.369594  1
  S  S21  1  0.369594  0.240645  0.628712  1
  S  S22  1  0.628712  0.369594  0.240645  1
  S  S23  1  0.628712  0.240645  0.369594  1
  S  S24  1  0.369594  0.628712  0.240645  1
  Br  Br25  1  0.832112  0.987626  0.987626  1
  Br  Br26  1  0.987626  0.987626  0.832112  1
  Br  Br27  1  0.987626  0.832112  0.987626  1
