# generated using pymatgen
data_TiBe8CrIr2
_symmetry_space_group_name_H-M   'P 1'
_cell_length_a   4.36167800
_cell_length_b   4.36167854
_cell_length_c   7.14769900
_cell_angle_alpha   90.00000000
_cell_angle_beta   90.00000000
_cell_angle_gamma   120.00001106
_symmetry_Int_Tables_number   1
_chemical_formula_structural   TiBe8CrIr2
_chemical_formula_sum   'Ti1 Be8 Cr1 Ir2'
_cell_volume   117.76170752
_cell_formula_units_Z   1
loop_
 _symmetry_equiv_pos_site_id
 _symmetry_equiv_pos_as_xyz
  1  'x, y, z'
loop_
 _atom_site_type_symbol
 _atom_site_label
 _atom_site_symmetry_multiplicity
 _atom_site_fract_x
 _atom_site_fract_y
 _atom_site_fract_z
 _atom_site_occupancy
  Ti  Ti0  1  0.333333  0.666667  0.061130  1
  Be  Be1  1  0.168354  0.336706  0.745418  1
  Be  Be2  1  0.168354  0.831646  0.745418  1
  Be  Be3  1  0.337380  0.168691  0.255713  1
  Be  Be4  1  0.831309  0.662620  0.255713  1
  Be  Be5  1  0.000000  0.000000  0.999245  1
  Be  Be6  1  0.663294  0.831646  0.745418  1
  Be  Be7  1  0.831309  0.168691  0.255713  1
  Be  Be8  1  0.000000  0.000000  0.502761  1
  Cr  Cr9  1  0.666667  0.333333  0.564345  1
  Ir  Ir10  1  0.333333  0.666667  0.428650  1
  Ir  Ir11  1  0.666667  0.333333  0.940476  1
