# generated using pymatgen
data_Tb6Er(LuPb2)3
_symmetry_space_group_name_H-M   'P 1'
_cell_length_a   9.05591500
_cell_length_b   9.05591573
_cell_length_c   6.56682100
_cell_angle_alpha   90.00000000
_cell_angle_beta   90.00000000
_cell_angle_gamma   120.00000098
_symmetry_Int_Tables_number   1
_chemical_formula_structural   Tb6Er(LuPb2)3
_chemical_formula_sum   'Tb6 Er1 Lu3 Pb6'
_cell_volume   466.39138085
_cell_formula_units_Z   1
loop_
 _symmetry_equiv_pos_site_id
 _symmetry_equiv_pos_as_xyz
  1  'x, y, z'
loop_
 _atom_site_type_symbol
 _atom_site_label
 _atom_site_symmetry_multiplicity
 _atom_site_fract_x
 _atom_site_fract_y
 _atom_site_fract_z
 _atom_site_occupancy
  Tb  Tb0  1  0.760565  0.760655  0.750108  1
  Tb  Tb1  1  0.239345  0.999910  0.750108  1
  Tb  Tb2  1  0.000090  0.239435  0.750108  1
  Tb  Tb3  1  0.239345  0.239435  0.249892  1
  Tb  Tb4  1  0.760565  0.999910  0.249892  1
  Tb  Tb5  1  0.000090  0.760655  0.249892  1
  Er  Er6  1  0.666667  0.333333  0.500000  1
  Lu  Lu7  1  0.666667  0.333333  0.000000  1
  Lu  Lu8  1  0.333333  0.666667  0.000000  1
  Lu  Lu9  1  0.333333  0.666667  0.500000  1
  Pb  Pb10  1  0.395245  0.395793  0.750459  1
  Pb  Pb11  1  0.604207  0.999453  0.750459  1
  Pb  Pb12  1  0.000547  0.604755  0.750459  1
  Pb  Pb13  1  0.604207  0.604755  0.249541  1
  Pb  Pb14  1  0.395245  0.999453  0.249541  1
  Pb  Pb15  1  0.000547  0.395793  0.249541  1
