# generated using pymatgen
data_Zr10GaSb5
_symmetry_space_group_name_H-M   'P 1'
_cell_length_a   5.62833242
_cell_length_b   8.39312038
_cell_length_c   8.39312040
_cell_angle_alpha   96.45497649
_cell_angle_beta   109.59044657
_cell_angle_gamma   70.40955451
_symmetry_Int_Tables_number   1
_chemical_formula_structural   Zr10GaSb5
_chemical_formula_sum   'Zr10 Ga1 Sb5'
_cell_volume   351.91111522
_cell_formula_units_Z   1
loop_
 _symmetry_equiv_pos_site_id
 _symmetry_equiv_pos_as_xyz
  1  'x, y, z'
loop_
 _atom_site_type_symbol
 _atom_site_label
 _atom_site_symmetry_multiplicity
 _atom_site_fract_x
 _atom_site_fract_y
 _atom_site_fract_z
 _atom_site_occupancy
  Zr  Zr0  1  0.418627  0.858612  0.707091  1
  Zr  Zr1  1  0.570148  0.141388  0.292909  1
  Zr  Zr2  1  0.929852  0.292909  0.141388  1
  Zr  Zr3  1  0.081373  0.707091  0.858612  1
  Zr  Zr4  1  0.711536  0.707091  0.141388  1
  Zr  Zr5  1  0.277239  0.292909  0.858612  1
  Zr  Zr6  1  0.788464  0.141388  0.707091  1
  Zr  Zr7  1  0.222761  0.858612  0.292909  1
  Zr  Zr8  1  0.250000  0.500000  0.500000  1
  Zr  Zr9  1  0.750000  0.500000  0.500000  1
  Ga  Ga10  1  0.250000  0.000000  0.000000  1
  Sb  Sb11  1  0.336356  0.500000  0.172713  1
  Sb  Sb12  1  0.663644  0.500000  0.827287  1
  Sb  Sb13  1  0.836356  0.827287  0.500000  1
  Sb  Sb14  1  0.163644  0.172713  0.500000  1
  Sb  Sb15  1  0.750000  0.000000  0.000000  1
