# generated using pymatgen
data_K6Ba5Yb(InP4)2
_symmetry_space_group_name_H-M   'P 1'
_cell_length_a   10.39190334
_cell_length_b   10.38165830
_cell_length_c   7.72127778
_cell_angle_alpha   89.99999843
_cell_angle_beta   89.02386836
_cell_angle_gamma   119.96738797
_symmetry_Int_Tables_number   1
_chemical_formula_structural   K6Ba5Yb(InP4)2
_chemical_formula_sum   'K6 Ba5 Yb1 In2 P8'
_cell_volume   721.50654188
_cell_formula_units_Z   1
loop_
 _symmetry_equiv_pos_site_id
 _symmetry_equiv_pos_as_xyz
  1  'x, y, z'
loop_
 _atom_site_type_symbol
 _atom_site_label
 _atom_site_symmetry_multiplicity
 _atom_site_fract_x
 _atom_site_fract_y
 _atom_site_fract_z
 _atom_site_occupancy
  K  K0  1  0.735309  0.867654  0.170358  1
  K  K1  1  0.863261  0.137988  0.669146  1
  K  K2  1  0.863261  0.725274  0.669146  1
  K  K3  1  0.138885  0.278225  0.170103  1
  K  K4  1  0.138885  0.860659  0.170103  1
  K  K5  1  0.266010  0.133005  0.681701  1
  Ba  Ba6  1  0.047235  0.523618  0.502921  1
  Ba  Ba7  1  0.467016  0.941964  0.503190  1
  Ba  Ba8  1  0.467016  0.525054  0.503190  1
  Ba  Ba9  1  0.532933  0.477334  0.001137  1
  Ba  Ba10  1  0.532933  0.055599  0.001137  1
  Yb  Yb11  1  0.925360  0.462680  0.001169  1
  In  In12  1  0.324333  0.662167  0.886327  1
  In  In13  1  0.668237  0.334118  0.376628  1
  P  P14  1  0.683497  0.341748  0.728441  1
  P  P15  1  0.606231  0.803116  0.768234  1
  P  P16  1  0.813794  0.209027  0.250614  1
  P  P17  1  0.813794  0.604768  0.250614  1
  P  P18  1  0.343329  0.671665  0.226891  1
  P  P19  1  0.188144  0.389048  0.774195  1
  P  P20  1  0.188144  0.799095  0.774195  1
  P  P21  1  0.392389  0.196195  0.278958  1
