# generated using pymatgen
data_TiNb3(CoSi)4
_symmetry_space_group_name_H-M   'P 1'
_cell_length_a   3.66615000
_cell_length_b   6.23017905
_cell_length_c   7.03896505
_cell_angle_alpha   89.98567471
_cell_angle_beta   90.00000000
_cell_angle_gamma   90.00000000
_symmetry_Int_Tables_number   1
_chemical_formula_structural   TiNb3(CoSi)4
_chemical_formula_sum   'Ti1 Nb3 Co4 Si4'
_cell_volume   160.77538331
_cell_formula_units_Z   1
loop_
 _symmetry_equiv_pos_site_id
 _symmetry_equiv_pos_as_xyz
  1  'x, y, z'
loop_
 _atom_site_type_symbol
 _atom_site_label
 _atom_site_symmetry_multiplicity
 _atom_site_fract_x
 _atom_site_fract_y
 _atom_site_fract_z
 _atom_site_occupancy
  Ti  Ti0  1  0.250000  0.019262  0.816519  1
  Nb  Nb1  1  0.250000  0.519334  0.680688  1
  Nb  Nb2  1  0.750000  0.979750  0.181266  1
  Nb  Nb3  1  0.750000  0.478607  0.320115  1
  Co  Co4  1  0.250000  0.142419  0.438276  1
  Co  Co5  1  0.250000  0.642346  0.061185  1
  Co  Co6  1  0.750000  0.858882  0.566275  1
  Co  Co7  1  0.750000  0.358086  0.936269  1
  Si  Si8  1  0.250000  0.776120  0.382992  1
  Si  Si9  1  0.250000  0.274217  0.113735  1
  Si  Si10  1  0.750000  0.222864  0.620309  1
  Si  Si11  1  0.750000  0.728112  0.882371  1
