# generated using pymatgen
data_Dy6Ho3Tm(CoSb2)2
_symmetry_space_group_name_H-M   'P 1'
_cell_length_a   7.83619033
_cell_length_b   8.75793137
_cell_length_c   12.16884900
_cell_angle_alpha   90.00000000
_cell_angle_beta   90.00000000
_cell_angle_gamma   89.96685119
_symmetry_Int_Tables_number   1
_chemical_formula_structural   Dy6Ho3Tm(CoSb2)2
_chemical_formula_sum   'Dy12 Ho6 Tm2 Co4 Sb8'
_cell_volume   835.13357215
_cell_formula_units_Z   2
loop_
 _symmetry_equiv_pos_site_id
 _symmetry_equiv_pos_as_xyz
  1  'x, y, z'
loop_
 _atom_site_type_symbol
 _atom_site_label
 _atom_site_symmetry_multiplicity
 _atom_site_fract_x
 _atom_site_fract_y
 _atom_site_fract_z
 _atom_site_occupancy
  Dy  Dy0  1  0.154091  0.750116  0.203615  1
  Dy  Dy1  1  0.345909  0.749884  0.703615  1
  Dy  Dy2  1  0.845630  0.249993  0.796382  1
  Dy  Dy3  1  0.654370  0.250007  0.296382  1
  Dy  Dy4  1  0.453529  0.750096  0.997978  1
  Dy  Dy5  1  0.046471  0.749904  0.497978  1
  Dy  Dy6  1  0.547002  0.249828  0.002027  1
  Dy  Dy7  1  0.952998  0.250172  0.502027  1
  Dy  Dy8  1  0.622547  0.749797  0.307439  1
  Dy  Dy9  1  0.877453  0.750203  0.807439  1
  Dy  Dy10  1  0.377894  0.250113  0.692556  1
  Dy  Dy11  1  0.122106  0.249887  0.192556  1
  Ho  Ho12  1  0.822192  0.535833  0.065330  1
  Ho  Ho13  1  0.677808  0.964167  0.565330  1
  Ho  Ho14  1  0.177493  0.035648  0.934827  1
  Ho  Ho15  1  0.322507  0.464352  0.434827  1
  Ho  Ho16  1  0.177848  0.464327  0.934721  1
  Ho  Ho17  1  0.322152  0.035673  0.434721  1
  Tm  Tm18  1  0.823210  0.964114  0.065216  1
  Tm  Tm19  1  0.676790  0.535886  0.565216  1
  Co  Co20  1  0.435479  0.749649  0.491398  1
  Co  Co21  1  0.064521  0.750351  0.991398  1
  Co  Co22  1  0.565337  0.250271  0.508756  1
  Co  Co23  1  0.934663  0.249729  0.008756  1
  Sb  Sb24  1  0.929315  0.508129  0.327058  1
  Sb  Sb25  1  0.570685  0.991871  0.827058  1
  Sb  Sb26  1  0.070794  0.008098  0.672938  1
  Sb  Sb27  1  0.429206  0.491902  0.172938  1
  Sb  Sb28  1  0.070388  0.491967  0.672861  1
  Sb  Sb29  1  0.429612  0.008033  0.172861  1
  Sb  Sb30  1  0.929105  0.991854  0.326897  1
  Sb  Sb31  1  0.570895  0.508146  0.826897  1
