# generated using pymatgen
data_Ba2In(IrO3)6
_symmetry_space_group_name_H-M   'P 1'
_cell_length_a   7.00552319
_cell_length_b   7.19382026
_cell_length_c   7.75751061
_cell_angle_alpha   92.55957987
_cell_angle_beta   95.32366644
_cell_angle_gamma   115.43027083
_symmetry_Int_Tables_number   1
_chemical_formula_structural   Ba2In(IrO3)6
_chemical_formula_sum   'Ba2 In1 Ir6 O18'
_cell_volume   349.99274797
_cell_formula_units_Z   1
loop_
 _symmetry_equiv_pos_site_id
 _symmetry_equiv_pos_as_xyz
  1  'x, y, z'
loop_
 _atom_site_type_symbol
 _atom_site_label
 _atom_site_symmetry_multiplicity
 _atom_site_fract_x
 _atom_site_fract_y
 _atom_site_fract_z
 _atom_site_occupancy
  Ba  Ba0  1  0.313240  0.678528  0.622457  1
  Ba  Ba1  1  0.680487  0.319354  0.384007  1
  In  In2  1  0.393716  0.266474  0.879958  1
  Ir  Ir3  1  0.807978  0.122541  0.811724  1
  Ir  Ir4  1  0.190254  0.872163  0.187282  1
  Ir  Ir5  1  0.605398  0.723815  0.118785  1
  Ir  Ir6  1  0.990728  0.992913  0.496438  1
  Ir  Ir7  1  0.827898  0.625020  0.808248  1
  Ir  Ir8  1  0.173036  0.378074  0.195100  1
  O  O9  1  0.929933  0.727485  0.586136  1
  O  O10  1  0.285351  0.169789  0.126929  1
  O  O11  1  0.323131  0.524205  0.993995  1
  O  O12  1  0.464249  0.555362  0.308059  1
  O  O13  1  0.486574  0.920615  0.165500  1
  O  O14  1  0.901794  0.400842  0.726551  1
  O  O15  1  0.730424  0.837191  0.893025  1
  O  O16  1  0.918685  0.233211  0.045412  1
  O  O17  1  0.697819  0.512221  0.025895  1
  O  O18  1  0.066671  0.267533  0.413905  1
  O  O19  1  0.083397  0.133156  0.736686  1
  O  O20  1  0.725018  0.994511  0.570303  1
  O  O21  1  0.093460  0.595767  0.273753  1
  O  O22  1  0.899210  0.866880  0.251409  1
  O  O23  1  0.091440  0.769598  0.950389  1
  O  O24  1  0.511639  0.055619  0.817126  1
  O  O25  1  0.261542  0.992743  0.429047  1
  O  O26  1  0.546928  0.464390  0.681882  1
