# generated using pymatgen
data_Sc3Pa(AgS4)2
_symmetry_space_group_name_H-M   'P 1'
_cell_length_a   7.73198188
_cell_length_b   7.73198174
_cell_length_c   7.82897500
_cell_angle_alpha   119.59101352
_cell_angle_beta   119.59101296
_cell_angle_gamma   60.00000033
_symmetry_Int_Tables_number   1
_chemical_formula_structural   Sc3Pa(AgS4)2
_chemical_formula_sum   'Sc3 Pa1 Ag2 S8'
_cell_volume   332.98817568
_cell_formula_units_Z   1
loop_
 _symmetry_equiv_pos_site_id
 _symmetry_equiv_pos_as_xyz
  1  'x, y, z'
loop_
 _atom_site_type_symbol
 _atom_site_label
 _atom_site_symmetry_multiplicity
 _atom_site_fract_x
 _atom_site_fract_y
 _atom_site_fract_z
 _atom_site_occupancy
  Sc  Sc0  1  0.500000  0.500000  0.500000  1
  Sc  Sc1  1  0.500000  0.000000  0.500000  1
  Sc  Sc2  1  0.000000  0.500000  0.500000  1
  Pa  Pa3  1  0.500000  0.500000  0.000000  1
  Ag  Ag4  1  0.869257  0.869257  0.107771  1
  Ag  Ag5  1  0.130742  0.130742  0.892229  1
  S  S6  1  0.741662  0.741662  0.263893  1
  S  S7  1  0.741664  0.280569  0.263894  1
  S  S8  1  0.280569  0.741664  0.263894  1
  S  S9  1  0.263485  0.263485  0.290455  1
  S  S10  1  0.736515  0.736515  0.709544  1
  S  S11  1  0.719432  0.258337  0.736106  1
  S  S12  1  0.258337  0.719432  0.736106  1
  S  S13  1  0.258338  0.258338  0.736106  1
