# generated using pymatgen
data_Dy2Th(CoSn)3
_symmetry_space_group_name_H-M   'P 1'
_cell_length_a   7.40469300
_cell_length_b   7.22781372
_cell_length_c   3.95233500
_cell_angle_alpha   90.00000000
_cell_angle_beta   90.00000000
_cell_angle_gamma   120.81288009
_symmetry_Int_Tables_number   1
_chemical_formula_structural   Dy2Th(CoSn)3
_chemical_formula_sum   'Dy2 Th1 Co3 Sn3'
_cell_volume   181.66967162
_cell_formula_units_Z   1
loop_
 _symmetry_equiv_pos_site_id
 _symmetry_equiv_pos_as_xyz
  1  'x, y, z'
loop_
 _atom_site_type_symbol
 _atom_site_label
 _atom_site_symmetry_multiplicity
 _atom_site_fract_x
 _atom_site_fract_y
 _atom_site_fract_z
 _atom_site_occupancy
  Dy  Dy0  1  0.998775  0.591673  0.500000  1
  Dy  Dy1  1  0.407101  0.408327  0.500000  1
  Th  Th2  1  0.583067  0.000000  0.500000  1
  Co  Co3  1  0.352900  0.687515  0.000000  1
  Co  Co4  1  0.993517  0.000000  0.500000  1
  Co  Co5  1  0.665386  0.312485  0.000000  1
  Sn  Sn6  1  0.746962  0.736251  0.000000  1
  Sn  Sn7  1  0.010711  0.263749  0.000000  1
  Sn  Sn8  1  0.241580  0.000000  0.000000  1
