# generated using pymatgen
data_CaSb12(IrOs)2
_symmetry_space_group_name_H-M   'P 1'
_cell_length_a   8.16681654
_cell_length_b   8.14637385
_cell_length_c   8.16681641
_cell_angle_alpha   109.47725335
_cell_angle_beta   109.55929263
_cell_angle_gamma   109.47859345
_symmetry_Int_Tables_number   1
_chemical_formula_structural   CaSb12(IrOs)2
_chemical_formula_sum   'Ca1 Sb12 Ir2 Os2'
_cell_volume   417.73679288
_cell_formula_units_Z   1
loop_
 _symmetry_equiv_pos_site_id
 _symmetry_equiv_pos_as_xyz
  1  'x, y, z'
loop_
 _atom_site_type_symbol
 _atom_site_label
 _atom_site_symmetry_multiplicity
 _atom_site_fract_x
 _atom_site_fract_y
 _atom_site_fract_z
 _atom_site_occupancy
  Ca  Ca0  1  0.000000  0.000000  0.000000  1
  Sb  Sb1  1  0.842746  0.658455  0.504259  1
  Sb  Sb2  1  0.157254  0.341545  0.495741  1
  Sb  Sb3  1  0.154197  0.658455  0.815709  1
  Sb  Sb4  1  0.845803  0.341545  0.184291  1
  Sb  Sb5  1  0.661596  0.504617  0.843021  1
  Sb  Sb6  1  0.338404  0.495383  0.156979  1
  Sb  Sb7  1  0.658770  0.813276  0.154506  1
  Sb  Sb8  1  0.341230  0.186724  0.845494  1
  Sb  Sb9  1  0.504306  0.843322  0.659002  1
  Sb  Sb10  1  0.495694  0.156678  0.340998  1
  Sb  Sb11  1  0.184320  0.843322  0.339016  1
  Sb  Sb12  1  0.815680  0.156678  0.660984  1
  Ir  Ir13  1  0.500000  0.000000  0.000000  1
  Ir  Ir14  1  0.000000  0.000000  0.500000  1
  Os  Os15  1  0.500000  0.500000  0.500000  1
  Os  Os16  1  0.000000  0.500000  0.000000  1
