# generated using pymatgen
data_DyY7(NiAg)2
_symmetry_space_group_name_H-M   'P 1'
_cell_length_a   9.50775116
_cell_length_b   9.50775159
_cell_length_c   9.47005500
_cell_angle_alpha   60.13107244
_cell_angle_beta   60.13107095
_cell_angle_gamma   59.97857828
_symmetry_Int_Tables_number   1
_chemical_formula_structural   DyY7(NiAg)2
_chemical_formula_sum   'Dy2 Y14 Ni4 Ag4'
_cell_volume   606.42914659
_cell_formula_units_Z   2
loop_
 _symmetry_equiv_pos_site_id
 _symmetry_equiv_pos_as_xyz
  1  'x, y, z'
loop_
 _atom_site_type_symbol
 _atom_site_label
 _atom_site_symmetry_multiplicity
 _atom_site_fract_x
 _atom_site_fract_y
 _atom_site_fract_z
 _atom_site_occupancy
  Dy  Dy0  1  0.600065  0.600065  0.597690  1
  Dy  Dy1  1  0.600065  0.600065  0.202180  1
  Y  Y2  1  0.603470  0.194692  0.600918  1
  Y  Y3  1  0.194692  0.603470  0.600918  1
  Y  Y4  1  0.061232  0.438496  0.439299  1
  Y  Y5  1  0.438496  0.061232  0.060973  1
  Y  Y6  1  0.438496  0.061232  0.439299  1
  Y  Y7  1  0.061232  0.438496  0.060973  1
  Y  Y8  1  0.439081  0.439081  0.060919  1
  Y  Y9  1  0.061967  0.061967  0.438033  1
  Y  Y10  1  0.185665  0.814387  0.814103  1
  Y  Y11  1  0.814387  0.185665  0.185845  1
  Y  Y12  1  0.814387  0.185665  0.814103  1
  Y  Y13  1  0.185665  0.814387  0.185845  1
  Y  Y14  1  0.814323  0.814323  0.185677  1
  Y  Y15  1  0.185701  0.185701  0.814299  1
  Ni  Ni16  1  0.393850  0.393850  0.393592  1
  Ni  Ni17  1  0.393850  0.393850  0.818707  1
  Ni  Ni18  1  0.393492  0.820436  0.393036  1
  Ni  Ni19  1  0.820436  0.393492  0.393036  1
  Ag  Ag20  1  0.831283  0.831283  0.832576  1
  Ag  Ag21  1  0.831283  0.831283  0.504858  1
  Ag  Ag22  1  0.830420  0.506463  0.831559  1
  Ag  Ag23  1  0.506463  0.830420  0.831559  1
