# generated using pymatgen
data_Er4Sc3TiIr4
_symmetry_space_group_name_H-M   'P 1'
_cell_length_a   4.34651700
_cell_length_b   7.01885393
_cell_length_c   8.37881438
_cell_angle_alpha   91.66049751
_cell_angle_beta   90.00000000
_cell_angle_gamma   90.00000000
_symmetry_Int_Tables_number   1
_chemical_formula_structural   Er4Sc3TiIr4
_chemical_formula_sum   'Er4 Sc3 Ti1 Ir4'
_cell_volume   255.50990897
_cell_formula_units_Z   1
loop_
 _symmetry_equiv_pos_site_id
 _symmetry_equiv_pos_as_xyz
  1  'x, y, z'
loop_
 _atom_site_type_symbol
 _atom_site_label
 _atom_site_symmetry_multiplicity
 _atom_site_fract_x
 _atom_site_fract_y
 _atom_site_fract_z
 _atom_site_occupancy
  Er  Er0  1  0.250000  0.979639  0.329577  1
  Er  Er1  1  0.250000  0.482401  0.172295  1
  Er  Er2  1  0.750000  0.028988  0.677465  1
  Er  Er3  1  0.750000  0.517170  0.818588  1
  Sc  Sc4  1  0.250000  0.858089  0.933035  1
  Sc  Sc5  1  0.750000  0.637622  0.433312  1
  Sc  Sc6  1  0.750000  0.149229  0.069768  1
  Ti  Ti7  1  0.250000  0.359635  0.562420  1
  Ir  Ir8  1  0.250000  0.239000  0.877870  1
  Ir  Ir9  1  0.250000  0.724527  0.607074  1
  Ir  Ir10  1  0.750000  0.761876  0.109399  1
  Ir  Ir11  1  0.750000  0.261824  0.409196  1
