# generated using pymatgen
data_CaDyNb3Ni9As7
_symmetry_space_group_name_H-M   'P 1'
_cell_length_a   3.84339700
_cell_length_b   9.62443680
_cell_length_c   9.62443800
_cell_angle_alpha   119.99999724
_cell_angle_beta   90.00000000
_cell_angle_gamma   90.00000000
_symmetry_Int_Tables_number   1
_chemical_formula_structural   CaDyNb3Ni9As7
_chemical_formula_sum   'Ca1 Dy1 Nb3 Ni9 As7'
_cell_volume   308.31637763
_cell_formula_units_Z   1
loop_
 _symmetry_equiv_pos_site_id
 _symmetry_equiv_pos_as_xyz
  1  'x, y, z'
loop_
 _atom_site_type_symbol
 _atom_site_label
 _atom_site_symmetry_multiplicity
 _atom_site_fract_x
 _atom_site_fract_y
 _atom_site_fract_z
 _atom_site_occupancy
  Ca  Ca0  1  0.000000  0.666667  0.333333  1
  Dy  Dy1  1  0.500000  0.333333  0.666667  1
  Nb  Nb2  1  0.500000  0.776711  0.894593  1
  Nb  Nb3  1  0.500000  0.117881  0.223289  1
  Nb  Nb4  1  0.500000  0.105407  0.882119  1
  Ni  Ni5  1  0.000000  0.573175  0.934107  1
  Ni  Ni6  1  0.000000  0.360932  0.426825  1
  Ni  Ni7  1  0.000000  0.065893  0.639068  1
  Ni  Ni8  1  0.000000  0.871850  0.154438  1
  Ni  Ni9  1  0.000000  0.282589  0.128150  1
  Ni  Ni10  1  0.000000  0.845562  0.717411  1
  Ni  Ni11  1  0.500000  0.943599  0.379848  1
  Ni  Ni12  1  0.500000  0.436249  0.056401  1
  Ni  Ni13  1  0.500000  0.620152  0.563751  1
  As  As14  1  0.500000  0.705328  0.118584  1
  As  As15  1  0.500000  0.413258  0.294672  1
  As  As16  1  0.500000  0.881416  0.586742  1
  As  As17  1  0.000000  0.000000  0.000000  1
  As  As18  1  0.000000  0.581820  0.691523  1
  As  As19  1  0.000000  0.109704  0.418180  1
  As  As20  1  0.000000  0.308477  0.890296  1
