# generated using pymatgen
data_Y3Si6(Pd3Pt2)4
_symmetry_space_group_name_H-M   'P 1'
_cell_length_a   8.74591562
_cell_length_b   8.74591626
_cell_length_c   8.74591600
_cell_angle_alpha   60.00000099
_cell_angle_beta   59.99999857
_cell_angle_gamma   60.00000365
_symmetry_Int_Tables_number   1
_chemical_formula_structural   Y3Si6(Pd3Pt2)4
_chemical_formula_sum   'Y3 Si6 Pd12 Pt8'
_cell_volume   473.04331832
_cell_formula_units_Z   1
loop_
 _symmetry_equiv_pos_site_id
 _symmetry_equiv_pos_as_xyz
  1  'x, y, z'
loop_
 _atom_site_type_symbol
 _atom_site_label
 _atom_site_symmetry_multiplicity
 _atom_site_fract_x
 _atom_site_fract_y
 _atom_site_fract_z
 _atom_site_occupancy
  Y  Y0  1  0.250000  0.250000  0.250000  1
  Y  Y1  1  0.750000  0.750000  0.750000  1
  Y  Y2  1  0.000000  0.000000  0.000000  1
  Si  Si3  1  0.731385  0.268614  0.268615  1
  Si  Si4  1  0.268614  0.731386  0.731385  1
  Si  Si5  1  0.268615  0.731385  0.268614  1
  Si  Si6  1  0.731385  0.268615  0.731385  1
  Si  Si7  1  0.268615  0.268615  0.731385  1
  Si  Si8  1  0.731385  0.731386  0.268615  1
  Pd  Pd9  1  0.344244  0.000000  0.000000  1
  Pd  Pd10  1  0.655756  0.000000  0.000000  1
  Pd  Pd11  1  0.000000  0.344244  0.655756  1
  Pd  Pd12  1  0.000000  0.655756  0.344244  1
  Pd  Pd13  1  0.000000  0.344244  0.000000  1
  Pd  Pd14  1  0.655756  0.000000  0.344244  1
  Pd  Pd15  1  0.000000  0.655756  0.000000  1
  Pd  Pd16  1  0.344244  0.000000  0.655756  1
  Pd  Pd17  1  0.000000  0.000000  0.344244  1
  Pd  Pd18  1  0.000000  0.000000  0.655756  1
  Pd  Pd19  1  0.655756  0.344244  0.000000  1
  Pd  Pd20  1  0.344244  0.655756  0.000000  1
  Pt  Pt21  1  0.383471  0.383471  0.383471  1
  Pt  Pt22  1  0.616529  0.616529  0.616529  1
  Pt  Pt23  1  0.383471  0.383471  0.849585  1
  Pt  Pt24  1  0.383471  0.849585  0.383471  1
  Pt  Pt25  1  0.616529  0.616529  0.150415  1
  Pt  Pt26  1  0.616529  0.150415  0.616529  1
  Pt  Pt27  1  0.849585  0.383471  0.383471  1
  Pt  Pt28  1  0.150415  0.616529  0.616529  1
