# generated using pymatgen
data_Tb2TaB2Ru5
_symmetry_space_group_name_H-M   'P 1'
_cell_length_a   9.68809000
_cell_length_b   9.68809000
_cell_length_c   3.13867400
_cell_angle_alpha   90.00000000
_cell_angle_beta   90.00000000
_cell_angle_gamma   90.00000000
_symmetry_Int_Tables_number   1
_chemical_formula_structural   Tb2TaB2Ru5
_chemical_formula_sum   'Tb4 Ta2 B4 Ru10'
_cell_volume   294.59307869
_cell_formula_units_Z   2
loop_
 _symmetry_equiv_pos_site_id
 _symmetry_equiv_pos_as_xyz
  1  'x, y, z'
loop_
 _atom_site_type_symbol
 _atom_site_label
 _atom_site_symmetry_multiplicity
 _atom_site_fract_x
 _atom_site_fract_y
 _atom_site_fract_z
 _atom_site_occupancy
  Tb  Tb0  1  0.825073  0.674927  0.000000  1
  Tb  Tb1  1  0.174927  0.325073  0.000000  1
  Tb  Tb2  1  0.325073  0.825073  0.000000  1
  Tb  Tb3  1  0.674927  0.174927  0.000000  1
  Ta  Ta4  1  0.500000  0.500000  0.000000  1
  Ta  Ta5  1  0.000000  0.000000  0.000000  1
  B  B6  1  0.620342  0.879658  0.000000  1
  B  B7  1  0.379658  0.120342  0.000000  1
  B  B8  1  0.120342  0.620342  0.000000  1
  B  B9  1  0.879658  0.379658  0.000000  1
  Ru  Ru10  1  0.570836  0.718163  0.500000  1
  Ru  Ru11  1  0.429164  0.281837  0.500000  1
  Ru  Ru12  1  0.070836  0.781837  0.500000  1
  Ru  Ru13  1  0.929164  0.218163  0.500000  1
  Ru  Ru14  1  0.281837  0.570836  0.500000  1
  Ru  Ru15  1  0.718163  0.429164  0.500000  1
  Ru  Ru16  1  0.218163  0.070836  0.500000  1
  Ru  Ru17  1  0.781837  0.929164  0.500000  1
  Ru  Ru18  1  0.500000  0.000000  0.500000  1
  Ru  Ru19  1  0.000000  0.500000  0.500000  1
