# generated using pymatgen
data_Sm3Sn3Hg2
_symmetry_space_group_name_H-M   'P 1'
_cell_length_a   6.53004560
_cell_length_b   6.53004566
_cell_length_c   10.37466400
_cell_angle_alpha   90.00000000
_cell_angle_beta   90.00000000
_cell_angle_gamma   103.11527960
_symmetry_Int_Tables_number   1
_chemical_formula_structural   Sm3Sn3Hg2
_chemical_formula_sum   'Sm6 Sn6 Hg4'
_cell_volume   430.85163512
_cell_formula_units_Z   2
loop_
 _symmetry_equiv_pos_site_id
 _symmetry_equiv_pos_as_xyz
  1  'x, y, z'
loop_
 _atom_site_type_symbol
 _atom_site_label
 _atom_site_symmetry_multiplicity
 _atom_site_fract_x
 _atom_site_fract_y
 _atom_site_fract_z
 _atom_site_occupancy
  Sm  Sm0  1  0.627065  0.627065  0.250000  1
  Sm  Sm1  1  0.372935  0.372935  0.750000  1
  Sm  Sm2  1  0.796238  0.203762  0.000000  1
  Sm  Sm3  1  0.203762  0.796238  0.000000  1
  Sm  Sm4  1  0.203762  0.796238  0.500000  1
  Sm  Sm5  1  0.796238  0.203762  0.500000  1
  Sn  Sn6  1  0.068985  0.496395  0.250000  1
  Sn  Sn7  1  0.931015  0.503605  0.750000  1
  Sn  Sn8  1  0.496395  0.068985  0.250000  1
  Sn  Sn9  1  0.503605  0.931015  0.750000  1
  Sn  Sn10  1  0.017857  0.017857  0.250000  1
  Sn  Sn11  1  0.982143  0.982143  0.750000  1
  Hg  Hg12  1  0.313548  0.313548  0.040648  1
  Hg  Hg13  1  0.686452  0.686452  0.959352  1
  Hg  Hg14  1  0.686452  0.686452  0.540648  1
  Hg  Hg15  1  0.313548  0.313548  0.459352  1
