# generated using pymatgen
data_SrTbY2(Mo2O7)2
_symmetry_space_group_name_H-M   'P 1'
_cell_length_a   7.37031235
_cell_length_b   7.37371984
_cell_length_c   7.47918615
_cell_angle_alpha   60.48418576
_cell_angle_beta   60.48037147
_cell_angle_gamma   60.01527739
_symmetry_Int_Tables_number   1
_chemical_formula_structural   SrTbY2(Mo2O7)2
_chemical_formula_sum   'Sr1 Tb1 Y2 Mo4 O14'
_cell_volume   289.52787832
_cell_formula_units_Z   1
loop_
 _symmetry_equiv_pos_site_id
 _symmetry_equiv_pos_as_xyz
  1  'x, y, z'
loop_
 _atom_site_type_symbol
 _atom_site_label
 _atom_site_symmetry_multiplicity
 _atom_site_fract_x
 _atom_site_fract_y
 _atom_site_fract_z
 _atom_site_occupancy
  Sr  Sr0  1  0.125000  0.125000  0.625000  1
  Tb  Tb1  1  0.125000  0.625000  0.125000  1
  Y  Y2  1  0.125000  0.125000  0.125000  1
  Y  Y3  1  0.625000  0.125000  0.125000  1
  Mo  Mo4  1  0.625000  0.625000  0.625000  1
  Mo  Mo5  1  0.125000  0.625000  0.625000  1
  Mo  Mo6  1  0.625000  0.125000  0.625000  1
  Mo  Mo7  1  0.625000  0.625000  0.125000  1
  O  O8  1  0.257990  0.256285  0.227737  1
  O  O9  1  0.992010  0.993715  0.022263  1
  O  O10  1  0.558108  0.958491  0.524528  1
  O  O11  1  0.299149  0.706537  0.287449  1
  O  O12  1  0.543135  0.543463  0.962551  1
  O  O13  1  0.958841  0.557910  0.524408  1
  O  O14  1  0.543610  0.950203  0.962578  1
  O  O15  1  0.958874  0.958491  0.524528  1
  O  O16  1  0.950851  0.543463  0.962551  1
  O  O17  1  0.706390  0.299797  0.287422  1
  O  O18  1  0.291159  0.692090  0.725592  1
  O  O19  1  0.706865  0.706537  0.287449  1
  O  O20  1  0.291126  0.291509  0.725472  1
  O  O21  1  0.691892  0.291509  0.725472  1
