# generated using pymatgen
data_In2Cu(Ni10P3)2
_symmetry_space_group_name_H-M   'P 1'
_cell_length_a   7.86071312
_cell_length_b   7.86071290
_cell_length_c   7.86071300
_cell_angle_alpha   59.99999539
_cell_angle_beta   59.99999630
_cell_angle_gamma   59.99999905
_symmetry_Int_Tables_number   1
_chemical_formula_structural   In2Cu(Ni10P3)2
_chemical_formula_sum   'In2 Cu1 Ni20 P6'
_cell_volume   343.45575165
_cell_formula_units_Z   1
loop_
 _symmetry_equiv_pos_site_id
 _symmetry_equiv_pos_as_xyz
  1  'x, y, z'
loop_
 _atom_site_type_symbol
 _atom_site_label
 _atom_site_symmetry_multiplicity
 _atom_site_fract_x
 _atom_site_fract_y
 _atom_site_fract_z
 _atom_site_occupancy
  In  In0  1  0.750000  0.750000  0.750000  1
  In  In1  1  0.250000  0.250000  0.250000  1
  Cu  Cu2  1  0.000000  0.000000  0.000000  1
  Ni  Ni3  1  0.384732  0.845801  0.384732  1
  Ni  Ni4  1  0.384732  0.384732  0.845801  1
  Ni  Ni5  1  0.347683  0.000000  0.652317  1
  Ni  Ni6  1  0.000000  0.347683  0.652317  1
  Ni  Ni7  1  0.154199  0.615268  0.615268  1
  Ni  Ni8  1  0.652317  0.000000  0.000000  1
  Ni  Ni9  1  0.845801  0.384732  0.384732  1
  Ni  Ni10  1  0.652317  0.347683  0.000000  1
  Ni  Ni11  1  0.000000  0.347683  0.000000  1
  Ni  Ni12  1  0.347683  0.652317  0.000000  1
  Ni  Ni13  1  0.000000  0.000000  0.347683  1
  Ni  Ni14  1  0.615268  0.154199  0.615268  1
  Ni  Ni15  1  0.652317  0.000000  0.347683  1
  Ni  Ni16  1  0.000000  0.652317  0.000000  1
  Ni  Ni17  1  0.615268  0.615268  0.154199  1
  Ni  Ni18  1  0.000000  0.652317  0.347683  1
  Ni  Ni19  1  0.347683  0.000000  0.000000  1
  Ni  Ni20  1  0.000000  0.000000  0.652317  1
  Ni  Ni21  1  0.384732  0.384732  0.384732  1
  Ni  Ni22  1  0.615268  0.615268  0.615268  1
  P  P23  1  0.263668  0.263668  0.736332  1
  P  P24  1  0.263668  0.736332  0.263668  1
  P  P25  1  0.736332  0.263668  0.263668  1
  P  P26  1  0.263668  0.736332  0.736332  1
  P  P27  1  0.736332  0.263668  0.736332  1
  P  P28  1  0.736332  0.736332  0.263668  1
