# generated using pymatgen
data_Sm8Zr11Si16Mo
_symmetry_space_group_name_H-M   'P 1'
_cell_length_a   7.16973200
_cell_length_b   7.34378407
_cell_length_c   13.99121231
_cell_angle_alpha   90.20102069
_cell_angle_beta   89.62550109
_cell_angle_gamma   89.77271114
_symmetry_Int_Tables_number   1
_chemical_formula_structural   Sm8Zr11Si16Mo
_chemical_formula_sum   'Sm8 Zr11 Si16 Mo1'
_cell_volume   736.65265907
_cell_formula_units_Z   1
loop_
 _symmetry_equiv_pos_site_id
 _symmetry_equiv_pos_as_xyz
  1  'x, y, z'
loop_
 _atom_site_type_symbol
 _atom_site_label
 _atom_site_symmetry_multiplicity
 _atom_site_fract_x
 _atom_site_fract_y
 _atom_site_fract_z
 _atom_site_occupancy
  Sm  Sm0  1  0.013123  0.174731  0.097111  1
  Sm  Sm1  1  0.987571  0.826834  0.899586  1
  Sm  Sm2  1  0.485041  0.675142  0.898932  1
  Sm  Sm3  1  0.989507  0.827567  0.596073  1
  Sm  Sm4  1  0.514029  0.326213  0.096885  1
  Sm  Sm5  1  0.012191  0.175524  0.402654  1
  Sm  Sm6  1  0.509198  0.325194  0.408085  1
  Sm  Sm7  1  0.487517  0.670807  0.597228  1
  Zr  Zr8  1  0.160829  0.492434  0.745660  1
  Zr  Zr9  1  0.842445  0.504127  0.251072  1
  Zr  Zr10  1  0.341304  0.998159  0.251374  1
  Zr  Zr11  1  0.655500  0.004903  0.747097  1
  Zr  Zr12  1  0.666232  0.828011  0.378325  1
  Zr  Zr13  1  0.169216  0.678703  0.377663  1
  Zr  Zr14  1  0.670241  0.821604  0.125152  1
  Zr  Zr15  1  0.832146  0.322267  0.623144  1
  Zr  Zr16  1  0.328845  0.177033  0.874700  1
  Zr  Zr17  1  0.830983  0.321168  0.872202  1
  Zr  Zr18  1  0.171067  0.676551  0.125357  1
  Si  Si19  1  0.041103  0.122678  0.745762  1
  Si  Si20  1  0.965482  0.878750  0.251215  1
  Si  Si21  1  0.466141  0.622688  0.251847  1
  Si  Si22  1  0.531496  0.371748  0.745887  1
  Si  Si23  1  0.285864  0.883637  0.746253  1
  Si  Si24  1  0.714842  0.123842  0.251213  1
  Si  Si25  1  0.217114  0.378202  0.251251  1
  Si  Si26  1  0.785049  0.619935  0.747640  1
  Si  Si27  1  0.165334  0.454993  0.542635  1
  Si  Si28  1  0.845973  0.533058  0.458990  1
  Si  Si29  1  0.339008  0.969430  0.468144  1
  Si  Si30  1  0.846644  0.533757  0.038818  1
  Si  Si31  1  0.641948  0.036279  0.545959  1
  Si  Si32  1  0.152087  0.467120  0.958453  1
  Si  Si33  1  0.654707  0.033368  0.958693  1
  Si  Si34  1  0.348227  0.965989  0.040524  1
  Mo  Mo35  1  0.331998  0.177552  0.628414  1
