# generated using pymatgen
data_Nd3Er2Sn3
_symmetry_space_group_name_H-M   'P 1'
_cell_length_a   9.14518100
_cell_length_b   9.14518206
_cell_length_c   6.66524600
_cell_angle_alpha   90.00000000
_cell_angle_beta   90.00000000
_cell_angle_gamma   119.99999979
_symmetry_Int_Tables_number   1
_chemical_formula_structural   Nd3Er2Sn3
_chemical_formula_sum   'Nd6 Er4 Sn6'
_cell_volume   482.76021995
_cell_formula_units_Z   2
loop_
 _symmetry_equiv_pos_site_id
 _symmetry_equiv_pos_as_xyz
  1  'x, y, z'
loop_
 _atom_site_type_symbol
 _atom_site_label
 _atom_site_symmetry_multiplicity
 _atom_site_fract_x
 _atom_site_fract_y
 _atom_site_fract_z
 _atom_site_occupancy
  Nd  Nd0  1  0.241468  0.000000  0.250000  1
  Nd  Nd1  1  0.241468  0.241468  0.750000  1
  Nd  Nd2  1  0.000000  0.758532  0.750000  1
  Nd  Nd3  1  0.000000  0.241468  0.250000  1
  Nd  Nd4  1  0.758532  0.758532  0.250000  1
  Nd  Nd5  1  0.758532  0.000000  0.750000  1
  Er  Er6  1  0.333333  0.666667  0.000000  1
  Er  Er7  1  0.666667  0.333333  0.500000  1
  Er  Er8  1  0.666667  0.333333  0.000000  1
  Er  Er9  1  0.333333  0.666667  0.500000  1
  Sn  Sn10  1  0.601562  0.000000  0.250000  1
  Sn  Sn11  1  0.601562  0.601562  0.750000  1
  Sn  Sn12  1  0.000000  0.398438  0.750000  1
  Sn  Sn13  1  0.000000  0.601562  0.250000  1
  Sn  Sn14  1  0.398438  0.398438  0.250000  1
  Sn  Sn15  1  0.398438  0.000000  0.750000  1
