# generated using pymatgen
data_Lu5TlBi2
_symmetry_space_group_name_H-M   'P 1'
_cell_length_a   6.40909005
_cell_length_b   8.94693423
_cell_length_c   8.91674000
_cell_angle_alpha   120.11209614
_cell_angle_beta   90.00674558
_cell_angle_gamma   89.98656310
_symmetry_Int_Tables_number   1
_chemical_formula_structural   Lu5TlBi2
_chemical_formula_sum   'Lu10 Tl2 Bi4'
_cell_volume   442.29871031
_cell_formula_units_Z   2
loop_
 _symmetry_equiv_pos_site_id
 _symmetry_equiv_pos_as_xyz
  1  'x, y, z'
loop_
 _atom_site_type_symbol
 _atom_site_label
 _atom_site_symmetry_multiplicity
 _atom_site_fract_x
 _atom_site_fract_y
 _atom_site_fract_z
 _atom_site_occupancy
  Lu  Lu0  1  0.497181  0.332575  0.659924  1
  Lu  Lu1  1  0.497181  0.672651  0.340076  1
  Lu  Lu2  1  0.002743  0.672475  0.339836  1
  Lu  Lu3  1  0.002743  0.332640  0.660164  1
  Lu  Lu4  1  0.750220  0.233963  0.000000  1
  Lu  Lu5  1  0.750119  0.766349  0.763901  1
  Lu  Lu6  1  0.750119  0.002448  0.236099  1
  Lu  Lu7  1  0.250383  0.767472  0.000000  1
  Lu  Lu8  1  0.250117  0.230960  0.241278  1
  Lu  Lu9  1  0.250117  0.989681  0.758722  1
  Tl  Tl10  1  0.249509  0.604783  0.606326  1
  Tl  Tl11  1  0.249509  0.998458  0.393674  1
  Bi  Bi12  1  0.750041  0.606169  0.000000  1
  Bi  Bi13  1  0.749898  0.396177  0.391652  1
  Bi  Bi14  1  0.749898  0.004524  0.608348  1
  Bi  Bi15  1  0.250225  0.388676  0.000000  1
