# generated using pymatgen
data_GdTmTcB6
_symmetry_space_group_name_H-M   'P 1'
_cell_length_a   3.67167600
_cell_length_b   9.14945600
_cell_length_c   11.52899400
_cell_angle_alpha   90.00000000
_cell_angle_beta   90.00000000
_cell_angle_gamma   90.00000000
_symmetry_Int_Tables_number   1
_chemical_formula_structural   GdTmTcB6
_chemical_formula_sum   'Gd4 Tm4 Tc4 B24'
_cell_volume   387.30315683
_cell_formula_units_Z   4
loop_
 _symmetry_equiv_pos_site_id
 _symmetry_equiv_pos_as_xyz
  1  'x, y, z'
loop_
 _atom_site_type_symbol
 _atom_site_label
 _atom_site_symmetry_multiplicity
 _atom_site_fract_x
 _atom_site_fract_y
 _atom_site_fract_z
 _atom_site_occupancy
  Gd  Gd0  1  0.000000  0.323162  0.414614  1
  Gd  Gd1  1  0.000000  0.676838  0.585386  1
  Gd  Gd2  1  0.000000  0.823162  0.085386  1
  Gd  Gd3  1  0.000000  0.176838  0.914614  1
  Tm  Tm4  1  0.000000  0.942848  0.369281  1
  Tm  Tm5  1  0.000000  0.057152  0.630720  1
  Tm  Tm6  1  0.000000  0.442848  0.130719  1
  Tm  Tm7  1  0.000000  0.557152  0.869280  1
  Tc  Tc8  1  0.000000  0.639787  0.319507  1
  Tc  Tc9  1  0.000000  0.360213  0.680493  1
  Tc  Tc10  1  0.000000  0.139787  0.180493  1
  Tc  Tc11  1  0.000000  0.860213  0.819507  1
  B  B12  1  0.500000  0.554350  0.432070  1
  B  B13  1  0.500000  0.445650  0.567930  1
  B  B14  1  0.500000  0.054350  0.067930  1
  B  B15  1  0.500000  0.945650  0.932070  1
  B  B16  1  0.500000  0.750121  0.417642  1
  B  B17  1  0.500000  0.249879  0.582358  1
  B  B18  1  0.500000  0.250121  0.082358  1
  B  B19  1  0.500000  0.749879  0.917642  1
  B  B20  1  0.500000  0.792337  0.265089  1
  B  B21  1  0.500000  0.207663  0.734911  1
  B  B22  1  0.500000  0.292336  0.234911  1
  B  B23  1  0.500000  0.707663  0.765089  1
  B  B24  1  0.500000  0.630031  0.185147  1
  B  B25  1  0.500000  0.369969  0.814853  1
  B  B26  1  0.500000  0.130031  0.314853  1
  B  B27  1  0.500000  0.869969  0.685147  1
  B  B28  1  0.500000  0.982592  0.212261  1
  B  B29  1  0.500000  0.017408  0.787739  1
  B  B30  1  0.500000  0.482592  0.287739  1
  B  B31  1  0.500000  0.517408  0.712261  1
  B  B32  1  0.500000  0.597817  0.027070  1
  B  B33  1  0.500000  0.402183  0.972930  1
  B  B34  1  0.500000  0.097817  0.472930  1
  B  B35  1  0.500000  0.902183  0.527070  1
