# generated using pymatgen
data_Ba10AlSi17
_symmetry_space_group_name_H-M   'P 1'
_cell_length_a   6.67574912
_cell_length_b   6.67575461
_cell_length_c   17.98746278
_cell_angle_alpha   81.55328261
_cell_angle_beta   81.55327571
_cell_angle_gamma   100.73658026
_symmetry_Int_Tables_number   1
_chemical_formula_structural   Ba10AlSi17
_chemical_formula_sum   'Ba10 Al1 Si17'
_cell_volume   766.42148483
_cell_formula_units_Z   1
loop_
 _symmetry_equiv_pos_site_id
 _symmetry_equiv_pos_as_xyz
  1  'x, y, z'
loop_
 _atom_site_type_symbol
 _atom_site_label
 _atom_site_symmetry_multiplicity
 _atom_site_fract_x
 _atom_site_fract_y
 _atom_site_fract_z
 _atom_site_occupancy
  Ba  Ba0  1  0.751186  0.255686  0.997693  1
  Ba  Ba1  1  0.111317  0.580940  0.791376  1
  Ba  Ba2  1  0.285317  0.709085  0.500451  1
  Ba  Ba3  1  0.756707  0.756707  0.648336  1
  Ba  Ba4  1  0.241457  0.241457  0.351741  1
  Ba  Ba5  1  0.580940  0.111317  0.791376  1
  Ba  Ba6  1  0.255686  0.751186  0.997693  1
  Ba  Ba7  1  0.709085  0.285317  0.500451  1
  Ba  Ba8  1  0.422161  0.884771  0.210772  1
  Ba  Ba9  1  0.884771  0.422161  0.210772  1
  Al  Al10  1  0.225634  0.225634  0.069487  1
  Si  Si11  1  0.925247  0.925247  0.263397  1
  Si  Si12  1  0.071406  0.071406  0.736550  1
  Si  Si13  1  0.779149  0.779149  0.930407  1
  Si  Si14  1  0.347029  0.347029  0.647594  1
  Si  Si15  1  0.294798  0.294798  0.928503  1
  Si  Si16  1  0.935516  0.935516  0.131572  1
  Si  Si17  1  0.648578  0.648578  0.354934  1
  Si  Si18  1  0.434236  0.434236  0.145143  1
  Si  Si19  1  0.062064  0.062064  0.868391  1
  Si  Si20  1  0.814594  0.814594  0.450171  1
  Si  Si21  1  0.326086  0.971041  0.643644  1
  Si  Si22  1  0.669983  0.025212  0.356675  1
  Si  Si23  1  0.181999  0.181999  0.550521  1
  Si  Si24  1  0.971041  0.326086  0.643644  1
  Si  Si25  1  0.025212  0.669982  0.356675  1
  Si  Si26  1  0.710585  0.710585  0.067452  1
  Si  Si27  1  0.578215  0.578215  0.854582  1
