# generated using pymatgen
data_Dy5HoMnB14Os
_symmetry_space_group_name_H-M   'P 1'
_cell_length_a   8.04156705
_cell_length_b   8.04156694
_cell_length_c   9.30272200
_cell_angle_alpha   90.00000000
_cell_angle_beta   90.00000000
_cell_angle_gamma   154.98746751
_symmetry_Int_Tables_number   1
_chemical_formula_structural   Dy5HoMnB14Os
_chemical_formula_sum   'Dy5 Ho1 Mn1 B14 Os1'
_cell_volume   254.35678651
_cell_formula_units_Z   1
loop_
 _symmetry_equiv_pos_site_id
 _symmetry_equiv_pos_as_xyz
  1  'x, y, z'
loop_
 _atom_site_type_symbol
 _atom_site_label
 _atom_site_symmetry_multiplicity
 _atom_site_fract_x
 _atom_site_fract_y
 _atom_site_fract_z
 _atom_site_occupancy
  Dy  Dy0  1  0.894764  0.105236  0.442756  1
  Dy  Dy1  1  0.104752  0.895248  0.563800  1
  Dy  Dy2  1  0.894764  0.105236  0.057244  1
  Dy  Dy3  1  0.104752  0.895248  0.936200  1
  Dy  Dy4  1  0.244153  0.755847  0.250000  1
  Ho  Ho5  1  0.759746  0.240254  0.750000  1
  Mn  Mn6  1  0.946805  0.053195  0.750000  1
  B  B7  1  0.727092  0.272908  0.466935  1
  B  B8  1  0.272252  0.727748  0.534606  1
  B  B9  1  0.727092  0.272908  0.033065  1
  B  B10  1  0.272252  0.727748  0.965394  1
  B  B11  1  0.631871  0.368129  0.150352  1
  B  B12  1  0.369919  0.630081  0.846118  1
  B  B13  1  0.631871  0.368129  0.349648  1
  B  B14  1  0.369919  0.630081  0.653882  1
  B  B15  1  0.520443  0.479557  0.095842  1
  B  B16  1  0.478213  0.521787  0.901385  1
  B  B17  1  0.520443  0.479557  0.404158  1
  B  B18  1  0.478213  0.521787  0.598615  1
  B  B19  1  0.456552  0.543448  0.250000  1
  B  B20  1  0.540159  0.459841  0.750000  1
  Os  Os21  1  0.053968  0.946032  0.250000  1
