# generated using pymatgen
data_SmLu4Zr3(P3Rh4)4
_symmetry_space_group_name_H-M   'P 1'
_cell_length_a   12.98405900
_cell_length_b   12.98405930
_cell_length_c   3.91286500
_cell_angle_alpha   90.00000000
_cell_angle_beta   90.00000000
_cell_angle_gamma   120.00000177
_symmetry_Int_Tables_number   1
_chemical_formula_structural   SmLu4Zr3(P3Rh4)4
_chemical_formula_sum   'Sm1 Lu4 Zr3 P12 Rh16'
_cell_volume   571.27663105
_cell_formula_units_Z   1
loop_
 _symmetry_equiv_pos_site_id
 _symmetry_equiv_pos_as_xyz
  1  'x, y, z'
loop_
 _atom_site_type_symbol
 _atom_site_label
 _atom_site_symmetry_multiplicity
 _atom_site_fract_x
 _atom_site_fract_y
 _atom_site_fract_z
 _atom_site_occupancy
  Sm  Sm0  1  0.333333  0.666667  0.000000  1
  Lu  Lu1  1  0.186768  0.186998  0.500000  1
  Lu  Lu2  1  0.813002  0.999770  0.500000  1
  Lu  Lu3  1  0.000230  0.813232  0.500000  1
  Lu  Lu4  1  0.666667  0.333333  0.000000  1
  Zr  Zr5  1  0.553520  0.552829  0.000000  1
  Zr  Zr6  1  0.447171  0.000691  0.000000  1
  Zr  Zr7  1  0.999309  0.446480  0.000000  1
  P  P8  1  0.825814  0.825169  0.000000  1
  P  P9  1  0.174831  0.000645  0.000000  1
  P  P10  1  0.999355  0.174186  0.000000  1
  P  P11  1  0.167107  0.480755  0.500000  1
  P  P12  1  0.519245  0.686352  0.500000  1
  P  P13  1  0.313648  0.832893  0.500000  1
  P  P14  1  0.686495  0.516413  0.500000  1
  P  P15  1  0.829918  0.313505  0.500000  1
  P  P16  1  0.483587  0.170082  0.500000  1
  P  P17  1  0.351108  0.351466  0.000000  1
  P  P18  1  0.648534  0.999642  0.000000  1
  P  P19  1  0.000358  0.648892  0.000000  1
  Rh  Rh20  1  0.724873  0.724199  0.500000  1
  Rh  Rh21  1  0.275801  0.000674  0.500000  1
  Rh  Rh22  1  0.999326  0.275127  0.500000  1
  Rh  Rh23  1  0.176816  0.370008  0.000000  1
  Rh  Rh24  1  0.629992  0.806808  0.000000  1
  Rh  Rh25  1  0.193192  0.823184  0.000000  1
  Rh  Rh26  1  0.806630  0.628530  0.000000  1
  Rh  Rh27  1  0.821899  0.193370  0.000000  1
  Rh  Rh28  1  0.371470  0.178101  0.000000  1
  Rh  Rh29  1  0.355440  0.485458  0.500000  1
  Rh  Rh30  1  0.514542  0.869983  0.500000  1
  Rh  Rh31  1  0.130017  0.644560  0.500000  1
  Rh  Rh32  1  0.865176  0.509902  0.500000  1
  Rh  Rh33  1  0.644726  0.134824  0.500000  1
  Rh  Rh34  1  0.490098  0.355274  0.500000  1
  Rh  Rh35  1  0.000000  0.000000  0.000000  1
