# generated using pymatgen
data_Ba4LiLu(WO6)2
_symmetry_space_group_name_H-M   'P 1'
_cell_length_a   5.90668663
_cell_length_b   5.91372151
_cell_length_c   10.26304627
_cell_angle_alpha   89.93591066
_cell_angle_beta   73.27132852
_cell_angle_gamma   59.99565361
_symmetry_Int_Tables_number   1
_chemical_formula_structural   Ba4LiLu(WO6)2
_chemical_formula_sum   'Ba4 Li1 Lu1 W2 O12'
_cell_volume   292.87025594
_cell_formula_units_Z   1
loop_
 _symmetry_equiv_pos_site_id
 _symmetry_equiv_pos_as_xyz
  1  'x, y, z'
loop_
 _atom_site_type_symbol
 _atom_site_label
 _atom_site_symmetry_multiplicity
 _atom_site_fract_x
 _atom_site_fract_y
 _atom_site_fract_z
 _atom_site_occupancy
  Ba  Ba0  1  0.244493  0.377539  0.133116  1
  Ba  Ba1  1  0.256745  0.871915  0.615106  1
  Ba  Ba2  1  0.743189  0.628131  0.884935  1
  Ba  Ba3  1  0.755608  0.122401  0.366866  1
  Li  Li4  1  0.500182  0.749896  0.250035  1
  Lu  Lu5  1  0.499977  0.250031  0.749977  1
  W  W6  1  0.003200  0.498837  0.495699  1
  W  W7  1  0.996812  0.001159  0.004295  1
  O  O8  1  0.768646  0.349060  0.114282  1
  O  O9  1  0.762179  0.854944  0.620163  1
  O  O10  1  0.237710  0.645135  0.879783  1
  O  O11  1  0.231403  0.150906  0.385751  1
  O  O12  1  0.244288  0.610914  0.391322  1
  O  O13  1  0.249288  0.112307  0.886167  1
  O  O14  1  0.750471  0.387817  0.613726  1
  O  O15  1  0.755931  0.888936  0.108765  1
  O  O16  1  0.775560  0.624926  0.380285  1
  O  O17  1  0.777798  0.122844  0.873739  1
  O  O18  1  0.221850  0.377235  0.626388  1
  O  O19  1  0.224666  0.875070  0.119601  1
