# generated using pymatgen
data_Nd4Re3OsI2
_symmetry_space_group_name_H-M   'P 1'
_cell_length_a   4.22674400
_cell_length_b   4.22674428
_cell_length_c   18.17123300
_cell_angle_alpha   90.00000000
_cell_angle_beta   90.00000000
_cell_angle_gamma   119.99999783
_symmetry_Int_Tables_number   1
_chemical_formula_structural   Nd4Re3OsI2
_chemical_formula_sum   'Nd4 Re3 Os1 I2'
_cell_volume   281.14279401
_cell_formula_units_Z   1
loop_
 _symmetry_equiv_pos_site_id
 _symmetry_equiv_pos_as_xyz
  1  'x, y, z'
loop_
 _atom_site_type_symbol
 _atom_site_label
 _atom_site_symmetry_multiplicity
 _atom_site_fract_x
 _atom_site_fract_y
 _atom_site_fract_z
 _atom_site_occupancy
  Nd  Nd0  1  0.000000  0.000000  0.113767  1
  Nd  Nd1  1  0.000000  0.000000  0.886422  1
  Nd  Nd2  1  0.000000  0.000000  0.611978  1
  Nd  Nd3  1  0.000000  0.000000  0.387187  1
  Re  Re4  1  0.666667  0.333333  0.487710  1
  Re  Re5  1  0.666667  0.333333  0.015203  1
  Re  Re6  1  0.333333  0.666667  0.984816  1
  Os  Os7  1  0.333333  0.666667  0.513024  1
  I  I8  1  0.333333  0.666667  0.250279  1
  I  I9  1  0.666667  0.333333  0.749614  1
