# generated using pymatgen
data_Hf4Nb2Co4Si5Ge
_symmetry_space_group_name_H-M   'P 1'
_cell_length_a   3.83441000
_cell_length_b   5.25780497
_cell_length_c   12.67776300
_cell_angle_alpha   90.00000000
_cell_angle_beta   90.00000000
_cell_angle_gamma   111.38541763
_symmetry_Int_Tables_number   1
_chemical_formula_structural   Hf4Nb2Co4Si5Ge
_chemical_formula_sum   'Hf4 Nb2 Co4 Si5 Ge1'
_cell_volume   237.99326547
_cell_formula_units_Z   1
loop_
 _symmetry_equiv_pos_site_id
 _symmetry_equiv_pos_as_xyz
  1  'x, y, z'
loop_
 _atom_site_type_symbol
 _atom_site_label
 _atom_site_symmetry_multiplicity
 _atom_site_fract_x
 _atom_site_fract_y
 _atom_site_fract_z
 _atom_site_occupancy
  Hf  Hf0  1  0.075716  0.151432  0.384705  1
  Hf  Hf1  1  0.923701  0.847401  0.619095  1
  Hf  Hf2  1  0.075716  0.151432  0.115295  1
  Hf  Hf3  1  0.923701  0.847401  0.880905  1
  Nb  Nb4  1  0.367900  0.735799  0.250000  1
  Nb  Nb5  1  0.633474  0.266949  0.750000  1
  Co  Co6  1  0.218870  0.437741  0.920240  1
  Co  Co7  1  0.782743  0.565485  0.075201  1
  Co  Co8  1  0.218870  0.437741  0.579760  1
  Co  Co9  1  0.782743  0.565485  0.424799  1
  Si  Si10  1  0.390320  0.780640  0.455580  1
  Si  Si11  1  0.609846  0.219693  0.546237  1
  Si  Si12  1  0.390320  0.780640  0.044420  1
  Si  Si13  1  0.609846  0.219693  0.953763  1
  Si  Si14  1  0.324447  0.648896  0.750000  1
  Ge  Ge15  1  0.671787  0.343572  0.250000  1
