# generated using pymatgen
data_YErNb4(B2Ru5)2
_symmetry_space_group_name_H-M   'P 1'
_cell_length_a   9.56430354
_cell_length_b   9.56430318
_cell_length_c   3.09243100
_cell_angle_alpha   90.00000000
_cell_angle_beta   90.00000000
_cell_angle_gamma   89.30386861
_symmetry_Int_Tables_number   1
_chemical_formula_structural   YErNb4(B2Ru5)2
_chemical_formula_sum   'Y1 Er1 Nb4 B4 Ru10'
_cell_volume   282.86202635
_cell_formula_units_Z   1
loop_
 _symmetry_equiv_pos_site_id
 _symmetry_equiv_pos_as_xyz
  1  'x, y, z'
loop_
 _atom_site_type_symbol
 _atom_site_label
 _atom_site_symmetry_multiplicity
 _atom_site_fract_x
 _atom_site_fract_y
 _atom_site_fract_z
 _atom_site_occupancy
  Y  Y0  1  0.176001  0.176001  0.000000  1
  Er  Er1  1  0.823876  0.823876  0.000000  1
  Nb  Nb2  1  0.500365  0.999830  0.000000  1
  Nb  Nb3  1  0.999830  0.500365  0.000000  1
  Nb  Nb4  1  0.675803  0.324305  0.000000  1
  Nb  Nb5  1  0.324305  0.675803  0.000000  1
  B  B6  1  0.379257  0.379257  0.000000  1
  B  B7  1  0.621173  0.621173  0.000000  1
  B  B8  1  0.878758  0.120860  0.000000  1
  B  B9  1  0.120860  0.878758  0.000000  1
  Ru  Ru10  1  0.500196  0.500196  0.500000  1
  Ru  Ru11  1  0.998896  0.998896  0.500000  1
  Ru  Ru12  1  0.440910  0.223178  0.500000  1
  Ru  Ru13  1  0.560357  0.777259  0.500000  1
  Ru  Ru14  1  0.918284  0.284959  0.500000  1
  Ru  Ru15  1  0.080583  0.715150  0.500000  1
  Ru  Ru16  1  0.715150  0.080583  0.500000  1
  Ru  Ru17  1  0.284959  0.918284  0.500000  1
  Ru  Ru18  1  0.777259  0.560357  0.500000  1
  Ru  Ru19  1  0.223178  0.440910  0.500000  1
