# generated using pymatgen
data_Nd3Al12OsRuPt2
_symmetry_space_group_name_H-M   'P 1'
_cell_length_a   8.95651300
_cell_length_b   8.92788804
_cell_length_c   9.63997649
_cell_angle_alpha   90.10315736
_cell_angle_beta   90.00000000
_cell_angle_gamma   120.10612952
_symmetry_Int_Tables_number   1
_chemical_formula_structural   Nd3Al12OsRuPt2
_chemical_formula_sum   'Nd6 Al24 Os2 Ru2 Pt4'
_cell_volume   666.84963811
_cell_formula_units_Z   2
loop_
 _symmetry_equiv_pos_site_id
 _symmetry_equiv_pos_as_xyz
  1  'x, y, z'
loop_
 _atom_site_type_symbol
 _atom_site_label
 _atom_site_symmetry_multiplicity
 _atom_site_fract_x
 _atom_site_fract_y
 _atom_site_fract_z
 _atom_site_occupancy
  Nd  Nd0  1  0.190421  0.380841  0.251395  1
  Nd  Nd1  1  0.809579  0.619159  0.748605  1
  Nd  Nd2  1  0.619331  0.807581  0.249250  1
  Nd  Nd3  1  0.380669  0.192419  0.750750  1
  Nd  Nd4  1  0.188251  0.807581  0.249250  1
  Nd  Nd5  1  0.811749  0.192419  0.750750  1
  Al  Al6  1  0.330432  0.660864  0.026392  1
  Al  Al7  1  0.669568  0.339136  0.973608  1
  Al  Al8  1  0.666608  0.333215  0.528512  1
  Al  Al9  1  0.333392  0.666785  0.471488  1
  Al  Al10  1  0.162492  0.324982  0.578459  1
  Al  Al11  1  0.837508  0.675018  0.421541  1
  Al  Al12  1  0.676716  0.838936  0.578243  1
  Al  Al13  1  0.835772  0.671545  0.072290  1
  Al  Al14  1  0.323284  0.161064  0.421757  1
  Al  Al15  1  0.164228  0.328455  0.927710  1
  Al  Al16  1  0.162220  0.838936  0.578243  1
  Al  Al17  1  0.325751  0.168446  0.073758  1
  Al  Al18  1  0.837780  0.161064  0.421757  1
  Al  Al19  1  0.674249  0.831554  0.926242  1
  Al  Al20  1  0.842695  0.168446  0.073758  1
  Al  Al21  1  0.157305  0.831554  0.926242  1
  Al  Al22  1  0.563972  0.127946  0.250196  1
  Al  Al23  1  0.436028  0.872054  0.749804  1
  Al  Al24  1  0.872808  0.435940  0.246892  1
  Al  Al25  1  0.127192  0.564060  0.753108  1
  Al  Al26  1  0.563132  0.435940  0.246892  1
  Al  Al27  1  0.436868  0.564060  0.753108  1
  Al  Al28  1  0.999011  0.998021  0.249114  1
  Al  Al29  1  0.000989  0.001979  0.750886  1
  Os  Os30  1  0.000000  0.500000  0.000000  1
  Os  Os31  1  0.500000  0.500000  0.000000  1
  Ru  Ru32  1  0.000000  0.000000  0.000000  1
  Ru  Ru33  1  0.000000  0.000000  0.500000  1
  Pt  Pt34  1  0.500000  0.000000  0.000000  1
  Pt  Pt35  1  0.500000  0.000000  0.500000  1
  Pt  Pt36  1  0.000000  0.500000  0.500000  1
  Pt  Pt37  1  0.500000  0.500000  0.500000  1
