# generated using pymatgen
data_Dy2Ho2Sn6Ir7
_symmetry_space_group_name_H-M   'P 1'
_cell_length_a   7.59462524
_cell_length_b   7.59462375
_cell_length_c   7.59000021
_cell_angle_alpha   109.47229664
_cell_angle_beta   109.47229785
_cell_angle_gamma   109.49373885
_symmetry_Int_Tables_number   1
_chemical_formula_structural   Dy2Ho2Sn6Ir7
_chemical_formula_sum   'Dy2 Ho2 Sn6 Ir7'
_cell_volume   336.89936242
_cell_formula_units_Z   1
loop_
 _symmetry_equiv_pos_site_id
 _symmetry_equiv_pos_as_xyz
  1  'x, y, z'
loop_
 _atom_site_type_symbol
 _atom_site_label
 _atom_site_symmetry_multiplicity
 _atom_site_fract_x
 _atom_site_fract_y
 _atom_site_fract_z
 _atom_site_occupancy
  Dy  Dy0  1  0.000000  0.000000  0.500000  1
  Dy  Dy1  1  0.500000  0.500000  0.500000  1
  Ho  Ho2  1  0.000000  0.500000  0.000000  1
  Ho  Ho3  1  0.500000  0.000000  0.000000  1
  Sn  Sn4  1  0.686505  0.686505  0.000000  1
  Sn  Sn5  1  0.313497  0.999826  0.313323  1
  Sn  Sn6  1  0.999826  0.313497  0.313323  1
  Sn  Sn7  1  0.313495  0.313495  0.000000  1
  Sn  Sn8  1  0.686503  0.000174  0.686677  1
  Sn  Sn9  1  0.000174  0.686503  0.686677  1
  Ir  Ir10  1  0.750000  0.250000  0.500000  1
  Ir  Ir11  1  0.750003  0.499774  0.249777  1
  Ir  Ir12  1  0.500226  0.249997  0.750223  1
  Ir  Ir13  1  0.249997  0.500226  0.750223  1
  Ir  Ir14  1  0.250000  0.750000  0.500000  1
  Ir  Ir15  1  0.499774  0.750003  0.249777  1
  Ir  Ir16  1  0.000000  0.000000  0.000000  1
