# generated using pymatgen
data_Er4Tm4B24Rh3W
_symmetry_space_group_name_H-M   'P 1'
_cell_length_a   3.62963200
_cell_length_b   9.13114671
_cell_length_c   11.49581013
_cell_angle_alpha   90.23229393
_cell_angle_beta   90.00000000
_cell_angle_gamma   90.00000000
_symmetry_Int_Tables_number   1
_chemical_formula_structural   Er4Tm4B24Rh3W
_chemical_formula_sum   'Er4 Tm4 B24 Rh3 W1'
_cell_volume   380.99908146
_cell_formula_units_Z   1
loop_
 _symmetry_equiv_pos_site_id
 _symmetry_equiv_pos_as_xyz
  1  'x, y, z'
loop_
 _atom_site_type_symbol
 _atom_site_label
 _atom_site_symmetry_multiplicity
 _atom_site_fract_x
 _atom_site_fract_y
 _atom_site_fract_z
 _atom_site_occupancy
  Er  Er0  1  0.500000  0.318614  0.410712  1
  Er  Er1  1  0.500000  0.677013  0.585049  1
  Er  Er2  1  0.500000  0.179024  0.916600  1
  Er  Er3  1  0.500000  0.823225  0.086658  1
  Tm  Tm4  1  0.500000  0.445576  0.125442  1
  Tm  Tm5  1  0.500000  0.557315  0.871561  1
  Tm  Tm6  1  0.500000  0.055883  0.629071  1
  Tm  Tm7  1  0.500000  0.944429  0.374655  1
  B  B8  1  0.000000  0.105946  0.473076  1
  B  B9  1  0.000000  0.892321  0.530518  1
  B  B10  1  0.000000  0.396150  0.969286  1
  B  B11  1  0.000000  0.608161  0.028206  1
  B  B12  1  0.000000  0.131723  0.317670  1
  B  B13  1  0.000000  0.866928  0.683819  1
  B  B14  1  0.000000  0.368848  0.816137  1
  B  B15  1  0.000000  0.632870  0.183586  1
  B  B16  1  0.000000  0.051499  0.064286  1
  B  B17  1  0.000000  0.946533  0.932919  1
  B  B18  1  0.000000  0.444961  0.565351  1
  B  B19  1  0.000000  0.552683  0.433879  1
  B  B20  1  0.000000  0.483083  0.287198  1
  B  B21  1  0.000000  0.517473  0.711979  1
  B  B22  1  0.000000  0.017828  0.787493  1
  B  B23  1  0.000000  0.979059  0.214316  1
  B  B24  1  0.000000  0.251966  0.078096  1
  B  B25  1  0.000000  0.751181  0.919487  1
  B  B26  1  0.000000  0.249788  0.579551  1
  B  B27  1  0.000000  0.748643  0.421218  1
  B  B28  1  0.000000  0.296099  0.236078  1
  B  B29  1  0.000000  0.706116  0.763461  1
  B  B30  1  0.000000  0.207800  0.736205  1
  B  B31  1  0.000000  0.791985  0.266272  1
  Rh  Rh32  1  0.500000  0.861035  0.820372  1
  Rh  Rh33  1  0.500000  0.361371  0.679366  1
  Rh  Rh34  1  0.500000  0.638555  0.321228  1
  W  W35  1  0.500000  0.138315  0.179200  1
