# generated using pymatgen
data_Hf2Mn2FeSi
_symmetry_space_group_name_H-M   'P 1'
_cell_length_a   4.96143211
_cell_length_b   4.96908424
_cell_length_c   7.98352700
_cell_angle_alpha   90.00000000
_cell_angle_beta   90.00000000
_cell_angle_gamma   119.93956543
_symmetry_Int_Tables_number   1
_chemical_formula_structural   Hf2Mn2FeSi
_chemical_formula_sum   'Hf4 Mn4 Fe2 Si2'
_cell_volume   170.55835434
_cell_formula_units_Z   2
loop_
 _symmetry_equiv_pos_site_id
 _symmetry_equiv_pos_as_xyz
  1  'x, y, z'
loop_
 _atom_site_type_symbol
 _atom_site_label
 _atom_site_symmetry_multiplicity
 _atom_site_fract_x
 _atom_site_fract_y
 _atom_site_fract_z
 _atom_site_occupancy
  Hf  Hf0  1  0.666797  0.333604  0.563818  1
  Hf  Hf1  1  0.333408  0.666873  0.434528  1
  Hf  Hf2  1  0.333408  0.666873  0.065472  1
  Hf  Hf3  1  0.666797  0.333604  0.936182  1
  Mn  Mn4  1  0.173773  0.347473  0.750000  1
  Mn  Mn5  1  0.173077  0.825748  0.750000  1
  Mn  Mn6  1  0.652502  0.825631  0.750000  1
  Mn  Mn7  1  0.829651  0.659333  0.250000  1
  Fe  Fe8  1  0.829856  0.170427  0.250000  1
  Fe  Fe9  1  0.340507  0.170414  0.250000  1
  Si  Si10  1  0.000112  0.000010  0.499468  1
  Si  Si11  1  0.000112  0.000010  0.000532  1
