# generated using pymatgen
data_Nd8Mg2OsPd
_symmetry_space_group_name_H-M   'P 1'
_cell_length_a   10.06233444
_cell_length_b   10.06234096
_cell_length_c   10.14720602
_cell_angle_alpha   59.71531181
_cell_angle_beta   59.71536939
_cell_angle_gamma   59.65204582
_symmetry_Int_Tables_number   1
_chemical_formula_structural   Nd8Mg2OsPd
_chemical_formula_sum   'Nd16 Mg4 Os2 Pd2'
_cell_volume   721.44293510
_cell_formula_units_Z   2
loop_
 _symmetry_equiv_pos_site_id
 _symmetry_equiv_pos_as_xyz
  1  'x, y, z'
loop_
 _atom_site_type_symbol
 _atom_site_label
 _atom_site_symmetry_multiplicity
 _atom_site_fract_x
 _atom_site_fract_y
 _atom_site_fract_z
 _atom_site_occupancy
  Nd  Nd0  1  0.346469  0.346470  0.353756  1
  Nd  Nd1  1  0.346480  0.346479  0.953300  1
  Nd  Nd2  1  0.341854  0.961594  0.348292  1
  Nd  Nd3  1  0.961593  0.341854  0.348292  1
  Nd  Nd4  1  0.817711  0.187154  0.189406  1
  Nd  Nd5  1  0.187155  0.817734  0.805708  1
  Nd  Nd6  1  0.187153  0.817712  0.189406  1
  Nd  Nd7  1  0.817734  0.187155  0.805708  1
  Nd  Nd8  1  0.187300  0.187299  0.812683  1
  Nd  Nd9  1  0.808925  0.808926  0.191076  1
  Nd  Nd10  1  0.936875  0.556716  0.567335  1
  Nd  Nd11  1  0.556705  0.936881  0.939077  1
  Nd  Nd12  1  0.556716  0.936873  0.567336  1
  Nd  Nd13  1  0.936881  0.556704  0.939077  1
  Nd  Nd14  1  0.563690  0.563691  0.936307  1
  Nd  Nd15  1  0.938467  0.938466  0.561529  1
  Mg  Mg16  1  0.578793  0.578794  0.579429  1
  Mg  Mg17  1  0.578789  0.578791  0.262992  1
  Mg  Mg18  1  0.579516  0.261240  0.579621  1
  Mg  Mg19  1  0.261240  0.579516  0.579621  1
  Os  Os20  1  0.144708  0.144708  0.136236  1
  Os  Os21  1  0.144715  0.144715  0.574332  1
  Pd  Pd22  1  0.146438  0.574094  0.139740  1
  Pd  Pd23  1  0.574093  0.146438  0.139741  1
