# generated using pymatgen
data_Tb3Y13(CdNi)4
_symmetry_space_group_name_H-M   'P 1'
_cell_length_a   9.59556254
_cell_length_b   9.59775831
_cell_length_c   9.59775800
_cell_angle_alpha   60.00000107
_cell_angle_beta   59.99243107
_cell_angle_gamma   59.99243458
_symmetry_Int_Tables_number   1
_chemical_formula_structural   Tb3Y13(CdNi)4
_chemical_formula_sum   'Tb3 Y13 Cd4 Ni4'
_cell_volume   624.95013677
_cell_formula_units_Z   1
loop_
 _symmetry_equiv_pos_site_id
 _symmetry_equiv_pos_as_xyz
  1  'x, y, z'
loop_
 _atom_site_type_symbol
 _atom_site_label
 _atom_site_symmetry_multiplicity
 _atom_site_fract_x
 _atom_site_fract_y
 _atom_site_fract_z
 _atom_site_occupancy
  Tb  Tb0  1  0.598279  0.598581  0.598581  1
  Tb  Tb1  1  0.598279  0.598581  0.204560  1
  Tb  Tb2  1  0.598279  0.204560  0.598581  1
  Y  Y3  1  0.202210  0.599263  0.599263  1
  Y  Y4  1  0.062101  0.437837  0.437837  1
  Y  Y5  1  0.438032  0.062154  0.062154  1
  Y  Y6  1  0.438032  0.062154  0.437659  1
  Y  Y7  1  0.062101  0.437837  0.062226  1
  Y  Y8  1  0.438032  0.437659  0.062154  1
  Y  Y9  1  0.062101  0.062226  0.437837  1
  Y  Y10  1  0.185630  0.814566  0.814566  1
  Y  Y11  1  0.814066  0.185794  0.185794  1
  Y  Y12  1  0.814066  0.185794  0.814347  1
  Y  Y13  1  0.185630  0.814566  0.185238  1
  Y  Y14  1  0.814066  0.814347  0.185794  1
  Y  Y15  1  0.185630  0.185238  0.814566  1
  Cd  Cd16  1  0.831710  0.831216  0.831216  1
  Cd  Cd17  1  0.831710  0.831216  0.505858  1
  Cd  Cd18  1  0.831710  0.505858  0.831216  1
  Cd  Cd19  1  0.506003  0.831332  0.831332  1
  Ni  Ni20  1  0.393865  0.392526  0.392526  1
  Ni  Ni21  1  0.393865  0.392526  0.821084  1
  Ni  Ni22  1  0.393865  0.821084  0.392526  1
  Ni  Ni23  1  0.820738  0.393088  0.393088  1
