# generated using pymatgen
data_Tm3LuInPt11
_symmetry_space_group_name_H-M   'P 1'
_cell_length_a   4.16131600
_cell_length_b   5.80767967
_cell_length_c   11.59978836
_cell_angle_alpha   88.03273046
_cell_angle_beta   90.00000000
_cell_angle_gamma   90.00000000
_symmetry_Int_Tables_number   1
_chemical_formula_structural   Tm3LuInPt11
_chemical_formula_sum   'Tm3 Lu1 In1 Pt11'
_cell_volume   280.17370134
_cell_formula_units_Z   1
loop_
 _symmetry_equiv_pos_site_id
 _symmetry_equiv_pos_as_xyz
  1  'x, y, z'
loop_
 _atom_site_type_symbol
 _atom_site_label
 _atom_site_symmetry_multiplicity
 _atom_site_fract_x
 _atom_site_fract_y
 _atom_site_fract_z
 _atom_site_occupancy
  Tm  Tm0  1  0.500000  0.759049  0.376072  1
  Tm  Tm1  1  0.500000  0.714874  0.862384  1
  Tm  Tm2  1  0.500000  0.285114  0.137578  1
  Lu  Lu3  1  0.500000  0.240995  0.623890  1
  In  In4  1  0.000000  0.000026  0.999935  1
  Pt  Pt5  1  0.000000  0.019658  0.249797  1
  Pt  Pt6  1  0.000000  0.980897  0.749954  1
  Pt  Pt7  1  0.000000  0.499958  0.999950  1
  Pt  Pt8  1  0.000000  0.499474  0.500311  1
  Pt  Pt9  1  0.000000  0.521642  0.250106  1
  Pt  Pt10  1  0.000000  0.477820  0.749625  1
  Pt  Pt11  1  0.500000  0.258399  0.377886  1
  Pt  Pt12  1  0.500000  0.225944  0.879238  1
  Pt  Pt13  1  0.500000  0.774073  0.120455  1
  Pt  Pt14  1  0.500000  0.741590  0.622511  1
  Pt  Pt15  1  0.000000  0.000487  0.500308  1
