# generated using pymatgen
data_NdHo3Ni13Ge
_symmetry_space_group_name_H-M   'P 1'
_cell_length_a   4.92270434
_cell_length_b   4.99126188
_cell_length_c   12.45220225
_cell_angle_alpha   78.43867727
_cell_angle_beta   78.67981616
_cell_angle_gamma   59.53822714
_symmetry_Int_Tables_number   1
_chemical_formula_structural   NdHo3Ni13Ge
_chemical_formula_sum   'Nd1 Ho3 Ni13 Ge1'
_cell_volume   256.74487295
_cell_formula_units_Z   1
loop_
 _symmetry_equiv_pos_site_id
 _symmetry_equiv_pos_as_xyz
  1  'x, y, z'
loop_
 _atom_site_type_symbol
 _atom_site_label
 _atom_site_symmetry_multiplicity
 _atom_site_fract_x
 _atom_site_fract_y
 _atom_site_fract_z
 _atom_site_occupancy
  Nd  Nd0  1  0.947032  0.947227  0.158511  1
  Ho  Ho1  1  0.052875  0.052892  0.841343  1
  Ho  Ho2  1  0.853047  0.851469  0.444014  1
  Ho  Ho3  1  0.146465  0.147905  0.557725  1
  Ni  Ni4  1  0.500004  0.499958  0.500081  1
  Ni  Ni5  1  0.724416  0.721637  0.832310  1
  Ni  Ni6  1  0.275042  0.278685  0.167589  1
  Ni  Ni7  1  0.613638  0.609599  0.167163  1
  Ni  Ni8  1  0.386615  0.390340  0.832706  1
  Ni  Ni9  1  0.500412  0.000624  0.998644  1
  Ni  Ni10  1  0.500412  0.500320  0.998644  1
  Ni  Ni11  1  0.390143  0.389281  0.330781  1
  Ni  Ni12  1  0.891589  0.387799  0.332814  1
  Ni  Ni13  1  0.390143  0.889797  0.330781  1
  Ni  Ni14  1  0.609543  0.610253  0.670339  1
  Ni  Ni15  1  0.108303  0.611779  0.668137  1
  Ni  Ni16  1  0.609543  0.109863  0.670339  1
  Ge  Ge17  1  0.000778  0.500572  0.998077  1
