# generated using pymatgen
data_Cs(TiSe2)8
_symmetry_space_group_name_H-M   'P 1'
_cell_length_a   7.07273400
_cell_length_b   7.07273409
_cell_length_c   17.11620500
_cell_angle_alpha   90.00000000
_cell_angle_beta   90.00000000
_cell_angle_gamma   119.99999022
_symmetry_Int_Tables_number   1
_chemical_formula_structural   Cs(TiSe2)8
_chemical_formula_sum   'Cs1 Ti8 Se16'
_cell_volume   741.50282376
_cell_formula_units_Z   1
loop_
 _symmetry_equiv_pos_site_id
 _symmetry_equiv_pos_as_xyz
  1  'x, y, z'
loop_
 _atom_site_type_symbol
 _atom_site_label
 _atom_site_symmetry_multiplicity
 _atom_site_fract_x
 _atom_site_fract_y
 _atom_site_fract_z
 _atom_site_occupancy
  Cs  Cs0  1  0.000000  0.000000  0.000000  1
  Ti  Ti1  1  0.500562  0.499438  0.734396  1
  Ti  Ti2  1  0.499438  0.500562  0.265604  1
  Ti  Ti3  1  0.500562  0.001123  0.734396  1
  Ti  Ti4  1  0.499438  0.998877  0.265604  1
  Ti  Ti5  1  0.998877  0.499438  0.734396  1
  Ti  Ti6  1  0.001123  0.500562  0.265604  1
  Ti  Ti7  1  0.000000  0.000000  0.733047  1
  Ti  Ti8  1  0.000000  0.000000  0.266953  1
  Se  Se9  1  0.832994  0.665989  0.174508  1
  Se  Se10  1  0.832925  0.665852  0.643681  1
  Se  Se11  1  0.832994  0.167006  0.174508  1
  Se  Se12  1  0.832925  0.167075  0.643681  1
  Se  Se13  1  0.333333  0.666667  0.173369  1
  Se  Se14  1  0.333333  0.666667  0.644468  1
  Se  Se15  1  0.334011  0.167006  0.174508  1
  Se  Se16  1  0.334148  0.167075  0.643681  1
  Se  Se17  1  0.665989  0.832994  0.825492  1
  Se  Se18  1  0.665852  0.832925  0.356319  1
  Se  Se19  1  0.666667  0.333333  0.826631  1
  Se  Se20  1  0.666667  0.333333  0.355532  1
  Se  Se21  1  0.167006  0.832994  0.825492  1
  Se  Se22  1  0.167075  0.832925  0.356319  1
  Se  Se23  1  0.167006  0.334011  0.825492  1
  Se  Se24  1  0.167075  0.334148  0.356319  1
