# generated using pymatgen
data_Ba2Ti2ZnO7
_symmetry_space_group_name_H-M   'P 1'
_cell_length_a   8.63063300
_cell_length_b   8.63063300
_cell_length_c   5.65483900
_cell_angle_alpha   90.00000000
_cell_angle_beta   90.00000000
_cell_angle_gamma   90.00000000
_symmetry_Int_Tables_number   1
_chemical_formula_structural   Ba2Ti2ZnO7
_chemical_formula_sum   'Ba4 Ti4 Zn2 O14'
_cell_volume   421.21666338
_cell_formula_units_Z   2
loop_
 _symmetry_equiv_pos_site_id
 _symmetry_equiv_pos_as_xyz
  1  'x, y, z'
loop_
 _atom_site_type_symbol
 _atom_site_label
 _atom_site_symmetry_multiplicity
 _atom_site_fract_x
 _atom_site_fract_y
 _atom_site_fract_z
 _atom_site_occupancy
  Ba  Ba0  1  0.664480  0.164480  0.508208  1
  Ba  Ba1  1  0.835520  0.664480  0.491792  1
  Ba  Ba2  1  0.164480  0.335520  0.491792  1
  Ba  Ba3  1  0.335520  0.835520  0.508208  1
  Ti  Ti4  1  0.857485  0.357485  0.957925  1
  Ti  Ti5  1  0.142515  0.642515  0.957925  1
  Ti  Ti6  1  0.642515  0.857485  0.042075  1
  Ti  Ti7  1  0.357485  0.142515  0.042075  1
  Zn  Zn8  1  0.000000  0.000000  0.000000  1
  Zn  Zn9  1  0.500000  0.500000  0.000000  1
  O  O10  1  0.675296  0.411662  0.815413  1
  O  O11  1  0.324704  0.588338  0.815413  1
  O  O12  1  0.411662  0.324704  0.184587  1
  O  O13  1  0.588338  0.675296  0.184587  1
  O  O14  1  0.911662  0.175296  0.815413  1
  O  O15  1  0.824704  0.911662  0.184587  1
  O  O16  1  0.175296  0.088338  0.184587  1
  O  O17  1  0.088338  0.824704  0.815413  1
  O  O18  1  0.860305  0.360305  0.275695  1
  O  O19  1  0.639695  0.860305  0.724305  1
  O  O20  1  0.500000  0.000000  0.169453  1
  O  O21  1  0.000000  0.500000  0.830547  1
  O  O22  1  0.139695  0.639695  0.275695  1
  O  O23  1  0.360305  0.139695  0.724305  1
