# generated using pymatgen
data_Hf10Be2Sn5Bi
_symmetry_space_group_name_H-M   'P 1'
_cell_length_a   8.60207600
_cell_length_b   8.58288117
_cell_length_c   5.74289300
_cell_angle_alpha   90.00000000
_cell_angle_beta   90.00000000
_cell_angle_gamma   120.07387140
_symmetry_Int_Tables_number   1
_chemical_formula_structural   Hf10Be2Sn5Bi
_chemical_formula_sum   'Hf10 Be2 Sn5 Bi1'
_cell_volume   366.92218476
_cell_formula_units_Z   1
loop_
 _symmetry_equiv_pos_site_id
 _symmetry_equiv_pos_as_xyz
  1  'x, y, z'
loop_
 _atom_site_type_symbol
 _atom_site_label
 _atom_site_symmetry_multiplicity
 _atom_site_fract_x
 _atom_site_fract_y
 _atom_site_fract_z
 _atom_site_occupancy
  Hf  Hf0  1  0.330348  0.662811  0.998347  1
  Hf  Hf1  1  0.667537  0.337188  0.501653  1
  Hf  Hf2  1  0.667537  0.337188  0.998347  1
  Hf  Hf3  1  0.330348  0.662811  0.501653  1
  Hf  Hf4  1  0.246170  0.000000  0.250000  1
  Hf  Hf5  1  0.250139  0.251504  0.750000  1
  Hf  Hf6  1  0.998635  0.748496  0.750000  1
  Hf  Hf7  1  0.006214  0.252582  0.250000  1
  Hf  Hf8  1  0.753631  0.747416  0.250000  1
  Hf  Hf9  1  0.750691  0.000002  0.750000  1
  Be  Be10  1  0.999907  0.000000  0.997448  1
  Be  Be11  1  0.999907  0.000000  0.502552  1
  Sn  Sn12  1  0.608474  0.610468  0.750000  1
  Sn  Sn13  1  0.998006  0.389533  0.750000  1
  Sn  Sn14  1  0.001270  0.608294  0.250000  1
  Sn  Sn15  1  0.392974  0.391705  0.250000  1
  Sn  Sn16  1  0.388731  0.000000  0.750000  1
  Bi  Bi17  1  0.609481  0.999999  0.250000  1
