# generated using pymatgen
data_Ho2HfZr(Al3Ir)6
_symmetry_space_group_name_H-M   'P 1'
_cell_length_a   7.51841206
_cell_length_b   7.50416421
_cell_length_c   9.34980100
_cell_angle_alpha   90.00000000
_cell_angle_beta   90.00000000
_cell_angle_gamma   119.74819307
_symmetry_Int_Tables_number   1
_chemical_formula_structural   Ho2HfZr(Al3Ir)6
_chemical_formula_sum   'Ho2 Hf1 Zr1 Al18 Ir6'
_cell_volume   457.99194242
_cell_formula_units_Z   1
loop_
 _symmetry_equiv_pos_site_id
 _symmetry_equiv_pos_as_xyz
  1  'x, y, z'
loop_
 _atom_site_type_symbol
 _atom_site_label
 _atom_site_symmetry_multiplicity
 _atom_site_fract_x
 _atom_site_fract_y
 _atom_site_fract_z
 _atom_site_occupancy
  Ho  Ho0  1  0.670363  0.994417  0.250000  1
  Ho  Ho1  1  0.329518  0.005626  0.750000  1
  Hf  Hf2  1  0.004576  0.328806  0.750000  1
  Zr  Zr3  1  0.995126  0.670560  0.250000  1
  Al  Al4  1  0.125964  0.124251  0.250000  1
  Al  Al5  1  0.873856  0.875852  0.750000  1
  Al  Al6  1  0.000026  0.336746  0.075260  1
  Al  Al7  1  0.000053  0.663047  0.924605  1
  Al  Al8  1  0.000053  0.663047  0.575395  1
  Al  Al9  1  0.332479  0.998635  0.422062  1
  Al  Al10  1  0.000026  0.336746  0.424740  1
  Al  Al11  1  0.667788  0.001612  0.578136  1
  Al  Al12  1  0.667788  0.001612  0.921864  1
  Al  Al13  1  0.332479  0.998635  0.077938  1
  Al  Al14  1  0.331297  0.333606  0.557280  1
  Al  Al15  1  0.668458  0.666394  0.443003  1
  Al  Al16  1  0.668458  0.666394  0.056997  1
  Al  Al17  1  0.331297  0.333606  0.942720  1
  Al  Al18  1  0.334530  0.547807  0.250000  1
  Al  Al19  1  0.665587  0.452304  0.750000  1
  Al  Al20  1  0.553408  0.343160  0.250000  1
  Al  Al21  1  0.446325  0.656506  0.750000  1
  Ir  Ir22  1  0.672354  0.327452  0.999029  1
  Ir  Ir23  1  0.327801  0.672077  0.999915  1
  Ir  Ir24  1  0.327801  0.672077  0.500085  1
  Ir  Ir25  1  0.672354  0.327452  0.500971  1
  Ir  Ir26  1  0.000118  0.000789  0.999357  1
  Ir  Ir27  1  0.000118  0.000789  0.500643  1
