# generated using pymatgen
data_Nb3Al2Tc3
_symmetry_space_group_name_H-M   'P 1'
_cell_length_a   5.02092893
_cell_length_b   5.02092871
_cell_length_c   5.02092901
_cell_angle_alpha   89.89823267
_cell_angle_beta   89.89823127
_cell_angle_gamma   89.89823673
_symmetry_Int_Tables_number   1
_chemical_formula_structural   Nb3Al2Tc3
_chemical_formula_sum   'Nb3 Al2 Tc3'
_cell_volume   126.57564759
_cell_formula_units_Z   1
loop_
 _symmetry_equiv_pos_site_id
 _symmetry_equiv_pos_as_xyz
  1  'x, y, z'
loop_
 _atom_site_type_symbol
 _atom_site_label
 _atom_site_symmetry_multiplicity
 _atom_site_fract_x
 _atom_site_fract_y
 _atom_site_fract_z
 _atom_site_occupancy
  Nb  Nb0  1  0.500000  0.250333  0.749667  1
  Nb  Nb1  1  0.250333  0.749667  0.500000  1
  Nb  Nb2  1  0.749667  0.500000  0.250333  1
  Al  Al3  1  0.756168  0.756168  0.756168  1
  Al  Al4  1  0.243832  0.243832  0.243832  1
  Tc  Tc5  1  0.000000  0.251359  0.748641  1
  Tc  Tc6  1  0.251359  0.748641  0.000000  1
  Tc  Tc7  1  0.748641  0.000000  0.251359  1
