# generated using pymatgen
data_Tm4FeCo4
_symmetry_space_group_name_H-M   'P 1'
_cell_length_a   5.44570897
_cell_length_b   5.44570833
_cell_length_c   8.71060640
_cell_angle_alpha   72.14871100
_cell_angle_beta   72.14871337
_cell_angle_gamma   42.32914335
_symmetry_Int_Tables_number   1
_chemical_formula_structural   Tm4FeCo4
_chemical_formula_sum   'Tm4 Fe1 Co4'
_cell_volume   164.28256490
_cell_formula_units_Z   1
loop_
 _symmetry_equiv_pos_site_id
 _symmetry_equiv_pos_as_xyz
  1  'x, y, z'
loop_
 _atom_site_type_symbol
 _atom_site_label
 _atom_site_symmetry_multiplicity
 _atom_site_fract_x
 _atom_site_fract_y
 _atom_site_fract_z
 _atom_site_occupancy
  Tm  Tm0  1  0.742679  0.742679  0.660660  1
  Tm  Tm1  1  0.257321  0.257321  0.339340  1
  Tm  Tm2  1  0.390847  0.390847  0.883322  1
  Tm  Tm3  1  0.609153  0.609153  0.116678  1
  Fe  Fe4  1  0.500000  0.500000  0.500000  1
  Co  Co5  1  0.033924  0.033924  0.638811  1
  Co  Co6  1  0.966076  0.966076  0.361189  1
  Co  Co7  1  0.090042  0.090042  0.878288  1
  Co  Co8  1  0.909958  0.909958  0.121712  1
