# generated using pymatgen
data_Sm7Y(Si4W3)4
_symmetry_space_group_name_H-M   'P 1'
_cell_length_a   6.85745621
_cell_length_b   7.01162785
_cell_length_c   12.99282868
_cell_angle_alpha   89.94969564
_cell_angle_beta   89.98729159
_cell_angle_gamma   89.99003180
_symmetry_Int_Tables_number   1
_chemical_formula_structural   Sm7Y(Si4W3)4
_chemical_formula_sum   'Sm7 Y1 Si16 W12'
_cell_volume   624.72002549
_cell_formula_units_Z   1
loop_
 _symmetry_equiv_pos_site_id
 _symmetry_equiv_pos_as_xyz
  1  'x, y, z'
loop_
 _atom_site_type_symbol
 _atom_site_label
 _atom_site_symmetry_multiplicity
 _atom_site_fract_x
 _atom_site_fract_y
 _atom_site_fract_z
 _atom_site_occupancy
  Sm  Sm0  1  0.496886  0.334397  0.093833  1
  Sm  Sm1  1  0.996919  0.165814  0.406263  1
  Sm  Sm2  1  0.503241  0.665680  0.593847  1
  Sm  Sm3  1  0.002506  0.833451  0.906653  1
  Sm  Sm4  1  0.502801  0.666074  0.906747  1
  Sm  Sm5  1  0.002956  0.834066  0.593898  1
  Sm  Sm6  1  0.496858  0.334274  0.405423  1
  Y  Y7  1  0.996348  0.166641  0.094290  1
  Si  Si8  1  0.658123  0.044407  0.548010  1
  Si  Si9  1  0.158239  0.454863  0.952814  1
  Si  Si10  1  0.339695  0.957090  0.048338  1
  Si  Si11  1  0.841684  0.544556  0.451692  1
  Si  Si12  1  0.342192  0.955455  0.451279  1
  Si  Si13  1  0.842271  0.542460  0.048268  1
  Si  Si14  1  0.658810  0.044105  0.952837  1
  Si  Si15  1  0.158399  0.455815  0.547911  1
  Si  Si16  1  0.536261  0.365314  0.750561  1
  Si  Si17  1  0.036199  0.133924  0.750291  1
  Si  Si18  1  0.464042  0.635469  0.249511  1
  Si  Si19  1  0.964507  0.867159  0.249036  1
  Si  Si20  1  0.804325  0.625840  0.750493  1
  Si  Si21  1  0.304107  0.873098  0.750305  1
  Si  Si22  1  0.194598  0.372345  0.249238  1
  Si  Si23  1  0.696993  0.127249  0.249189  1
  W  W24  1  0.831958  0.335559  0.626416  1
  W  W25  1  0.331329  0.163771  0.874395  1
  W  W26  1  0.168166  0.664179  0.125987  1
  W  W27  1  0.669087  0.836275  0.373141  1
  W  W28  1  0.167773  0.664277  0.372976  1
  W  W29  1  0.668951  0.836670  0.125727  1
  W  W30  1  0.832260  0.334789  0.874572  1
  W  W31  1  0.331893  0.164060  0.626263  1
  W  W32  1  0.664261  0.003561  0.750460  1
  W  W33  1  0.164558  0.495851  0.750364  1
  W  W34  1  0.335151  0.997836  0.249383  1
  W  W35  1  0.835653  0.503629  0.249592  1
