# generated using pymatgen
data_Y3Sc7Co5Si20Os3
_symmetry_space_group_name_H-M   'P 1'
_cell_length_a   12.24456800
_cell_length_b   12.23604808
_cell_length_c   4.03461000
_cell_angle_alpha   90.00000000
_cell_angle_beta   90.00000000
_cell_angle_gamma   89.88399937
_symmetry_Int_Tables_number   1
_chemical_formula_structural   Y3Sc7Co5Si20Os3
_chemical_formula_sum   'Y3 Sc7 Co5 Si20 Os3'
_cell_volume   604.48469956
_cell_formula_units_Z   1
loop_
 _symmetry_equiv_pos_site_id
 _symmetry_equiv_pos_as_xyz
  1  'x, y, z'
loop_
 _atom_site_type_symbol
 _atom_site_label
 _atom_site_symmetry_multiplicity
 _atom_site_fract_x
 _atom_site_fract_y
 _atom_site_fract_z
 _atom_site_occupancy
  Y  Y0  1  0.114351  0.616748  0.500000  1
  Y  Y1  1  0.887843  0.381574  0.500000  1
  Y  Y2  1  0.616320  0.892570  0.500000  1
  Sc  Sc3  1  0.385858  0.113169  0.500000  1
  Sc  Sc4  1  0.671826  0.176251  0.500000  1
  Sc  Sc5  1  0.320504  0.833520  0.500000  1
  Sc  Sc6  1  0.176148  0.318188  0.500000  1
  Sc  Sc7  1  0.828174  0.676282  0.500000  1
  Sc  Sc8  1  0.001455  0.999873  0.000000  1
  Sc  Sc9  1  0.500872  0.494481  0.000000  1
  Co  Co10  1  0.021411  0.240358  0.000000  1
  Co  Co11  1  0.979328  0.759358  0.000000  1
  Co  Co12  1  0.242324  0.979328  0.000000  1
  Co  Co13  1  0.524024  0.251855  0.000000  1
  Co  Co14  1  0.757211  0.022748  0.000000  1
  Si  Si15  1  0.569515  0.071225  0.000000  1
  Si  Si16  1  0.426057  0.940599  0.000000  1
  Si  Si17  1  0.065984  0.425068  0.000000  1
  Si  Si18  1  0.936734  0.572857  0.000000  1
  Si  Si19  1  0.195957  0.156520  0.000000  1
  Si  Si20  1  0.809824  0.845461  0.000000  1
  Si  Si21  1  0.156997  0.810548  0.000000  1
  Si  Si22  1  0.695895  0.332905  0.000000  1
  Si  Si23  1  0.841452  0.191661  0.000000  1
  Si  Si24  1  0.296370  0.666813  0.000000  1
  Si  Si25  1  0.668156  0.707132  0.000000  1
  Si  Si26  1  0.344045  0.293752  0.000000  1
  Si  Si27  1  0.006041  0.158536  0.500000  1
  Si  Si28  1  0.993982  0.840017  0.500000  1
  Si  Si29  1  0.164996  0.007807  0.500000  1
  Si  Si30  1  0.496057  0.329265  0.500000  1
  Si  Si31  1  0.840123  0.015109  0.500000  1
  Si  Si32  1  0.477969  0.651403  0.500000  1
  Si  Si33  1  0.655271  0.497103  0.500000  1
  Si  Si34  1  0.350733  0.481482  0.500000  1
  Os  Os35  1  0.479128  0.748639  0.000000  1
  Os  Os36  1  0.745946  0.524690  0.000000  1
  Os  Os37  1  0.255118  0.475107  0.000000  1
