# generated using pymatgen
data_KLa2PrB24
_symmetry_space_group_name_H-M   'P 1'
_cell_length_a   7.19727100
_cell_length_b   7.19727062
_cell_length_c   5.91680300
_cell_angle_alpha   90.00000000
_cell_angle_beta   90.00000000
_cell_angle_gamma   109.23992540
_symmetry_Int_Tables_number   1
_chemical_formula_structural   KLa2PrB24
_chemical_formula_sum   'K1 La2 Pr1 B24'
_cell_volume   289.37593042
_cell_formula_units_Z   1
loop_
 _symmetry_equiv_pos_site_id
 _symmetry_equiv_pos_as_xyz
  1  'x, y, z'
loop_
 _atom_site_type_symbol
 _atom_site_label
 _atom_site_symmetry_multiplicity
 _atom_site_fract_x
 _atom_site_fract_y
 _atom_site_fract_z
 _atom_site_occupancy
  K  K0  1  0.000000  0.000000  0.000000  1
  La  La1  1  0.751524  0.248476  0.500000  1
  La  La2  1  0.248476  0.751524  0.500000  1
  Pr  Pr3  1  0.500000  0.500000  0.000000  1
  B  B4  1  0.175567  0.325361  0.649304  1
  B  B5  1  0.924558  0.574970  0.148616  1
  B  B6  1  0.674639  0.824433  0.649304  1
  B  B7  1  0.425030  0.075442  0.148616  1
  B  B8  1  0.175567  0.325361  0.350696  1
  B  B9  1  0.924558  0.574970  0.851384  1
  B  B10  1  0.674639  0.824433  0.350696  1
  B  B11  1  0.425030  0.075442  0.851384  1
  B  B12  1  0.399986  0.399986  0.500000  1
  B  B13  1  0.148636  0.650477  0.000000  1
  B  B14  1  0.898968  0.898968  0.500000  1
  B  B15  1  0.650477  0.148636  0.000000  1
  B  B16  1  0.325361  0.175567  0.649304  1
  B  B17  1  0.075442  0.425030  0.148616  1
  B  B18  1  0.824433  0.674639  0.649304  1
  B  B19  1  0.574970  0.924558  0.148616  1
  B  B20  1  0.101032  0.101032  0.500000  1
  B  B21  1  0.851364  0.349523  0.000000  1
  B  B22  1  0.600014  0.600014  0.500000  1
  B  B23  1  0.349523  0.851364  0.000000  1
  B  B24  1  0.325361  0.175567  0.350696  1
  B  B25  1  0.075442  0.425030  0.851384  1
  B  B26  1  0.824433  0.674639  0.350696  1
  B  B27  1  0.574970  0.924558  0.851384  1
