# generated using pymatgen
data_Pr8Dy10Sc2Si15Sn
_symmetry_space_group_name_H-M   'P 1'
_cell_length_a   7.50243719
_cell_length_b   7.82319101
_cell_length_c   14.87349665
_cell_angle_alpha   89.93872132
_cell_angle_beta   89.57255478
_cell_angle_gamma   89.80613809
_symmetry_Int_Tables_number   1
_chemical_formula_structural   Pr8Dy10Sc2Si15Sn
_chemical_formula_sum   'Pr8 Dy10 Sc2 Si15 Sn1'
_cell_volume   872.94036050
_cell_formula_units_Z   1
loop_
 _symmetry_equiv_pos_site_id
 _symmetry_equiv_pos_as_xyz
  1  'x, y, z'
loop_
 _atom_site_type_symbol
 _atom_site_label
 _atom_site_symmetry_multiplicity
 _atom_site_fract_x
 _atom_site_fract_y
 _atom_site_fract_z
 _atom_site_occupancy
  Pr  Pr0  1  0.012436  0.172915  0.398045  1
  Pr  Pr1  1  0.517816  0.319765  0.398338  1
  Pr  Pr2  1  0.483384  0.677053  0.903553  1
  Pr  Pr3  1  0.492569  0.683878  0.602268  1
  Pr  Pr4  1  0.983919  0.825270  0.600895  1
  Pr  Pr5  1  0.982738  0.819421  0.902033  1
  Pr  Pr6  1  0.518186  0.321099  0.098016  1
  Pr  Pr7  1  0.015912  0.178417  0.096006  1
  Dy  Dy8  1  0.335608  0.165345  0.629895  1
  Dy  Dy9  1  0.669095  0.823365  0.374396  1
  Dy  Dy10  1  0.661877  0.989912  0.753395  1
  Dy  Dy11  1  0.167597  0.685700  0.370723  1
  Dy  Dy12  1  0.825974  0.322984  0.877992  1
  Dy  Dy13  1  0.819830  0.323598  0.625438  1
  Dy  Dy14  1  0.838307  0.492708  0.246832  1
  Dy  Dy15  1  0.340338  0.009721  0.247811  1
  Dy  Dy16  1  0.324089  0.176604  0.878706  1
  Dy  Dy17  1  0.172841  0.678738  0.121363  1
  Sc  Sc18  1  0.673328  0.824166  0.124031  1
  Sc  Sc19  1  0.160675  0.507826  0.755024  1
  Si  Si20  1  0.278410  0.868908  0.752747  1
  Si  Si21  1  0.467327  0.618961  0.246127  1
  Si  Si22  1  0.033278  0.115508  0.751938  1
  Si  Si23  1  0.526897  0.389897  0.753011  1
  Si  Si24  1  0.959102  0.887592  0.243633  1
  Si  Si25  1  0.721135  0.117628  0.245610  1
  Si  Si26  1  0.844374  0.538705  0.039476  1
  Si  Si27  1  0.360709  0.965133  0.041305  1
  Si  Si28  1  0.146796  0.469123  0.959520  1
  Si  Si29  1  0.653613  0.034465  0.537673  1
  Si  Si30  1  0.346878  0.967236  0.461056  1
  Si  Si31  1  0.839468  0.535596  0.458763  1
  Si  Si32  1  0.787087  0.621577  0.752055  1
  Si  Si33  1  0.220620  0.380480  0.248043  1
  Si  Si34  1  0.651841  0.028975  0.965512  1
  Sn  Sn35  1  0.165945  0.461729  0.538767  1
