# generated using pymatgen
data_Ce2Dy6Zn3Si12Rh
_symmetry_space_group_name_H-M   'P 1'
_cell_length_a   8.11938600
_cell_length_b   8.11938590
_cell_length_c   8.17484200
_cell_angle_alpha   90.00000000
_cell_angle_beta   90.00000000
_cell_angle_gamma   119.99999226
_symmetry_Int_Tables_number   1
_chemical_formula_structural   Ce2Dy6Zn3Si12Rh
_chemical_formula_sum   'Ce2 Dy6 Zn3 Si12 Rh1'
_cell_volume   466.71999238
_cell_formula_units_Z   1
loop_
 _symmetry_equiv_pos_site_id
 _symmetry_equiv_pos_as_xyz
  1  'x, y, z'
loop_
 _atom_site_type_symbol
 _atom_site_label
 _atom_site_symmetry_multiplicity
 _atom_site_fract_x
 _atom_site_fract_y
 _atom_site_fract_z
 _atom_site_occupancy
  Ce  Ce0  1  0.000000  0.000000  0.251314  1
  Ce  Ce1  1  0.000000  0.000000  0.749105  1
  Dy  Dy2  1  0.500363  0.499637  0.249183  1
  Dy  Dy3  1  0.500363  0.000728  0.249183  1
  Dy  Dy4  1  0.999272  0.499637  0.249183  1
  Dy  Dy5  1  0.497706  0.502294  0.750913  1
  Dy  Dy6  1  0.497706  0.995410  0.750913  1
  Dy  Dy7  1  0.004590  0.502294  0.750913  1
  Zn  Zn8  1  0.333333  0.666667  0.490169  1
  Zn  Zn9  1  0.666667  0.333333  0.508019  1
  Zn  Zn10  1  0.666667  0.333333  0.996165  1
  Si  Si11  1  0.166842  0.833158  0.502041  1
  Si  Si12  1  0.166842  0.333685  0.502041  1
  Si  Si13  1  0.666315  0.833158  0.502041  1
  Si  Si14  1  0.833609  0.166391  0.498219  1
  Si  Si15  1  0.833609  0.667216  0.498219  1
  Si  Si16  1  0.332784  0.166391  0.498219  1
  Si  Si17  1  0.836376  0.163624  0.998855  1
  Si  Si18  1  0.836376  0.672751  0.998855  1
  Si  Si19  1  0.327249  0.163624  0.998855  1
  Si  Si20  1  0.169332  0.830668  0.001807  1
  Si  Si21  1  0.169332  0.338664  0.001807  1
  Si  Si22  1  0.661336  0.830668  0.001807  1
  Rh  Rh23  1  0.333333  0.666667  0.002176  1
