# generated using pymatgen
data_Tb3SmCo12(CuB3)2
_symmetry_space_group_name_H-M   'P 1'
_cell_length_a   5.05597200
_cell_length_b   5.05582065
_cell_length_c   12.76810400
_cell_angle_alpha   89.99990215
_cell_angle_beta   90.00018436
_cell_angle_gamma   120.00097722
_symmetry_Int_Tables_number   1
_chemical_formula_structural   Tb3SmCo12(CuB3)2
_chemical_formula_sum   'Tb3 Sm1 Co12 Cu2 B6'
_cell_volume   282.65006242
_cell_formula_units_Z   1
loop_
 _symmetry_equiv_pos_site_id
 _symmetry_equiv_pos_as_xyz
  1  'x, y, z'
loop_
 _atom_site_type_symbol
 _atom_site_label
 _atom_site_symmetry_multiplicity
 _atom_site_fract_x
 _atom_site_fract_y
 _atom_site_fract_z
 _atom_site_occupancy
  Tb  Tb0  1  0.999992  0.000000  0.499952  1
  Tb  Tb1  1  0.999987  0.000000  0.261966  1
  Tb  Tb2  1  0.999999  0.000000  0.738107  1
  Sm  Sm3  1  0.999989  0.000000  0.000015  1
  Co  Co4  1  0.499986  0.000000  0.160433  1
  Co  Co5  1  0.499986  0.500000  0.160439  1
  Co  Co6  1  0.999986  0.500000  0.160439  1
  Co  Co7  1  0.499998  0.000000  0.839515  1
  Co  Co8  1  0.499998  0.500001  0.839578  1
  Co  Co9  1  0.999997  0.499999  0.839578  1
  Co  Co10  1  0.499989  0.000000  0.385884  1
  Co  Co11  1  0.499990  0.500000  0.385867  1
  Co  Co12  1  0.999989  0.500000  0.385867  1
  Co  Co13  1  0.499995  0.000000  0.614121  1
  Co  Co14  1  0.499995  0.500000  0.614110  1
  Co  Co15  1  0.999995  0.500000  0.614110  1
  Cu  Cu16  1  0.333336  0.666698  0.000001  1
  Cu  Cu17  1  0.666638  0.333302  0.000001  1
  B  B18  1  0.333316  0.666648  0.499964  1
  B  B19  1  0.666669  0.333352  0.499964  1
  B  B20  1  0.333354  0.666735  0.269504  1
  B  B21  1  0.666619  0.333265  0.269504  1
  B  B22  1  0.666666  0.333338  0.730539  1
  B  B23  1  0.333328  0.666662  0.730539  1
