# generated using pymatgen
data_Cs7K(USe5)2
_symmetry_space_group_name_H-M   'P 1'
_cell_length_a   8.60809129
_cell_length_b   12.79284773
_cell_length_c   8.45578129
_cell_angle_alpha   101.35293802
_cell_angle_beta   102.29381827
_cell_angle_gamma   110.40113288
_symmetry_Int_Tables_number   1
_chemical_formula_structural   Cs7K(USe5)2
_chemical_formula_sum   'Cs7 K1 U2 Se10'
_cell_volume   814.53195430
_cell_formula_units_Z   1
loop_
 _symmetry_equiv_pos_site_id
 _symmetry_equiv_pos_as_xyz
  1  'x, y, z'
loop_
 _atom_site_type_symbol
 _atom_site_label
 _atom_site_symmetry_multiplicity
 _atom_site_fract_x
 _atom_site_fract_y
 _atom_site_fract_z
 _atom_site_occupancy
  Cs  Cs0  1  0.000037  0.500013  0.000003  1
  Cs  Cs1  1  0.428629  0.908764  0.210311  1
  Cs  Cs2  1  0.598363  0.598613  0.294171  1
  Cs  Cs3  1  0.794931  0.294431  0.419322  1
  Cs  Cs4  1  0.205078  0.705569  0.580658  1
  Cs  Cs5  1  0.401654  0.401376  0.705826  1
  Cs  Cs6  1  0.571379  0.091236  0.789693  1
  K  K7  1  0.000020  0.000016  0.500008  1
  U  U8  1  0.180606  0.185892  0.096108  1
  U  U9  1  0.819394  0.814130  0.903906  1
  Se  Se10  1  0.493859  0.298578  0.065190  1
  Se  Se11  1  0.856263  0.032675  0.107198  1
  Se  Se12  1  0.975866  0.773828  0.183401  1
  Se  Se13  1  0.173047  0.377315  0.287377  1
  Se  Se14  1  0.340665  0.150800  0.378205  1
  Se  Se15  1  0.659365  0.849194  0.621839  1
  Se  Se16  1  0.826966  0.622724  0.712658  1
  Se  Se17  1  0.024082  0.226164  0.816534  1
  Se  Se18  1  0.143633  0.967259  0.892795  1
  Se  Se19  1  0.506167  0.701422  0.934795  1
