# generated using pymatgen
data_NdHo7(IrO6)4
_symmetry_space_group_name_H-M   'P 1'
_cell_length_a   5.31049418
_cell_length_b   9.18850808
_cell_length_c   9.91116500
_cell_angle_alpha   90.55758289
_cell_angle_beta   89.94803939
_cell_angle_gamma   89.68424124
_symmetry_Int_Tables_number   1
_chemical_formula_structural   NdHo7(IrO6)4
_chemical_formula_sum   'Nd1 Ho7 Ir4 O24'
_cell_volume   483.58997011
_cell_formula_units_Z   1
loop_
 _symmetry_equiv_pos_site_id
 _symmetry_equiv_pos_as_xyz
  1  'x, y, z'
loop_
 _atom_site_type_symbol
 _atom_site_label
 _atom_site_symmetry_multiplicity
 _atom_site_fract_x
 _atom_site_fract_y
 _atom_site_fract_z
 _atom_site_occupancy
  Nd  Nd0  1  0.962055  0.779284  0.866583  1
  Ho  Ho1  1  0.517350  0.099791  0.965642  1
  Ho  Ho2  1  0.019467  0.395980  0.036450  1
  Ho  Ho3  1  0.478267  0.601667  0.534841  1
  Ho  Ho4  1  0.983394  0.902166  0.463296  1
  Ho  Ho5  1  0.542662  0.221607  0.369504  1
  Ho  Ho6  1  0.042642  0.282446  0.627753  1
  Ho  Ho7  1  0.460983  0.716737  0.133058  1
  Ir  Ir8  1  0.460121  0.999899  0.643350  1
  Ir  Ir9  1  0.958076  0.505072  0.353328  1
  Ir  Ir10  1  0.539561  0.490636  0.853659  1
  Ir  Ir11  1  0.043411  0.004849  0.148662  1
  O  O12  1  0.326199  0.136489  0.182767  1
  O  O13  1  0.829526  0.364608  0.817689  1
  O  O14  1  0.668655  0.632898  0.319442  1
  O  O15  1  0.176036  0.869389  0.672683  1
  O  O16  1  0.736768  0.118062  0.566585  1
  O  O17  1  0.237025  0.387674  0.432065  1
  O  O18  1  0.267793  0.607643  0.938513  1
  O  O19  1  0.765612  0.884450  0.072759  1
  O  O20  1  0.668906  0.640072  0.736895  1
  O  O21  1  0.187889  0.857699  0.264214  1
  O  O22  1  0.309041  0.143824  0.762067  1
  O  O23  1  0.816035  0.356389  0.237144  1
  O  O24  1  0.660233  0.950748  0.795783  1
  O  O25  1  0.164592  0.554064  0.202793  1
  O  O26  1  0.329789  0.444572  0.702082  1
  O  O27  1  0.835683  0.057491  0.298713  1
  O  O28  1  0.254929  0.092193  0.498131  1
  O  O29  1  0.752998  0.413368  0.498849  1
  O  O30  1  0.744093  0.581435  0.001227  1
  O  O31  1  0.257339  0.911299  0.005974  1
  O  O32  1  0.083164  0.658942  0.472515  1
  O  O33  1  0.591725  0.844096  0.526278  1
  O  O34  1  0.914226  0.154336  0.026894  1
  O  O35  1  0.413757  0.338125  0.971813  1
