# generated using pymatgen
data_Th14Tc4RuAu
_symmetry_space_group_name_H-M   'P 1'
_cell_length_a   10.05677302
_cell_length_b   10.04574709
_cell_length_c   6.32688952
_cell_angle_alpha   90.24559657
_cell_angle_beta   89.77146687
_cell_angle_gamma   119.82942046
_symmetry_Int_Tables_number   1
_chemical_formula_structural   Th14Tc4RuAu
_chemical_formula_sum   'Th14 Tc4 Ru1 Au1'
_cell_volume   554.49894055
_cell_formula_units_Z   1
loop_
 _symmetry_equiv_pos_site_id
 _symmetry_equiv_pos_as_xyz
  1  'x, y, z'
loop_
 _atom_site_type_symbol
 _atom_site_label
 _atom_site_symmetry_multiplicity
 _atom_site_fract_x
 _atom_site_fract_y
 _atom_site_fract_z
 _atom_site_occupancy
  Th  Th0  1  0.475367  0.547764  0.290762  1
  Th  Th1  1  0.072320  0.547989  0.288701  1
  Th  Th2  1  0.917227  0.459978  0.795023  1
  Th  Th3  1  0.259041  0.117045  0.503428  1
  Th  Th4  1  0.543414  0.083956  0.797654  1
  Th  Th5  1  0.751873  0.876305  0.003956  1
  Th  Th6  1  0.666472  0.332842  0.281834  1
  Th  Th7  1  0.125580  0.876637  0.003190  1
  Th  Th8  1  0.458770  0.917798  0.295471  1
  Th  Th9  1  0.543606  0.461813  0.794230  1
  Th  Th10  1  0.858370  0.115007  0.504331  1
  Th  Th11  1  0.122333  0.244252  0.018506  1
  Th  Th12  1  0.875062  0.751000  0.505692  1
  Th  Th13  1  0.338186  0.677468  0.803880  1
  Tc  Tc14  1  0.815749  0.629326  0.045700  1
  Tc  Tc15  1  0.818255  0.186603  0.051049  1
  Tc  Tc16  1  0.621098  0.806639  0.547984  1
  Tc  Tc17  1  0.368017  0.185821  0.050276  1
  Ru  Ru18  1  0.183201  0.806442  0.545589  1
  Au  Au19  1  0.186058  0.375318  0.556743  1
