# generated using pymatgen
data_Tm6Mn3Al12Si12Ru5
_symmetry_space_group_name_H-M   'P 1'
_cell_length_a   8.59147369
_cell_length_b   8.59582901
_cell_length_c   9.12204127
_cell_angle_alpha   89.99999681
_cell_angle_beta   90.08409574
_cell_angle_gamma   120.01677387
_symmetry_Int_Tables_number   1
_chemical_formula_structural   Tm6Mn3Al12Si12Ru5
_chemical_formula_sum   'Tm6 Mn3 Al12 Si12 Ru5'
_cell_volume   583.31620436
_cell_formula_units_Z   1
loop_
 _symmetry_equiv_pos_site_id
 _symmetry_equiv_pos_as_xyz
  1  'x, y, z'
loop_
 _atom_site_type_symbol
 _atom_site_label
 _atom_site_symmetry_multiplicity
 _atom_site_fract_x
 _atom_site_fract_y
 _atom_site_fract_z
 _atom_site_occupancy
  Tm  Tm0  1  0.808666  0.193074  0.750585  1
  Tm  Tm1  1  0.191334  0.806926  0.249415  1
  Tm  Tm2  1  0.385123  0.192561  0.751997  1
  Tm  Tm3  1  0.614877  0.807439  0.248003  1
  Tm  Tm4  1  0.808666  0.615592  0.750585  1
  Tm  Tm5  1  0.191334  0.384408  0.249415  1
  Mn  Mn6  1  0.000000  0.500000  0.000000  1
  Mn  Mn7  1  0.000000  0.000000  0.000000  1
  Mn  Mn8  1  0.000000  0.000000  0.500000  1
  Al  Al9  1  0.837316  0.163023  0.420252  1
  Al  Al10  1  0.162684  0.836977  0.579748  1
  Al  Al11  1  0.324417  0.162209  0.421008  1
  Al  Al12  1  0.159916  0.832600  0.922022  1
  Al  Al13  1  0.675583  0.837791  0.578992  1
  Al  Al14  1  0.840084  0.167400  0.077978  1
  Al  Al15  1  0.837316  0.674293  0.420252  1
  Al  Al16  1  0.674785  0.837392  0.920750  1
  Al  Al17  1  0.162684  0.325707  0.579748  1
  Al  Al18  1  0.325215  0.162608  0.079250  1
  Al  Al19  1  0.159916  0.327316  0.922022  1
  Al  Al20  1  0.840084  0.672684  0.077978  1
  Si  Si21  1  0.675412  0.337706  0.959508  1
  Si  Si22  1  0.324588  0.662294  0.040492  1
  Si  Si23  1  0.333354  0.666678  0.456276  1
  Si  Si24  1  0.666646  0.333322  0.543724  1
  Si  Si25  1  0.437898  0.562790  0.750196  1
  Si  Si26  1  0.562102  0.437210  0.249804  1
  Si  Si27  1  0.118373  0.559187  0.756095  1
  Si  Si28  1  0.881627  0.440813  0.243905  1
  Si  Si29  1  0.437898  0.875109  0.750196  1
  Si  Si30  1  0.562102  0.124891  0.249804  1
  Si  Si31  1  0.000256  0.000128  0.749813  1
  Si  Si32  1  0.999744  0.999872  0.250187  1
  Ru  Ru33  1  0.500000  0.500000  0.000000  1
  Ru  Ru34  1  0.500000  0.500000  0.500000  1
  Ru  Ru35  1  0.500000  0.000000  0.000000  1
  Ru  Ru36  1  0.000000  0.500000  0.500000  1
  Ru  Ru37  1  0.500000  0.000000  0.500000  1
