# generated using pymatgen
data_Ho7ErTi11Si16Au
_symmetry_space_group_name_H-M   'P 1'
_cell_length_a   7.05753291
_cell_length_b   7.05733105
_cell_length_c   12.86896108
_cell_angle_alpha   90.13369653
_cell_angle_beta   89.87181927
_cell_angle_gamma   89.62282778
_symmetry_Int_Tables_number   1
_chemical_formula_structural   Ho7ErTi11Si16Au
_chemical_formula_sum   'Ho7 Er1 Ti11 Si16 Au1'
_cell_volume   640.95153964
_cell_formula_units_Z   1
loop_
 _symmetry_equiv_pos_site_id
 _symmetry_equiv_pos_as_xyz
  1  'x, y, z'
loop_
 _atom_site_type_symbol
 _atom_site_label
 _atom_site_symmetry_multiplicity
 _atom_site_fract_x
 _atom_site_fract_y
 _atom_site_fract_z
 _atom_site_occupancy
  Ho  Ho0  1  0.340906  0.002328  0.466760  1
  Ho  Ho1  1  0.497377  0.841043  0.716844  1
  Ho  Ho2  1  0.501352  0.157401  0.214357  1
  Ho  Ho3  1  0.841068  0.497396  0.283111  1
  Ho  Ho4  1  0.157343  0.501380  0.785692  1
  Ho  Ho5  1  0.656568  0.000712  0.968803  1
  Ho  Ho6  1  0.002335  0.340918  0.533239  1
  Er  Er7  1  0.000924  0.656498  0.031280  1
  Ti  Ti8  1  0.174801  0.826128  0.249384  1
  Ti  Ti9  1  0.826201  0.174873  0.750542  1
  Ti  Ti10  1  0.672766  0.672741  0.499992  1
  Ti  Ti11  1  0.147447  0.007075  0.876860  1
  Ti  Ti12  1  0.495207  0.650859  0.122833  1
  Ti  Ti13  1  0.507024  0.350823  0.625440  1
  Ti  Ti14  1  0.650998  0.495295  0.877217  1
  Ti  Ti15  1  0.350815  0.507001  0.374531  1
  Ti  Ti16  1  0.850238  0.992075  0.374205  1
  Ti  Ti17  1  0.007170  0.147421  0.123175  1
  Ti  Ti18  1  0.992123  0.850210  0.625803  1
  Si  Si19  1  0.202098  0.132820  0.684320  1
  Si  Si20  1  0.373488  0.719997  0.928563  1
  Si  Si21  1  0.631467  0.293646  0.432288  1
  Si  Si22  1  0.720469  0.374103  0.071469  1
  Si  Si23  1  0.293651  0.631468  0.567705  1
  Si  Si24  1  0.797784  0.866615  0.182318  1
  Si  Si25  1  0.132791  0.202144  0.315691  1
  Si  Si26  1  0.866883  0.797474  0.817625  1
  Si  Si27  1  0.285928  0.937636  0.065769  1
  Si  Si28  1  0.547075  0.791181  0.314407  1
  Si  Si29  1  0.454472  0.207911  0.809789  1
  Si  Si30  1  0.791201  0.546992  0.685624  1
  Si  Si31  1  0.207689  0.454620  0.190035  1
  Si  Si32  1  0.708613  0.047935  0.564493  1
  Si  Si33  1  0.938041  0.286615  0.934288  1
  Si  Si34  1  0.047903  0.708598  0.435533  1
  Au  Au35  1  0.327788  0.328072  0.000014  1
