# generated using pymatgen
data_Cs2Hf3VS8
_symmetry_space_group_name_H-M   'P 1'
_cell_length_a   6.21403400
_cell_length_b   7.24660863
_cell_length_c   16.92700300
_cell_angle_alpha   90.19186896
_cell_angle_beta   90.00000000
_cell_angle_gamma   90.00000000
_symmetry_Int_Tables_number   1
_chemical_formula_structural   Cs2Hf3VS8
_chemical_formula_sum   'Cs4 Hf6 V2 S16'
_cell_volume   762.23005334
_cell_formula_units_Z   2
loop_
 _symmetry_equiv_pos_site_id
 _symmetry_equiv_pos_as_xyz
  1  'x, y, z'
loop_
 _atom_site_type_symbol
 _atom_site_label
 _atom_site_symmetry_multiplicity
 _atom_site_fract_x
 _atom_site_fract_y
 _atom_site_fract_z
 _atom_site_occupancy
  Cs  Cs0  1  0.357700  0.000000  0.000000  1
  Cs  Cs1  1  0.642300  0.500000  0.500000  1
  Cs  Cs2  1  0.038239  0.000000  0.500000  1
  Cs  Cs3  1  0.961761  0.500000  0.000000  1
  Hf  Hf4  1  0.000335  0.990878  0.249164  1
  Hf  Hf5  1  0.000335  0.009122  0.750836  1
  Hf  Hf6  1  0.999665  0.509122  0.250836  1
  Hf  Hf7  1  0.999665  0.490878  0.749164  1
  Hf  Hf8  1  0.500000  0.250000  0.250000  1
  Hf  Hf9  1  0.500000  0.750000  0.750000  1
  V  V10  1  0.500000  0.750000  0.250000  1
  V  V11  1  0.500000  0.250000  0.750000  1
  S  S12  1  0.835718  0.250085  0.336681  1
  S  S13  1  0.835718  0.749915  0.663319  1
  S  S14  1  0.171464  0.748422  0.162808  1
  S  S15  1  0.171464  0.251578  0.837192  1
  S  S16  1  0.164282  0.249915  0.163319  1
  S  S17  1  0.164282  0.750085  0.836681  1
  S  S18  1  0.828536  0.751578  0.337192  1
  S  S19  1  0.828536  0.248422  0.662808  1
  S  S20  1  0.666962  0.997133  0.164567  1
  S  S21  1  0.666962  0.002867  0.835433  1
  S  S22  1  0.333038  0.502867  0.335433  1
  S  S23  1  0.333038  0.497133  0.664567  1
  S  S24  1  0.337868  0.997277  0.334407  1
  S  S25  1  0.337868  0.002723  0.665593  1
  S  S26  1  0.662132  0.502723  0.165593  1
  S  S27  1  0.662132  0.497277  0.834407  1
