# generated using pymatgen
data_Dy3HoTm8Co5Sn
_symmetry_space_group_name_H-M   'P 1'
_cell_length_a   8.19788519
_cell_length_b   8.20198223
_cell_length_c   8.19913185
_cell_angle_alpha   106.84246730
_cell_angle_beta   110.64730092
_cell_angle_gamma   110.99583965
_symmetry_Int_Tables_number   1
_chemical_formula_structural   Dy3HoTm8Co5Sn
_chemical_formula_sum   'Dy3 Ho1 Tm8 Co5 Sn1'
_cell_volume   423.50561339
_cell_formula_units_Z   1
loop_
 _symmetry_equiv_pos_site_id
 _symmetry_equiv_pos_as_xyz
  1  'x, y, z'
loop_
 _atom_site_type_symbol
 _atom_site_label
 _atom_site_symmetry_multiplicity
 _atom_site_fract_x
 _atom_site_fract_y
 _atom_site_fract_z
 _atom_site_occupancy
  Dy  Dy0  1  0.806968  0.791127  0.597842  1
  Dy  Dy1  1  0.194180  0.789372  0.984196  1
  Dy  Dy2  1  0.807645  0.209062  0.016438  1
  Ho  Ho3  1  0.475387  0.290764  0.185323  1
  Tm  Tm4  1  0.105767  0.292140  0.812916  1
  Tm  Tm5  1  0.895153  0.710563  0.185408  1
  Tm  Tm6  1  0.522353  0.707559  0.814118  1
  Tm  Tm7  1  0.306053  0.619603  0.314294  1
  Tm  Tm8  1  0.305461  0.991937  0.684733  1
  Tm  Tm9  1  0.693337  0.379491  0.685916  1
  Tm  Tm10  1  0.695306  0.007684  0.314586  1
  Tm  Tm11  1  0.194513  0.210799  0.405904  1
  Co  Co12  1  0.499935  0.612669  0.111675  1
  Co  Co13  1  0.498016  0.387465  0.884527  1
  Co  Co14  1  0.375770  0.999996  0.376870  1
  Co  Co15  1  0.621273  0.999539  0.620900  1
  Co  Co16  1  0.001897  0.000199  0.004153  1
  Sn  Sn17  1  0.000987  0.500034  0.500202  1
