# generated using pymatgen
data_ZrSc(SnRu2)2
_symmetry_space_group_name_H-M   'P 1'
_cell_length_a   4.55922900
_cell_length_b   6.47304500
_cell_length_c   13.66873401
_cell_angle_alpha   90.00000000
_cell_angle_beta   89.99552469
_cell_angle_gamma   90.00000000
_symmetry_Int_Tables_number   1
_chemical_formula_structural   ZrSc(SnRu2)2
_chemical_formula_sum   'Zr3 Sc3 Sn6 Ru12'
_cell_volume   403.39296865
_cell_formula_units_Z   3
loop_
 _symmetry_equiv_pos_site_id
 _symmetry_equiv_pos_as_xyz
  1  'x, y, z'
loop_
 _atom_site_type_symbol
 _atom_site_label
 _atom_site_symmetry_multiplicity
 _atom_site_fract_x
 _atom_site_fract_y
 _atom_site_fract_z
 _atom_site_occupancy
  Zr  Zr0  1  0.000000  0.500001  0.998243  1
  Zr  Zr1  1  0.499944  0.000000  0.166671  1
  Zr  Zr2  1  0.999955  0.500001  0.335090  1
  Sc  Sc3  1  0.500020  0.000000  0.501021  1
  Sc  Sc4  1  0.000050  0.500001  0.666672  1
  Sc  Sc5  1  0.500056  0.000000  0.832306  1
  Sn  Sn6  1  0.000002  0.000000  0.997551  1
  Sn  Sn7  1  0.499971  0.500001  0.166662  1
  Sn  Sn8  1  0.999969  0.000000  0.335800  1
  Sn  Sn9  1  0.500005  0.500001  0.502313  1
  Sn  Sn10  1  0.000015  0.000000  0.666638  1
  Sn  Sn11  1  0.500018  0.500001  0.831028  1
  Ru  Ru12  1  0.500004  0.250841  0.000290  1
  Ru  Ru13  1  0.500004  0.749160  0.000290  1
  Ru  Ru14  1  0.999949  0.248445  0.166665  1
  Ru  Ru15  1  0.999949  0.751554  0.166665  1
  Ru  Ru16  1  0.499965  0.250836  0.333046  1
  Ru  Ru17  1  0.499965  0.749164  0.333046  1
  Ru  Ru18  1  0.000003  0.250299  0.500140  1
  Ru  Ru19  1  0.000003  0.749702  0.500140  1
  Ru  Ru20  1  0.500003  0.248178  0.666668  1
  Ru  Ru21  1  0.500003  0.751822  0.666668  1
  Ru  Ru22  1  0.000074  0.250284  0.833194  1
  Ru  Ru23  1  0.000074  0.749715  0.833194  1
