# generated using pymatgen
data_Ta12Al11Cu11Au2
_symmetry_space_group_name_H-M   'P 1'
_cell_length_a   8.68362400
_cell_length_b   8.68264369
_cell_length_c   8.07539800
_cell_angle_alpha   90.00000000
_cell_angle_beta   90.00000000
_cell_angle_gamma   120.22972849
_symmetry_Int_Tables_number   1
_chemical_formula_structural   Ta12Al11Cu11Au2
_chemical_formula_sum   'Ta12 Al11 Cu11 Au2'
_cell_volume   526.06274703
_cell_formula_units_Z   1
loop_
 _symmetry_equiv_pos_site_id
 _symmetry_equiv_pos_as_xyz
  1  'x, y, z'
loop_
 _atom_site_type_symbol
 _atom_site_label
 _atom_site_symmetry_multiplicity
 _atom_site_fract_x
 _atom_site_fract_y
 _atom_site_fract_z
 _atom_site_occupancy
  Ta  Ta0  1  0.335996  0.997587  0.068775  1
  Ta  Ta1  1  0.662433  0.001335  0.930982  1
  Ta  Ta2  1  0.998865  0.338385  0.067097  1
  Ta  Ta3  1  0.662433  0.001335  0.569018  1
  Ta  Ta4  1  0.998865  0.338385  0.432903  1
  Ta  Ta5  1  0.002795  0.662801  0.932074  1
  Ta  Ta6  1  0.335996  0.997587  0.431225  1
  Ta  Ta7  1  0.002795  0.662801  0.567926  1
  Ta  Ta8  1  0.660898  0.660257  0.068552  1
  Ta  Ta9  1  0.339260  0.338109  0.931601  1
  Ta  Ta10  1  0.339260  0.338109  0.568399  1
  Ta  Ta11  1  0.660898  0.660257  0.431448  1
  Al  Al12  1  0.158917  0.658343  0.250000  1
  Al  Al13  1  0.339298  0.665774  0.506980  1
  Al  Al14  1  0.666334  0.332688  0.499835  1
  Al  Al15  1  0.666334  0.332688  0.000165  1
  Al  Al16  1  0.339298  0.665774  0.993020  1
  Al  Al17  1  0.186663  0.001089  0.750000  1
  Al  Al18  1  0.811827  0.000507  0.250000  1
  Al  Al19  1  0.001080  0.187100  0.750000  1
  Al  Al20  1  0.992416  0.818814  0.250000  1
  Al  Al21  1  0.816016  0.813906  0.750000  1
  Al  Al22  1  0.185460  0.186916  0.250000  1
  Cu  Cu23  1  0.163591  0.498694  0.750000  1
  Cu  Cu24  1  0.835456  0.503248  0.250000  1
  Cu  Cu25  1  0.504819  0.665221  0.750000  1
  Cu  Cu26  1  0.499124  0.163837  0.750000  1
  Cu  Cu27  1  0.496980  0.333426  0.250000  1
  Cu  Cu28  1  0.497542  0.834312  0.250000  1
  Cu  Cu29  1  0.336347  0.838170  0.750000  1
  Cu  Cu30  1  0.666123  0.501380  0.750000  1
  Cu  Cu31  1  0.663744  0.162934  0.250000  1
  Cu  Cu32  1  0.335578  0.499837  0.250000  1
  Cu  Cu33  1  0.837123  0.335396  0.750000  1
  Au  Au34  1  0.999717  0.001500  0.501013  1
  Au  Au35  1  0.999717  0.001500  0.998987  1
