# generated using pymatgen
data_LiSm8(Si4Rh)3
_symmetry_space_group_name_H-M   'P 1'
_cell_length_a   8.24735400
_cell_length_b   8.24735307
_cell_length_c   8.21951200
_cell_angle_alpha   90.00000000
_cell_angle_beta   90.00000000
_cell_angle_gamma   120.00000374
_symmetry_Int_Tables_number   1
_chemical_formula_structural   LiSm8(Si4Rh)3
_chemical_formula_sum   'Li1 Sm8 Si12 Rh3'
_cell_volume   484.17891428
_cell_formula_units_Z   1
loop_
 _symmetry_equiv_pos_site_id
 _symmetry_equiv_pos_as_xyz
  1  'x, y, z'
loop_
 _atom_site_type_symbol
 _atom_site_label
 _atom_site_symmetry_multiplicity
 _atom_site_fract_x
 _atom_site_fract_y
 _atom_site_fract_z
 _atom_site_occupancy
  Li  Li0  1  0.666667  0.333333  0.993658  1
  Sm  Sm1  1  0.000000  0.000000  0.750973  1
  Sm  Sm2  1  0.000000  0.000000  0.249494  1
  Sm  Sm3  1  0.495501  0.504499  0.746962  1
  Sm  Sm4  1  0.495501  0.991003  0.746962  1
  Sm  Sm5  1  0.008997  0.504499  0.746962  1
  Sm  Sm6  1  0.498381  0.501619  0.252836  1
  Sm  Sm7  1  0.003240  0.501619  0.252836  1
  Sm  Sm8  1  0.498381  0.996760  0.252836  1
  Si  Si9  1  0.836074  0.163926  0.000722  1
  Si  Si10  1  0.836074  0.672148  0.000722  1
  Si  Si11  1  0.327852  0.163926  0.000722  1
  Si  Si12  1  0.832480  0.167520  0.499841  1
  Si  Si13  1  0.832480  0.664960  0.499841  1
  Si  Si14  1  0.335040  0.167520  0.499841  1
  Si  Si15  1  0.166264  0.833736  0.500390  1
  Si  Si16  1  0.667474  0.833736  0.500390  1
  Si  Si17  1  0.166264  0.332526  0.500390  1
  Si  Si18  1  0.167088  0.832912  0.999666  1
  Si  Si19  1  0.665822  0.832912  0.999666  1
  Si  Si20  1  0.167088  0.334178  0.999666  1
  Rh  Rh21  1  0.666667  0.333333  0.505446  1
  Rh  Rh22  1  0.333333  0.666667  0.493712  1
  Rh  Rh23  1  0.333333  0.666667  0.005465  1
