# generated using pymatgen
data_Hf10In5B2Sb
_symmetry_space_group_name_H-M   'P 1'
_cell_length_a   8.49196400
_cell_length_b   8.49196374
_cell_length_c   5.74755100
_cell_angle_alpha   90.00000000
_cell_angle_beta   90.00000000
_cell_angle_gamma   120.07253680
_symmetry_Int_Tables_number   1
_chemical_formula_structural   Hf10In5B2Sb
_chemical_formula_sum   'Hf10 In5 B2 Sb1'
_cell_volume   358.68386293
_cell_formula_units_Z   1
loop_
 _symmetry_equiv_pos_site_id
 _symmetry_equiv_pos_as_xyz
  1  'x, y, z'
loop_
 _atom_site_type_symbol
 _atom_site_label
 _atom_site_symmetry_multiplicity
 _atom_site_fract_x
 _atom_site_fract_y
 _atom_site_fract_z
 _atom_site_occupancy
  Hf  Hf0  1  0.666105  0.332534  0.000903  1
  Hf  Hf1  1  0.332534  0.666105  0.000903  1
  Hf  Hf2  1  0.332534  0.666105  0.499097  1
  Hf  Hf3  1  0.666105  0.332534  0.499097  1
  Hf  Hf4  1  0.773301  0.773301  0.750000  1
  Hf  Hf5  1  0.225696  0.001124  0.750000  1
  Hf  Hf6  1  0.001124  0.225696  0.750000  1
  Hf  Hf7  1  0.228258  0.228258  0.250000  1
  Hf  Hf8  1  0.774366  0.999856  0.250000  1
  Hf  Hf9  1  0.999856  0.774366  0.250000  1
  In  In10  1  0.602418  0.000421  0.750000  1
  In  In11  1  0.000421  0.602418  0.750000  1
  In  In12  1  0.604151  0.604151  0.250000  1
  In  In13  1  0.397757  0.999230  0.250000  1
  In  In14  1  0.999230  0.397757  0.250000  1
  B  B15  1  0.999489  0.999489  0.000604  1
  B  B16  1  0.999489  0.999489  0.499396  1
  Sb  Sb17  1  0.397166  0.397166  0.750000  1
