# generated using pymatgen
data_Ca3La8Y9Ge16
_symmetry_space_group_name_H-M   'P 1'
_cell_length_a   8.00822695
_cell_length_b   8.00822770
_cell_length_c   14.71429700
_cell_angle_alpha   90.09899129
_cell_angle_beta   89.90100870
_cell_angle_gamma   89.92047588
_symmetry_Int_Tables_number   1
_chemical_formula_structural   Ca3La8Y9Ge16
_chemical_formula_sum   'Ca3 La8 Y9 Ge16'
_cell_volume   943.64922336
_cell_formula_units_Z   1
loop_
 _symmetry_equiv_pos_site_id
 _symmetry_equiv_pos_as_xyz
  1  'x, y, z'
loop_
 _atom_site_type_symbol
 _atom_site_label
 _atom_site_symmetry_multiplicity
 _atom_site_fract_x
 _atom_site_fract_y
 _atom_site_fract_z
 _atom_site_occupancy
  Ca  Ca0  1  0.314297  0.314297  0.500000  1
  Ca  Ca1  1  0.185098  0.814074  0.750559  1
  Ca  Ca2  1  0.814074  0.185098  0.249441  1
  La  La3  1  0.638644  0.990677  0.459262  1
  La  La4  1  0.361490  0.009825  0.958981  1
  La  La5  1  0.990677  0.638644  0.540738  1
  La  La6  1  0.492446  0.861150  0.209228  1
  La  La7  1  0.508254  0.137104  0.708328  1
  La  La8  1  0.861150  0.492446  0.790772  1
  La  La9  1  0.137104  0.508254  0.291672  1
  La  La10  1  0.009825  0.361490  0.041019  1
  Y  Y11  1  0.492745  0.362552  0.123750  1
  Y  Y12  1  0.992855  0.136711  0.626105  1
  Y  Y13  1  0.861374  0.008771  0.873246  1
  Y  Y14  1  0.136711  0.992855  0.373895  1
  Y  Y15  1  0.506841  0.638687  0.624047  1
  Y  Y16  1  0.362552  0.492745  0.876250  1
  Y  Y17  1  0.638687  0.506841  0.375953  1
  Y  Y18  1  0.008771  0.861374  0.126754  1
  Y  Y19  1  0.686611  0.686611  0.000000  1
  Ge  Ge20  1  0.288095  0.931522  0.562051  1
  Ge  Ge21  1  0.710882  0.058706  0.061717  1
  Ge  Ge22  1  0.931522  0.288095  0.437949  1
  Ge  Ge23  1  0.431619  0.213128  0.312573  1
  Ge  Ge24  1  0.567672  0.787389  0.815160  1
  Ge  Ge25  1  0.213128  0.431619  0.687427  1
  Ge  Ge26  1  0.787389  0.567672  0.184840  1
  Ge  Ge27  1  0.058706  0.710882  0.938283  1
  Ge  Ge28  1  0.793903  0.849535  0.683674  1
  Ge  Ge29  1  0.206223  0.151048  0.184220  1
  Ge  Ge30  1  0.849535  0.793903  0.316326  1
  Ge  Ge31  1  0.348041  0.704791  0.434706  1
  Ge  Ge32  1  0.654483  0.302753  0.936457  1
  Ge  Ge33  1  0.704791  0.348041  0.565294  1
  Ge  Ge34  1  0.302753  0.654483  0.063543  1
  Ge  Ge35  1  0.151048  0.206223  0.815780  1
