# generated using pymatgen
data_Tm5Zn2Sb
_symmetry_space_group_name_H-M   'P 1'
_cell_length_a   8.46402662
_cell_length_b   8.46402755
_cell_length_c   8.46402640
_cell_angle_alpha   123.88723866
_cell_angle_beta   123.88724694
_cell_angle_gamma   83.38942318
_symmetry_Int_Tables_number   1
_chemical_formula_structural   Tm5Zn2Sb
_chemical_formula_sum   'Tm10 Zn4 Sb2'
_cell_volume   400.64626766
_cell_formula_units_Z   2
loop_
 _symmetry_equiv_pos_site_id
 _symmetry_equiv_pos_as_xyz
  1  'x, y, z'
loop_
 _atom_site_type_symbol
 _atom_site_label
 _atom_site_symmetry_multiplicity
 _atom_site_fract_x
 _atom_site_fract_y
 _atom_site_fract_z
 _atom_site_occupancy
  Tm  Tm0  1  0.000000  0.000000  0.000000  1
  Tm  Tm1  1  0.500000  0.500000  0.000000  1
  Tm  Tm2  1  0.799248  0.299248  0.809764  1
  Tm  Tm3  1  0.200752  0.700752  0.190236  1
  Tm  Tm4  1  0.489484  0.989484  0.190236  1
  Tm  Tm5  1  0.299248  0.489484  0.500000  1
  Tm  Tm6  1  0.010516  0.200752  0.500000  1
  Tm  Tm7  1  0.510516  0.010516  0.809764  1
  Tm  Tm8  1  0.700752  0.510516  0.500000  1
  Tm  Tm9  1  0.989484  0.799248  0.500000  1
  Zn  Zn10  1  0.135564  0.635564  0.771127  1
  Zn  Zn11  1  0.864436  0.364436  0.228873  1
  Zn  Zn12  1  0.635564  0.864436  0.500000  1
  Zn  Zn13  1  0.364436  0.135564  0.500000  1
  Sb  Sb14  1  0.250000  0.250000  0.000000  1
  Sb  Sb15  1  0.750000  0.750000  0.000000  1
