# generated using pymatgen
data_LaYb9Ir2
_symmetry_space_group_name_H-M   'P 1'
_cell_length_a   6.74480022
_cell_length_b   7.50078626
_cell_length_c   15.78085800
_cell_angle_alpha   90.00000000
_cell_angle_beta   90.00000000
_cell_angle_gamma   90.42568015
_symmetry_Int_Tables_number   1
_chemical_formula_structural   LaYb9Ir2
_chemical_formula_sum   'La2 Yb18 Ir4'
_cell_volume   798.35216334
_cell_formula_units_Z   2
loop_
 _symmetry_equiv_pos_site_id
 _symmetry_equiv_pos_as_xyz
  1  'x, y, z'
loop_
 _atom_site_type_symbol
 _atom_site_label
 _atom_site_symmetry_multiplicity
 _atom_site_fract_x
 _atom_site_fract_y
 _atom_site_fract_z
 _atom_site_occupancy
  La  La0  1  0.158377  0.090168  0.250000  1
  La  La1  1  0.841623  0.909832  0.750000  1
  Yb  Yb2  1  0.859468  0.192914  0.563137  1
  Yb  Yb3  1  0.824137  0.463404  0.145875  1
  Yb  Yb4  1  0.175863  0.536596  0.645875  1
  Yb  Yb5  1  0.357379  0.311513  0.064966  1
  Yb  Yb6  1  0.344831  0.598125  0.250000  1
  Yb  Yb7  1  0.824137  0.463404  0.354125  1
  Yb  Yb8  1  0.325382  0.035157  0.855151  1
  Yb  Yb9  1  0.140532  0.807086  0.063137  1
  Yb  Yb10  1  0.642621  0.688487  0.564966  1
  Yb  Yb11  1  0.674618  0.964843  0.355151  1
  Yb  Yb12  1  0.642621  0.688487  0.935034  1
  Yb  Yb13  1  0.325382  0.035157  0.644849  1
  Yb  Yb14  1  0.140532  0.807086  0.436863  1
  Yb  Yb15  1  0.655169  0.401875  0.750000  1
  Yb  Yb16  1  0.175863  0.536596  0.854125  1
  Yb  Yb17  1  0.357379  0.311513  0.435034  1
  Yb  Yb18  1  0.674618  0.964843  0.144849  1
  Yb  Yb19  1  0.859468  0.192914  0.936863  1
  Ir  Ir20  1  0.033271  0.232392  0.750000  1
  Ir  Ir21  1  0.472209  0.741035  0.750000  1
  Ir  Ir22  1  0.527791  0.258965  0.250000  1
  Ir  Ir23  1  0.966729  0.767608  0.250000  1
