# generated using pymatgen
data_Cs4Sr(PSe4)2
_symmetry_space_group_name_H-M   'P 1'
_cell_length_a   10.34741169
_cell_length_b   10.39849901
_cell_length_c   12.58920800
_cell_angle_alpha   105.03966859
_cell_angle_beta   103.84633233
_cell_angle_gamma   93.00660576
_symmetry_Int_Tables_number   1
_chemical_formula_structural   Cs4Sr(PSe4)2
_chemical_formula_sum   'Cs8 Sr2 P4 Se16'
_cell_volume   1260.64152377
_cell_formula_units_Z   2
loop_
 _symmetry_equiv_pos_site_id
 _symmetry_equiv_pos_as_xyz
  1  'x, y, z'
loop_
 _atom_site_type_symbol
 _atom_site_label
 _atom_site_symmetry_multiplicity
 _atom_site_fract_x
 _atom_site_fract_y
 _atom_site_fract_z
 _atom_site_occupancy
  Cs  Cs0  1  0.946588  0.512339  0.251278  1
  Cs  Cs1  1  0.053412  0.487661  0.748722  1
  Cs  Cs2  1  0.766758  0.995574  0.466013  1
  Cs  Cs3  1  0.233242  0.004426  0.533987  1
  Cs  Cs4  1  0.594187  0.738966  0.029717  1
  Cs  Cs5  1  0.405813  0.261034  0.970283  1
  Cs  Cs6  1  0.623638  0.673998  0.612236  1
  Cs  Cs7  1  0.376362  0.326002  0.387764  1
  Sr  Sr8  1  0.850604  0.136030  0.922239  1
  Sr  Sr9  1  0.149396  0.863970  0.077761  1
  P  P10  1  0.949170  0.112222  0.231935  1
  P  P11  1  0.050830  0.887778  0.768065  1
  P  P12  1  0.373591  0.680331  0.257478  1
  P  P13  1  0.626409  0.319669  0.742522  1
  Se  Se14  1  0.955468  0.898487  0.235927  1
  Se  Se15  1  0.044532  0.101513  0.764073  1
  Se  Se16  1  0.580463  0.102945  0.737653  1
  Se  Se17  1  0.419537  0.897055  0.262347  1
  Se  Se18  1  0.294472  0.667481  0.403796  1
  Se  Se19  1  0.705528  0.332519  0.596204  1
  Se  Se20  1  0.782175  0.422028  0.907256  1
  Se  Se21  1  0.217825  0.577972  0.092744  1
  Se  Se22  1  0.007528  0.245731  0.406938  1
  Se  Se23  1  0.992472  0.754269  0.593062  1
  Se  Se24  1  0.095362  0.168206  0.137595  1
  Se  Se25  1  0.904638  0.831794  0.862405  1
  Se  Se26  1  0.744516  0.137670  0.137576  1
  Se  Se27  1  0.255484  0.862330  0.862424  1
  Se  Se28  1  0.558552  0.579790  0.263991  1
  Se  Se29  1  0.441448  0.420210  0.736009  1
