# generated using pymatgen
data_Li3Tm3SnPb2
_symmetry_space_group_name_H-M   'P 1'
_cell_length_a   7.27684400
_cell_length_b   7.27684434
_cell_length_c   4.61589900
_cell_angle_alpha   90.00000000
_cell_angle_beta   90.00000000
_cell_angle_gamma   120.00001664
_symmetry_Int_Tables_number   1
_chemical_formula_structural   Li3Tm3SnPb2
_chemical_formula_sum   'Li3 Tm3 Sn1 Pb2'
_cell_volume   211.67667544
_cell_formula_units_Z   1
loop_
 _symmetry_equiv_pos_site_id
 _symmetry_equiv_pos_as_xyz
  1  'x, y, z'
loop_
 _atom_site_type_symbol
 _atom_site_label
 _atom_site_symmetry_multiplicity
 _atom_site_fract_x
 _atom_site_fract_y
 _atom_site_fract_z
 _atom_site_occupancy
  Li  Li0  1  0.236948  0.007217  0.500000  1
  Li  Li1  1  0.992783  0.229731  0.500000  1
  Li  Li2  1  0.770269  0.763052  0.500000  1
  Tm  Tm3  1  0.559984  0.002316  0.000000  1
  Tm  Tm4  1  0.997684  0.557668  0.000000  1
  Tm  Tm5  1  0.442332  0.440016  0.000000  1
  Sn  Sn6  1  0.666667  0.333333  0.500000  1
  Pb  Pb7  1  0.333333  0.666667  0.500000  1
  Pb  Pb8  1  0.000000  0.000000  0.000000  1
