# generated using pymatgen
data_YLuMnB6
_symmetry_space_group_name_H-M   'P 1'
_cell_length_a   3.53295800
_cell_length_b   9.05477900
_cell_length_c   11.44683300
_cell_angle_alpha   90.00000000
_cell_angle_beta   90.00000000
_cell_angle_gamma   90.00000000
_symmetry_Int_Tables_number   1
_chemical_formula_structural   YLuMnB6
_chemical_formula_sum   'Y4 Lu4 Mn4 B24'
_cell_volume   366.18594941
_cell_formula_units_Z   4
loop_
 _symmetry_equiv_pos_site_id
 _symmetry_equiv_pos_as_xyz
  1  'x, y, z'
loop_
 _atom_site_type_symbol
 _atom_site_label
 _atom_site_symmetry_multiplicity
 _atom_site_fract_x
 _atom_site_fract_y
 _atom_site_fract_z
 _atom_site_occupancy
  Y  Y0  1  0.000000  0.823395  0.084953  1
  Y  Y1  1  0.000000  0.176605  0.915047  1
  Y  Y2  1  0.000000  0.323395  0.415047  1
  Y  Y3  1  0.000000  0.676605  0.584953  1
  Lu  Lu4  1  0.000000  0.442294  0.131662  1
  Lu  Lu5  1  0.000000  0.557706  0.868338  1
  Lu  Lu6  1  0.000000  0.942294  0.368338  1
  Lu  Lu7  1  0.000000  0.057706  0.631662  1
  Mn  Mn8  1  0.000000  0.139488  0.180447  1
  Mn  Mn9  1  0.000000  0.860512  0.819553  1
  Mn  Mn10  1  0.000000  0.639488  0.319553  1
  Mn  Mn11  1  0.000000  0.360512  0.680447  1
  B  B12  1  0.500000  0.054666  0.068599  1
  B  B13  1  0.500000  0.945334  0.931401  1
  B  B14  1  0.500000  0.554666  0.431401  1
  B  B15  1  0.500000  0.445334  0.568599  1
  B  B16  1  0.500000  0.248621  0.083316  1
  B  B17  1  0.500000  0.751379  0.916684  1
  B  B18  1  0.500000  0.748621  0.416684  1
  B  B19  1  0.500000  0.251379  0.583316  1
  B  B20  1  0.500000  0.290776  0.234959  1
  B  B21  1  0.500000  0.709224  0.765041  1
  B  B22  1  0.500000  0.790776  0.265041  1
  B  B23  1  0.500000  0.209224  0.734959  1
  B  B24  1  0.500000  0.130412  0.314115  1
  B  B25  1  0.500000  0.869588  0.685885  1
  B  B26  1  0.500000  0.630412  0.185885  1
  B  B27  1  0.500000  0.369588  0.814115  1
  B  B28  1  0.500000  0.484431  0.288120  1
  B  B29  1  0.500000  0.515569  0.711880  1
  B  B30  1  0.500000  0.984431  0.211880  1
  B  B31  1  0.500000  0.015569  0.788120  1
  B  B32  1  0.500000  0.099220  0.472680  1
  B  B33  1  0.500000  0.900780  0.527320  1
  B  B34  1  0.500000  0.599220  0.027320  1
  B  B35  1  0.500000  0.400780  0.972680  1
