# generated using pymatgen
data_Pr8Co(Si4Ni)3
_symmetry_space_group_name_H-M   'P 1'
_cell_length_a   8.09160100
_cell_length_b   8.09160123
_cell_length_c   8.51582700
_cell_angle_alpha   90.00000000
_cell_angle_beta   90.00000000
_cell_angle_gamma   120.00000315
_symmetry_Int_Tables_number   1
_chemical_formula_structural   Pr8Co(Si4Ni)3
_chemical_formula_sum   'Pr8 Co1 Si12 Ni3'
_cell_volume   482.86572495
_cell_formula_units_Z   1
loop_
 _symmetry_equiv_pos_site_id
 _symmetry_equiv_pos_as_xyz
  1  'x, y, z'
loop_
 _atom_site_type_symbol
 _atom_site_label
 _atom_site_symmetry_multiplicity
 _atom_site_fract_x
 _atom_site_fract_y
 _atom_site_fract_z
 _atom_site_occupancy
  Pr  Pr0  1  0.000000  0.000000  0.749705  1
  Pr  Pr1  1  0.000000  0.000000  0.250295  1
  Pr  Pr2  1  0.498972  0.501028  0.751709  1
  Pr  Pr3  1  0.498972  0.997945  0.751709  1
  Pr  Pr4  1  0.002055  0.501028  0.751709  1
  Pr  Pr5  1  0.499196  0.500804  0.248230  1
  Pr  Pr6  1  0.001610  0.500804  0.248230  1
  Pr  Pr7  1  0.499196  0.998390  0.248230  1
  Co  Co8  1  0.333333  0.666667  0.000994  1
  Si  Si9  1  0.829816  0.170184  0.999867  1
  Si  Si10  1  0.829816  0.659633  0.999867  1
  Si  Si11  1  0.340367  0.170184  0.999867  1
  Si  Si12  1  0.829388  0.170612  0.500113  1
  Si  Si13  1  0.829388  0.658775  0.500113  1
  Si  Si14  1  0.341225  0.170612  0.500113  1
  Si  Si15  1  0.170311  0.829689  0.499942  1
  Si  Si16  1  0.659378  0.829689  0.499942  1
  Si  Si17  1  0.170311  0.340622  0.499942  1
  Si  Si18  1  0.171891  0.828109  0.000029  1
  Si  Si19  1  0.656220  0.828109  0.000029  1
  Si  Si20  1  0.171891  0.343780  0.000029  1
  Ni  Ni21  1  0.666667  0.333333  0.999536  1
  Ni  Ni22  1  0.666667  0.333333  0.500242  1
  Ni  Ni23  1  0.333333  0.666667  0.499557  1
