# generated using pymatgen
data_ZrSc2Nb2Si3
_symmetry_space_group_name_H-M   'P 1'
_cell_length_a   7.83677206
_cell_length_b   7.83677292
_cell_length_c   5.41915800
_cell_angle_alpha   90.00000000
_cell_angle_beta   90.00000000
_cell_angle_gamma   119.88991421
_symmetry_Int_Tables_number   1
_chemical_formula_structural   ZrSc2Nb2Si3
_chemical_formula_sum   'Zr2 Sc4 Nb4 Si6'
_cell_volume   288.54769976
_cell_formula_units_Z   2
loop_
 _symmetry_equiv_pos_site_id
 _symmetry_equiv_pos_as_xyz
  1  'x, y, z'
loop_
 _atom_site_type_symbol
 _atom_site_label
 _atom_site_symmetry_multiplicity
 _atom_site_fract_x
 _atom_site_fract_y
 _atom_site_fract_z
 _atom_site_occupancy
  Zr  Zr0  1  0.748462  0.998567  0.000000  1
  Zr  Zr1  1  0.998567  0.748462  0.000000  1
  Sc  Sc2  1  0.750351  0.750351  0.500000  1
  Sc  Sc3  1  0.249138  0.000830  0.500000  1
  Sc  Sc4  1  0.000830  0.249138  0.500000  1
  Sc  Sc5  1  0.250280  0.250280  0.000000  1
  Nb  Nb6  1  0.667943  0.333709  0.250063  1
  Nb  Nb7  1  0.333709  0.667943  0.250063  1
  Nb  Nb8  1  0.333709  0.667943  0.749937  1
  Nb  Nb9  1  0.667943  0.333709  0.749937  1
  Si  Si10  1  0.398057  0.398057  0.500000  1
  Si  Si11  1  0.602818  0.000156  0.500000  1
  Si  Si12  1  0.000156  0.602818  0.500000  1
  Si  Si13  1  0.602177  0.602177  0.000000  1
  Si  Si14  1  0.394967  0.000888  0.000000  1
  Si  Si15  1  0.000888  0.394967  0.000000  1
