# generated using pymatgen
data_Zr8Cd4Cu7Pd
_symmetry_space_group_name_H-M   'P 1'
_cell_length_a   7.32284635
_cell_length_b   7.32284694
_cell_length_c   6.80745312
_cell_angle_alpha   89.93561332
_cell_angle_beta   89.93560978
_cell_angle_gamma   89.91134994
_symmetry_Int_Tables_number   1
_chemical_formula_structural   Zr8Cd4Cu7Pd
_chemical_formula_sum   'Zr8 Cd4 Cu7 Pd1'
_cell_volume   365.04253372
_cell_formula_units_Z   1
loop_
 _symmetry_equiv_pos_site_id
 _symmetry_equiv_pos_as_xyz
  1  'x, y, z'
loop_
 _atom_site_type_symbol
 _atom_site_label
 _atom_site_symmetry_multiplicity
 _atom_site_fract_x
 _atom_site_fract_y
 _atom_site_fract_z
 _atom_site_occupancy
  Zr  Zr0  1  0.650028  0.650028  0.498085  1
  Zr  Zr1  1  0.804687  0.193893  0.500530  1
  Zr  Zr2  1  0.693419  0.693419  0.000494  1
  Zr  Zr3  1  0.847645  0.151456  0.999236  1
  Zr  Zr4  1  0.193893  0.804687  0.500530  1
  Zr  Zr5  1  0.308258  0.308258  0.001035  1
  Zr  Zr6  1  0.151456  0.847645  0.999236  1
  Zr  Zr7  1  0.351478  0.351478  0.499215  1
  Cd  Cd8  1  0.999812  0.499493  0.249588  1
  Cd  Cd9  1  0.503665  0.997937  0.750011  1
  Cd  Cd10  1  0.499493  0.999812  0.249588  1
  Cd  Cd11  1  0.997937  0.503665  0.750011  1
  Cu  Cu12  1  0.623599  0.377044  0.202138  1
  Cu  Cu13  1  0.377435  0.622792  0.797885  1
  Cu  Cu14  1  0.871751  0.871751  0.700894  1
  Cu  Cu15  1  0.622792  0.377435  0.797885  1
  Cu  Cu16  1  0.377044  0.623599  0.202138  1
  Cu  Cu17  1  0.123558  0.123558  0.294209  1
  Cu  Cu18  1  0.877465  0.877465  0.296977  1
  Pd  Pd19  1  0.124583  0.124583  0.710315  1
