# generated using pymatgen
data_HfZr2Si3MoRu2
_symmetry_space_group_name_H-M   'P 1'
_cell_length_a   7.72210082
_cell_length_b   7.72209992
_cell_length_c   7.72210081
_cell_angle_alpha   126.54077093
_cell_angle_beta   125.21374940
_cell_angle_gamma   80.09453951
_symmetry_Int_Tables_number   1
_chemical_formula_structural   HfZr2Si3MoRu2
_chemical_formula_sum   'Hf2 Zr4 Si6 Mo2 Ru4'
_cell_volume   291.78710100
_cell_formula_units_Z   2
loop_
 _symmetry_equiv_pos_site_id
 _symmetry_equiv_pos_as_xyz
  1  'x, y, z'
loop_
 _atom_site_type_symbol
 _atom_site_label
 _atom_site_symmetry_multiplicity
 _atom_site_fract_x
 _atom_site_fract_y
 _atom_site_fract_z
 _atom_site_occupancy
  Hf  Hf0  1  0.053785  0.259007  0.705221  1
  Hf  Hf1  1  0.946215  0.651436  0.205221  1
  Zr  Zr2  1  0.458935  0.678472  0.719536  1
  Zr  Zr3  1  0.541065  0.260601  0.219536  1
  Zr  Zr4  1  0.747066  0.838836  0.591769  1
  Zr  Zr5  1  0.252934  0.844702  0.091769  1
  Si  Si6  1  0.265458  0.257872  0.492415  1
  Si  Si7  1  0.734542  0.226955  0.992415  1
  Si  Si8  1  0.325366  0.587692  0.250764  1
  Si  Si9  1  0.674634  0.925398  0.262326  1
  Si  Si10  1  0.163072  0.925398  0.750764  1
  Si  Si11  1  0.836928  0.587692  0.762326  1
  Mo  Mo12  1  0.500000  0.501107  0.001107  1
  Mo  Mo13  1  0.000000  0.501107  0.501107  1
  Ru  Ru14  1  0.104026  0.254236  0.106453  1
  Ru  Ru15  1  0.895974  0.002427  0.150211  1
  Ru  Ru16  1  0.352216  0.002427  0.606453  1
  Ru  Ru17  1  0.647784  0.254236  0.650211  1
