# generated using pymatgen
data_Cs4Si7Ge5P12
_symmetry_space_group_name_H-M   'P 1'
_cell_length_a   3.62482100
_cell_length_b   10.14769006
_cell_length_c   20.84885259
_cell_angle_alpha   90.42776903
_cell_angle_beta   90.00000000
_cell_angle_gamma   90.00000000
_symmetry_Int_Tables_number   1
_chemical_formula_structural   Cs4Si7Ge5P12
_chemical_formula_sum   'Cs4 Si7 Ge5 P12'
_cell_volume   766.87364752
_cell_formula_units_Z   1
loop_
 _symmetry_equiv_pos_site_id
 _symmetry_equiv_pos_as_xyz
  1  'x, y, z'
loop_
 _atom_site_type_symbol
 _atom_site_label
 _atom_site_symmetry_multiplicity
 _atom_site_fract_x
 _atom_site_fract_y
 _atom_site_fract_z
 _atom_site_occupancy
  Cs  Cs0  1  0.000000  0.295428  0.310681  1
  Cs  Cs1  1  0.000000  0.704298  0.688914  1
  Cs  Cs2  1  0.000000  0.204460  0.810075  1
  Cs  Cs3  1  0.000000  0.795287  0.189609  1
  Si  Si4  1  0.500000  0.598858  0.965280  1
  Si  Si5  1  0.500000  0.095140  0.533014  1
  Si  Si6  1  0.500000  0.904843  0.467057  1
  Si  Si7  1  0.000000  0.188800  0.127849  1
  Si  Si8  1  0.000000  0.811537  0.872468  1
  Si  Si9  1  0.000000  0.310514  0.627319  1
  Si  Si10  1  0.000000  0.689554  0.372686  1
  Ge  Ge11  1  0.500000  0.407388  0.033268  1
  Ge  Ge12  1  0.000000  0.115462  0.017372  1
  Ge  Ge13  1  0.000000  0.884532  0.982764  1
  Ge  Ge14  1  0.000000  0.384008  0.517425  1
  Ge  Ge15  1  0.000000  0.615984  0.482586  1
  P  P16  1  0.500000  0.120516  0.182502  1
  P  P17  1  0.500000  0.877817  0.817408  1
  P  P18  1  0.500000  0.377396  0.682677  1
  P  P19  1  0.500000  0.622720  0.317349  1
  P  P20  1  0.500000  0.274696  0.466493  1
  P  P21  1  0.500000  0.725260  0.533555  1
  P  P22  1  0.500000  0.218732  0.964987  1
  P  P23  1  0.500000  0.776320  0.033248  1
  P  P24  1  0.000000  0.411472  0.105939  1
  P  P25  1  0.000000  0.588955  0.897387  1
  P  P26  1  0.000000  0.088280  0.601126  1
  P  P27  1  0.000000  0.911743  0.398963  1
