# generated using pymatgen
data_LuZr5(Sc2Sb3)2
_symmetry_space_group_name_H-M   'P 1'
_cell_length_a   8.51080900
_cell_length_b   8.61057986
_cell_length_c   5.85647700
_cell_angle_alpha   90.00000000
_cell_angle_beta   90.00000000
_cell_angle_gamma   119.69703213
_symmetry_Int_Tables_number   1
_chemical_formula_structural   LuZr5(Sc2Sb3)2
_chemical_formula_sum   'Lu1 Zr5 Sc4 Sb6'
_cell_volume   372.81046763
_cell_formula_units_Z   1
loop_
 _symmetry_equiv_pos_site_id
 _symmetry_equiv_pos_as_xyz
  1  'x, y, z'
loop_
 _atom_site_type_symbol
 _atom_site_label
 _atom_site_symmetry_multiplicity
 _atom_site_fract_x
 _atom_site_fract_y
 _atom_site_fract_z
 _atom_site_occupancy
  Lu  Lu0  1  0.755684  0.998161  0.250000  1
  Zr  Zr1  1  0.998724  0.738157  0.250000  1
  Zr  Zr2  1  0.666945  0.333578  0.999747  1
  Zr  Zr3  1  0.333601  0.669482  0.999887  1
  Zr  Zr4  1  0.333601  0.669482  0.500113  1
  Zr  Zr5  1  0.666945  0.333578  0.500253  1
  Sc  Sc6  1  0.742959  0.743115  0.750000  1
  Sc  Sc7  1  0.249787  0.999971  0.750000  1
  Sc  Sc8  1  0.999902  0.260247  0.750000  1
  Sc  Sc9  1  0.255947  0.255330  0.250000  1
  Sb  Sb10  1  0.382032  0.383083  0.750000  1
  Sb  Sb11  1  0.616266  0.000751  0.750000  1
  Sb  Sb12  1  0.999635  0.616847  0.750000  1
  Sb  Sb13  1  0.610632  0.608845  0.250000  1
  Sb  Sb14  1  0.383586  0.001608  0.250000  1
  Sb  Sb15  1  0.003751  0.387766  0.250000  1
