# generated using pymatgen
data_Er17Hf2MgIr12
_symmetry_space_group_name_H-M   'P 1'
_cell_length_a   10.75047200
_cell_length_b   10.75047200
_cell_length_c   6.23900500
_cell_angle_alpha   90.00000000
_cell_angle_beta   90.00000000
_cell_angle_gamma   90.00000000
_symmetry_Int_Tables_number   1
_chemical_formula_structural   Er17Hf2MgIr12
_chemical_formula_sum   'Er17 Hf2 Mg1 Ir12'
_cell_volume   721.05833013
_cell_formula_units_Z   1
loop_
 _symmetry_equiv_pos_site_id
 _symmetry_equiv_pos_as_xyz
  1  'x, y, z'
loop_
 _atom_site_type_symbol
 _atom_site_label
 _atom_site_symmetry_multiplicity
 _atom_site_fract_x
 _atom_site_fract_y
 _atom_site_fract_z
 _atom_site_occupancy
  Er  Er0  1  0.285133  0.083947  0.377415  1
  Er  Er1  1  0.291501  0.912183  0.877878  1
  Er  Er2  1  0.708499  0.087817  0.877878  1
  Er  Er3  1  0.714867  0.916053  0.377415  1
  Er  Er4  1  0.587778  0.789581  0.876696  1
  Er  Er5  1  0.586023  0.210253  0.375270  1
  Er  Er6  1  0.413977  0.789747  0.375270  1
  Er  Er7  1  0.412222  0.210419  0.876696  1
  Er  Er8  1  0.210253  0.413977  0.624730  1
  Er  Er9  1  0.210419  0.587778  0.123304  1
  Er  Er10  1  0.789581  0.412222  0.123304  1
  Er  Er11  1  0.789747  0.586023  0.624730  1
  Er  Er12  1  0.912183  0.708499  0.122122  1
  Er  Er13  1  0.916053  0.285133  0.622585  1
  Er  Er14  1  0.083947  0.714867  0.622585  1
  Er  Er15  1  0.087817  0.291501  0.122122  1
  Er  Er16  1  0.000000  0.000000  0.000000  1
  Hf  Hf17  1  0.500000  0.500000  0.000000  1
  Hf  Hf18  1  0.500000  0.500000  0.500000  1
  Mg  Mg19  1  0.000000  0.000000  0.500000  1
  Ir  Ir20  1  0.845123  0.155527  0.247252  1
  Ir  Ir21  1  0.844473  0.845123  0.752748  1
  Ir  Ir22  1  0.155527  0.154877  0.752748  1
  Ir  Ir23  1  0.154877  0.844473  0.247252  1
  Ir  Ir24  1  0.643346  0.356746  0.748638  1
  Ir  Ir25  1  0.643254  0.643346  0.251362  1
  Ir  Ir26  1  0.356746  0.356654  0.251362  1
  Ir  Ir27  1  0.356654  0.643254  0.748638  1
  Ir  Ir28  1  0.500000  0.000000  0.125243  1
  Ir  Ir29  1  0.500000  0.000000  0.622107  1
  Ir  Ir30  1  0.000000  0.500000  0.874757  1
  Ir  Ir31  1  0.000000  0.500000  0.377893  1
