# generated using pymatgen
data_Tm2Lu10Tc3Ir
_symmetry_space_group_name_H-M   'P 1'
_cell_length_a   6.14840056
_cell_length_b   7.31527613
_cell_length_c   8.89931800
_cell_angle_alpha   90.00000000
_cell_angle_beta   90.00000000
_cell_angle_gamma   89.90567141
_symmetry_Int_Tables_number   1
_chemical_formula_structural   Tm2Lu10Tc3Ir
_chemical_formula_sum   'Tm2 Lu10 Tc3 Ir1'
_cell_volume   400.26628871
_cell_formula_units_Z   1
loop_
 _symmetry_equiv_pos_site_id
 _symmetry_equiv_pos_as_xyz
  1  'x, y, z'
loop_
 _atom_site_type_symbol
 _atom_site_label
 _atom_site_symmetry_multiplicity
 _atom_site_fract_x
 _atom_site_fract_y
 _atom_site_fract_z
 _atom_site_occupancy
  Tm  Tm0  1  0.876400  0.539282  0.250000  1
  Tm  Tm1  1  0.128165  0.459384  0.750000  1
  Lu  Lu2  1  0.337377  0.676923  0.062734  1
  Lu  Lu3  1  0.160265  0.174634  0.437970  1
  Lu  Lu4  1  0.660347  0.321702  0.560909  1
  Lu  Lu5  1  0.837805  0.826610  0.938955  1
  Lu  Lu6  1  0.660347  0.321702  0.939091  1
  Lu  Lu7  1  0.837805  0.826610  0.561045  1
  Lu  Lu8  1  0.337377  0.676923  0.437266  1
  Lu  Lu9  1  0.160265  0.174634  0.062030  1
  Lu  Lu10  1  0.623730  0.038102  0.250000  1
  Lu  Lu11  1  0.374312  0.960376  0.750000  1
  Tc  Tc12  1  0.040469  0.882502  0.250000  1
  Tc  Tc13  1  0.460074  0.384561  0.250000  1
  Tc  Tc14  1  0.960961  0.118010  0.750000  1
  Ir  Ir15  1  0.544300  0.618044  0.750000  1
