# generated using pymatgen
data_CaYb3(PrSn)16
_symmetry_space_group_name_H-M   'P 1'
_cell_length_a   8.14911234
_cell_length_b   8.52534136
_cell_length_c   16.24927000
_cell_angle_alpha   90.00000000
_cell_angle_beta   90.00000000
_cell_angle_gamma   90.03308999
_symmetry_Int_Tables_number   1
_chemical_formula_structural   CaYb3(PrSn)16
_chemical_formula_sum   'Ca1 Yb3 Pr16 Sn16'
_cell_volume   1128.90101789
_cell_formula_units_Z   1
loop_
 _symmetry_equiv_pos_site_id
 _symmetry_equiv_pos_as_xyz
  1  'x, y, z'
loop_
 _atom_site_type_symbol
 _atom_site_label
 _atom_site_symmetry_multiplicity
 _atom_site_fract_x
 _atom_site_fract_y
 _atom_site_fract_z
 _atom_site_occupancy
  Ca  Ca0  1  0.823415  0.504530  0.750000  1
  Yb  Yb1  1  0.323303  0.996390  0.750000  1
  Yb  Yb2  1  0.176650  0.496303  0.250000  1
  Yb  Yb3  1  0.676709  0.003621  0.250000  1
  Pr  Pr4  1  0.652967  0.171154  0.624196  1
  Pr  Pr5  1  0.153608  0.328116  0.875808  1
  Pr  Pr6  1  0.346777  0.828439  0.124333  1
  Pr  Pr7  1  0.846929  0.671917  0.375546  1
  Pr  Pr8  1  0.346777  0.828439  0.375667  1
  Pr  Pr9  1  0.846929  0.671917  0.124454  1
  Pr  Pr10  1  0.652967  0.171154  0.875804  1
  Pr  Pr11  1  0.153608  0.328116  0.624192  1
  Pr  Pr12  1  0.500207  0.682812  0.596246  1
  Pr  Pr13  1  0.000453  0.817556  0.903715  1
  Pr  Pr14  1  0.499405  0.317079  0.096338  1
  Pr  Pr15  1  0.999786  0.182623  0.403603  1
  Pr  Pr16  1  0.499405  0.317079  0.403662  1
  Pr  Pr17  1  0.999786  0.182623  0.096397  1
  Pr  Pr18  1  0.500207  0.682812  0.903754  1
  Pr  Pr19  1  0.000453  0.817556  0.596285  1
  Sn  Sn20  1  0.684262  0.962712  0.462759  1
  Sn  Sn21  1  0.183912  0.537229  0.037204  1
  Sn  Sn22  1  0.315773  0.037102  0.962887  1
  Sn  Sn23  1  0.816054  0.462639  0.536923  1
  Sn  Sn24  1  0.315773  0.037102  0.537113  1
  Sn  Sn25  1  0.816054  0.462639  0.963077  1
  Sn  Sn26  1  0.684262  0.962712  0.037241  1
  Sn  Sn27  1  0.183912  0.537229  0.462796  1
  Sn  Sn28  1  0.454532  0.396064  0.750000  1
  Sn  Sn29  1  0.954978  0.103204  0.750000  1
  Sn  Sn30  1  0.545053  0.603206  0.250000  1
  Sn  Sn31  1  0.045182  0.896683  0.250000  1
  Sn  Sn32  1  0.694817  0.859002  0.750000  1
  Sn  Sn33  1  0.195982  0.642133  0.750000  1
  Sn  Sn34  1  0.304574  0.141668  0.250000  1
  Sn  Sn35  1  0.804545  0.358442  0.250000  1
