# generated using pymatgen
data_Er4Tm(CoHg)2
_symmetry_space_group_name_H-M   'P 1'
_cell_length_a   7.80457800
_cell_length_b   7.80457778
_cell_length_c   15.29040400
_cell_angle_alpha   90.00000000
_cell_angle_beta   90.00000000
_cell_angle_gamma   152.90992557
_symmetry_Int_Tables_number   1
_chemical_formula_structural   Er4Tm(CoHg)2
_chemical_formula_sum   'Er8 Tm2 Co4 Hg4'
_cell_volume   424.13288108
_cell_formula_units_Z   2
loop_
 _symmetry_equiv_pos_site_id
 _symmetry_equiv_pos_as_xyz
  1  'x, y, z'
loop_
 _atom_site_type_symbol
 _atom_site_label
 _atom_site_symmetry_multiplicity
 _atom_site_fract_x
 _atom_site_fract_y
 _atom_site_fract_z
 _atom_site_occupancy
  Er  Er0  1  0.745200  0.254800  0.628857  1
  Er  Er1  1  0.961195  0.038805  0.126206  1
  Er  Er2  1  0.038805  0.961195  0.873794  1
  Er  Er3  1  0.961195  0.038805  0.373794  1
  Er  Er4  1  0.038805  0.961195  0.626206  1
  Er  Er5  1  0.254800  0.745200  0.128857  1
  Er  Er6  1  0.254800  0.745200  0.371143  1
  Er  Er7  1  0.745200  0.254800  0.871143  1
  Tm  Tm8  1  0.607934  0.392066  0.250000  1
  Tm  Tm9  1  0.392066  0.607934  0.750000  1
  Co  Co10  1  0.408941  0.591059  0.250000  1
  Co  Co11  1  0.591059  0.408941  0.750000  1
  Co  Co12  1  0.812824  0.187176  0.250000  1
  Co  Co13  1  0.187176  0.812824  0.750000  1
  Hg  Hg14  1  0.611501  0.388499  0.032199  1
  Hg  Hg15  1  0.611501  0.388499  0.467801  1
  Hg  Hg16  1  0.388499  0.611501  0.532199  1
  Hg  Hg17  1  0.388499  0.611501  0.967801  1
