# generated using pymatgen
data_BCl27
_symmetry_space_group_name_H-M   'P 1'
_cell_length_a   18.75596230
_cell_length_b   18.75596225
_cell_length_c   18.75596252
_cell_angle_alpha   119.65705956
_cell_angle_beta   119.65705820
_cell_angle_gamma   119.65706019
_symmetry_Int_Tables_number   1
_chemical_formula_structural   BCl27
_chemical_formula_sum   'B1 Cl27'
_cell_volume   1005.09106623
_cell_formula_units_Z   1
loop_
 _symmetry_equiv_pos_site_id
 _symmetry_equiv_pos_as_xyz
  1  'x, y, z'
loop_
 _atom_site_type_symbol
 _atom_site_label
 _atom_site_symmetry_multiplicity
 _atom_site_fract_x
 _atom_site_fract_y
 _atom_site_fract_z
 _atom_site_occupancy
  B  B0  1  0.075865  0.075865  0.075865  1
  Cl  Cl1  1  0.050511  0.674184  0.674184  1
  Cl  Cl2  1  0.674184  0.674184  0.050511  1
  Cl  Cl3  1  0.674184  0.050511  0.674184  1
  Cl  Cl4  1  0.154335  0.764555  0.642473  1
  Cl  Cl5  1  0.764555  0.642473  0.154335  1
  Cl  Cl6  1  0.642473  0.154335  0.764555  1
  Cl  Cl7  1  0.764555  0.154335  0.642473  1
  Cl  Cl8  1  0.154335  0.642473  0.764555  1
  Cl  Cl9  1  0.642473  0.764555  0.154335  1
  Cl  Cl10  1  0.187141  0.781083  0.555946  1
  Cl  Cl11  1  0.781083  0.555946  0.187141  1
  Cl  Cl12  1  0.555946  0.187141  0.781083  1
  Cl  Cl13  1  0.781083  0.187141  0.555946  1
  Cl  Cl14  1  0.187141  0.555946  0.781083  1
  Cl  Cl15  1  0.555946  0.781083  0.187141  1
  Cl  Cl16  1  0.279431  0.630559  0.500269  1
  Cl  Cl17  1  0.630559  0.500269  0.279431  1
  Cl  Cl18  1  0.500269  0.279431  0.630559  1
  Cl  Cl19  1  0.630559  0.279431  0.500269  1
  Cl  Cl20  1  0.279431  0.500269  0.630559  1
  Cl  Cl21  1  0.500269  0.630559  0.279431  1
  Cl  Cl22  1  0.276176  0.534748  0.534748  1
  Cl  Cl23  1  0.534748  0.534748  0.276176  1
  Cl  Cl24  1  0.534748  0.276176  0.534748  1
  Cl  Cl25  1  0.140486  0.047308  0.047308  1
  Cl  Cl26  1  0.047308  0.047308  0.140486  1
  Cl  Cl27  1  0.047308  0.140486  0.047308  1
