# generated using pymatgen
data_K5Zr2F13
_symmetry_space_group_name_H-M   'P 1'
_cell_length_a   7.08630160
_cell_length_b   7.08630125
_cell_length_c   9.17633082
_cell_angle_alpha   82.99259659
_cell_angle_beta   82.99259508
_cell_angle_gamma   51.61062754
_symmetry_Int_Tables_number   1
_chemical_formula_structural   K5Zr2F13
_chemical_formula_sum   'K5 Zr2 F13'
_cell_volume   357.84402667
_cell_formula_units_Z   1
loop_
 _symmetry_equiv_pos_site_id
 _symmetry_equiv_pos_as_xyz
  1  'x, y, z'
loop_
 _atom_site_type_symbol
 _atom_site_label
 _atom_site_symmetry_multiplicity
 _atom_site_fract_x
 _atom_site_fract_y
 _atom_site_fract_z
 _atom_site_occupancy
  K  K0  1  0.221484  0.221484  0.843856  1
  K  K1  1  0.778516  0.778516  0.156144  1
  K  K2  1  0.500000  0.500000  0.000000  1
  K  K3  1  0.656304  0.656304  0.570538  1
  K  K4  1  0.343696  0.343696  0.429462  1
  Zr  Zr5  1  0.927637  0.927637  0.736086  1
  Zr  Zr6  1  0.072363  0.072363  0.263914  1
  F  F7  1  0.045187  0.612179  0.643717  1
  F  F8  1  0.612179  0.045187  0.643717  1
  F  F9  1  0.954813  0.387821  0.356283  1
  F  F10  1  0.387821  0.954813  0.356283  1
  F  F11  1  0.665032  0.073050  0.910901  1
  F  F12  1  0.073050  0.665032  0.910901  1
  F  F13  1  0.334968  0.926950  0.089099  1
  F  F14  1  0.926950  0.334968  0.089099  1
  F  F15  1  0.268886  0.833687  0.746536  1
  F  F16  1  0.833687  0.268886  0.746536  1
  F  F17  1  0.731114  0.166313  0.253464  1
  F  F18  1  0.166313  0.731114  0.253464  1
  F  F19  1  0.000000  0.000000  0.500000  1
