# generated using pymatgen
data_Pr2ThSn3IrRh2
_symmetry_space_group_name_H-M   'P 1'
_cell_length_a   7.57754438
_cell_length_b   7.66841425
_cell_length_c   4.11848800
_cell_angle_alpha   90.00000000
_cell_angle_beta   90.00000000
_cell_angle_gamma   120.40542997
_symmetry_Int_Tables_number   1
_chemical_formula_structural   Pr2ThSn3IrRh2
_chemical_formula_sum   'Pr2 Th1 Sn3 Ir1 Rh2'
_cell_volume   206.40190203
_cell_formula_units_Z   1
loop_
 _symmetry_equiv_pos_site_id
 _symmetry_equiv_pos_as_xyz
  1  'x, y, z'
loop_
 _atom_site_type_symbol
 _atom_site_label
 _atom_site_symmetry_multiplicity
 _atom_site_fract_x
 _atom_site_fract_y
 _atom_site_fract_z
 _atom_site_occupancy
  Pr  Pr0  1  0.411402  0.410797  0.500000  1
  Pr  Pr1  1  0.589520  0.001518  0.500000  1
  Th  Th2  1  0.999038  0.584066  0.500000  1
  Sn  Sn3  1  0.742581  0.749586  0.000000  1
  Sn  Sn4  1  0.257023  0.006230  0.000000  1
  Sn  Sn5  1  0.000599  0.243189  0.000000  1
  Ir  Ir6  1  0.689267  0.352604  0.000000  1
  Rh  Rh7  1  0.310825  0.663620  0.000000  1
  Rh  Rh8  1  0.999744  0.988392  0.500000  1
