# generated using pymatgen
data_Y6Al24Co7Ru
_symmetry_space_group_name_H-M   'P 1'
_cell_length_a   8.67678100
_cell_length_b   8.67678095
_cell_length_c   9.33190000
_cell_angle_alpha   90.00000000
_cell_angle_beta   90.00000000
_cell_angle_gamma   119.99999638
_symmetry_Int_Tables_number   1
_chemical_formula_structural   Y6Al24Co7Ru
_chemical_formula_sum   'Y6 Al24 Co7 Ru1'
_cell_volume   608.44033042
_cell_formula_units_Z   1
loop_
 _symmetry_equiv_pos_site_id
 _symmetry_equiv_pos_as_xyz
  1  'x, y, z'
loop_
 _atom_site_type_symbol
 _atom_site_label
 _atom_site_symmetry_multiplicity
 _atom_site_fract_x
 _atom_site_fract_y
 _atom_site_fract_z
 _atom_site_occupancy
  Y  Y0  1  0.193508  0.387014  0.249788  1
  Y  Y1  1  0.806492  0.612986  0.750212  1
  Y  Y2  1  0.612986  0.806492  0.249788  1
  Y  Y3  1  0.387014  0.193508  0.750212  1
  Y  Y4  1  0.193508  0.806492  0.249788  1
  Y  Y5  1  0.806492  0.193508  0.750212  1
  Al  Al6  1  0.333333  0.666667  0.019017  1
  Al  Al7  1  0.666667  0.333333  0.980983  1
  Al  Al8  1  0.666667  0.333333  0.518222  1
  Al  Al9  1  0.333333  0.666667  0.481778  1
  Al  Al10  1  0.163299  0.326598  0.575148  1
  Al  Al11  1  0.836701  0.673402  0.424852  1
  Al  Al12  1  0.673402  0.836701  0.575148  1
  Al  Al13  1  0.835223  0.670444  0.076119  1
  Al  Al14  1  0.326598  0.163299  0.424852  1
  Al  Al15  1  0.164777  0.329556  0.923881  1
  Al  Al16  1  0.163299  0.836701  0.575148  1
  Al  Al17  1  0.329556  0.164777  0.076119  1
  Al  Al18  1  0.836701  0.163299  0.424852  1
  Al  Al19  1  0.670444  0.835223  0.923881  1
  Al  Al20  1  0.835223  0.164777  0.076119  1
  Al  Al21  1  0.164777  0.835223  0.923881  1
  Al  Al22  1  0.559550  0.119099  0.250349  1
  Al  Al23  1  0.440450  0.880901  0.749651  1
  Al  Al24  1  0.880901  0.440450  0.250349  1
  Al  Al25  1  0.119099  0.559550  0.749651  1
  Al  Al26  1  0.559550  0.440450  0.250349  1
  Al  Al27  1  0.440450  0.559550  0.749651  1
  Al  Al28  1  0.000000  0.000000  0.256222  1
  Al  Al29  1  0.000000  0.000000  0.743778  1
  Co  Co30  1  0.500000  0.000000  0.000000  1
  Co  Co31  1  0.000000  0.500000  0.000000  1
  Co  Co32  1  0.500000  0.000000  0.500000  1
  Co  Co33  1  0.500000  0.500000  0.000000  1
  Co  Co34  1  0.000000  0.500000  0.500000  1
  Co  Co35  1  0.500000  0.500000  0.500000  1
  Co  Co36  1  0.000000  0.000000  0.500000  1
  Ru  Ru37  1  0.000000  0.000000  0.000000  1
