# generated using pymatgen
data_Cs8U3PaS12
_symmetry_space_group_name_H-M   'P 1'
_cell_length_a   13.84795479
_cell_length_b   6.75887169
_cell_length_c   9.17471500
_cell_angle_alpha   71.95974452
_cell_angle_beta   89.85266381
_cell_angle_gamma   89.76229755
_symmetry_Int_Tables_number   1
_chemical_formula_structural   Cs8U3PaS12
_chemical_formula_sum   'Cs8 U3 Pa1 S12'
_cell_volume   816.49842232
_cell_formula_units_Z   1
loop_
 _symmetry_equiv_pos_site_id
 _symmetry_equiv_pos_as_xyz
  1  'x, y, z'
loop_
 _atom_site_type_symbol
 _atom_site_label
 _atom_site_symmetry_multiplicity
 _atom_site_fract_x
 _atom_site_fract_y
 _atom_site_fract_z
 _atom_site_occupancy
  Cs  Cs0  1  0.954077  0.670815  0.670106  1
  Cs  Cs1  1  0.452060  0.828584  0.330954  1
  Cs  Cs2  1  0.048740  0.329555  0.331393  1
  Cs  Cs3  1  0.545208  0.167534  0.670949  1
  Cs  Cs4  1  0.874716  0.084054  0.888966  1
  Cs  Cs5  1  0.373745  0.414159  0.110524  1
  Cs  Cs6  1  0.126539  0.913919  0.110661  1
  Cs  Cs7  1  0.625545  0.583722  0.888933  1
  U  U8  1  0.751342  0.656528  0.298548  1
  U  U9  1  0.250697  0.843253  0.703959  1
  U  U10  1  0.249107  0.343192  0.704167  1
  Pa  Pa11  1  0.748676  0.158898  0.293195  1
  S  S12  1  0.902621  0.913042  0.286491  1
  S  S13  1  0.401930  0.587079  0.713748  1
  S  S14  1  0.098070  0.088789  0.714114  1
  S  S15  1  0.597093  0.412541  0.287004  1
  S  S16  1  0.820299  0.316170  0.508892  1
  S  S17  1  0.318820  0.182604  0.490839  1
  S  S18  1  0.180957  0.683628  0.491134  1
  S  S19  1  0.679766  0.821390  0.509331  1
  S  S20  1  0.834568  0.494110  0.086631  1
  S  S21  1  0.333927  0.003642  0.911414  1
  S  S22  1  0.165930  0.504994  0.911702  1
  S  S23  1  0.665567  0.997792  0.086346  1
