# generated using pymatgen
data_NdHg3Pd2(PtO7)2
_symmetry_space_group_name_H-M   'P 1'
_cell_length_a   7.35271973
_cell_length_b   7.36468155
_cell_length_c   7.36468148
_cell_angle_alpha   59.55278714
_cell_angle_beta   59.61389664
_cell_angle_gamma   59.61389594
_symmetry_Int_Tables_number   1
_chemical_formula_structural   NdHg3Pd2(PtO7)2
_chemical_formula_sum   'Nd1 Hg3 Pd2 Pt2 O14'
_cell_volume   279.38913331
_cell_formula_units_Z   1
loop_
 _symmetry_equiv_pos_site_id
 _symmetry_equiv_pos_as_xyz
  1  'x, y, z'
loop_
 _atom_site_type_symbol
 _atom_site_label
 _atom_site_symmetry_multiplicity
 _atom_site_fract_x
 _atom_site_fract_y
 _atom_site_fract_z
 _atom_site_occupancy
  Nd  Nd0  1  0.125000  0.125000  0.125000  1
  Hg  Hg1  1  0.625000  0.125000  0.125000  1
  Hg  Hg2  1  0.125000  0.625000  0.125000  1
  Hg  Hg3  1  0.125000  0.125000  0.625000  1
  Pd  Pd4  1  0.625000  0.625000  0.125000  1
  Pd  Pd5  1  0.625000  0.125000  0.625000  1
  Pt  Pt6  1  0.625000  0.625000  0.625000  1
  Pt  Pt7  1  0.125000  0.625000  0.625000  1
  O  O8  1  0.714410  0.291127  0.291127  1
  O  O9  1  0.704846  0.298092  0.702201  1
  O  O10  1  0.999805  0.986402  0.986402  1
  O  O11  1  0.292417  0.714193  0.295204  1
  O  O12  1  0.704846  0.702201  0.298092  1
  O  O13  1  0.952439  0.548796  0.548796  1
  O  O14  1  0.297561  0.701204  0.701204  1
  O  O15  1  0.250195  0.263598  0.263598  1
  O  O16  1  0.957583  0.535807  0.954796  1
  O  O17  1  0.545154  0.951908  0.547799  1
  O  O18  1  0.545154  0.547799  0.951908  1
  O  O19  1  0.957583  0.954796  0.535807  1
  O  O20  1  0.535590  0.958873  0.958873  1
  O  O21  1  0.292417  0.295204  0.714193  1
