# generated using pymatgen
data_Zr4In2Rh9Au
_symmetry_space_group_name_H-M   'P 1'
_cell_length_a   5.64876121
_cell_length_b   5.64876060
_cell_length_c   8.44940500
_cell_angle_alpha   90.00000000
_cell_angle_beta   90.00000000
_cell_angle_gamma   98.24913467
_symmetry_Int_Tables_number   1
_chemical_formula_structural   Zr4In2Rh9Au
_chemical_formula_sum   'Zr4 In2 Rh9 Au1'
_cell_volume   266.81835443
_cell_formula_units_Z   1
loop_
 _symmetry_equiv_pos_site_id
 _symmetry_equiv_pos_as_xyz
  1  'x, y, z'
loop_
 _atom_site_type_symbol
 _atom_site_label
 _atom_site_symmetry_multiplicity
 _atom_site_fract_x
 _atom_site_fract_y
 _atom_site_fract_z
 _atom_site_occupancy
  Zr  Zr0  1  0.775089  0.224849  0.506244  1
  Zr  Zr1  1  0.224849  0.775089  0.993756  1
  Zr  Zr2  1  0.224849  0.775089  0.506244  1
  Zr  Zr3  1  0.775089  0.224849  0.993756  1
  In  In4  1  0.500769  0.500769  0.750000  1
  In  In5  1  0.499182  0.499182  0.250000  1
  Rh  Rh6  1  0.733251  0.733251  0.998457  1
  Rh  Rh7  1  0.733251  0.733251  0.501543  1
  Rh  Rh8  1  0.266766  0.266766  0.997996  1
  Rh  Rh9  1  0.266766  0.266766  0.502004  1
  Rh  Rh10  1  0.500028  0.000148  0.750000  1
  Rh  Rh11  1  0.500123  0.999709  0.250000  1
  Rh  Rh12  1  0.999778  0.999778  0.750000  1
  Rh  Rh13  1  0.000148  0.500028  0.750000  1
  Rh  Rh14  1  0.999709  0.500123  0.250000  1
  Au  Au15  1  0.000352  0.000352  0.250000  1
