# generated using pymatgen
data_NdSnHIr
_symmetry_space_group_name_H-M   'P 1'
_cell_length_a   4.54297700
_cell_length_b   7.41294300
_cell_length_c   8.46307600
_cell_angle_alpha   90.00000000
_cell_angle_beta   90.00000000
_cell_angle_gamma   90.00000000
_symmetry_Int_Tables_number   1
_chemical_formula_structural   NdSnHIr
_chemical_formula_sum   'Nd4 Sn4 H4 Ir4'
_cell_volume   285.00956793
_cell_formula_units_Z   4
loop_
 _symmetry_equiv_pos_site_id
 _symmetry_equiv_pos_as_xyz
  1  'x, y, z'
loop_
 _atom_site_type_symbol
 _atom_site_label
 _atom_site_symmetry_multiplicity
 _atom_site_fract_x
 _atom_site_fract_y
 _atom_site_fract_z
 _atom_site_occupancy
  Nd  Nd0  1  0.750000  0.016512  0.693522  1
  Nd  Nd1  1  0.250000  0.983488  0.306478  1
  Nd  Nd2  1  0.250000  0.483488  0.193522  1
  Nd  Nd3  1  0.750000  0.516512  0.806478  1
  Sn  Sn4  1  0.750000  0.656926  0.421456  1
  Sn  Sn5  1  0.250000  0.343074  0.578544  1
  Sn  Sn6  1  0.250000  0.843074  0.921456  1
  Sn  Sn7  1  0.750000  0.156926  0.078544  1
  H  H8  1  0.250000  0.449275  0.916832  1
  H  H9  1  0.750000  0.550725  0.083168  1
  H  H10  1  0.750000  0.050725  0.416832  1
  H  H11  1  0.250000  0.949275  0.583168  1
  Ir  Ir12  1  0.750000  0.778298  0.097782  1
  Ir  Ir13  1  0.250000  0.221702  0.902218  1
  Ir  Ir14  1  0.250000  0.721702  0.597782  1
  Ir  Ir15  1  0.750000  0.278298  0.402218  1
