# generated using pymatgen
data_Al5V12Au3N4
_symmetry_space_group_name_H-M   'P 1'
_cell_length_a   6.69250810
_cell_length_b   6.69250829
_cell_length_c   6.69250792
_cell_angle_alpha   90.16572785
_cell_angle_beta   89.83427198
_cell_angle_gamma   89.83427517
_symmetry_Int_Tables_number   1
_chemical_formula_structural   Al5V12Au3N4
_chemical_formula_sum   'Al5 V12 Au3 N4'
_cell_volume   299.75142497
_cell_formula_units_Z   1
loop_
 _symmetry_equiv_pos_site_id
 _symmetry_equiv_pos_as_xyz
  1  'x, y, z'
loop_
 _atom_site_type_symbol
 _atom_site_label
 _atom_site_symmetry_multiplicity
 _atom_site_fract_x
 _atom_site_fract_y
 _atom_site_fract_z
 _atom_site_occupancy
  Al  Al0  1  0.181120  0.818880  0.318880  1
  Al  Al1  1  0.319518  0.175418  0.821172  1
  Al  Al2  1  0.824582  0.321172  0.180482  1
  Al  Al3  1  0.678828  0.680482  0.675418  1
  Al  Al4  1  0.574726  0.425274  0.925274  1
  V  V5  1  0.791587  0.967410  0.378461  1
  V  V6  1  0.708011  0.039478  0.876112  1
  V  V7  1  0.218917  0.465111  0.117639  1
  V  V8  1  0.291712  0.529305  0.636901  1
  V  V9  1  0.960522  0.376112  0.791989  1
  V  V10  1  0.032590  0.878461  0.708413  1
  V  V11  1  0.470695  0.136901  0.208288  1
  V  V12  1  0.534889  0.617639  0.281083  1
  V  V13  1  0.382361  0.781083  0.965111  1
  V  V14  1  0.863099  0.708288  0.029305  1
  V  V15  1  0.121539  0.208413  0.467410  1
  V  V16  1  0.623888  0.291989  0.539478  1
  Au  Au17  1  0.427083  0.926832  0.568026  1
  Au  Au18  1  0.931974  0.572917  0.426832  1
  Au  Au19  1  0.073168  0.068026  0.072917  1
  N  N20  1  0.871720  0.128280  0.628280  1
  N  N21  1  0.625719  0.877697  0.130550  1
  N  N22  1  0.122303  0.630550  0.874281  1
  N  N23  1  0.369450  0.374281  0.377697  1
