# generated using pymatgen
data_Dy8MgCdPt2
_symmetry_space_group_name_H-M   'P 1'
_cell_length_a   9.70898985
_cell_length_b   9.70898928
_cell_length_c   9.72742300
_cell_angle_alpha   59.93717073
_cell_angle_beta   59.93717266
_cell_angle_gamma   59.92182058
_symmetry_Int_Tables_number   1
_chemical_formula_structural   Dy8MgCdPt2
_chemical_formula_sum   'Dy16 Mg2 Cd2 Pt4'
_cell_volume   647.38260145
_cell_formula_units_Z   2
loop_
 _symmetry_equiv_pos_site_id
 _symmetry_equiv_pos_as_xyz
  1  'x, y, z'
loop_
 _atom_site_type_symbol
 _atom_site_label
 _atom_site_symmetry_multiplicity
 _atom_site_fract_x
 _atom_site_fract_y
 _atom_site_fract_z
 _atom_site_occupancy
  Dy  Dy0  1  0.351107  0.351107  0.350055  1
  Dy  Dy1  1  0.351107  0.351107  0.947732  1
  Dy  Dy2  1  0.351569  0.947289  0.350571  1
  Dy  Dy3  1  0.947289  0.351569  0.350571  1
  Dy  Dy4  1  0.810666  0.189183  0.189472  1
  Dy  Dy5  1  0.189183  0.810666  0.810680  1
  Dy  Dy6  1  0.189183  0.810666  0.189472  1
  Dy  Dy7  1  0.810666  0.189183  0.810680  1
  Dy  Dy8  1  0.191354  0.191354  0.808646  1
  Dy  Dy9  1  0.812454  0.812454  0.187546  1
  Dy  Dy10  1  0.936930  0.564979  0.565005  1
  Dy  Dy11  1  0.564979  0.936930  0.933087  1
  Dy  Dy12  1  0.564979  0.936930  0.565005  1
  Dy  Dy13  1  0.936930  0.564978  0.933087  1
  Dy  Dy14  1  0.566720  0.566720  0.933280  1
  Dy  Dy15  1  0.936205  0.936205  0.563794  1
  Mg  Mg16  1  0.576631  0.576631  0.580726  1
  Mg  Mg17  1  0.576631  0.576631  0.266011  1
  Cd  Cd18  1  0.582355  0.253239  0.582203  1
  Cd  Cd19  1  0.253239  0.582355  0.582203  1
  Pt  Pt20  1  0.143198  0.143198  0.143018  1
  Pt  Pt21  1  0.143198  0.143198  0.570587  1
  Pt  Pt22  1  0.142489  0.570942  0.143285  1
  Pt  Pt23  1  0.570942  0.142489  0.143285  1
