# generated using pymatgen
data_InTc6Sb13
_symmetry_space_group_name_H-M   'P 1'
_cell_length_a   8.24527180
_cell_length_b   8.24524633
_cell_length_c   8.24527110
_cell_angle_alpha   110.07599891
_cell_angle_beta   108.26771800
_cell_angle_gamma   110.07600518
_symmetry_Int_Tables_number   1
_chemical_formula_structural   InTc6Sb13
_chemical_formula_sum   'In1 Tc6 Sb13'
_cell_volume   431.37160338
_cell_formula_units_Z   1
loop_
 _symmetry_equiv_pos_site_id
 _symmetry_equiv_pos_as_xyz
  1  'x, y, z'
loop_
 _atom_site_type_symbol
 _atom_site_label
 _atom_site_symmetry_multiplicity
 _atom_site_fract_x
 _atom_site_fract_y
 _atom_site_fract_z
 _atom_site_occupancy
  In  In0  1  0.750008  0.500000  0.249992  1
  Tc  Tc1  1  0.343484  0.999999  0.343484  1
  Tc  Tc2  1  0.006551  0.337973  0.344528  1
  Tc  Tc3  1  0.006552  0.662024  0.668579  1
  Tc  Tc4  1  0.331421  0.337976  0.993448  1
  Tc  Tc5  1  0.655472  0.662027  0.993449  1
  Tc  Tc6  1  0.656516  0.000001  0.656516  1
  Sb  Sb7  1  0.499793  0.747600  0.247394  1
  Sb  Sb8  1  0.499793  0.252401  0.752195  1
  Sb  Sb9  1  0.752606  0.252400  0.500207  1
  Sb  Sb10  1  0.247805  0.747599  0.500207  1
  Sb  Sb11  1  0.250000  0.500000  0.750000  1
  Sb  Sb12  1  0.997695  0.995885  0.324330  1
  Sb  Sb13  1  0.675670  0.004115  0.002305  1
  Sb  Sb14  1  0.997695  0.673364  0.001810  1
  Sb  Sb15  1  0.328445  0.326635  0.324330  1
  Sb  Sb16  1  0.998190  0.326636  0.002305  1
  Sb  Sb17  1  0.675670  0.673365  0.671555  1
  Sb  Sb18  1  0.328444  0.004114  0.001810  1
  Sb  Sb19  1  0.998190  0.995886  0.671556  1
