# generated using pymatgen
data_P6Pb2O17
_symmetry_space_group_name_H-M   'P 1'
_cell_length_a   18.65397900
_cell_length_b   6.01497070
_cell_length_c   7.95064600
_cell_angle_alpha   69.54765864
_cell_angle_beta   90.00000000
_cell_angle_gamma   90.00000000
_symmetry_Int_Tables_number   1
_chemical_formula_structural   P6Pb2O17
_chemical_formula_sum   'P12 Pb4 O34'
_cell_volume   835.85305795
_cell_formula_units_Z   2
loop_
 _symmetry_equiv_pos_site_id
 _symmetry_equiv_pos_as_xyz
  1  'x, y, z'
loop_
 _atom_site_type_symbol
 _atom_site_label
 _atom_site_symmetry_multiplicity
 _atom_site_fract_x
 _atom_site_fract_y
 _atom_site_fract_z
 _atom_site_occupancy
  P  P0  1  0.329540  0.721196  0.084735  1
  P  P1  1  0.817941  0.300146  0.028332  1
  P  P2  1  0.468129  0.496458  0.186282  1
  P  P3  1  0.968129  0.503542  0.313718  1
  P  P4  1  0.829540  0.278804  0.415265  1
  P  P5  1  0.682059  0.300146  0.528332  1
  P  P6  1  0.317941  0.699854  0.471668  1
  P  P7  1  0.170460  0.721196  0.584735  1
  P  P8  1  0.031871  0.496458  0.686282  1
  P  P9  1  0.531871  0.503542  0.813718  1
  P  P10  1  0.182059  0.699854  0.971668  1
  P  P11  1  0.670460  0.278804  0.915265  1
  Pb  Pb12  1  0.077394  0.102598  0.145361  1
  Pb  Pb13  1  0.577394  0.897402  0.354639  1
  Pb  Pb14  1  0.422606  0.102598  0.645361  1
  Pb  Pb15  1  0.922606  0.897402  0.854639  1
  O  O16  1  0.171991  0.922032  0.011361  1
  O  O17  1  0.500000  0.500000  0.000000  1
  O  O18  1  0.262309  0.593735  0.036433  1
  O  O19  1  0.131675  0.495602  0.037630  1
  O  O20  1  0.983389  0.741587  0.173067  1
  O  O21  1  0.486327  0.722119  0.214685  1
  O  O22  1  0.381731  0.499234  0.144815  1
  O  O23  1  0.644687  0.064241  0.059897  1
  O  O24  1  0.881731  0.500766  0.355185  1
  O  O25  1  0.807096  0.221337  0.244429  1
  O  O26  1  0.986327  0.277881  0.285315  1
  O  O27  1  0.483389  0.258413  0.326933  1
  O  O28  1  0.631675  0.504398  0.462370  1
  O  O29  1  0.307096  0.778663  0.255571  1
  O  O30  1  0.762309  0.406265  0.463567  1
  O  O31  1  0.144687  0.935759  0.440103  1
  O  O32  1  0.671991  0.077968  0.488639  1
  O  O33  1  0.328009  0.922032  0.511361  1
  O  O34  1  0.855313  0.064241  0.559897  1
  O  O35  1  0.000000  0.500000  0.500000  1
  O  O36  1  0.237691  0.593735  0.536433  1
  O  O37  1  0.692904  0.221337  0.744429  1
  O  O38  1  0.368325  0.495602  0.537630  1
  O  O39  1  0.516611  0.741587  0.673067  1
  O  O40  1  0.013673  0.722119  0.714685  1
  O  O41  1  0.192904  0.778663  0.755571  1
  O  O42  1  0.118269  0.499234  0.644815  1
  O  O43  1  0.355313  0.935759  0.940103  1
  O  O44  1  0.618269  0.500766  0.855185  1
  O  O45  1  0.513673  0.277881  0.785315  1
  O  O46  1  0.016611  0.258413  0.826933  1
  O  O47  1  0.868325  0.504398  0.962370  1
  O  O48  1  0.737691  0.406265  0.963567  1
  O  O49  1  0.828009  0.077968  0.988639  1
