# generated using pymatgen
data_TaNb5Co15Si7Ir
_symmetry_space_group_name_H-M   'P 1'
_cell_length_a   7.96791203
_cell_length_b   7.96791246
_cell_length_c   7.96021521
_cell_angle_alpha   59.85114930
_cell_angle_beta   59.85114654
_cell_angle_gamma   59.82963444
_symmetry_Int_Tables_number   1
_chemical_formula_structural   TaNb5Co15Si7Ir
_chemical_formula_sum   'Ta1 Nb5 Co15 Si7 Ir1'
_cell_volume   356.08881758
_cell_formula_units_Z   1
loop_
 _symmetry_equiv_pos_site_id
 _symmetry_equiv_pos_as_xyz
  1  'x, y, z'
loop_
 _atom_site_type_symbol
 _atom_site_label
 _atom_site_symmetry_multiplicity
 _atom_site_fract_x
 _atom_site_fract_y
 _atom_site_fract_z
 _atom_site_occupancy
  Ta  Ta0  1  0.201381  0.201381  0.801116  1
  Nb  Nb1  1  0.200962  0.797316  0.797012  1
  Nb  Nb2  1  0.200463  0.802364  0.200007  1
  Nb  Nb3  1  0.802364  0.200463  0.200007  1
  Nb  Nb4  1  0.797316  0.200962  0.797012  1
  Nb  Nb5  1  0.796423  0.796423  0.201422  1
  Co  Co6  1  0.498016  0.835292  0.833766  1
  Co  Co7  1  0.620762  0.620762  0.143132  1
  Co  Co8  1  0.163145  0.163145  0.505620  1
  Co  Co9  1  0.833848  0.833848  0.499514  1
  Co  Co10  1  0.167227  0.167227  0.165957  1
  Co  Co11  1  0.833115  0.833115  0.832985  1
  Co  Co12  1  0.380421  0.380421  0.857489  1
  Co  Co13  1  0.835292  0.498016  0.833766  1
  Co  Co14  1  0.619693  0.619693  0.620310  1
  Co  Co15  1  0.380499  0.857492  0.380906  1
  Co  Co16  1  0.143035  0.620365  0.621486  1
  Co  Co17  1  0.620365  0.143035  0.621486  1
  Co  Co18  1  0.163581  0.504122  0.163262  1
  Co  Co19  1  0.857492  0.380499  0.380906  1
  Co  Co20  1  0.504122  0.163581  0.163262  1
  Si  Si21  1  0.999646  0.999646  0.499091  1
  Si  Si22  1  0.501437  0.991903  0.500782  1
  Si  Si23  1  0.505064  0.505064  0.504447  1
  Si  Si24  1  0.999358  0.499527  0.999615  1
  Si  Si25  1  0.501379  0.501379  0.991949  1
  Si  Si26  1  0.499527  0.999358  0.999615  1
  Si  Si27  1  0.991903  0.501437  0.500782  1
  Ir  Ir28  1  0.382164  0.382164  0.383290  1
