# generated using pymatgen
data_Ho2Mn4SiPC2
_symmetry_space_group_name_H-M   'P 1'
_cell_length_a   5.56570481
_cell_length_b   5.56570588
_cell_length_c   6.93553500
_cell_angle_alpha   90.00000000
_cell_angle_beta   90.00000000
_cell_angle_gamma   141.64859286
_symmetry_Int_Tables_number   1
_chemical_formula_structural   Ho2Mn4SiPC2
_chemical_formula_sum   'Ho2 Mn4 Si1 P1 C2'
_cell_volume   133.30615686
_cell_formula_units_Z   1
loop_
 _symmetry_equiv_pos_site_id
 _symmetry_equiv_pos_as_xyz
  1  'x, y, z'
loop_
 _atom_site_type_symbol
 _atom_site_label
 _atom_site_symmetry_multiplicity
 _atom_site_fract_x
 _atom_site_fract_y
 _atom_site_fract_z
 _atom_site_occupancy
  Ho  Ho0  1  0.543302  0.456698  0.250000  1
  Ho  Ho1  1  0.457182  0.542818  0.750000  1
  Mn  Mn2  1  0.831029  0.168971  0.063769  1
  Mn  Mn3  1  0.169359  0.830641  0.945579  1
  Mn  Mn4  1  0.169359  0.830641  0.554421  1
  Mn  Mn5  1  0.831029  0.168971  0.436231  1
  Si  Si6  1  0.734979  0.265021  0.750000  1
  P  P7  1  0.265095  0.734905  0.250000  1
  C  C8  1  0.999333  0.000667  0.999919  1
  C  C9  1  0.999333  0.000667  0.500081  1
