# generated using pymatgen
data_Nd4Ga18(OsPd)3
_symmetry_space_group_name_H-M   'P 1'
_cell_length_a   7.69082678
_cell_length_b   7.69082658
_cell_length_c   9.69253350
_cell_angle_alpha   89.91283106
_cell_angle_beta   89.91284537
_cell_angle_gamma   119.56368313
_symmetry_Int_Tables_number   1
_chemical_formula_structural   Nd4Ga18(OsPd)3
_chemical_formula_sum   'Nd4 Ga18 Os3 Pd3'
_cell_volume   498.66018337
_cell_formula_units_Z   1
loop_
 _symmetry_equiv_pos_site_id
 _symmetry_equiv_pos_as_xyz
  1  'x, y, z'
loop_
 _atom_site_type_symbol
 _atom_site_label
 _atom_site_symmetry_multiplicity
 _atom_site_fract_x
 _atom_site_fract_y
 _atom_site_fract_z
 _atom_site_occupancy
  Nd  Nd0  1  0.995645  0.669074  0.250928  1
  Nd  Nd1  1  0.001912  0.329080  0.748805  1
  Nd  Nd2  1  0.670920  0.998088  0.251195  1
  Nd  Nd3  1  0.330926  0.004355  0.749072  1
  Ga  Ga4  1  0.134149  0.131709  0.250103  1
  Ga  Ga5  1  0.868291  0.865851  0.749897  1
  Ga  Ga6  1  0.008666  0.338942  0.078487  1
  Ga  Ga7  1  0.000879  0.664988  0.921761  1
  Ga  Ga8  1  0.998123  0.660512  0.575793  1
  Ga  Ga9  1  0.339488  0.001877  0.424207  1
  Ga  Ga10  1  0.003368  0.339708  0.423481  1
  Ga  Ga11  1  0.660292  0.996632  0.576519  1
  Ga  Ga12  1  0.661058  0.991334  0.921513  1
  Ga  Ga13  1  0.335012  0.999121  0.078239  1
  Ga  Ga14  1  0.341092  0.341108  0.559496  1
  Ga  Ga15  1  0.658892  0.658908  0.440504  1
  Ga  Ga16  1  0.658708  0.663565  0.063224  1
  Ga  Ga17  1  0.336435  0.341292  0.936776  1
  Ga  Ga18  1  0.337194  0.549179  0.250836  1
  Ga  Ga19  1  0.664741  0.456727  0.746352  1
  Ga  Ga20  1  0.543273  0.335259  0.253648  1
  Ga  Ga21  1  0.450821  0.662806  0.749164  1
  Os  Os22  1  0.327976  0.672024  0.000000  1
  Os  Os23  1  0.327660  0.672340  0.500000  1
  Os  Os24  1  0.672618  0.327382  0.500000  1
  Pd  Pd25  1  0.671704  0.328296  0.000000  1
  Pd  Pd26  1  0.000560  0.999440  0.000000  1
  Pd  Pd27  1  0.999596  0.000404  0.500000  1
