# generated using pymatgen
data_Tb4Ho2Al24GaRu7
_symmetry_space_group_name_H-M   'P 1'
_cell_length_a   8.85766732
_cell_length_b   8.85766822
_cell_length_c   9.55693770
_cell_angle_alpha   90.17976936
_cell_angle_beta   89.82022723
_cell_angle_gamma   119.89769030
_symmetry_Int_Tables_number   1
_chemical_formula_structural   Tb4Ho2Al24GaRu7
_chemical_formula_sum   'Tb4 Ho2 Al24 Ga1 Ru7'
_cell_volume   650.02807828
_cell_formula_units_Z   1
loop_
 _symmetry_equiv_pos_site_id
 _symmetry_equiv_pos_as_xyz
  1  'x, y, z'
loop_
 _atom_site_type_symbol
 _atom_site_label
 _atom_site_symmetry_multiplicity
 _atom_site_fract_x
 _atom_site_fract_y
 _atom_site_fract_z
 _atom_site_occupancy
  Tb  Tb0  1  0.193083  0.384872  0.245842  1
  Tb  Tb1  1  0.806917  0.615128  0.754158  1
  Tb  Tb2  1  0.615128  0.806917  0.245842  1
  Tb  Tb3  1  0.384872  0.193083  0.754158  1
  Ho  Ho4  1  0.194206  0.805794  0.255006  1
  Ho  Ho5  1  0.805794  0.194206  0.744994  1
  Al  Al6  1  0.326687  0.673313  0.020656  1
  Al  Al7  1  0.673313  0.326687  0.979344  1
  Al  Al8  1  0.666409  0.333591  0.516716  1
  Al  Al9  1  0.333591  0.666409  0.483284  1
  Al  Al10  1  0.161623  0.324091  0.574790  1
  Al  Al11  1  0.838377  0.675909  0.425210  1
  Al  Al12  1  0.675909  0.838377  0.574790  1
  Al  Al13  1  0.853742  0.679598  0.082531  1
  Al  Al14  1  0.324091  0.161623  0.425210  1
  Al  Al15  1  0.146258  0.320402  0.917469  1
  Al  Al16  1  0.162471  0.837529  0.578414  1
  Al  Al17  1  0.320402  0.146258  0.082531  1
  Al  Al18  1  0.837529  0.162471  0.421586  1
  Al  Al19  1  0.679598  0.853742  0.917469  1
  Al  Al20  1  0.837567  0.162433  0.078959  1
  Al  Al21  1  0.162433  0.837567  0.921041  1
  Al  Al22  1  0.561295  0.120796  0.248936  1
  Al  Al23  1  0.438705  0.879204  0.751064  1
  Al  Al24  1  0.879204  0.438705  0.248936  1
  Al  Al25  1  0.120796  0.561295  0.751064  1
  Al  Al26  1  0.565727  0.434273  0.258635  1
  Al  Al27  1  0.434273  0.565727  0.741365  1
  Al  Al28  1  0.999150  0.000850  0.250677  1
  Al  Al29  1  0.000850  0.999150  0.749323  1
  Ga  Ga30  1  0.500000  0.500000  0.000000  1
  Ru  Ru31  1  0.500000  0.000000  0.000000  1
  Ru  Ru32  1  0.000000  0.500000  0.000000  1
  Ru  Ru33  1  0.500000  0.000000  0.500000  1
  Ru  Ru34  1  0.000000  0.500000  0.500000  1
  Ru  Ru35  1  0.500000  0.500000  0.500000  1
  Ru  Ru36  1  0.000000  0.000000  0.000000  1
  Ru  Ru37  1  0.000000  0.000000  0.500000  1
