# generated using pymatgen
data_Y3Sc5Ir4
_symmetry_space_group_name_H-M   'P 1'
_cell_length_a   4.28323400
_cell_length_b   7.08811792
_cell_length_c   8.57471562
_cell_angle_alpha   89.03949381
_cell_angle_beta   90.00000000
_cell_angle_gamma   90.00000000
_symmetry_Int_Tables_number   1
_chemical_formula_structural   Y3Sc5Ir4
_chemical_formula_sum   'Y3 Sc5 Ir4'
_cell_volume   260.29236710
_cell_formula_units_Z   1
loop_
 _symmetry_equiv_pos_site_id
 _symmetry_equiv_pos_as_xyz
  1  'x, y, z'
loop_
 _atom_site_type_symbol
 _atom_site_label
 _atom_site_symmetry_multiplicity
 _atom_site_fract_x
 _atom_site_fract_y
 _atom_site_fract_z
 _atom_site_occupancy
  Y  Y0  1  0.250000  0.480093  0.175633  1
  Y  Y1  1  0.750000  0.014636  0.671080  1
  Y  Y2  1  0.750000  0.515704  0.825564  1
  Sc  Sc3  1  0.250000  0.858974  0.937183  1
  Sc  Sc4  1  0.250000  0.358725  0.564433  1
  Sc  Sc5  1  0.750000  0.135689  0.075637  1
  Sc  Sc6  1  0.750000  0.650987  0.426470  1
  Sc  Sc7  1  0.250000  0.990406  0.337548  1
  Ir  Ir8  1  0.250000  0.238292  0.896972  1
  Ir  Ir9  1  0.250000  0.743384  0.596666  1
  Ir  Ir10  1  0.750000  0.757160  0.101607  1
  Ir  Ir11  1  0.750000  0.255950  0.391208  1
