# generated using pymatgen
data_Hf8Fe5Co11
_symmetry_space_group_name_H-M   'P 1'
_cell_length_a   4.92785792
_cell_length_b   4.94805287
_cell_length_c   15.57960438
_cell_angle_alpha   90.00167980
_cell_angle_beta   89.84859436
_cell_angle_gamma   120.12462372
_symmetry_Int_Tables_number   1
_chemical_formula_structural   Hf8Fe5Co11
_chemical_formula_sum   'Hf8 Fe5 Co11'
_cell_volume   328.57219384
_cell_formula_units_Z   1
loop_
 _symmetry_equiv_pos_site_id
 _symmetry_equiv_pos_as_xyz
  1  'x, y, z'
loop_
 _atom_site_type_symbol
 _atom_site_label
 _atom_site_symmetry_multiplicity
 _atom_site_fract_x
 _atom_site_fract_y
 _atom_site_fract_z
 _atom_site_occupancy
  Hf  Hf0  1  0.999848  0.999879  0.094413  1
  Hf  Hf1  1  0.666521  0.333268  0.154948  1
  Hf  Hf2  1  0.667987  0.333985  0.343189  1
  Hf  Hf3  1  0.999201  0.999564  0.404401  1
  Hf  Hf4  1  0.000799  0.000436  0.595599  1
  Hf  Hf5  1  0.332013  0.666016  0.656811  1
  Hf  Hf6  1  0.333479  0.666733  0.845052  1
  Hf  Hf7  1  0.000152  0.000121  0.905587  1
  Fe  Fe8  1  0.332904  0.666449  0.125007  1
  Fe  Fe9  1  0.332084  0.666050  0.374236  1
  Fe  Fe10  1  0.000000  0.499999  0.500000  1
  Fe  Fe11  1  0.667916  0.333951  0.625764  1
  Fe  Fe12  1  0.667096  0.333552  0.874993  1
  Co  Co13  1  0.499999  0.000000  0.000000  1
  Co  Co14  1  0.000000  0.499999  0.000000  1
  Co  Co15  1  0.499999  0.499999  0.000000  1
  Co  Co16  1  0.164992  0.330199  0.249507  1
  Co  Co17  1  0.164992  0.834830  0.249511  1
  Co  Co18  1  0.669816  0.834930  0.249523  1
  Co  Co19  1  0.499999  0.000000  0.500000  1
  Co  Co20  1  0.499999  0.499999  0.500000  1
  Co  Co21  1  0.330183  0.165069  0.750477  1
  Co  Co22  1  0.835006  0.165169  0.750489  1
  Co  Co23  1  0.835008  0.669802  0.750493  1
