# generated using pymatgen
data_Yb5MnSiN7
_symmetry_space_group_name_H-M   'P 1'
_cell_length_a   5.99238077
_cell_length_b   8.42270197
_cell_length_c   8.63180600
_cell_angle_alpha   113.66513006
_cell_angle_beta   98.51109596
_cell_angle_gamma   89.76403375
_symmetry_Int_Tables_number   1
_chemical_formula_structural   Yb5MnSiN7
_chemical_formula_sum   'Yb10 Mn2 Si2 N14'
_cell_volume   393.89830603
_cell_formula_units_Z   2
loop_
 _symmetry_equiv_pos_site_id
 _symmetry_equiv_pos_as_xyz
  1  'x, y, z'
loop_
 _atom_site_type_symbol
 _atom_site_label
 _atom_site_symmetry_multiplicity
 _atom_site_fract_x
 _atom_site_fract_y
 _atom_site_fract_z
 _atom_site_occupancy
  Yb  Yb0  1  0.851364  0.592646  0.351434  1
  Yb  Yb1  1  0.271006  0.980262  0.565230  1
  Yb  Yb2  1  0.710911  0.413012  0.847072  1
  Yb  Yb3  1  0.289089  0.586988  0.152928  1
  Yb  Yb4  1  0.400205  0.777837  0.896880  1
  Yb  Yb5  1  0.599795  0.222163  0.103120  1
  Yb  Yb6  1  0.148636  0.407354  0.648566  1
  Yb  Yb7  1  0.889870  0.838400  0.759232  1
  Yb  Yb8  1  0.110130  0.161600  0.240768  1
  Yb  Yb9  1  0.728994  0.019738  0.434770  1
  Mn  Mn10  1  0.125576  0.220011  0.912123  1
  Mn  Mn11  1  0.874424  0.779989  0.087877  1
  Si  Si12  1  0.574809  0.357394  0.473559  1
  Si  Si13  1  0.425191  0.642606  0.526441  1
  N  N14  1  0.561171  0.550114  0.667856  1
  N  N15  1  0.438829  0.449886  0.332144  1
  N  N16  1  0.164447  0.702258  0.590288  1
  N  N17  1  0.835553  0.297742  0.409712  1
  N  N18  1  0.410144  0.192528  0.481392  1
  N  N19  1  0.589856  0.807472  0.518608  1
  N  N20  1  0.957214  0.151166  0.716763  1
  N  N21  1  0.042786  0.848834  0.283237  1
  N  N22  1  0.232363  0.052197  0.957770  1
  N  N23  1  0.767637  0.947803  0.042230  1
  N  N24  1  0.355556  0.337965  0.909583  1
  N  N25  1  0.972928  0.344500  0.068963  1
  N  N26  1  0.027072  0.655500  0.931037  1
  N  N27  1  0.644444  0.662035  0.090417  1
