# generated using pymatgen
data_ErPuS2
_symmetry_space_group_name_H-M   'P 1'
_cell_length_a   6.81877313
_cell_length_b   6.81877300
_cell_length_c   6.81877281
_cell_angle_alpha   33.20895995
_cell_angle_beta   33.20896271
_cell_angle_gamma   33.20895007
_symmetry_Int_Tables_number   1
_chemical_formula_structural   ErPuS2
_chemical_formula_sum   'Er1 Pu1 S2'
_cell_volume   84.66229566
_cell_formula_units_Z   1
loop_
 _symmetry_equiv_pos_site_id
 _symmetry_equiv_pos_as_xyz
  1  'x, y, z'
loop_
 _atom_site_type_symbol
 _atom_site_label
 _atom_site_symmetry_multiplicity
 _atom_site_fract_x
 _atom_site_fract_y
 _atom_site_fract_z
 _atom_site_occupancy
  Er  Er0  1  0.000000  0.000000  0.000000  1
  Pu  Pu1  1  0.500000  0.500000  0.500000  1
  S  S2  1  0.252417  0.252417  0.252417  1
  S  S3  1  0.747583  0.747583  0.747583  1
