# generated using pymatgen
data_Mn5Nb12Si7C2
_symmetry_space_group_name_H-M   'P 1'
_cell_length_a   7.95557029
_cell_length_b   7.95499307
_cell_length_c   7.95508800
_cell_angle_alpha   60.40941897
_cell_angle_beta   60.40387830
_cell_angle_gamma   60.40802013
_symmetry_Int_Tables_number   1
_chemical_formula_structural   Mn5Nb12Si7C2
_chemical_formula_sum   'Mn5 Nb12 Si7 C2'
_cell_volume   359.27002398
_cell_formula_units_Z   1
loop_
 _symmetry_equiv_pos_site_id
 _symmetry_equiv_pos_as_xyz
  1  'x, y, z'
loop_
 _atom_site_type_symbol
 _atom_site_label
 _atom_site_symmetry_multiplicity
 _atom_site_fract_x
 _atom_site_fract_y
 _atom_site_fract_z
 _atom_site_occupancy
  Mn  Mn0  1  0.823837  0.823884  0.823833  1
  Mn  Mn1  1  0.630902  0.630904  0.120525  1
  Mn  Mn2  1  0.630997  0.120424  0.630996  1
  Mn  Mn3  1  0.120494  0.630934  0.630923  1
  Mn  Mn4  1  0.624253  0.624262  0.624252  1
  Nb  Nb5  1  0.054377  0.054403  0.445044  1
  Nb  Nb6  1  0.449350  0.051439  0.449345  1
  Nb  Nb7  1  0.051432  0.449339  0.449334  1
  Nb  Nb8  1  0.449332  0.449329  0.051434  1
  Nb  Nb9  1  0.054401  0.445056  0.054394  1
  Nb  Nb10  1  0.445055  0.054398  0.054366  1
  Nb  Nb11  1  0.198377  0.198340  0.802217  1
  Nb  Nb12  1  0.802337  0.193348  0.802337  1
  Nb  Nb13  1  0.193340  0.802362  0.802344  1
  Nb  Nb14  1  0.802353  0.802370  0.193321  1
  Nb  Nb15  1  0.198324  0.802250  0.198335  1
  Nb  Nb16  1  0.802215  0.198337  0.198383  1
  Si  Si17  1  0.417371  0.417405  0.750772  1
  Si  Si18  1  0.417386  0.750794  0.417379  1
  Si  Si19  1  0.750782  0.417407  0.417368  1
  Si  Si20  1  0.416922  0.416918  0.416930  1
  Si  Si21  1  0.832924  0.832897  0.498976  1
  Si  Si22  1  0.832920  0.498978  0.832933  1
  Si  Si23  1  0.498982  0.832892  0.832935  1
  C  C24  1  0.251962  0.251935  0.251961  1
  C  C25  1  0.999371  0.999398  0.999361  1
