# generated using pymatgen
data_Sc4Be4VFeRh10
_symmetry_space_group_name_H-M   'P 1'
_cell_length_a   9.43596500
_cell_length_b   9.43596500
_cell_length_c   3.12608500
_cell_angle_alpha   90.00000000
_cell_angle_beta   90.00000000
_cell_angle_gamma   90.00000000
_symmetry_Int_Tables_number   1
_chemical_formula_structural   Sc4Be4VFeRh10
_chemical_formula_sum   'Sc4 Be4 V1 Fe1 Rh10'
_cell_volume   278.33859150
_cell_formula_units_Z   1
loop_
 _symmetry_equiv_pos_site_id
 _symmetry_equiv_pos_as_xyz
  1  'x, y, z'
loop_
 _atom_site_type_symbol
 _atom_site_label
 _atom_site_symmetry_multiplicity
 _atom_site_fract_x
 _atom_site_fract_y
 _atom_site_fract_z
 _atom_site_occupancy
  Sc  Sc0  1  0.822434  0.327165  0.000000  1
  Sc  Sc1  1  0.327165  0.177566  0.000000  1
  Sc  Sc2  1  0.672835  0.822434  0.000000  1
  Sc  Sc3  1  0.177566  0.672835  0.000000  1
  Be  Be4  1  0.622238  0.125073  0.000000  1
  Be  Be5  1  0.125073  0.377762  0.000000  1
  Be  Be6  1  0.874927  0.622238  0.000000  1
  Be  Be7  1  0.377762  0.874927  0.000000  1
  V  V8  1  0.000000  0.000000  0.000000  1
  Fe  Fe9  1  0.500000  0.500000  0.000000  1
  Rh  Rh10  1  0.068108  0.206423  0.500000  1
  Rh  Rh11  1  0.206423  0.931892  0.500000  1
  Rh  Rh12  1  0.793577  0.068108  0.500000  1
  Rh  Rh13  1  0.931892  0.793577  0.500000  1
  Rh  Rh14  1  0.429048  0.708371  0.500000  1
  Rh  Rh15  1  0.570952  0.291629  0.500000  1
  Rh  Rh16  1  0.708371  0.570952  0.500000  1
  Rh  Rh17  1  0.291629  0.429048  0.500000  1
  Rh  Rh18  1  0.500000  0.000000  0.500000  1
  Rh  Rh19  1  0.000000  0.500000  0.500000  1
