# generated using pymatgen
data_Ho8Hf11Si16Tc
_symmetry_space_group_name_H-M   'P 1'
_cell_length_a   7.23795762
_cell_length_b   7.23795870
_cell_length_c   13.25351901
_cell_angle_alpha   89.95052233
_cell_angle_beta   90.04947695
_cell_angle_gamma   90.04344309
_symmetry_Int_Tables_number   1
_chemical_formula_structural   Ho8Hf11Si16Tc
_chemical_formula_sum   'Ho8 Hf11 Si16 Tc1'
_cell_volume   694.32514505
_cell_formula_units_Z   1
loop_
 _symmetry_equiv_pos_site_id
 _symmetry_equiv_pos_as_xyz
  1  'x, y, z'
loop_
 _atom_site_type_symbol
 _atom_site_label
 _atom_site_symmetry_multiplicity
 _atom_site_fract_x
 _atom_site_fract_y
 _atom_site_fract_z
 _atom_site_occupancy
  Ho  Ho0  1  0.998972  0.343192  0.212059  1
  Ho  Ho1  1  0.004443  0.655748  0.717103  1
  Ho  Ho2  1  0.156157  0.495338  0.465374  1
  Ho  Ho3  1  0.501093  0.845914  0.033621  1
  Ho  Ho4  1  0.845914  0.501093  0.966379  1
  Ho  Ho5  1  0.495338  0.156157  0.534626  1
  Ho  Ho6  1  0.343192  0.998972  0.787941  1
  Ho  Ho7  1  0.655748  0.004443  0.282897  1
  Hf  Hf8  1  0.825117  0.825117  0.500000  1
  Hf  Hf9  1  0.324350  0.674774  0.248533  1
  Hf  Hf10  1  0.674774  0.324350  0.751467  1
  Hf  Hf11  1  0.147899  0.997514  0.373041  1
  Hf  Hf12  1  0.853644  0.004528  0.877716  1
  Hf  Hf13  1  0.503199  0.647673  0.625147  1
  Hf  Hf14  1  0.350615  0.494553  0.877038  1
  Hf  Hf15  1  0.494553  0.350615  0.122962  1
  Hf  Hf16  1  0.647673  0.503199  0.374853  1
  Hf  Hf17  1  0.997514  0.147899  0.626959  1
  Hf  Hf18  1  0.004528  0.853644  0.122284  1
  Si  Si19  1  0.360788  0.295016  0.316316  1
  Si  Si20  1  0.638337  0.705223  0.818645  1
  Si  Si21  1  0.205305  0.861314  0.567678  1
  Si  Si22  1  0.137743  0.795002  0.931893  1
  Si  Si23  1  0.795002  0.137743  0.068107  1
  Si  Si24  1  0.861314  0.205305  0.432322  1
  Si  Si25  1  0.295016  0.360788  0.683684  1
  Si  Si26  1  0.705223  0.638337  0.181355  1
  Si  Si27  1  0.294436  0.052739  0.181532  1
  Si  Si28  1  0.703073  0.951564  0.685925  1
  Si  Si29  1  0.450209  0.797153  0.434887  1
  Si  Si30  1  0.204170  0.547882  0.064385  1
  Si  Si31  1  0.547882  0.204170  0.935615  1
  Si  Si32  1  0.797153  0.450209  0.565113  1
  Si  Si33  1  0.052739  0.294436  0.818468  1
  Si  Si34  1  0.951564  0.703073  0.314075  1
  Tc  Tc35  1  0.175320  0.175320  0.000000  1
