# generated using pymatgen
data_DyThNiPt
_symmetry_space_group_name_H-M   'P 1'
_cell_length_a   5.78580700
_cell_length_b   5.78580695
_cell_length_c   4.29066800
_cell_angle_alpha   90.00000000
_cell_angle_beta   90.00000000
_cell_angle_gamma   141.97804801
_symmetry_Int_Tables_number   1
_chemical_formula_structural   DyThNiPt
_chemical_formula_sum   'Dy1 Th1 Ni1 Pt1'
_cell_volume   88.47236998
_cell_formula_units_Z   1
loop_
 _symmetry_equiv_pos_site_id
 _symmetry_equiv_pos_as_xyz
  1  'x, y, z'
loop_
 _atom_site_type_symbol
 _atom_site_label
 _atom_site_symmetry_multiplicity
 _atom_site_fract_x
 _atom_site_fract_y
 _atom_site_fract_z
 _atom_site_occupancy
  Dy  Dy0  1  0.141765  0.858235  0.000000  1
  Th  Th1  1  0.865605  0.134395  0.500000  1
  Ni  Ni2  1  0.407642  0.592358  0.000000  1
  Pt  Pt3  1  0.584989  0.415011  0.500000  1
