# generated using pymatgen
data_KNd(PSe3)2
_symmetry_space_group_name_H-M   'P 1'
_cell_length_a   7.80794800
_cell_length_b   6.95996681
_cell_length_c   10.48659793
_cell_angle_alpha   87.90704114
_cell_angle_beta   90.00000000
_cell_angle_gamma   90.00000000
_symmetry_Int_Tables_number   1
_chemical_formula_structural   KNd(PSe3)2
_chemical_formula_sum   'K2 Nd2 P4 Se12'
_cell_volume   569.49364048
_cell_formula_units_Z   2
loop_
 _symmetry_equiv_pos_site_id
 _symmetry_equiv_pos_as_xyz
  1  'x, y, z'
loop_
 _atom_site_type_symbol
 _atom_site_label
 _atom_site_symmetry_multiplicity
 _atom_site_fract_x
 _atom_site_fract_y
 _atom_site_fract_z
 _atom_site_occupancy
  K  K0  1  0.044422  0.304700  0.497210  1
  K  K1  1  0.544422  0.695300  0.502790  1
  Nd  Nd2  1  0.258402  0.216456  0.997418  1
  Nd  Nd3  1  0.758402  0.783544  0.002582  1
  P  P4  1  0.750148  0.314670  0.826429  1
  P  P5  1  0.250148  0.685330  0.173571  1
  P  P6  1  0.033190  0.799670  0.293805  1
  P  P7  1  0.533190  0.200330  0.706195  1
  Se  Se8  1  0.632089  0.359465  0.018441  1
  Se  Se9  1  0.122397  0.829031  0.486202  1
  Se  Se10  1  0.946087  0.080440  0.826967  1
  Se  Se11  1  0.827686  0.590050  0.267780  1
  Se  Se12  1  0.346182  0.410948  0.254221  1
  Se  Se13  1  0.327686  0.409950  0.732220  1
  Se  Se14  1  0.452897  0.939400  0.824386  1
  Se  Se15  1  0.952897  0.060600  0.175614  1
  Se  Se16  1  0.622397  0.170969  0.513798  1
  Se  Se17  1  0.132089  0.640535  0.981559  1
  Se  Se18  1  0.446087  0.919560  0.173033  1
  Se  Se19  1  0.846182  0.589052  0.745779  1
