# generated using pymatgen
data_GdMgB6Os
_symmetry_space_group_name_H-M   'P 1'
_cell_length_a   3.58376300
_cell_length_b   8.92331100
_cell_length_c   11.31673800
_cell_angle_alpha   90.00000000
_cell_angle_beta   90.00000000
_cell_angle_gamma   90.00000000
_symmetry_Int_Tables_number   1
_chemical_formula_structural   GdMgB6Os
_chemical_formula_sum   'Gd4 Mg4 B24 Os4'
_cell_volume   361.89832437
_cell_formula_units_Z   4
loop_
 _symmetry_equiv_pos_site_id
 _symmetry_equiv_pos_as_xyz
  1  'x, y, z'
loop_
 _atom_site_type_symbol
 _atom_site_label
 _atom_site_symmetry_multiplicity
 _atom_site_fract_x
 _atom_site_fract_y
 _atom_site_fract_z
 _atom_site_occupancy
  Gd  Gd0  1  0.000000  0.322410  0.414278  1
  Gd  Gd1  1  0.000000  0.677590  0.585722  1
  Gd  Gd2  1  0.000000  0.822410  0.085722  1
  Gd  Gd3  1  0.000000  0.177590  0.914278  1
  Mg  Mg4  1  0.000000  0.943823  0.371308  1
  Mg  Mg5  1  0.000000  0.056177  0.628693  1
  Mg  Mg6  1  0.000000  0.443823  0.128692  1
  Mg  Mg7  1  0.000000  0.556177  0.871307  1
  B  B8  1  0.500000  0.555984  0.431567  1
  B  B9  1  0.500000  0.444016  0.568433  1
  B  B10  1  0.500000  0.055984  0.068433  1
  B  B11  1  0.500000  0.944016  0.931567  1
  B  B12  1  0.500000  0.755213  0.417107  1
  B  B13  1  0.500000  0.244787  0.582893  1
  B  B14  1  0.500000  0.255213  0.082893  1
  B  B15  1  0.500000  0.744787  0.917107  1
  B  B16  1  0.500000  0.793458  0.263149  1
  B  B17  1  0.500000  0.206542  0.736851  1
  B  B18  1  0.500000  0.293457  0.236851  1
  B  B19  1  0.500000  0.706542  0.763149  1
  B  B20  1  0.500000  0.627624  0.182393  1
  B  B21  1  0.500000  0.372376  0.817607  1
  B  B22  1  0.500000  0.127624  0.317607  1
  B  B23  1  0.500000  0.872376  0.682393  1
  B  B24  1  0.500000  0.981217  0.213404  1
  B  B25  1  0.500000  0.018783  0.786596  1
  B  B26  1  0.500000  0.481217  0.286596  1
  B  B27  1  0.500000  0.518783  0.713404  1
  B  B28  1  0.500000  0.592189  0.025076  1
  B  B29  1  0.500000  0.407811  0.974924  1
  B  B30  1  0.500000  0.092189  0.474924  1
  B  B31  1  0.500000  0.907811  0.525076  1
  Os  Os32  1  0.000000  0.640823  0.317714  1
  Os  Os33  1  0.000000  0.359177  0.682286  1
  Os  Os34  1  0.000000  0.140823  0.182286  1
  Os  Os35  1  0.000000  0.859177  0.817714  1
