# generated using pymatgen
data_AsPOsCl13
_symmetry_space_group_name_H-M   'P 1'
_cell_length_a   9.69496223
_cell_length_b   9.69496192
_cell_length_c   11.97874900
_cell_angle_alpha   90.00000000
_cell_angle_beta   90.00000000
_cell_angle_gamma   114.74235836
_symmetry_Int_Tables_number   1
_chemical_formula_structural   AsPOsCl13
_chemical_formula_sum   'As2 P2 Os2 Cl26'
_cell_volume   1022.55038075
_cell_formula_units_Z   2
loop_
 _symmetry_equiv_pos_site_id
 _symmetry_equiv_pos_as_xyz
  1  'x, y, z'
loop_
 _atom_site_type_symbol
 _atom_site_label
 _atom_site_symmetry_multiplicity
 _atom_site_fract_x
 _atom_site_fract_y
 _atom_site_fract_z
 _atom_site_occupancy
  As  As0  1  0.547443  0.452557  0.847115  1
  As  As1  1  0.452557  0.547443  0.347115  1
  P  P2  1  0.143021  0.856979  0.033827  1
  P  P3  1  0.856979  0.143021  0.533827  1
  Os  Os4  1  0.794803  0.205197  0.997076  1
  Os  Os5  1  0.205197  0.794803  0.497076  1
  Cl  Cl6  1  0.240795  0.064599  0.091593  1
  Cl  Cl7  1  0.322406  0.677594  0.605817  1
  Cl  Cl8  1  0.700393  0.622538  0.367360  1
  Cl  Cl9  1  0.553427  0.446573  0.661058  1
  Cl  Cl10  1  0.009199  0.304311  0.109257  1
  Cl  Cl11  1  0.935401  0.759205  0.091593  1
  Cl  Cl12  1  0.257467  0.742533  0.082157  1
  Cl  Cl13  1  0.990801  0.695689  0.609257  1
  Cl  Cl14  1  0.064599  0.240795  0.591593  1
  Cl  Cl15  1  0.894781  0.420464  0.883379  1
  Cl  Cl16  1  0.695689  0.990801  0.109257  1
  Cl  Cl17  1  0.420464  0.894781  0.383379  1
  Cl  Cl18  1  0.377462  0.299607  0.367360  1
  Cl  Cl19  1  0.860960  0.139040  0.370323  1
  Cl  Cl20  1  0.299607  0.377462  0.867360  1
  Cl  Cl21  1  0.139040  0.860960  0.870323  1
  Cl  Cl22  1  0.622538  0.700393  0.867360  1
  Cl  Cl23  1  0.759205  0.935401  0.591593  1
  Cl  Cl24  1  0.088579  0.911421  0.385749  1
  Cl  Cl25  1  0.911421  0.088579  0.885749  1
  Cl  Cl26  1  0.446573  0.553427  0.161058  1
  Cl  Cl27  1  0.304311  0.009199  0.609257  1
  Cl  Cl28  1  0.579536  0.105219  0.883379  1
  Cl  Cl29  1  0.742533  0.257467  0.582157  1
  Cl  Cl30  1  0.677594  0.322406  0.105817  1
  Cl  Cl31  1  0.105219  0.579536  0.383379  1
