# generated using pymatgen
data_Zr8Ti11NbGe16
_symmetry_space_group_name_H-M   'P 1'
_cell_length_a   6.82316823
_cell_length_b   6.93814323
_cell_length_c   13.16576900
_cell_angle_alpha   90.00000000
_cell_angle_beta   90.00000000
_cell_angle_gamma   89.97031362
_symmetry_Int_Tables_number   1
_chemical_formula_structural   Zr8Ti11NbGe16
_chemical_formula_sum   'Zr8 Ti11 Nb1 Ge16'
_cell_volume   623.26898060
_cell_formula_units_Z   1
loop_
 _symmetry_equiv_pos_site_id
 _symmetry_equiv_pos_as_xyz
  1  'x, y, z'
loop_
 _atom_site_type_symbol
 _atom_site_label
 _atom_site_symmetry_multiplicity
 _atom_site_fract_x
 _atom_site_fract_y
 _atom_site_fract_z
 _atom_site_occupancy
  Zr  Zr0  1  0.491008  0.675635  0.094873  1
  Zr  Zr1  1  0.992269  0.826230  0.404866  1
  Zr  Zr2  1  0.508009  0.325620  0.594590  1
  Zr  Zr3  1  0.007838  0.175048  0.905426  1
  Zr  Zr4  1  0.508009  0.325620  0.905410  1
  Zr  Zr5  1  0.007838  0.175048  0.594574  1
  Zr  Zr6  1  0.491008  0.675635  0.405127  1
  Zr  Zr7  1  0.992269  0.826230  0.095134  1
  Ti  Ti8  1  0.831098  0.494437  0.250000  1
  Ti  Ti9  1  0.668415  0.995725  0.750000  1
  Ti  Ti10  1  0.168990  0.505359  0.750000  1
  Ti  Ti11  1  0.658375  0.165915  0.125073  1
  Ti  Ti12  1  0.160434  0.332363  0.374829  1
  Ti  Ti13  1  0.340760  0.833101  0.626434  1
  Ti  Ti14  1  0.841237  0.666090  0.874193  1
  Ti  Ti15  1  0.340760  0.833101  0.873566  1
  Ti  Ti16  1  0.841237  0.666090  0.625807  1
  Ti  Ti17  1  0.658375  0.165915  0.374927  1
  Ti  Ti18  1  0.160434  0.332363  0.125171  1
  Nb  Nb19  1  0.331088  0.005100  0.250000  1
  Ge  Ge20  1  0.696425  0.855121  0.250000  1
  Ge  Ge21  1  0.190252  0.637810  0.250000  1
  Ge  Ge22  1  0.307944  0.142708  0.750000  1
  Ge  Ge23  1  0.808241  0.357578  0.750000  1
  Ge  Ge24  1  0.681423  0.958279  0.958696  1
  Ge  Ge25  1  0.181234  0.541948  0.541038  1
  Ge  Ge26  1  0.318296  0.041489  0.461352  1
  Ge  Ge27  1  0.818523  0.459087  0.040822  1
  Ge  Ge28  1  0.318296  0.041489  0.038648  1
  Ge  Ge29  1  0.818523  0.459087  0.459178  1
  Ge  Ge30  1  0.681423  0.958279  0.541304  1
  Ge  Ge31  1  0.181234  0.541948  0.958962  1
  Ge  Ge32  1  0.462798  0.379473  0.250000  1
  Ge  Ge33  1  0.958061  0.124929  0.250000  1
  Ge  Ge34  1  0.539492  0.623574  0.750000  1
  Ge  Ge35  1  0.038379  0.876578  0.750000  1
