# generated using pymatgen
data_Cs4Li2ScGaP4
_symmetry_space_group_name_H-M   'P 1'
_cell_length_a   9.91245220
_cell_length_b   9.91245123
_cell_length_c   9.91245192
_cell_angle_alpha   142.15503149
_cell_angle_beta   54.02363080
_cell_angle_gamma   142.91841186
_symmetry_Int_Tables_number   1
_chemical_formula_structural   Cs4Li2ScGaP4
_chemical_formula_sum   'Cs4 Li2 Sc1 Ga1 P4'
_cell_volume   357.90663735
_cell_formula_units_Z   1
loop_
 _symmetry_equiv_pos_site_id
 _symmetry_equiv_pos_as_xyz
  1  'x, y, z'
loop_
 _atom_site_type_symbol
 _atom_site_label
 _atom_site_symmetry_multiplicity
 _atom_site_fract_x
 _atom_site_fract_y
 _atom_site_fract_z
 _atom_site_occupancy
  Cs  Cs0  1  0.335287  0.774400  0.105808  1
  Cs  Cs1  1  0.164713  0.270519  0.439113  1
  Cs  Cs2  1  0.831407  0.725599  0.560887  1
  Cs  Cs3  1  0.668593  0.229481  0.894192  1
  Li  Li4  1  0.750001  0.250001  0.500000  1
  Li  Li5  1  0.250001  0.750000  0.500000  1
  Sc  Sc6  1  0.250001  0.250001  0.000000  1
  Ga  Ga7  1  0.750000  0.750000  0.000000  1
  P  P8  1  0.914601  0.218081  0.153007  1
  P  P9  1  0.585399  0.738405  0.303480  1
  P  P10  1  0.434926  0.281919  0.696520  1
  P  P11  1  0.065074  0.761593  0.846993  1
