# generated using pymatgen
data_Li4DyErTm2O8
_symmetry_space_group_name_H-M   'P 1'
_cell_length_a   3.35179700
_cell_length_b   5.28122267
_cell_length_c   11.09818503
_cell_angle_alpha   90.07201805
_cell_angle_beta   90.00000000
_cell_angle_gamma   90.00000000
_symmetry_Int_Tables_number   1
_chemical_formula_structural   Li4DyErTm2O8
_chemical_formula_sum   'Li4 Dy1 Er1 Tm2 O8'
_cell_volume   196.45532509
_cell_formula_units_Z   1
loop_
 _symmetry_equiv_pos_site_id
 _symmetry_equiv_pos_as_xyz
  1  'x, y, z'
loop_
 _atom_site_type_symbol
 _atom_site_label
 _atom_site_symmetry_multiplicity
 _atom_site_fract_x
 _atom_site_fract_y
 _atom_site_fract_z
 _atom_site_occupancy
  Li  Li0  1  0.250000  0.096789  0.068108  1
  Li  Li1  1  0.250000  0.403036  0.566821  1
  Li  Li2  1  0.750000  0.597279  0.430850  1
  Li  Li3  1  0.750000  0.902094  0.933167  1
  Dy  Dy4  1  0.750000  0.952320  0.640979  1
  Er  Er5  1  0.750000  0.546278  0.140798  1
  Tm  Tm6  1  0.250000  0.046568  0.359311  1
  Tm  Tm7  1  0.250000  0.453328  0.861263  1
  O  O8  1  0.250000  0.194565  0.708079  1
  O  O9  1  0.750000  0.240051  0.471581  1
  O  O10  1  0.750000  0.259833  0.973424  1
  O  O11  1  0.250000  0.310005  0.207868  1
  O  O12  1  0.750000  0.686366  0.794815  1
  O  O13  1  0.250000  0.739222  0.026622  1
  O  O14  1  0.250000  0.759039  0.524195  1
  O  O15  1  0.750000  0.813229  0.292118  1
