# generated using pymatgen
data_Tm3Mg3Ge2Ir
_symmetry_space_group_name_H-M   'P 1'
_cell_length_a   7.14824700
_cell_length_b   7.14824632
_cell_length_c   4.27648100
_cell_angle_alpha   90.00000000
_cell_angle_beta   90.00000000
_cell_angle_gamma   119.99999851
_symmetry_Int_Tables_number   1
_chemical_formula_structural   Tm3Mg3Ge2Ir
_chemical_formula_sum   'Tm3 Mg3 Ge2 Ir1'
_cell_volume   189.24144048
_cell_formula_units_Z   1
loop_
 _symmetry_equiv_pos_site_id
 _symmetry_equiv_pos_as_xyz
  1  'x, y, z'
loop_
 _atom_site_type_symbol
 _atom_site_label
 _atom_site_symmetry_multiplicity
 _atom_site_fract_x
 _atom_site_fract_y
 _atom_site_fract_z
 _atom_site_occupancy
  Tm  Tm0  1  0.409654  0.000000  0.000000  1
  Tm  Tm1  1  0.000000  0.409654  0.000000  1
  Tm  Tm2  1  0.590346  0.590346  0.000000  1
  Mg  Mg3  1  0.761921  0.000000  0.499999  1
  Mg  Mg4  1  0.238078  0.238079  0.499999  1
  Mg  Mg5  1  0.000000  0.761922  0.499999  1
  Ge  Ge6  1  0.666666  0.333333  0.499999  1
  Ge  Ge7  1  0.333333  0.666666  0.499999  1
  Ir  Ir8  1  0.000000  0.000000  0.000000  1
