# generated using pymatgen
data_YbPa(ReN3)2
_symmetry_space_group_name_H-M   'P 1'
_cell_length_a   5.37334100
_cell_length_b   5.62469400
_cell_length_c   7.82985800
_cell_angle_alpha   90.00000000
_cell_angle_beta   90.00000000
_cell_angle_gamma   90.00000000
_symmetry_Int_Tables_number   1
_chemical_formula_structural   YbPa(ReN3)2
_chemical_formula_sum   'Yb2 Pa2 Re4 N12'
_cell_volume   236.64492153
_cell_formula_units_Z   2
loop_
 _symmetry_equiv_pos_site_id
 _symmetry_equiv_pos_as_xyz
  1  'x, y, z'
loop_
 _atom_site_type_symbol
 _atom_site_label
 _atom_site_symmetry_multiplicity
 _atom_site_fract_x
 _atom_site_fract_y
 _atom_site_fract_z
 _atom_site_occupancy
  Yb  Yb0  1  0.511501  0.553952  0.750000  1
  Yb  Yb1  1  0.988499  0.053952  0.750000  1
  Pa  Pa2  1  0.481104  0.431681  0.250000  1
  Pa  Pa3  1  0.018896  0.931681  0.250000  1
  Re  Re4  1  0.510523  0.001198  0.513171  1
  Re  Re5  1  0.989477  0.501198  0.986829  1
  Re  Re6  1  0.989477  0.501198  0.513171  1
  Re  Re7  1  0.510523  0.001198  0.986829  1
  N  N8  1  0.704646  0.290415  0.539965  1
  N  N9  1  0.301839  0.699544  0.060968  1
  N  N10  1  0.198161  0.199544  0.060968  1
  N  N11  1  0.432862  0.991361  0.750000  1
  N  N12  1  0.888953  0.540691  0.250000  1
  N  N13  1  0.301839  0.699544  0.439032  1
  N  N14  1  0.795354  0.790415  0.960035  1
  N  N15  1  0.704646  0.290415  0.960035  1
  N  N16  1  0.795354  0.790415  0.539965  1
  N  N17  1  0.067138  0.491361  0.750000  1
  N  N18  1  0.198161  0.199544  0.439032  1
  N  N19  1  0.611047  0.040691  0.250000  1
