# generated using pymatgen
data_Tb8Hf7Si16MoW4
_symmetry_space_group_name_H-M   'P 1'
_cell_length_a   7.13230357
_cell_length_b   7.12845693
_cell_length_c   13.10875118
_cell_angle_alpha   89.75991910
_cell_angle_beta   89.93556802
_cell_angle_gamma   90.11160532
_symmetry_Int_Tables_number   1
_chemical_formula_structural   Tb8Hf7Si16MoW4
_chemical_formula_sum   'Tb8 Hf7 Si16 Mo1 W4'
_cell_volume   666.47176380
_cell_formula_units_Z   1
loop_
 _symmetry_equiv_pos_site_id
 _symmetry_equiv_pos_as_xyz
  1  'x, y, z'
loop_
 _atom_site_type_symbol
 _atom_site_label
 _atom_site_symmetry_multiplicity
 _atom_site_fract_x
 _atom_site_fract_y
 _atom_site_fract_z
 _atom_site_occupancy
  Tb  Tb0  1  0.998507  0.344876  0.219096  1
  Tb  Tb1  1  0.002596  0.656685  0.714055  1
  Tb  Tb2  1  0.154451  0.499659  0.465746  1
  Tb  Tb3  1  0.500020  0.845390  0.035872  1
  Tb  Tb4  1  0.844530  0.502418  0.966057  1
  Tb  Tb5  1  0.498793  0.154501  0.531775  1
  Tb  Tb6  1  0.345831  0.998687  0.784018  1
  Tb  Tb7  1  0.655429  0.001858  0.283883  1
  Hf  Hf8  1  0.851946  0.005790  0.874790  1
  Hf  Hf9  1  0.504566  0.649484  0.620803  1
  Hf  Hf10  1  0.352747  0.493367  0.876147  1
  Hf  Hf11  1  0.491883  0.349061  0.125897  1
  Hf  Hf12  1  0.647763  0.510434  0.377086  1
  Hf  Hf13  1  0.994615  0.148345  0.625914  1
  Hf  Hf14  1  0.003583  0.851514  0.124227  1
  Si  Si15  1  0.360859  0.291193  0.320253  1
  Si  Si16  1  0.639960  0.700042  0.814648  1
  Si  Si17  1  0.198392  0.863151  0.560969  1
  Si  Si18  1  0.140467  0.798609  0.933231  1
  Si  Si19  1  0.799279  0.141053  0.067015  1
  Si  Si20  1  0.869014  0.195875  0.430884  1
  Si  Si21  1  0.301959  0.359405  0.683303  1
  Si  Si22  1  0.700998  0.638842  0.184000  1
  Si  Si23  1  0.293636  0.045127  0.188861  1
  Si  Si24  1  0.705147  0.949942  0.683371  1
  Si  Si25  1  0.440254  0.797900  0.430701  1
  Si  Si26  1  0.203765  0.548885  0.066863  1
  Si  Si27  1  0.549543  0.203747  0.934353  1
  Si  Si28  1  0.794736  0.447244  0.566685  1
  Si  Si29  1  0.049753  0.296411  0.816658  1
  Si  Si30  1  0.956567  0.713762  0.317273  1
  Mo  Mo31  1  0.147551  0.995007  0.374262  1
  W  W32  1  0.173762  0.174254  0.001919  1
  W  W33  1  0.827728  0.827703  0.498920  1
  W  W34  1  0.322832  0.674708  0.250414  1
  W  W35  1  0.676538  0.325071  0.750048  1
