# generated using pymatgen
data_Y3Co7P6RhW
_symmetry_space_group_name_H-M   'P 1'
_cell_length_a   3.72014300
_cell_length_b   10.70067400
_cell_length_c   12.36335700
_cell_angle_alpha   90.00000000
_cell_angle_beta   90.00000000
_cell_angle_gamma   90.00000000
_symmetry_Int_Tables_number   1
_chemical_formula_structural   Y3Co7P6RhW
_chemical_formula_sum   'Y6 Co14 P12 Rh2 W2'
_cell_volume   492.16097879
_cell_formula_units_Z   2
loop_
 _symmetry_equiv_pos_site_id
 _symmetry_equiv_pos_as_xyz
  1  'x, y, z'
loop_
 _atom_site_type_symbol
 _atom_site_label
 _atom_site_symmetry_multiplicity
 _atom_site_fract_x
 _atom_site_fract_y
 _atom_site_fract_z
 _atom_site_occupancy
  Y  Y0  1  0.000000  0.500000  0.520667  1
  Y  Y1  1  0.500000  0.000000  0.479333  1
  Y  Y2  1  0.500000  0.815848  0.203349  1
  Y  Y3  1  0.500000  0.184152  0.203349  1
  Y  Y4  1  0.000000  0.684152  0.796651  1
  Y  Y5  1  0.000000  0.315848  0.796651  1
  Co  Co6  1  0.000000  0.500000  0.988925  1
  Co  Co7  1  0.500000  0.000000  0.011075  1
  Co  Co8  1  0.500000  0.332094  0.991999  1
  Co  Co9  1  0.500000  0.667906  0.991999  1
  Co  Co10  1  0.000000  0.167906  0.008001  1
  Co  Co11  1  0.000000  0.832094  0.008001  1
  Co  Co12  1  0.500000  0.297542  0.431072  1
  Co  Co13  1  0.500000  0.702458  0.431072  1
  Co  Co14  1  0.000000  0.202458  0.568928  1
  Co  Co15  1  0.000000  0.797542  0.568928  1
  Co  Co16  1  0.500000  0.880211  0.708876  1
  Co  Co17  1  0.500000  0.119789  0.708876  1
  Co  Co18  1  0.000000  0.619789  0.291124  1
  Co  Co19  1  0.000000  0.380211  0.291124  1
  P  P20  1  0.500000  0.500000  0.888636  1
  P  P21  1  0.000000  0.000000  0.111364  1
  P  P22  1  0.500000  0.500000  0.348551  1
  P  P23  1  0.000000  0.000000  0.651449  1
  P  P24  1  0.500000  0.303079  0.613948  1
  P  P25  1  0.500000  0.696921  0.613948  1
  P  P26  1  0.000000  0.196921  0.386052  1
  P  P27  1  0.000000  0.803079  0.386052  1
  P  P28  1  0.500000  0.844624  0.893392  1
  P  P29  1  0.500000  0.155376  0.893392  1
  P  P30  1  0.000000  0.655376  0.106608  1
  P  P31  1  0.000000  0.344624  0.106608  1
  Rh  Rh32  1  0.500000  0.500000  0.701240  1
  Rh  Rh33  1  0.000000  0.000000  0.298760  1
  W  W34  1  0.500000  0.500000  0.156027  1
  W  W35  1  0.000000  0.000000  0.843973  1
