# generated using pymatgen
data_Lu8TlNi8Hg3
_symmetry_space_group_name_H-M   'P 1'
_cell_length_a   7.24032000
_cell_length_b   7.24032000
_cell_length_c   7.18024300
_cell_angle_alpha   90.00000000
_cell_angle_beta   90.00000000
_cell_angle_gamma   90.00000000
_symmetry_Int_Tables_number   1
_chemical_formula_structural   Lu8TlNi8Hg3
_chemical_formula_sum   'Lu8 Tl1 Ni8 Hg3'
_cell_volume   376.40437659
_cell_formula_units_Z   1
loop_
 _symmetry_equiv_pos_site_id
 _symmetry_equiv_pos_as_xyz
  1  'x, y, z'
loop_
 _atom_site_type_symbol
 _atom_site_label
 _atom_site_symmetry_multiplicity
 _atom_site_fract_x
 _atom_site_fract_y
 _atom_site_fract_z
 _atom_site_occupancy
  Lu  Lu0  1  0.177175  0.173818  0.000497  1
  Lu  Lu1  1  0.673818  0.322825  0.499503  1
  Lu  Lu2  1  0.326182  0.677175  0.499503  1
  Lu  Lu3  1  0.822825  0.826182  0.000497  1
  Lu  Lu4  1  0.672658  0.324041  0.000170  1
  Lu  Lu5  1  0.824041  0.827342  0.499830  1
  Lu  Lu6  1  0.175959  0.172658  0.499830  1
  Lu  Lu7  1  0.327342  0.675959  0.000170  1
  Tl  Tl8  1  0.000000  0.500000  0.750000  1
  Ni  Ni9  1  0.382997  0.381487  0.250964  1
  Ni  Ni10  1  0.884209  0.121664  0.751962  1
  Ni  Ni11  1  0.115791  0.878336  0.751962  1
  Ni  Ni12  1  0.617003  0.618513  0.250964  1
  Ni  Ni13  1  0.118513  0.882997  0.249036  1
  Ni  Ni14  1  0.881487  0.117003  0.249036  1
  Ni  Ni15  1  0.378336  0.384209  0.748038  1
  Ni  Ni16  1  0.621664  0.615791  0.748038  1
  Hg  Hg17  1  0.500000  0.000000  0.250000  1
  Hg  Hg18  1  0.500000  0.000000  0.750000  1
  Hg  Hg19  1  0.000000  0.500000  0.250000  1
