# generated using pymatgen
data_TmTaFeB6
_symmetry_space_group_name_H-M   'P 1'
_cell_length_a   3.33932700
_cell_length_b   8.87896300
_cell_length_c   11.16767400
_cell_angle_alpha   90.00000000
_cell_angle_beta   90.00000000
_cell_angle_gamma   90.00000000
_symmetry_Int_Tables_number   1
_chemical_formula_structural   TmTaFeB6
_chemical_formula_sum   'Tm4 Ta4 Fe4 B24'
_cell_volume   331.11886366
_cell_formula_units_Z   4
loop_
 _symmetry_equiv_pos_site_id
 _symmetry_equiv_pos_as_xyz
  1  'x, y, z'
loop_
 _atom_site_type_symbol
 _atom_site_label
 _atom_site_symmetry_multiplicity
 _atom_site_fract_x
 _atom_site_fract_y
 _atom_site_fract_z
 _atom_site_occupancy
  Tm  Tm0  1  0.000000  0.823399  0.086357  1
  Tm  Tm1  1  0.000000  0.176601  0.913643  1
  Tm  Tm2  1  0.000000  0.323399  0.413643  1
  Tm  Tm3  1  0.000000  0.676601  0.586357  1
  Ta  Ta4  1  0.000000  0.444983  0.127969  1
  Ta  Ta5  1  0.000000  0.555017  0.872031  1
  Ta  Ta6  1  0.000000  0.944983  0.372031  1
  Ta  Ta7  1  0.000000  0.055017  0.627969  1
  Fe  Fe8  1  0.000000  0.144071  0.183217  1
  Fe  Fe9  1  0.000000  0.855929  0.816783  1
  Fe  Fe10  1  0.000000  0.644071  0.316783  1
  Fe  Fe11  1  0.000000  0.355929  0.683217  1
  B  B12  1  0.500000  0.054530  0.067175  1
  B  B13  1  0.500000  0.945470  0.932825  1
  B  B14  1  0.500000  0.554530  0.432825  1
  B  B15  1  0.500000  0.445470  0.567175  1
  B  B16  1  0.500000  0.251595  0.082585  1
  B  B17  1  0.500000  0.748405  0.917415  1
  B  B18  1  0.500000  0.751595  0.417415  1
  B  B19  1  0.500000  0.248405  0.582585  1
  B  B20  1  0.500000  0.296807  0.236756  1
  B  B21  1  0.500000  0.703193  0.763244  1
  B  B22  1  0.500000  0.796807  0.263244  1
  B  B23  1  0.500000  0.203193  0.736756  1
  B  B24  1  0.500000  0.130608  0.316841  1
  B  B25  1  0.500000  0.869392  0.683159  1
  B  B26  1  0.500000  0.630608  0.183159  1
  B  B27  1  0.500000  0.369392  0.816841  1
  B  B28  1  0.500000  0.482337  0.287409  1
  B  B29  1  0.500000  0.517663  0.712591  1
  B  B30  1  0.500000  0.982337  0.212591  1
  B  B31  1  0.500000  0.017663  0.787409  1
  B  B32  1  0.500000  0.100848  0.473428  1
  B  B33  1  0.500000  0.899152  0.526572  1
  B  B34  1  0.500000  0.600848  0.026572  1
  B  B35  1  0.500000  0.399152  0.973428  1
