# generated using pymatgen
data_SrPrY5CoI12
_symmetry_space_group_name_H-M   'P 1'
_cell_length_a   9.80293466
_cell_length_b   9.85628656
_cell_length_c   9.85345365
_cell_angle_alpha   106.22300375
_cell_angle_beta   106.59083101
_cell_angle_gamma   105.96672046
_symmetry_Int_Tables_number   1
_chemical_formula_structural   SrPrY5CoI12
_chemical_formula_sum   'Sr1 Pr1 Y5 Co1 I12'
_cell_volume   808.32172562
_cell_formula_units_Z   1
loop_
 _symmetry_equiv_pos_site_id
 _symmetry_equiv_pos_as_xyz
  1  'x, y, z'
loop_
 _atom_site_type_symbol
 _atom_site_label
 _atom_site_symmetry_multiplicity
 _atom_site_fract_x
 _atom_site_fract_y
 _atom_site_fract_z
 _atom_site_occupancy
  Sr  Sr0  1  0.500638  0.499064  0.499942  1
  Pr  Pr1  1  0.712974  0.981678  0.909259  1
  Y  Y2  1  0.979022  0.906326  0.706145  1
  Y  Y3  1  0.019489  0.093689  0.294047  1
  Y  Y4  1  0.094529  0.293044  0.020266  1
  Y  Y5  1  0.274864  0.018570  0.087852  1
  Y  Y6  1  0.908440  0.707606  0.980502  1
  Co  Co7  1  0.997383  0.000585  0.999476  1
  I  I8  1  0.553200  0.625167  0.863449  1
  I  I9  1  0.446592  0.363562  0.135462  1
  I  I10  1  0.317041  0.926381  0.779255  1
  I  I11  1  0.366719  0.134286  0.444060  1
  I  I12  1  0.928689  0.779001  0.322306  1
  I  I13  1  0.682347  0.076291  0.232639  1
  I  I14  1  0.073264  0.221309  0.678014  1
  I  I15  1  0.783913  0.332074  0.928799  1
  I  I16  1  0.225822  0.681615  0.074774  1
  I  I17  1  0.867787  0.554900  0.634360  1
  I  I18  1  0.134163  0.445647  0.365534  1
  I  I19  1  0.633123  0.859207  0.543860  1
