# generated using pymatgen
data_NaDy2Ga8Ag3
_symmetry_space_group_name_H-M   'P 1'
_cell_length_a   4.35404129
_cell_length_b   8.38908195
_cell_length_c   8.38908183
_cell_angle_alpha   70.75940457
_cell_angle_beta   74.95921470
_cell_angle_gamma   74.95921993
_symmetry_Int_Tables_number   1
_chemical_formula_structural   NaDy2Ga8Ag3
_chemical_formula_sum   'Na1 Dy2 Ga8 Ag3'
_cell_volume   274.26200870
_cell_formula_units_Z   1
loop_
 _symmetry_equiv_pos_site_id
 _symmetry_equiv_pos_as_xyz
  1  'x, y, z'
loop_
 _atom_site_type_symbol
 _atom_site_label
 _atom_site_symmetry_multiplicity
 _atom_site_fract_x
 _atom_site_fract_y
 _atom_site_fract_z
 _atom_site_occupancy
  Na  Na0  1  0.500000  0.500000  0.500000  1
  Dy  Dy1  1  0.795371  0.204629  0.204629  1
  Dy  Dy2  1  0.204629  0.795371  0.795371  1
  Ga  Ga3  1  0.642035  0.077184  0.638747  1
  Ga  Ga4  1  0.357965  0.922816  0.361253  1
  Ga  Ga5  1  0.642035  0.638747  0.077184  1
  Ga  Ga6  1  0.357965  0.361253  0.922816  1
  Ga  Ga7  1  0.838884  0.795192  0.527040  1
  Ga  Ga8  1  0.161116  0.204808  0.472960  1
  Ga  Ga9  1  0.838884  0.527040  0.795192  1
  Ga  Ga10  1  0.161116  0.472960  0.204808  1
  Ag  Ag11  1  0.500000  0.000000  0.000000  1
  Ag  Ag12  1  0.000000  0.809522  0.190478  1
  Ag  Ag13  1  0.000000  0.190478  0.809522  1
