# generated using pymatgen
data_Hf3Zr6Re3NiMo
_symmetry_space_group_name_H-M   'P 1'
_cell_length_a   8.71762600
_cell_length_b   8.71762416
_cell_length_c   8.47128400
_cell_angle_alpha   90.00007506
_cell_angle_beta   89.99980672
_cell_angle_gamma   119.99969746
_symmetry_Int_Tables_number   1
_chemical_formula_structural   Hf3Zr6Re3NiMo
_chemical_formula_sum   'Hf6 Zr12 Re6 Ni2 Mo2'
_cell_volume   557.54197877
_cell_formula_units_Z   2
loop_
 _symmetry_equiv_pos_site_id
 _symmetry_equiv_pos_as_xyz
  1  'x, y, z'
loop_
 _atom_site_type_symbol
 _atom_site_label
 _atom_site_symmetry_multiplicity
 _atom_site_fract_x
 _atom_site_fract_y
 _atom_site_fract_z
 _atom_site_occupancy
  Hf  Hf0  1  0.197825  0.802174  0.443185  1
  Hf  Hf1  1  0.197823  0.395649  0.443182  1
  Hf  Hf2  1  0.604349  0.802175  0.443186  1
  Hf  Hf3  1  0.802175  0.197826  0.556815  1
  Hf  Hf4  1  0.802177  0.604351  0.556818  1
  Hf  Hf5  1  0.395651  0.197825  0.556814  1
  Zr  Zr6  1  0.801343  0.198662  0.942464  1
  Zr  Zr7  1  0.801346  0.602688  0.942456  1
  Zr  Zr8  1  0.397325  0.198668  0.942466  1
  Zr  Zr9  1  0.198657  0.801338  0.057536  1
  Zr  Zr10  1  0.198654  0.397312  0.057544  1
  Zr  Zr11  1  0.602675  0.801332  0.057534  1
  Zr  Zr12  1  0.541504  0.458502  0.252948  1
  Zr  Zr13  1  0.541504  0.083005  0.252939  1
  Zr  Zr14  1  0.916987  0.458494  0.252944  1
  Zr  Zr15  1  0.458496  0.541498  0.747052  1
  Zr  Zr16  1  0.458496  0.916995  0.747061  1
  Zr  Zr17  1  0.083013  0.541506  0.747056  1
  Re  Re18  1  0.890535  0.109465  0.252092  1
  Re  Re19  1  0.890535  0.781070  0.252092  1
  Re  Re20  1  0.218930  0.109466  0.252093  1
  Re  Re21  1  0.109465  0.890535  0.747908  1
  Re  Re22  1  0.109465  0.218930  0.747908  1
  Re  Re23  1  0.781070  0.890534  0.747907  1
  Ni  Ni24  1  0.333334  0.666667  0.254707  1
  Ni  Ni25  1  0.666666  0.333333  0.745293  1
  Mo  Mo26  1  0.000000  0.000000  0.500000  1
  Mo  Mo27  1  0.000000  0.000000  0.000000  1
