# generated using pymatgen
data_Pr2Y2IrRh3O14
_symmetry_space_group_name_H-M   'P 1'
_cell_length_a   7.33617441
_cell_length_b   7.33617614
_cell_length_c   7.37164369
_cell_angle_alpha   59.74313053
_cell_angle_beta   59.74312546
_cell_angle_gamma   59.62254216
_symmetry_Int_Tables_number   1
_chemical_formula_structural   Pr2Y2IrRh3O14
_chemical_formula_sum   'Pr2 Y2 Ir1 Rh3 O14'
_cell_volume   278.64227606
_cell_formula_units_Z   1
loop_
 _symmetry_equiv_pos_site_id
 _symmetry_equiv_pos_as_xyz
  1  'x, y, z'
loop_
 _atom_site_type_symbol
 _atom_site_label
 _atom_site_symmetry_multiplicity
 _atom_site_fract_x
 _atom_site_fract_y
 _atom_site_fract_z
 _atom_site_occupancy
  Pr  Pr0  1  0.125000  0.125000  0.625000  1
  Pr  Pr1  1  0.125000  0.125000  0.125000  1
  Y  Y2  1  0.625000  0.125000  0.125000  1
  Y  Y3  1  0.125000  0.625000  0.125000  1
  Ir  Ir4  1  0.625000  0.625000  0.625000  1
  Rh  Rh5  1  0.125000  0.625000  0.625000  1
  Rh  Rh6  1  0.625000  0.125000  0.625000  1
  Rh  Rh7  1  0.625000  0.625000  0.125000  1
  O  O8  1  0.706789  0.706789  0.296096  1
  O  O9  1  0.290271  0.290271  0.707221  1
  O  O10  1  0.700215  0.296023  0.713689  1
  O  O11  1  0.289933  0.700016  0.289173  1
  O  O12  1  0.296023  0.700215  0.713689  1
  O  O13  1  0.700016  0.289933  0.289173  1
  O  O14  1  0.543211  0.543211  0.953904  1
  O  O15  1  0.959729  0.959729  0.542779  1
  O  O16  1  0.549785  0.953977  0.536311  1
  O  O17  1  0.960067  0.549984  0.960827  1
  O  O18  1  0.953977  0.549785  0.536311  1
  O  O19  1  0.549984  0.960067  0.960827  1
  O  O20  1  0.258794  0.258794  0.242110  1
  O  O21  1  0.991206  0.991206  0.007890  1
