# generated using pymatgen
data_Nd8Y7Er5Si16
_symmetry_space_group_name_H-M   'P 1'
_cell_length_a   7.74785572
_cell_length_b   7.74698118
_cell_length_c   14.42916068
_cell_angle_alpha   89.97519895
_cell_angle_beta   89.95073862
_cell_angle_gamma   89.99620823
_symmetry_Int_Tables_number   1
_chemical_formula_structural   Nd8Y7Er5Si16
_chemical_formula_sum   'Nd8 Y7 Er5 Si16'
_cell_volume   866.07378495
_cell_formula_units_Z   1
loop_
 _symmetry_equiv_pos_site_id
 _symmetry_equiv_pos_as_xyz
  1  'x, y, z'
loop_
 _atom_site_type_symbol
 _atom_site_label
 _atom_site_symmetry_multiplicity
 _atom_site_fract_x
 _atom_site_fract_y
 _atom_site_fract_z
 _atom_site_occupancy
  Nd  Nd0  1  0.635915  0.990782  0.455408  1
  Nd  Nd1  1  0.363284  0.009229  0.955860  1
  Nd  Nd2  1  0.990743  0.636347  0.544417  1
  Nd  Nd3  1  0.490816  0.863647  0.205715  1
  Nd  Nd4  1  0.509044  0.136126  0.705381  1
  Nd  Nd5  1  0.863707  0.490896  0.794760  1
  Nd  Nd6  1  0.136799  0.509209  0.293981  1
  Nd  Nd7  1  0.009740  0.363638  0.044520  1
  Y  Y8  1  0.988961  0.135845  0.625114  1
  Y  Y9  1  0.863749  0.011087  0.875248  1
  Y  Y10  1  0.136139  0.989272  0.374501  1
  Y  Y11  1  0.511111  0.635936  0.624906  1
  Y  Y12  1  0.364073  0.488787  0.875269  1
  Y  Y13  1  0.635794  0.510871  0.374826  1
  Y  Y14  1  0.010754  0.864184  0.124977  1
  Er  Er15  1  0.489772  0.364247  0.124986  1
  Er  Er16  1  0.314993  0.314938  0.499789  1
  Er  Er17  1  0.184964  0.815081  0.750099  1
  Er  Er18  1  0.814958  0.185422  0.249862  1
  Er  Er19  1  0.684701  0.684674  0.000182  1
  Si  Si20  1  0.288232  0.932566  0.561647  1
  Si  Si21  1  0.710958  0.068233  0.062270  1
  Si  Si22  1  0.932662  0.288446  0.438094  1
  Si  Si23  1  0.432942  0.212433  0.311051  1
  Si  Si24  1  0.567366  0.788251  0.811950  1
  Si  Si25  1  0.211640  0.432557  0.688226  1
  Si  Si26  1  0.787548  0.566773  0.187874  1
  Si  Si27  1  0.067577  0.711456  0.938355  1
  Si  Si28  1  0.800685  0.841058  0.693066  1
  Si  Si29  1  0.200815  0.159272  0.191922  1
  Si  Si30  1  0.841170  0.800702  0.307046  1
  Si  Si31  1  0.341062  0.699390  0.442652  1
  Si  Si32  1  0.658304  0.301042  0.943756  1
  Si  Si33  1  0.699324  0.341069  0.556981  1
  Si  Si34  1  0.300993  0.657311  0.058029  1
  Si  Si35  1  0.158706  0.199221  0.807281  1
