# generated using pymatgen
data_Hf12Al2Zn2Pt7RhN4
_symmetry_space_group_name_H-M   'P 1'
_cell_length_a   8.53986661
_cell_length_b   8.53983812
_cell_length_c   8.53408400
_cell_angle_alpha   59.97790313
_cell_angle_beta   59.97792832
_cell_angle_gamma   59.99949978
_symmetry_Int_Tables_number   1
_chemical_formula_structural   Hf12Al2Zn2Pt7RhN4
_chemical_formula_sum   'Hf12 Al2 Zn2 Pt7 Rh1 N4'
_cell_volume   439.94253256
_cell_formula_units_Z   1
loop_
 _symmetry_equiv_pos_site_id
 _symmetry_equiv_pos_as_xyz
  1  'x, y, z'
loop_
 _atom_site_type_symbol
 _atom_site_label
 _atom_site_symmetry_multiplicity
 _atom_site_fract_x
 _atom_site_fract_y
 _atom_site_fract_z
 _atom_site_occupancy
  Hf  Hf0  1  0.810106  0.189107  0.190589  1
  Hf  Hf1  1  0.189107  0.810105  0.190590  1
  Hf  Hf2  1  0.810314  0.810316  0.189718  1
  Hf  Hf3  1  0.189163  0.809695  0.810530  1
  Hf  Hf4  1  0.809695  0.189163  0.810528  1
  Hf  Hf5  1  0.189797  0.189798  0.810422  1
  Hf  Hf6  1  0.438926  0.065344  0.057102  1
  Hf  Hf7  1  0.065346  0.438924  0.057100  1
  Hf  Hf8  1  0.438825  0.438824  0.057598  1
  Hf  Hf9  1  0.061760  0.438915  0.439064  1
  Hf  Hf10  1  0.438912  0.061761  0.439064  1
  Hf  Hf11  1  0.060993  0.060992  0.439184  1
  Al  Al12  1  0.625047  0.625047  0.124779  1
  Al  Al13  1  0.624092  0.624093  0.626379  1
  Zn  Zn14  1  0.125426  0.624281  0.626031  1
  Zn  Zn15  1  0.624280  0.125425  0.626033  1
  Pt  Pt16  1  0.412292  0.412292  0.409294  1
  Pt  Pt17  1  0.765850  0.413975  0.410463  1
  Pt  Pt18  1  0.413976  0.765849  0.410461  1
  Pt  Pt19  1  0.837339  0.837340  0.483645  1
  Pt  Pt20  1  0.837601  0.837599  0.842136  1
  Pt  Pt21  1  0.483151  0.836086  0.840730  1
  Pt  Pt22  1  0.836087  0.483151  0.840732  1
  Rh  Rh23  1  0.412916  0.412918  0.764776  1
  N  N24  1  0.125085  0.125087  0.624748  1
  N  N25  1  0.124463  0.124461  0.126104  1
  N  N26  1  0.624914  0.124539  0.126100  1
  N  N27  1  0.124537  0.624916  0.126100  1
