# generated using pymatgen
data_NdHf4BiF22
_symmetry_space_group_name_H-M   'P 1'
_cell_length_a   8.41522644
_cell_length_b   8.41522673
_cell_length_c   8.41522712
_cell_angle_alpha   124.94466776
_cell_angle_beta   106.71327121
_cell_angle_gamma   98.02658377
_symmetry_Int_Tables_number   1
_chemical_formula_structural   NdHf4BiF22
_chemical_formula_sum   'Nd1 Hf4 Bi1 F22'
_cell_volume   431.26576624
_cell_formula_units_Z   1
loop_
 _symmetry_equiv_pos_site_id
 _symmetry_equiv_pos_as_xyz
  1  'x, y, z'
loop_
 _atom_site_type_symbol
 _atom_site_label
 _atom_site_symmetry_multiplicity
 _atom_site_fract_x
 _atom_site_fract_y
 _atom_site_fract_z
 _atom_site_occupancy
  Nd  Nd0  1  0.250000  0.750000  0.500000  1
  Hf  Hf1  1  0.680954  0.634297  0.315181  1
  Hf  Hf2  1  0.319116  0.365773  0.684819  1
  Hf  Hf3  1  0.180884  0.865703  0.046657  1
  Hf  Hf4  1  0.819046  0.134227  0.953343  1
  Bi  Bi5  1  0.750000  0.250000  0.500000  1
  F  F6  1  0.706106  0.893821  0.340524  1
  F  F7  1  0.293909  0.106741  0.659391  1
  F  F8  1  0.553297  0.365582  0.659476  1
  F  F9  1  0.946703  0.606179  0.812284  1
  F  F10  1  0.447350  0.634518  0.340609  1
  F  F11  1  0.052650  0.393259  0.187169  1
  F  F12  1  0.793894  0.134418  0.187716  1
  F  F13  1  0.206091  0.865482  0.812831  1
  F  F14  1  0.500000  0.500000  0.000000  1
  F  F15  1  0.000000  0.000000  0.000000  1
  F  F16  1  0.780037  0.870376  0.650483  1
  F  F17  1  0.219892  0.129553  0.349517  1
  F  F18  1  0.280108  0.629624  0.909661  1
  F  F19  1  0.719963  0.370447  0.090339  1
  F  F20  1  0.950976  0.737672  0.416864  1
  F  F21  1  0.048431  0.261940  0.582853  1
  F  F22  1  0.320806  0.534111  0.583136  1
  F  F23  1  0.179194  0.762328  0.213304  1
  F  F24  1  0.679088  0.465578  0.417147  1
  F  F25  1  0.820912  0.238060  0.786491  1
  F  F26  1  0.549024  0.965889  0.786696  1
  F  F27  1  0.451569  0.034422  0.213509  1
