# generated using pymatgen
data_Lu12Mn(Si4Ir)3
_symmetry_space_group_name_H-M   'P 1'
_cell_length_a   4.15956203
_cell_length_b   10.49100173
_cell_length_c   12.06674477
_cell_angle_alpha   89.95914195
_cell_angle_beta   90.00095942
_cell_angle_gamma   89.98736429
_symmetry_Int_Tables_number   1
_chemical_formula_structural   Lu12Mn(Si4Ir)3
_chemical_formula_sum   'Lu12 Mn1 Si12 Ir3'
_cell_volume   526.56812845
_cell_formula_units_Z   1
loop_
 _symmetry_equiv_pos_site_id
 _symmetry_equiv_pos_as_xyz
  1  'x, y, z'
loop_
 _atom_site_type_symbol
 _atom_site_label
 _atom_site_symmetry_multiplicity
 _atom_site_fract_x
 _atom_site_fract_y
 _atom_site_fract_z
 _atom_site_occupancy
  Lu  Lu0  1  0.249874  0.879283  0.020398  1
  Lu  Lu1  1  0.250440  0.620196  0.521824  1
  Lu  Lu2  1  0.749898  0.119977  0.980316  1
  Lu  Lu3  1  0.750286  0.378925  0.478736  1
  Lu  Lu4  1  0.250146  0.920732  0.602806  1
  Lu  Lu5  1  0.250040  0.580167  0.103428  1
  Lu  Lu6  1  0.750116  0.079132  0.395903  1
  Lu  Lu7  1  0.750214  0.420684  0.898610  1
  Lu  Lu8  1  0.250354  0.660844  0.800192  1
  Lu  Lu9  1  0.249907  0.839511  0.300418  1
  Lu  Lu10  1  0.749933  0.341093  0.199403  1
  Lu  Lu11  1  0.750276  0.161008  0.699418  1
  Mn  Mn12  1  0.251569  0.386972  0.678012  1
  Si  Si13  1  0.249482  0.012731  0.821051  1
  Si  Si14  1  0.249699  0.487633  0.321695  1
  Si  Si15  1  0.748962  0.986985  0.178738  1
  Si  Si16  1  0.751243  0.514328  0.678808  1
  Si  Si17  1  0.250204  0.249040  0.841887  1
  Si  Si18  1  0.250038  0.251762  0.340941  1
  Si  Si19  1  0.749898  0.752376  0.158538  1
  Si  Si20  1  0.750294  0.749916  0.658659  1
  Si  Si21  1  0.250300  0.196367  0.542533  1
  Si  Si22  1  0.249980  0.301027  0.044184  1
  Si  Si23  1  0.750095  0.801716  0.455936  1
  Si  Si24  1  0.750113  0.698250  0.956555  1
  Ir  Ir25  1  0.248164  0.109166  0.178745  1
  Ir  Ir26  1  0.749441  0.610197  0.320422  1
  Ir  Ir27  1  0.749034  0.889985  0.821848  1
