# generated using pymatgen
data_Cs5TaMoSe8
_symmetry_space_group_name_H-M   'P 1'
_cell_length_a   12.65998776
_cell_length_b   12.70043222
_cell_length_c   12.66003200
_cell_angle_alpha   132.73785017
_cell_angle_beta   127.64377248
_cell_angle_gamma   73.10433223
_symmetry_Int_Tables_number   1
_chemical_formula_structural   Cs5TaMoSe8
_chemical_formula_sum   'Cs10 Ta2 Mo2 Se16'
_cell_volume   1156.66633153
_cell_formula_units_Z   2
loop_
 _symmetry_equiv_pos_site_id
 _symmetry_equiv_pos_as_xyz
  1  'x, y, z'
loop_
 _atom_site_type_symbol
 _atom_site_label
 _atom_site_symmetry_multiplicity
 _atom_site_fract_x
 _atom_site_fract_y
 _atom_site_fract_z
 _atom_site_occupancy
  Cs  Cs0  1  0.496642  0.254995  0.258095  1
  Cs  Cs1  1  0.003106  0.745051  0.241686  1
  Cs  Cs2  1  0.570791  0.711971  0.141170  1
  Cs  Cs3  1  0.429214  0.288043  0.858842  1
  Cs  Cs4  1  0.503358  0.745039  0.741944  1
  Cs  Cs5  1  0.074686  0.431599  0.356914  1
  Cs  Cs6  1  0.925311  0.568377  0.643072  1
  Cs  Cs7  1  0.996893  0.254982  0.758346  1
  Cs  Cs8  1  0.255477  0.999980  0.255463  1
  Cs  Cs9  1  0.744521  0.999972  0.744494  1
  Ta  Ta10  1  0.363084  0.641518  0.278441  1
  Ta  Ta11  1  0.636899  0.358491  0.721568  1
  Mo  Mo12  1  0.136218  0.913229  0.777021  1
  Mo  Mo13  1  0.863799  0.086765  0.222969  1
  Se  Se14  1  0.586252  0.588522  0.354308  1
  Se  Se15  1  0.749730  0.996650  0.246871  1
  Se  Se16  1  0.889706  0.889499  0.999799  1
  Se  Se17  1  0.765755  0.411489  0.997731  1
  Se  Se18  1  0.736434  0.228933  0.150439  1
  Se  Se19  1  0.754278  0.506904  0.752641  1
  Se  Se20  1  0.250265  0.003409  0.753178  1
  Se  Se21  1  0.234212  0.588509  0.002267  1
  Se  Se22  1  0.245710  0.493137  0.247400  1
  Se  Se23  1  0.263594  0.771037  0.849479  1
  Se  Se24  1  0.110278  0.110430  0.000167  1
  Se  Se25  1  0.921543  0.771059  0.507473  1
  Se  Se26  1  0.078516  0.228930  0.492499  1
  Se  Se27  1  0.615873  0.104762  0.488882  1
  Se  Se28  1  0.413730  0.411478  0.645711  1
  Se  Se29  1  0.384120  0.895240  0.511130  1
