# generated using pymatgen
data_PaPCl10
_symmetry_space_group_name_H-M   'P 1'
_cell_length_a   7.46901887
_cell_length_b   7.81165540
_cell_length_c   14.43527411
_cell_angle_alpha   91.08538258
_cell_angle_beta   91.07523510
_cell_angle_gamma   105.65187037
_symmetry_Int_Tables_number   1
_chemical_formula_structural   PaPCl10
_chemical_formula_sum   'Pa2 P2 Cl20'
_cell_volume   810.60592823
_cell_formula_units_Z   2
loop_
 _symmetry_equiv_pos_site_id
 _symmetry_equiv_pos_as_xyz
  1  'x, y, z'
loop_
 _atom_site_type_symbol
 _atom_site_label
 _atom_site_symmetry_multiplicity
 _atom_site_fract_x
 _atom_site_fract_y
 _atom_site_fract_z
 _atom_site_occupancy
  Pa  Pa0  1  0.000000  0.000000  0.000000  1
  Pa  Pa1  1  0.000000  0.000000  0.500000  1
  P  P2  1  0.383301  0.587975  0.261642  1
  P  P3  1  0.616699  0.412025  0.738358  1
  Cl  Cl4  1  0.239667  0.838887  0.946560  1
  Cl  Cl5  1  0.760333  0.161113  0.053440  1
  Cl  Cl6  1  0.766266  0.698329  0.024189  1
  Cl  Cl7  1  0.233734  0.301671  0.975811  1
  Cl  Cl8  1  0.884827  0.996470  0.832347  1
  Cl  Cl9  1  0.115173  0.003530  0.167653  1
  Cl  Cl10  1  0.865964  0.177636  0.383062  1
  Cl  Cl11  1  0.134036  0.822364  0.616938  1
  Cl  Cl12  1  0.312121  0.081064  0.419291  1
  Cl  Cl13  1  0.687879  0.918936  0.580709  1
  Cl  Cl14  1  0.886369  0.717110  0.397371  1
  Cl  Cl15  1  0.113631  0.282890  0.602629  1
  Cl  Cl16  1  0.142831  0.523596  0.195870  1
  Cl  Cl17  1  0.857169  0.476404  0.804130  1
  Cl  Cl18  1  0.524894  0.824974  0.226459  1
  Cl  Cl19  1  0.475106  0.175026  0.773541  1
  Cl  Cl20  1  0.520851  0.416356  0.227581  1
  Cl  Cl21  1  0.479149  0.583644  0.772419  1
  Cl  Cl22  1  0.344156  0.584105  0.395106  1
  Cl  Cl23  1  0.655844  0.415895  0.604894  1
