# generated using pymatgen
data_Lu3In3HgRu2
_symmetry_space_group_name_H-M   'P 1'
_cell_length_a   7.95980500
_cell_length_b   7.95980619
_cell_length_c   3.56464900
_cell_angle_alpha   90.00000000
_cell_angle_beta   90.00000000
_cell_angle_gamma   119.99999091
_symmetry_Int_Tables_number   1
_chemical_formula_structural   Lu3In3HgRu2
_chemical_formula_sum   'Lu3 In3 Hg1 Ru2'
_cell_volume   195.59257576
_cell_formula_units_Z   1
loop_
 _symmetry_equiv_pos_site_id
 _symmetry_equiv_pos_as_xyz
  1  'x, y, z'
loop_
 _atom_site_type_symbol
 _atom_site_label
 _atom_site_symmetry_multiplicity
 _atom_site_fract_x
 _atom_site_fract_y
 _atom_site_fract_z
 _atom_site_occupancy
  Lu  Lu0  1  0.037405  0.624950  0.500000  1
  Lu  Lu1  1  0.587545  0.962595  0.500000  1
  Lu  Lu2  1  0.375050  0.412455  0.500000  1
  In  In3  1  0.000891  0.267541  0.000000  1
  In  In4  1  0.266650  0.999109  0.000000  1
  In  In5  1  0.732459  0.733350  0.000000  1
  Hg  Hg6  1  0.666667  0.333333  0.000000  1
  Ru  Ru7  1  0.000000  0.000000  0.500000  1
  Ru  Ru8  1  0.333333  0.666667  0.000000  1
