# generated using pymatgen
data_NaNd(CN2)2
_symmetry_space_group_name_H-M   'P 1'
_cell_length_a   6.60115300
_cell_length_b   7.61284300
_cell_length_c   10.10837000
_cell_angle_alpha   90.00000000
_cell_angle_beta   90.00000000
_cell_angle_gamma   90.00000000
_symmetry_Int_Tables_number   1
_chemical_formula_structural   NaNd(CN2)2
_chemical_formula_sum   'Na4 Nd4 C8 N16'
_cell_volume   507.98139036
_cell_formula_units_Z   4
loop_
 _symmetry_equiv_pos_site_id
 _symmetry_equiv_pos_as_xyz
  1  'x, y, z'
loop_
 _atom_site_type_symbol
 _atom_site_label
 _atom_site_symmetry_multiplicity
 _atom_site_fract_x
 _atom_site_fract_y
 _atom_site_fract_z
 _atom_site_occupancy
  Na  Na0  1  0.250000  0.624866  0.000000  1
  Na  Na1  1  0.750000  0.875134  0.500000  1
  Na  Na2  1  0.750000  0.375134  0.000000  1
  Na  Na3  1  0.250000  0.124866  0.500000  1
  Nd  Nd4  1  0.250000  0.138389  0.000000  1
  Nd  Nd5  1  0.750000  0.361611  0.500000  1
  Nd  Nd6  1  0.750000  0.861611  0.000000  1
  Nd  Nd7  1  0.250000  0.638389  0.500000  1
  C  C8  1  0.918397  0.115588  0.247927  1
  C  C9  1  0.418397  0.384412  0.252073  1
  C  C10  1  0.081603  0.384412  0.747927  1
  C  C11  1  0.581603  0.115588  0.752073  1
  C  C12  1  0.081603  0.884412  0.752073  1
  C  C13  1  0.581603  0.615588  0.747927  1
  C  C14  1  0.918397  0.615588  0.252073  1
  C  C15  1  0.418397  0.884412  0.247927  1
  N  N16  1  0.930662  0.100586  0.125345  1
  N  N17  1  0.430662  0.399414  0.374655  1
  N  N18  1  0.069338  0.399414  0.625345  1
  N  N19  1  0.569338  0.100586  0.874655  1
  N  N20  1  0.069338  0.899414  0.874655  1
  N  N21  1  0.569338  0.600586  0.625345  1
  N  N22  1  0.930662  0.600586  0.374655  1
  N  N23  1  0.430662  0.899414  0.125345  1
  N  N24  1  0.406532  0.370092  0.131549  1
  N  N25  1  0.906532  0.129908  0.368451  1
  N  N26  1  0.593468  0.129908  0.631549  1
  N  N27  1  0.093468  0.370092  0.868451  1
  N  N28  1  0.593468  0.629908  0.868451  1
  N  N29  1  0.093468  0.870092  0.631549  1
  N  N30  1  0.406532  0.870092  0.368451  1
  N  N31  1  0.906532  0.629908  0.131549  1
