# generated using pymatgen
data_Ho5(Si7Os2)2
_symmetry_space_group_name_H-M   'P 1'
_cell_length_a   8.00545900
_cell_length_b   7.91860271
_cell_length_c   12.66350500
_cell_angle_alpha   81.21714032
_cell_angle_beta   90.00000000
_cell_angle_gamma   90.00000000
_symmetry_Int_Tables_number   1
_chemical_formula_structural   Ho5(Si7Os2)2
_chemical_formula_sum   'Ho10 Si28 Os8'
_cell_volume   793.35238871
_cell_formula_units_Z   2
loop_
 _symmetry_equiv_pos_site_id
 _symmetry_equiv_pos_as_xyz
  1  'x, y, z'
loop_
 _atom_site_type_symbol
 _atom_site_label
 _atom_site_symmetry_multiplicity
 _atom_site_fract_x
 _atom_site_fract_y
 _atom_site_fract_z
 _atom_site_occupancy
  Ho  Ho0  1  0.000000  0.000000  0.500000  1
  Ho  Ho1  1  0.500000  0.500000  0.500000  1
  Ho  Ho2  1  0.253337  0.158313  0.864277  1
  Ho  Ho3  1  0.753337  0.341687  0.135723  1
  Ho  Ho4  1  0.746663  0.841687  0.135723  1
  Ho  Ho5  1  0.246663  0.658313  0.864277  1
  Ho  Ho6  1  0.248344  0.838689  0.133634  1
  Ho  Ho7  1  0.748344  0.661311  0.866366  1
  Ho  Ho8  1  0.751656  0.161311  0.866366  1
  Ho  Ho9  1  0.251656  0.338689  0.133634  1
  Si  Si10  1  0.668131  0.833793  0.499748  1
  Si  Si11  1  0.168131  0.666207  0.500252  1
  Si  Si12  1  0.331869  0.166207  0.500252  1
  Si  Si13  1  0.831869  0.333793  0.499748  1
  Si  Si14  1  0.501224  0.889184  0.944907  1
  Si  Si15  1  0.001224  0.610816  0.055093  1
  Si  Si16  1  0.498776  0.110816  0.055093  1
  Si  Si17  1  0.998776  0.389184  0.944907  1
  Si  Si18  1  0.007430  0.236638  0.680446  1
  Si  Si19  1  0.507430  0.263362  0.319554  1
  Si  Si20  1  0.992570  0.763362  0.319554  1
  Si  Si21  1  0.492570  0.736638  0.680446  1
  Si  Si22  1  0.995488  0.675842  0.680444  1
  Si  Si23  1  0.495488  0.824158  0.319556  1
  Si  Si24  1  0.004512  0.324158  0.319556  1
  Si  Si25  1  0.504512  0.175842  0.680444  1
  Si  Si26  1  0.279183  0.949221  0.680066  1
  Si  Si27  1  0.779183  0.550779  0.319934  1
  Si  Si28  1  0.720817  0.050779  0.319934  1
  Si  Si29  1  0.220817  0.449221  0.680066  1
  Si  Si30  1  0.720326  0.960194  0.680472  1
  Si  Si31  1  0.220326  0.539806  0.319528  1
  Si  Si32  1  0.279674  0.039806  0.319528  1
  Si  Si33  1  0.779674  0.460194  0.680472  1
  Si  Si34  1  0.000508  0.893259  0.942218  1
  Si  Si35  1  0.500508  0.606741  0.057782  1
  Si  Si36  1  0.999492  0.106741  0.057782  1
  Si  Si37  1  0.499492  0.393259  0.942218  1
  Os  Os38  1  0.373769  0.871153  0.498596  1
  Os  Os39  1  0.873769  0.628847  0.501404  1
  Os  Os40  1  0.626231  0.128847  0.501404  1
  Os  Os41  1  0.126231  0.371153  0.498596  1
  Os  Os42  1  0.998849  0.937365  0.753708  1
  Os  Os43  1  0.498849  0.562635  0.246292  1
  Os  Os44  1  0.001151  0.062635  0.246292  1
  Os  Os45  1  0.501151  0.437365  0.753708  1
