# generated using pymatgen
data_Sc3FeSn3Pd2
_symmetry_space_group_name_H-M   'P 1'
_cell_length_a   7.55679700
_cell_length_b   7.55679710
_cell_length_c   6.91862500
_cell_angle_alpha   90.00000000
_cell_angle_beta   90.00000000
_cell_angle_gamma   120.00000394
_symmetry_Int_Tables_number   1
_chemical_formula_structural   Sc3FeSn3Pd2
_chemical_formula_sum   'Sc6 Fe2 Sn6 Pd4'
_cell_volume   342.15738939
_cell_formula_units_Z   2
loop_
 _symmetry_equiv_pos_site_id
 _symmetry_equiv_pos_as_xyz
  1  'x, y, z'
loop_
 _atom_site_type_symbol
 _atom_site_label
 _atom_site_symmetry_multiplicity
 _atom_site_fract_x
 _atom_site_fract_y
 _atom_site_fract_z
 _atom_site_occupancy
  Sc  Sc0  1  0.389068  0.006357  0.250000  1
  Sc  Sc1  1  0.617289  0.610932  0.250000  1
  Sc  Sc2  1  0.993643  0.382711  0.250000  1
  Sc  Sc3  1  0.382711  0.993643  0.750000  1
  Sc  Sc4  1  0.610932  0.617289  0.750000  1
  Sc  Sc5  1  0.006357  0.389068  0.750000  1
  Fe  Fe6  1  0.000000  0.000000  0.250000  1
  Fe  Fe7  1  0.000000  0.000000  0.750000  1
  Sn  Sn8  1  0.731591  0.000000  0.000000  1
  Sn  Sn9  1  0.268409  0.268409  0.500000  1
  Sn  Sn10  1  0.000000  0.731591  0.500000  1
  Sn  Sn11  1  0.000000  0.731591  0.000000  1
  Sn  Sn12  1  0.268409  0.268409  0.000000  1
  Sn  Sn13  1  0.731591  0.000000  0.500000  1
  Pd  Pd14  1  0.333333  0.666667  0.011676  1
  Pd  Pd15  1  0.333333  0.666667  0.488324  1
  Pd  Pd16  1  0.666667  0.333333  0.988324  1
  Pd  Pd17  1  0.666667  0.333333  0.511676  1
