# generated using pymatgen
data_EuRe3Si2Os
_symmetry_space_group_name_H-M   'P 1'
_cell_length_a   7.43888031
_cell_length_b   7.43888185
_cell_length_c   4.08065000
_cell_angle_alpha   90.00000000
_cell_angle_beta   90.00000000
_cell_angle_gamma   148.06688962
_symmetry_Int_Tables_number   1
_chemical_formula_structural   EuRe3Si2Os
_chemical_formula_sum   'Eu1 Re3 Si2 Os1'
_cell_volume   119.43781183
_cell_formula_units_Z   1
loop_
 _symmetry_equiv_pos_site_id
 _symmetry_equiv_pos_as_xyz
  1  'x, y, z'
loop_
 _atom_site_type_symbol
 _atom_site_label
 _atom_site_symmetry_multiplicity
 _atom_site_fract_x
 _atom_site_fract_y
 _atom_site_fract_z
 _atom_site_occupancy
  Eu  Eu0  1  0.001595  0.998405  0.000000  1
  Re  Re1  1  0.304110  0.695890  0.000000  1
  Re  Re2  1  0.812007  0.187993  0.500000  1
  Re  Re3  1  0.696132  0.303868  0.000000  1
  Si  Si4  1  0.413084  0.586916  0.500000  1
  Si  Si5  1  0.588325  0.411675  0.500000  1
  Os  Os6  1  0.184748  0.815252  0.500000  1
