# generated using pymatgen
data_Er12InCo4Au
_symmetry_space_group_name_H-M   'P 1'
_cell_length_a   8.24217774
_cell_length_b   8.24217777
_cell_length_c   8.24217796
_cell_angle_alpha   111.19363100
_cell_angle_beta   110.58491471
_cell_angle_gamma   106.67149236
_symmetry_Int_Tables_number   1
_chemical_formula_structural   Er12InCo4Au
_chemical_formula_sum   'Er12 In1 Co4 Au1'
_cell_volume   430.24665485
_cell_formula_units_Z   1
loop_
 _symmetry_equiv_pos_site_id
 _symmetry_equiv_pos_as_xyz
  1  'x, y, z'
loop_
 _atom_site_type_symbol
 _atom_site_label
 _atom_site_symmetry_multiplicity
 _atom_site_fract_x
 _atom_site_fract_y
 _atom_site_fract_z
 _atom_site_occupancy
  Er  Er0  1  0.186367  0.290130  0.476498  1
  Er  Er1  1  0.813633  0.709870  0.523502  1
  Er  Er2  1  0.186367  0.709870  0.896237  1
  Er  Er3  1  0.813633  0.290130  0.103763  1
  Er  Er4  1  0.315729  0.619595  0.303867  1
  Er  Er5  1  0.684271  0.380405  0.696133  1
  Er  Er6  1  0.315729  0.011862  0.696133  1
  Er  Er7  1  0.684271  0.988138  0.303867  1
  Er  Er8  1  0.427695  0.223071  0.204624  1
  Er  Er9  1  0.572305  0.776929  0.795376  1
  Er  Er10  1  0.018447  0.223071  0.795376  1
  Er  Er11  1  0.981553  0.776929  0.204624  1
  In  In12  1  0.500000  0.500000  0.000000  1
  Co  Co13  1  0.112591  0.612591  0.500000  1
  Co  Co14  1  0.887409  0.387409  0.500000  1
  Co  Co15  1  0.377383  0.000000  0.377383  1
  Co  Co16  1  0.622617  0.000000  0.622617  1
  Au  Au17  1  0.000000  0.000000  0.000000  1
