# generated using pymatgen
data_HfZr7Co16(SiP5)2
_symmetry_space_group_name_H-M   'P 1'
_cell_length_a   12.17526531
_cell_length_b   12.16624680
_cell_length_c   3.66097700
_cell_angle_alpha   90.00000000
_cell_angle_beta   90.00000000
_cell_angle_gamma   119.96589726
_symmetry_Int_Tables_number   1
_chemical_formula_structural   HfZr7Co16(SiP5)2
_chemical_formula_sum   'Hf1 Zr7 Co16 Si2 P10'
_cell_volume   469.79871765
_cell_formula_units_Z   1
loop_
 _symmetry_equiv_pos_site_id
 _symmetry_equiv_pos_as_xyz
  1  'x, y, z'
loop_
 _atom_site_type_symbol
 _atom_site_label
 _atom_site_symmetry_multiplicity
 _atom_site_fract_x
 _atom_site_fract_y
 _atom_site_fract_z
 _atom_site_occupancy
  Hf  Hf0  1  0.442257  0.442903  0.000000  1
  Zr  Zr1  1  0.557320  0.000670  0.000000  1
  Zr  Zr2  1  0.000018  0.554354  0.000000  1
  Zr  Zr3  1  0.666208  0.334081  0.000000  1
  Zr  Zr4  1  0.333696  0.667604  0.000000  1
  Zr  Zr5  1  0.826044  0.825484  0.500000  1
  Zr  Zr6  1  0.173828  0.999634  0.500000  1
  Zr  Zr7  1  0.000217  0.175623  0.500000  1
  Co  Co8  1  0.193551  0.371050  0.000000  1
  Co  Co9  1  0.174624  0.802584  0.000000  1
  Co  Co10  1  0.825176  0.627910  0.000000  1
  Co  Co11  1  0.807522  0.178224  0.000000  1
  Co  Co12  1  0.371448  0.197636  0.000000  1
  Co  Co13  1  0.126270  0.479126  0.500000  1
  Co  Co14  1  0.354774  0.873208  0.500000  1
  Co  Co15  1  0.517035  0.643842  0.500000  1
  Co  Co16  1  0.643779  0.517572  0.500000  1
  Co  Co17  1  0.874180  0.353413  0.500000  1
  Co  Co18  1  0.481958  0.127830  0.500000  1
  Co  Co19  1  0.999869  0.000341  0.000000  1
  Co  Co20  1  0.723712  0.002052  0.500000  1
  Co  Co21  1  0.999998  0.721510  0.500000  1
  Co  Co22  1  0.628880  0.825197  0.000000  1
  Co  Co23  1  0.277652  0.279695  0.500000  1
  Si  Si24  1  0.654492  0.654098  0.000000  1
  Si  Si25  1  0.344530  0.999902  0.000000  1
  P  P26  1  0.000261  0.344477  0.000000  1
  P  P27  1  0.480997  0.308678  0.500000  1
  P  P28  1  0.692272  0.174245  0.500000  1
  P  P29  1  0.825907  0.518441  0.500000  1
  P  P30  1  0.518980  0.826183  0.500000  1
  P  P31  1  0.173906  0.692186  0.500000  1
  P  P32  1  0.824821  0.999382  0.000000  1
  P  P33  1  0.999953  0.824616  0.000000  1
  P  P34  1  0.308831  0.481799  0.500000  1
  P  P35  1  0.175035  0.174453  0.000000  1
