# generated using pymatgen
data_Dy6Nb(Ga3Co8)2
_symmetry_space_group_name_H-M   'P 1'
_cell_length_a   8.49189902
_cell_length_b   8.48749782
_cell_length_c   8.48342600
_cell_angle_alpha   119.98413149
_cell_angle_beta   90.00000000
_cell_angle_gamma   120.01427953
_symmetry_Int_Tables_number   1
_chemical_formula_structural   Dy6Nb(Ga3Co8)2
_chemical_formula_sum   'Dy6 Nb1 Ga6 Co16'
_cell_volume   432.36564192
_cell_formula_units_Z   1
loop_
 _symmetry_equiv_pos_site_id
 _symmetry_equiv_pos_as_xyz
  1  'x, y, z'
loop_
 _atom_site_type_symbol
 _atom_site_label
 _atom_site_symmetry_multiplicity
 _atom_site_fract_x
 _atom_site_fract_y
 _atom_site_fract_z
 _atom_site_occupancy
  Dy  Dy0  1  0.283922  0.999978  0.284025  1
  Dy  Dy1  1  0.283961  0.567963  0.283982  1
  Dy  Dy2  1  0.716079  0.000022  0.284046  1
  Dy  Dy3  1  0.716078  0.000022  0.715975  1
  Dy  Dy4  1  0.283922  0.999978  0.715955  1
  Dy  Dy5  1  0.716040  0.432038  0.716019  1
  Nb  Nb6  1  0.000000  0.000000  0.000000  1
  Ga  Ga7  1  0.500000  0.000000  0.000000  1
  Ga  Ga8  1  0.000000  0.500000  0.000000  1
  Ga  Ga9  1  0.500000  0.500000  0.000000  1
  Ga  Ga10  1  0.000000  0.000000  0.500000  1
  Ga  Ga11  1  0.000000  0.500000  0.500000  1
  Ga  Ga12  1  0.500000  0.500000  0.500000  1
  Co  Co13  1  0.678813  0.357609  0.036315  1
  Co  Co14  1  0.374143  0.249439  0.124721  1
  Co  Co15  1  0.875272  0.249433  0.124717  1
  Co  Co16  1  0.875280  0.750583  0.124716  1
  Co  Co17  1  0.678813  0.357609  0.321296  1
  Co  Co18  1  0.678919  0.642381  0.321191  1
  Co  Co19  1  0.963505  0.642403  0.321202  1
  Co  Co20  1  0.124720  0.249416  0.374132  1
  Co  Co21  1  0.875280  0.750583  0.625867  1
  Co  Co22  1  0.036496  0.357596  0.678798  1
  Co  Co23  1  0.321081  0.357618  0.678809  1
  Co  Co24  1  0.321187  0.642390  0.678704  1
  Co  Co25  1  0.124720  0.249416  0.875284  1
  Co  Co26  1  0.124728  0.750566  0.875283  1
  Co  Co27  1  0.625856  0.750560  0.875279  1
  Co  Co28  1  0.321187  0.642390  0.963686  1
