# generated using pymatgen
data_LiDy3Si2Ag2Sn
_symmetry_space_group_name_H-M   'P 1'
_cell_length_a   7.16242977
_cell_length_b   7.16242766
_cell_length_c   4.31221400
_cell_angle_alpha   90.00000000
_cell_angle_beta   90.00000000
_cell_angle_gamma   120.45626239
_symmetry_Int_Tables_number   1
_chemical_formula_structural   LiDy3Si2Ag2Sn
_chemical_formula_sum   'Li1 Dy3 Si2 Ag2 Sn1'
_cell_volume   190.69373822
_cell_formula_units_Z   1
loop_
 _symmetry_equiv_pos_site_id
 _symmetry_equiv_pos_as_xyz
  1  'x, y, z'
loop_
 _atom_site_type_symbol
 _atom_site_label
 _atom_site_symmetry_multiplicity
 _atom_site_fract_x
 _atom_site_fract_y
 _atom_site_fract_z
 _atom_site_occupancy
  Li  Li0  1  0.754347  0.754347  0.000000  1
  Dy  Dy1  1  0.434490  0.434490  0.500000  1
  Dy  Dy2  1  0.563042  0.001078  0.500000  1
  Dy  Dy3  1  0.001078  0.563042  0.500000  1
  Si  Si4  1  0.664974  0.335763  0.000000  1
  Si  Si5  1  0.335763  0.664974  0.000000  1
  Ag  Ag6  1  0.257935  0.997741  0.000000  1
  Ag  Ag7  1  0.997741  0.257935  0.000000  1
  Sn  Sn8  1  0.990629  0.990629  0.500000  1
