# generated using pymatgen
data_Cu7WS8
_symmetry_space_group_name_H-M   'P 1'
_cell_length_a   7.50869500
_cell_length_b   7.50869595
_cell_length_c   12.35292300
_cell_angle_alpha   90.00000000
_cell_angle_beta   90.00000000
_cell_angle_gamma   119.99999143
_symmetry_Int_Tables_number   1
_chemical_formula_structural   Cu7WS8
_chemical_formula_sum   'Cu14 W2 S16'
_cell_volume   603.15562987
_cell_formula_units_Z   2
loop_
 _symmetry_equiv_pos_site_id
 _symmetry_equiv_pos_as_xyz
  1  'x, y, z'
loop_
 _atom_site_type_symbol
 _atom_site_label
 _atom_site_symmetry_multiplicity
 _atom_site_fract_x
 _atom_site_fract_y
 _atom_site_fract_z
 _atom_site_occupancy
  Cu  Cu0  1  0.841603  0.683207  0.108254  1
  Cu  Cu1  1  0.507147  0.492853  0.349853  1
  Cu  Cu2  1  0.014295  0.507147  0.849853  1
  Cu  Cu3  1  0.841603  0.158397  0.108254  1
  Cu  Cu4  1  0.492853  0.507147  0.849853  1
  Cu  Cu5  1  0.158397  0.316793  0.608254  1
  Cu  Cu6  1  0.507147  0.014295  0.349853  1
  Cu  Cu7  1  0.985705  0.492853  0.349853  1
  Cu  Cu8  1  0.158397  0.841603  0.608254  1
  Cu  Cu9  1  0.492853  0.985705  0.849853  1
  Cu  Cu10  1  0.683207  0.841603  0.608254  1
  Cu  Cu11  1  0.316793  0.158397  0.108254  1
  Cu  Cu12  1  0.000000  0.000000  0.852614  1
  Cu  Cu13  1  0.000000  0.000000  0.352614  1
  W  W14  1  0.333333  0.666667  0.480518  1
  W  W15  1  0.666667  0.333333  0.980518  1
  S  S16  1  0.000000  0.000000  0.036315  1
  S  S17  1  0.329864  0.164932  0.291147  1
  S  S18  1  0.835068  0.164932  0.291147  1
  S  S19  1  0.005001  0.502501  0.540449  1
  S  S20  1  0.835068  0.670136  0.291147  1
  S  S21  1  0.666667  0.333333  0.797448  1
  S  S22  1  0.164932  0.329864  0.791147  1
  S  S23  1  0.497499  0.502501  0.540449  1
  S  S24  1  0.000000  0.000000  0.536315  1
  S  S25  1  0.333333  0.666667  0.297448  1
  S  S26  1  0.994999  0.497499  0.040449  1
  S  S27  1  0.497499  0.994999  0.540449  1
  S  S28  1  0.164932  0.835068  0.791147  1
  S  S29  1  0.670136  0.835068  0.791147  1
  S  S30  1  0.502501  0.005001  0.040449  1
  S  S31  1  0.502501  0.497499  0.040449  1
