# generated using pymatgen
data_Y6ZnInFe
_symmetry_space_group_name_H-M   'P 1'
_cell_length_a   8.57038077
_cell_length_b   8.57035793
_cell_length_c   8.57038105
_cell_angle_alpha   112.32127192
_cell_angle_beta   109.84195148
_cell_angle_gamma   106.30648573
_symmetry_Int_Tables_number   1
_chemical_formula_structural   Y6ZnInFe
_chemical_formula_sum   'Y12 Zn2 In2 Fe2'
_cell_volume   483.25125906
_cell_formula_units_Z   2
loop_
 _symmetry_equiv_pos_site_id
 _symmetry_equiv_pos_as_xyz
  1  'x, y, z'
loop_
 _atom_site_type_symbol
 _atom_site_label
 _atom_site_symmetry_multiplicity
 _atom_site_fract_x
 _atom_site_fract_y
 _atom_site_fract_z
 _atom_site_occupancy
  Y  Y0  1  0.441526  0.241295  0.200231  1
  Y  Y1  1  0.558474  0.758705  0.799769  1
  Y  Y2  1  0.041064  0.241295  0.799769  1
  Y  Y3  1  0.958936  0.758705  0.200231  1
  Y  Y4  1  0.184492  0.288817  0.473309  1
  Y  Y5  1  0.815508  0.711183  0.526691  1
  Y  Y6  1  0.184493  0.711183  0.895676  1
  Y  Y7  1  0.815507  0.288817  0.104324  1
  Y  Y8  1  0.304496  0.610970  0.306475  1
  Y  Y9  1  0.695504  0.389030  0.693525  1
  Y  Y10  1  0.304496  0.998021  0.693525  1
  Y  Y11  1  0.695504  0.001979  0.306475  1
  Zn  Zn12  1  0.354777  0.000000  0.354777  1
  Zn  Zn13  1  0.645223  0.000000  0.645223  1
  In  In14  1  0.500000  0.500000  0.000000  1
  In  In15  1  0.000000  0.000000  0.000000  1
  Fe  Fe16  1  0.104200  0.604200  0.500000  1
  Fe  Fe17  1  0.895800  0.395800  0.500000  1
