# generated using pymatgen
data_Ce6HoZrBi10
_symmetry_space_group_name_H-M   'P 1'
_cell_length_a   9.72241900
_cell_length_b   9.72241802
_cell_length_c   6.58770300
_cell_angle_alpha   90.00000000
_cell_angle_beta   90.00000000
_cell_angle_gamma   119.99999992
_symmetry_Int_Tables_number   1
_chemical_formula_structural   Ce6HoZrBi10
_chemical_formula_sum   'Ce6 Ho1 Zr1 Bi10'
_cell_volume   539.27869948
_cell_formula_units_Z   1
loop_
 _symmetry_equiv_pos_site_id
 _symmetry_equiv_pos_as_xyz
  1  'x, y, z'
loop_
 _atom_site_type_symbol
 _atom_site_label
 _atom_site_symmetry_multiplicity
 _atom_site_fract_x
 _atom_site_fract_y
 _atom_site_fract_z
 _atom_site_occupancy
  Ce  Ce0  1  0.615793  0.000000  0.251188  1
  Ce  Ce1  1  0.384207  0.000000  0.748812  1
  Ce  Ce2  1  0.000000  0.615793  0.251188  1
  Ce  Ce3  1  0.000000  0.384207  0.748812  1
  Ce  Ce4  1  0.384207  0.384207  0.251188  1
  Ce  Ce5  1  0.615793  0.615793  0.748812  1
  Ho  Ho6  1  0.000000  0.000000  0.000000  1
  Zr  Zr7  1  0.000000  0.000000  0.500000  1
  Bi  Bi8  1  0.269430  0.000000  0.256077  1
  Bi  Bi9  1  0.730570  0.000000  0.743923  1
  Bi  Bi10  1  0.000000  0.269430  0.256077  1
  Bi  Bi11  1  0.000000  0.730570  0.743923  1
  Bi  Bi12  1  0.730570  0.730570  0.256077  1
  Bi  Bi13  1  0.269430  0.269430  0.743923  1
  Bi  Bi14  1  0.333333  0.666667  0.000000  1
  Bi  Bi15  1  0.666667  0.333333  0.000000  1
  Bi  Bi16  1  0.666667  0.333333  0.500000  1
  Bi  Bi17  1  0.333333  0.666667  0.500000  1
