# generated using pymatgen
data_Ho2Er10Co4BiRu
_symmetry_space_group_name_H-M   'P 1'
_cell_length_a   8.24017676
_cell_length_b   8.24017733
_cell_length_c   8.23770959
_cell_angle_alpha   110.60331753
_cell_angle_beta   111.24540526
_cell_angle_gamma   106.61592958
_symmetry_Int_Tables_number   1
_chemical_formula_structural   Ho2Er10Co4BiRu
_chemical_formula_sum   'Ho2 Er10 Co4 Bi1 Ru1'
_cell_volume   429.70108939
_cell_formula_units_Z   1
loop_
 _symmetry_equiv_pos_site_id
 _symmetry_equiv_pos_as_xyz
  1  'x, y, z'
loop_
 _atom_site_type_symbol
 _atom_site_label
 _atom_site_symmetry_multiplicity
 _atom_site_fract_x
 _atom_site_fract_y
 _atom_site_fract_z
 _atom_site_occupancy
  Ho  Ho0  1  0.284605  0.182595  0.467200  1
  Ho  Ho1  1  0.715395  0.817405  0.532800  1
  Er  Er2  1  0.284510  0.817247  0.101758  1
  Er  Er3  1  0.715490  0.182753  0.898242  1
  Er  Er4  1  0.619651  0.311261  0.308127  1
  Er  Er5  1  0.380349  0.688739  0.691873  1
  Er  Er6  1  0.003137  0.311524  0.691873  1
  Er  Er7  1  0.996863  0.688476  0.308127  1
  Er  Er8  1  0.212246  0.408831  0.196287  1
  Er  Er9  1  0.787754  0.591169  0.803713  1
  Er  Er10  1  0.212542  0.015959  0.803713  1
  Er  Er11  1  0.787458  0.984041  0.196287  1
  Co  Co12  1  0.999990  0.375497  0.375486  1
  Co  Co13  1  0.000010  0.624503  0.624514  1
  Co  Co14  1  0.388650  0.888650  0.500000  1
  Co  Co15  1  0.611350  0.111350  0.500000  1
  Bi  Bi16  1  0.500000  0.500000  0.000000  1
  Ru  Ru17  1  0.000000  0.000000  0.000000  1
