# generated using pymatgen
data_TbDy3(Fe5P3)4
_symmetry_space_group_name_H-M   'P 1'
_cell_length_a   11.82698300
_cell_length_b   3.65332200
_cell_length_c   10.30810500
_cell_angle_alpha   90.00000000
_cell_angle_beta   89.99753341
_cell_angle_gamma   90.00000000
_symmetry_Int_Tables_number   1
_chemical_formula_structural   TbDy3(Fe5P3)4
_chemical_formula_sum   'Tb1 Dy3 Fe20 P12'
_cell_volume   445.39030386
_cell_formula_units_Z   1
loop_
 _symmetry_equiv_pos_site_id
 _symmetry_equiv_pos_as_xyz
  1  'x, y, z'
loop_
 _atom_site_type_symbol
 _atom_site_label
 _atom_site_symmetry_multiplicity
 _atom_site_fract_x
 _atom_site_fract_y
 _atom_site_fract_z
 _atom_site_occupancy
  Tb  Tb0  1  0.204466  0.249999  0.919336  1
  Dy  Dy1  1  0.795613  0.749999  0.080723  1
  Dy  Dy2  1  0.295620  0.749999  0.419293  1
  Dy  Dy3  1  0.704487  0.249999  0.580751  1
  Fe  Fe4  1  0.432724  0.249999  0.036821  1
  Fe  Fe5  1  0.990079  0.249999  0.095005  1
  Fe  Fe6  1  0.298858  0.749999  0.124601  1
  Fe  Fe7  1  0.511173  0.749999  0.208092  1
  Fe  Fe8  1  0.176385  0.249999  0.219378  1
  Fe  Fe9  1  0.676475  0.249999  0.280822  1
  Fe  Fe10  1  0.010765  0.749999  0.292069  1
  Fe  Fe11  1  0.798582  0.749999  0.375727  1
  Fe  Fe12  1  0.490422  0.249999  0.405091  1
  Fe  Fe13  1  0.932280  0.249999  0.463324  1
  Fe  Fe14  1  0.067481  0.749999  0.536424  1
  Fe  Fe15  1  0.509744  0.749999  0.594902  1
  Fe  Fe16  1  0.201419  0.249999  0.624133  1
  Fe  Fe17  1  0.988873  0.249999  0.707924  1
  Fe  Fe18  1  0.323501  0.749999  0.718911  1
  Fe  Fe19  1  0.823578  0.749999  0.780641  1
  Fe  Fe20  1  0.489039  0.249999  0.791952  1
  Fe  Fe21  1  0.701424  0.249999  0.875668  1
  Fe  Fe22  1  0.009215  0.749999  0.905177  1
  Fe  Fe23  1  0.567881  0.749999  0.963382  1
  P  P24  1  0.612592  0.249999  0.077965  1
  P  P25  1  0.102966  0.749999  0.101567  1
  P  P26  1  0.371857  0.249999  0.233544  1
  P  P27  1  0.871710  0.249999  0.266474  1
  P  P28  1  0.603293  0.749999  0.398967  1
  P  P29  1  0.112228  0.249999  0.422004  1
  P  P30  1  0.887555  0.749999  0.577835  1
  P  P31  1  0.396870  0.249999  0.600979  1
  P  P32  1  0.127811  0.749999  0.733190  1
  P  P33  1  0.628315  0.749999  0.766434  1
  P  P34  1  0.896603  0.249999  0.898862  1
  P  P35  1  0.388108  0.749999  0.922031  1
