# generated using pymatgen
data_Nb5Co16Si7Tc
_symmetry_space_group_name_H-M   'P 1'
_cell_length_a   7.91499220
_cell_length_b   7.90884194
_cell_length_c   7.91499239
_cell_angle_alpha   60.02571212
_cell_angle_beta   59.94860864
_cell_angle_gamma   60.02570935
_symmetry_Int_Tables_number   1
_chemical_formula_structural   Nb5Co16Si7Tc
_chemical_formula_sum   'Nb5 Co16 Si7 Tc1'
_cell_volume   350.34705076
_cell_formula_units_Z   1
loop_
 _symmetry_equiv_pos_site_id
 _symmetry_equiv_pos_as_xyz
  1  'x, y, z'
loop_
 _atom_site_type_symbol
 _atom_site_label
 _atom_site_symmetry_multiplicity
 _atom_site_fract_x
 _atom_site_fract_y
 _atom_site_fract_z
 _atom_site_occupancy
  Nb  Nb0  1  0.204030  0.795970  0.799939  1
  Nb  Nb1  1  0.799939  0.200061  0.204030  1
  Nb  Nb2  1  0.799939  0.795970  0.204030  1
  Nb  Nb3  1  0.204030  0.200061  0.799939  1
  Nb  Nb4  1  0.793689  0.206311  0.793689  1
  Co  Co5  1  0.165973  0.170228  0.165973  1
  Co  Co6  1  0.502175  0.834027  0.829772  1
  Co  Co7  1  0.833093  0.497448  0.833093  1
  Co  Co8  1  0.829772  0.834027  0.502175  1
  Co  Co9  1  0.165973  0.497825  0.165973  1
  Co  Co10  1  0.163633  0.166907  0.502552  1
  Co  Co11  1  0.502552  0.166907  0.163633  1
  Co  Co12  1  0.833093  0.836367  0.833093  1
  Co  Co13  1  0.381023  0.383582  0.381023  1
  Co  Co14  1  0.145628  0.618977  0.616418  1
  Co  Co15  1  0.619046  0.143492  0.619046  1
  Co  Co16  1  0.616418  0.618977  0.145628  1
  Co  Co17  1  0.381023  0.854372  0.381023  1
  Co  Co18  1  0.381585  0.380954  0.856508  1
  Co  Co19  1  0.856508  0.380954  0.381585  1
  Co  Co20  1  0.619046  0.618415  0.619046  1
  Si  Si21  1  0.501711  0.498289  0.501711  1
  Si  Si22  1  0.998159  0.501841  0.998159  1
  Si  Si23  1  0.496115  0.994481  0.005519  1
  Si  Si24  1  0.005519  0.503885  0.496115  1
  Si  Si25  1  0.498159  0.001841  0.498159  1
  Si  Si26  1  0.005519  0.994481  0.496115  1
  Si  Si27  1  0.496115  0.503885  0.005519  1
  Tc  Tc28  1  0.200537  0.799463  0.200537  1
