# generated using pymatgen
data_HoEr3Ga18(Ir2Pt)2
_symmetry_space_group_name_H-M   'P 1'
_cell_length_a   7.61080803
_cell_length_b   7.61075715
_cell_length_c   9.44994900
_cell_angle_alpha   90.00000000
_cell_angle_beta   90.00000000
_cell_angle_gamma   119.94628050
_symmetry_Int_Tables_number   1
_chemical_formula_structural   HoEr3Ga18(Ir2Pt)2
_chemical_formula_sum   'Ho1 Er3 Ga18 Ir4 Pt2'
_cell_volume   474.30047909
_cell_formula_units_Z   1
loop_
 _symmetry_equiv_pos_site_id
 _symmetry_equiv_pos_as_xyz
  1  'x, y, z'
loop_
 _atom_site_type_symbol
 _atom_site_label
 _atom_site_symmetry_multiplicity
 _atom_site_fract_x
 _atom_site_fract_y
 _atom_site_fract_z
 _atom_site_occupancy
  Ho  Ho0  1  0.330751  0.003288  0.750000  1
  Er  Er1  1  0.996715  0.669177  0.250000  1
  Er  Er2  1  0.003273  0.330806  0.750000  1
  Er  Er3  1  0.669191  0.996712  0.250000  1
  Ga  Ga4  1  0.131063  0.131062  0.250000  1
  Ga  Ga5  1  0.868865  0.868909  0.750000  1
  Ga  Ga6  1  0.998031  0.337616  0.081893  1
  Ga  Ga7  1  0.001881  0.662292  0.918160  1
  Ga  Ga8  1  0.001881  0.662292  0.581840  1
  Ga  Ga9  1  0.337620  0.998033  0.418048  1
  Ga  Ga10  1  0.998031  0.337616  0.418107  1
  Ga  Ga11  1  0.662480  0.001971  0.581836  1
  Ga  Ga12  1  0.662480  0.001971  0.918164  1
  Ga  Ga13  1  0.337620  0.998033  0.081952  1
  Ga  Ga14  1  0.335319  0.335399  0.568633  1
  Ga  Ga15  1  0.664688  0.664686  0.431311  1
  Ga  Ga16  1  0.664688  0.664686  0.068689  1
  Ga  Ga17  1  0.335319  0.335399  0.931367  1
  Ga  Ga18  1  0.337536  0.546652  0.250000  1
  Ga  Ga19  1  0.662526  0.453440  0.750000  1
  Ga  Ga20  1  0.546650  0.337535  0.250000  1
  Ga  Ga21  1  0.453377  0.662425  0.750000  1
  Ir  Ir22  1  0.671382  0.328683  0.000031  1
  Ir  Ir23  1  0.328650  0.671315  0.000028  1
  Ir  Ir24  1  0.328650  0.671315  0.499972  1
  Ir  Ir25  1  0.671382  0.328683  0.499969  1
  Pt  Pt26  1  0.999975  0.000001  0.000024  1
  Pt  Pt27  1  0.999975  0.000001  0.499976  1
