# generated using pymatgen
data_Tb5Er5(InSb2)2
_symmetry_space_group_name_H-M   'P 1'
_cell_length_a   8.97292663
_cell_length_b   8.93341238
_cell_length_c   6.44890800
_cell_angle_alpha   90.00000000
_cell_angle_beta   90.00000000
_cell_angle_gamma   119.89297807
_symmetry_Int_Tables_number   1
_chemical_formula_structural   Tb5Er5(InSb2)2
_chemical_formula_sum   'Tb5 Er5 In2 Sb4'
_cell_volume   448.16264635
_cell_formula_units_Z   1
loop_
 _symmetry_equiv_pos_site_id
 _symmetry_equiv_pos_as_xyz
  1  'x, y, z'
loop_
 _atom_site_type_symbol
 _atom_site_label
 _atom_site_symmetry_multiplicity
 _atom_site_fract_x
 _atom_site_fract_y
 _atom_site_fract_z
 _atom_site_occupancy
  Tb  Tb0  1  0.002403  0.760052  0.750000  1
  Tb  Tb1  1  0.002843  0.242168  0.250000  1
  Tb  Tb2  1  0.757974  0.759143  0.250000  1
  Tb  Tb3  1  0.757686  0.998371  0.750000  1
  Tb  Tb4  1  0.241792  0.238143  0.750000  1
  Er  Er5  1  0.241465  0.003593  0.250000  1
  Er  Er6  1  0.333724  0.667203  0.499593  1
  Er  Er7  1  0.663216  0.331446  0.000551  1
  Er  Er8  1  0.663216  0.331446  0.499449  1
  Er  Er9  1  0.333724  0.667203  0.000407  1
  In  In10  1  0.394944  0.998256  0.750000  1
  In  In11  1  0.394374  0.395164  0.250000  1
  Sb  Sb12  1  0.999824  0.608346  0.250000  1
  Sb  Sb13  1  0.998897  0.391781  0.750000  1
  Sb  Sb14  1  0.607461  0.607086  0.750000  1
  Sb  Sb15  1  0.606456  0.000602  0.250000  1
