# generated using pymatgen
data_LaYb3Al13Si5Ir6
_symmetry_space_group_name_H-M   'P 1'
_cell_length_a   7.50437317
_cell_length_b   7.47586055
_cell_length_c   9.49418100
_cell_angle_alpha   89.96699836
_cell_angle_beta   90.04358050
_cell_angle_gamma   119.84035421
_symmetry_Int_Tables_number   1
_chemical_formula_structural   LaYb3Al13Si5Ir6
_chemical_formula_sum   'La1 Yb3 Al13 Si5 Ir6'
_cell_volume   462.01919427
_cell_formula_units_Z   1
loop_
 _symmetry_equiv_pos_site_id
 _symmetry_equiv_pos_as_xyz
  1  'x, y, z'
loop_
 _atom_site_type_symbol
 _atom_site_label
 _atom_site_symmetry_multiplicity
 _atom_site_fract_x
 _atom_site_fract_y
 _atom_site_fract_z
 _atom_site_occupancy
  La  La0  1  0.999983  0.662891  0.253405  1
  Yb  Yb1  1  0.005778  0.342293  0.749045  1
  Yb  Yb2  1  0.674823  0.008256  0.252358  1
  Yb  Yb3  1  0.320187  0.990444  0.745053  1
  Al  Al4  1  0.129187  0.131316  0.250334  1
  Al  Al5  1  0.871531  0.873608  0.750590  1
  Al  Al6  1  0.665551  0.997802  0.578693  1
  Al  Al7  1  0.663091  0.998631  0.922858  1
  Al  Al8  1  0.341707  0.006202  0.067477  1
  Al  Al9  1  0.336208  0.334035  0.561628  1
  Al  Al10  1  0.660956  0.668754  0.443253  1
  Al  Al11  1  0.660669  0.668587  0.055798  1
  Al  Al12  1  0.335977  0.331484  0.937904  1
  Al  Al13  1  0.340700  0.546090  0.250471  1
  Al  Al14  1  0.660169  0.448945  0.750774  1
  Al  Al15  1  0.542061  0.340242  0.250242  1
  Al  Al16  1  0.454401  0.658690  0.749611  1
  Si  Si17  1  0.000852  0.323678  0.063423  1
  Si  Si18  1  0.997989  0.671311  0.928191  1
  Si  Si19  1  0.990600  0.665714  0.576366  1
  Si  Si20  1  0.343643  0.009633  0.426656  1
  Si  Si21  1  0.003247  0.324286  0.433789  1
  Ir  Ir22  1  0.687742  0.337895  0.002720  1
  Ir  Ir23  1  0.311585  0.660570  0.998378  1
  Ir  Ir24  1  0.312438  0.670035  0.501017  1
  Ir  Ir25  1  0.680712  0.330825  0.498804  1
  Ir  Ir26  1  0.000991  0.999244  0.000751  1
  Ir  Ir27  1  0.007231  0.998543  0.500413  1
