# generated using pymatgen
data_Tb9Er(Ir2Rh)2
_symmetry_space_group_name_H-M   'P 1'
_cell_length_a   10.92552100
_cell_length_b   10.92552100
_cell_length_c   6.41589500
_cell_angle_alpha   90.00000000
_cell_angle_beta   90.00000000
_cell_angle_gamma   90.00000000
_symmetry_Int_Tables_number   1
_chemical_formula_structural   Tb9Er(Ir2Rh)2
_chemical_formula_sum   'Tb18 Er2 Ir8 Rh4'
_cell_volume   765.84619699
_cell_formula_units_Z   2
loop_
 _symmetry_equiv_pos_site_id
 _symmetry_equiv_pos_as_xyz
  1  'x, y, z'
loop_
 _atom_site_type_symbol
 _atom_site_label
 _atom_site_symmetry_multiplicity
 _atom_site_fract_x
 _atom_site_fract_y
 _atom_site_fract_z
 _atom_site_occupancy
  Tb  Tb0  1  0.290089  0.088930  0.379806  1
  Tb  Tb1  1  0.290089  0.911070  0.879806  1
  Tb  Tb2  1  0.709911  0.088930  0.879806  1
  Tb  Tb3  1  0.709911  0.911070  0.379806  1
  Tb  Tb4  1  0.589081  0.790662  0.879768  1
  Tb  Tb5  1  0.589081  0.209338  0.379768  1
  Tb  Tb6  1  0.410919  0.790662  0.379768  1
  Tb  Tb7  1  0.410919  0.209338  0.879768  1
  Tb  Tb8  1  0.209338  0.410919  0.620232  1
  Tb  Tb9  1  0.209338  0.589081  0.120232  1
  Tb  Tb10  1  0.790662  0.410919  0.120232  1
  Tb  Tb11  1  0.790662  0.589081  0.620232  1
  Tb  Tb12  1  0.911070  0.709911  0.120194  1
  Tb  Tb13  1  0.911070  0.290089  0.620194  1
  Tb  Tb14  1  0.088930  0.709911  0.620194  1
  Tb  Tb15  1  0.088930  0.290089  0.120194  1
  Tb  Tb16  1  0.500000  0.500000  0.000000  1
  Tb  Tb17  1  0.500000  0.500000  0.500000  1
  Er  Er18  1  0.000000  0.000000  0.500000  1
  Er  Er19  1  0.000000  0.000000  0.000000  1
  Ir  Ir20  1  0.847196  0.152804  0.250000  1
  Ir  Ir21  1  0.847196  0.847196  0.750000  1
  Ir  Ir22  1  0.152804  0.152804  0.750000  1
  Ir  Ir23  1  0.152804  0.847196  0.250000  1
  Ir  Ir24  1  0.654048  0.345952  0.750000  1
  Ir  Ir25  1  0.654048  0.654048  0.250000  1
  Ir  Ir26  1  0.345952  0.345952  0.250000  1
  Ir  Ir27  1  0.345952  0.654048  0.750000  1
  Rh  Rh28  1  0.500000  0.000000  0.122140  1
  Rh  Rh29  1  0.500000  0.000000  0.622140  1
  Rh  Rh30  1  0.000000  0.500000  0.877860  1
  Rh  Rh31  1  0.000000  0.500000  0.377860  1
