# generated using pymatgen
data_TbSm5NiBr10
_symmetry_space_group_name_H-M   'P 1'
_cell_length_a   7.44194685
_cell_length_b   9.34871031
_cell_length_c   9.36254950
_cell_angle_alpha   108.64793227
_cell_angle_beta   96.76456078
_cell_angle_gamma   105.84277853
_symmetry_Int_Tables_number   1
_chemical_formula_structural   TbSm5NiBr10
_chemical_formula_sum   'Tb1 Sm5 Ni1 Br10'
_cell_volume   578.51360937
_cell_formula_units_Z   1
loop_
 _symmetry_equiv_pos_site_id
 _symmetry_equiv_pos_as_xyz
  1  'x, y, z'
loop_
 _atom_site_type_symbol
 _atom_site_label
 _atom_site_symmetry_multiplicity
 _atom_site_fract_x
 _atom_site_fract_y
 _atom_site_fract_z
 _atom_site_occupancy
  Tb  Tb0  1  0.644137  0.866443  0.823932  1
  Sm  Sm1  1  0.122751  0.042911  0.754111  1
  Sm  Sm2  1  0.874219  0.955409  0.245061  1
  Sm  Sm3  1  0.971761  0.297559  0.094507  1
  Sm  Sm4  1  0.025863  0.701697  0.904157  1
  Sm  Sm5  1  0.360400  0.135770  0.179060  1
  Ni  Ni6  1  0.000011  0.000095  0.999836  1
  Br  Br7  1  0.549392  0.173973  0.913835  1
  Br  Br8  1  0.451805  0.821714  0.080440  1
  Br  Br9  1  0.358990  0.458009  0.271549  1
  Br  Br10  1  0.637219  0.547320  0.727596  1
  Br  Br11  1  0.254070  0.083097  0.456935  1
  Br  Br12  1  0.740450  0.913905  0.545438  1
  Br  Br13  1  0.790914  0.260634  0.351802  1
  Br  Br14  1  0.218657  0.742383  0.652864  1
  Br  Br15  1  0.085634  0.366463  0.825618  1
  Br  Br16  1  0.913727  0.632618  0.173259  1
