# generated using pymatgen
data_Dy9Cd(Ni2Bi)2
_symmetry_space_group_name_H-M   'P 1'
_cell_length_a   8.82068093
_cell_length_b   8.82068104
_cell_length_c   8.82067964
_cell_angle_alpha   129.59513206
_cell_angle_beta   129.59512596
_cell_angle_gamma   74.05485178
_symmetry_Int_Tables_number   1
_chemical_formula_structural   Dy9Cd(Ni2Bi)2
_chemical_formula_sum   'Dy9 Cd1 Ni4 Bi2'
_cell_volume   397.37970686
_cell_formula_units_Z   1
loop_
 _symmetry_equiv_pos_site_id
 _symmetry_equiv_pos_as_xyz
  1  'x, y, z'
loop_
 _atom_site_type_symbol
 _atom_site_label
 _atom_site_symmetry_multiplicity
 _atom_site_fract_x
 _atom_site_fract_y
 _atom_site_fract_z
 _atom_site_occupancy
  Dy  Dy0  1  0.000000  0.000000  0.000000  1
  Dy  Dy1  1  0.780386  0.301774  0.826824  1
  Dy  Dy2  1  0.219614  0.698226  0.173176  1
  Dy  Dy3  1  0.474950  0.953561  0.173176  1
  Dy  Dy4  1  0.301774  0.474950  0.521388  1
  Dy  Dy5  1  0.046439  0.219614  0.521388  1
  Dy  Dy6  1  0.525050  0.046439  0.826824  1
  Dy  Dy7  1  0.698226  0.525050  0.478612  1
  Dy  Dy8  1  0.953561  0.780386  0.478612  1
  Cd  Cd9  1  0.500000  0.500000  0.000000  1
  Ni  Ni10  1  0.120000  0.631711  0.751710  1
  Ni  Ni11  1  0.880000  0.368289  0.248290  1
  Ni  Ni12  1  0.631711  0.880000  0.511711  1
  Ni  Ni13  1  0.368289  0.120000  0.488289  1
  Bi  Bi14  1  0.237484  0.237484  0.000000  1
  Bi  Bi15  1  0.762516  0.762516  0.000000  1
