# generated using pymatgen
data_Yb7Ta(Si4Mo3)4
_symmetry_space_group_name_H-M   'P 1'
_cell_length_a   6.69380036
_cell_length_b   6.86824815
_cell_length_c   12.96473102
_cell_angle_alpha   89.64013303
_cell_angle_beta   89.97810739
_cell_angle_gamma   90.24057581
_symmetry_Int_Tables_number   1
_chemical_formula_structural   Yb7Ta(Si4Mo3)4
_chemical_formula_sum   'Yb7 Ta1 Si16 Mo12'
_cell_volume   596.03232395
_cell_formula_units_Z   1
loop_
 _symmetry_equiv_pos_site_id
 _symmetry_equiv_pos_as_xyz
  1  'x, y, z'
loop_
 _atom_site_type_symbol
 _atom_site_label
 _atom_site_symmetry_multiplicity
 _atom_site_fract_x
 _atom_site_fract_y
 _atom_site_fract_z
 _atom_site_occupancy
  Yb  Yb0  1  0.998018  0.165599  0.090593  1
  Yb  Yb1  1  0.002941  0.836609  0.908415  1
  Yb  Yb2  1  0.503678  0.663433  0.910462  1
  Yb  Yb3  1  0.002731  0.835910  0.589586  1
  Yb  Yb4  1  0.497536  0.332805  0.090465  1
  Yb  Yb5  1  0.000249  0.167330  0.411361  1
  Yb  Yb6  1  0.498919  0.331609  0.410444  1
  Ta  Ta7  1  0.499386  0.675971  0.604602  1
  Si  Si8  1  0.033296  0.133472  0.746880  1
  Si  Si9  1  0.964650  0.874320  0.251033  1
  Si  Si10  1  0.465343  0.620866  0.249115  1
  Si  Si11  1  0.535013  0.374621  0.746419  1
  Si  Si12  1  0.301155  0.865660  0.749262  1
  Si  Si13  1  0.698781  0.130749  0.251128  1
  Si  Si14  1  0.198719  0.364503  0.250548  1
  Si  Si15  1  0.800827  0.637188  0.749565  1
  Si  Si16  1  0.173079  0.465194  0.545389  1
  Si  Si17  1  0.836280  0.543877  0.458303  1
  Si  Si18  1  0.341961  0.948137  0.460218  1
  Si  Si19  1  0.842152  0.543058  0.045045  1
  Si  Si20  1  0.656469  0.035055  0.545472  1
  Si  Si21  1  0.156717  0.457232  0.951890  1
  Si  Si22  1  0.657966  0.044043  0.952925  1
  Si  Si23  1  0.341898  0.956982  0.044637  1
  Mo  Mo24  1  0.167884  0.502390  0.745345  1
  Mo  Mo25  1  0.837735  0.506127  0.251918  1
  Mo  Mo26  1  0.338575  0.988928  0.250919  1
  Mo  Mo27  1  0.662722  0.000301  0.745468  1
  Mo  Mo28  1  0.332499  0.164082  0.623962  1
  Mo  Mo29  1  0.661103  0.826010  0.375988  1
  Mo  Mo30  1  0.166701  0.666662  0.373508  1
  Mo  Mo31  1  0.664675  0.831195  0.128071  1
  Mo  Mo32  1  0.829067  0.341471  0.624012  1
  Mo  Mo33  1  0.334445  0.168024  0.868771  1
  Mo  Mo34  1  0.831729  0.333345  0.870857  1
  Mo  Mo35  1  0.165102  0.667244  0.127424  1
