# generated using pymatgen
data_Li3Ho3GaGeAs
_symmetry_space_group_name_H-M   'P 1'
_cell_length_a   7.15562900
_cell_length_b   7.15562869
_cell_length_c   4.21379400
_cell_angle_alpha   90.00000000
_cell_angle_beta   90.00000000
_cell_angle_gamma   119.99998757
_symmetry_Int_Tables_number   1
_chemical_formula_structural   Li3Ho3GaGeAs
_chemical_formula_sum   'Li3 Ho3 Ga1 Ge1 As1'
_cell_volume   186.85279500
_cell_formula_units_Z   1
loop_
 _symmetry_equiv_pos_site_id
 _symmetry_equiv_pos_as_xyz
  1  'x, y, z'
loop_
 _atom_site_type_symbol
 _atom_site_label
 _atom_site_symmetry_multiplicity
 _atom_site_fract_x
 _atom_site_fract_y
 _atom_site_fract_z
 _atom_site_occupancy
  Li  Li0  1  0.242475  0.998741  0.500000  1
  Li  Li1  1  0.756266  0.757525  0.500000  1
  Li  Li2  1  0.001259  0.243734  0.500000  1
  Ho  Ho3  1  0.994380  0.574400  0.000000  1
  Ho  Ho4  1  0.580021  0.005620  0.000000  1
  Ho  Ho5  1  0.425600  0.419979  0.000000  1
  Ga  Ga6  1  0.000000  0.000000  0.000000  1
  Ge  Ge7  1  0.666667  0.333333  0.500000  1
  As  As8  1  0.333333  0.666667  0.500000  1
