# generated using pymatgen
data_Er8Ti9Nb2Si16Pd
_symmetry_space_group_name_H-M   'P 1'
_cell_length_a   7.02945450
_cell_length_b   7.02770382
_cell_length_c   12.84912461
_cell_angle_alpha   90.22159506
_cell_angle_beta   89.84165164
_cell_angle_gamma   89.66851765
_symmetry_Int_Tables_number   1
_chemical_formula_structural   Er8Ti9Nb2Si16Pd
_chemical_formula_sum   'Er8 Ti9 Nb2 Si16 Pd1'
_cell_volume   634.74079721
_cell_formula_units_Z   1
loop_
 _symmetry_equiv_pos_site_id
 _symmetry_equiv_pos_as_xyz
  1  'x, y, z'
loop_
 _atom_site_type_symbol
 _atom_site_label
 _atom_site_symmetry_multiplicity
 _atom_site_fract_x
 _atom_site_fract_y
 _atom_site_fract_z
 _atom_site_occupancy
  Er  Er0  1  0.341408  0.001693  0.467300  1
  Er  Er1  1  0.497543  0.841396  0.717590  1
  Er  Er2  1  0.501284  0.158200  0.214818  1
  Er  Er3  1  0.841544  0.498472  0.282364  1
  Er  Er4  1  0.158276  0.501572  0.785331  1
  Er  Er5  1  0.656997  0.999893  0.968308  1
  Er  Er6  1  0.002018  0.341100  0.532745  1
  Er  Er7  1  0.999590  0.656983  0.031573  1
  Ti  Ti8  1  0.826301  0.174951  0.751275  1
  Ti  Ti9  1  0.148632  0.004596  0.876359  1
  Ti  Ti10  1  0.493626  0.653802  0.124422  1
  Ti  Ti11  1  0.507866  0.350563  0.626041  1
  Ti  Ti12  1  0.653564  0.493895  0.876004  1
  Ti  Ti13  1  0.350216  0.508030  0.373683  1
  Ti  Ti14  1  0.849793  0.991951  0.374365  1
  Ti  Ti15  1  0.004888  0.147844  0.124139  1
  Ti  Ti16  1  0.992457  0.849155  0.625154  1
  Nb  Nb17  1  0.174186  0.826506  0.248764  1
  Nb  Nb18  1  0.672952  0.672905  0.500103  1
  Si  Si19  1  0.202873  0.133078  0.684302  1
  Si  Si20  1  0.372335  0.710562  0.931494  1
  Si  Si21  1  0.631331  0.294416  0.433286  1
  Si  Si22  1  0.710663  0.372217  0.068027  1
  Si  Si23  1  0.294217  0.630890  0.567216  1
  Si  Si24  1  0.796070  0.867556  0.182358  1
  Si  Si25  1  0.133113  0.203917  0.316228  1
  Si  Si26  1  0.867224  0.797550  0.817191  1
  Si  Si27  1  0.288374  0.946638  0.062400  1
  Si  Si28  1  0.547415  0.793167  0.313707  1
  Si  Si29  1  0.450986  0.208601  0.814175  1
  Si  Si30  1  0.793403  0.546269  0.686395  1
  Si  Si31  1  0.208743  0.449848  0.185701  1
  Si  Si32  1  0.708527  0.048556  0.565050  1
  Si  Si33  1  0.944779  0.286746  0.935602  1
  Si  Si34  1  0.047760  0.707344  0.436344  1
  Pd  Pd35  1  0.329049  0.329138  0.000186  1
