# generated using pymatgen
data_Yb2Ta(SbPt)3
_symmetry_space_group_name_H-M   'P 1'
_cell_length_a   7.94248255
_cell_length_b   7.94247844
_cell_length_c   7.96459407
_cell_angle_alpha   99.68889850
_cell_angle_beta   99.68890907
_cell_angle_gamma   119.78415397
_symmetry_Int_Tables_number   1
_chemical_formula_structural   Yb2Ta(SbPt)3
_chemical_formula_sum   'Yb4 Ta2 Sb6 Pt6'
_cell_volume   410.78637761
_cell_formula_units_Z   2
loop_
 _symmetry_equiv_pos_site_id
 _symmetry_equiv_pos_as_xyz
  1  'x, y, z'
loop_
 _atom_site_type_symbol
 _atom_site_label
 _atom_site_symmetry_multiplicity
 _atom_site_fract_x
 _atom_site_fract_y
 _atom_site_fract_z
 _atom_site_occupancy
  Yb  Yb0  1  0.330513  0.163676  0.499302  1
  Yb  Yb1  1  0.001098  0.503273  0.500029  1
  Yb  Yb2  1  0.163676  0.330514  0.999302  1
  Yb  Yb3  1  0.503272  0.001099  0.000029  1
  Ta  Ta4  1  0.669339  0.831687  0.499380  1
  Ta  Ta5  1  0.831687  0.669338  0.999380  1
  Sb  Sb6  1  0.918079  0.092734  0.247959  1
  Sb  Sb7  1  0.259308  0.748917  0.249409  1
  Sb  Sb8  1  0.577019  0.410200  0.256581  1
  Sb  Sb9  1  0.092733  0.918079  0.747958  1
  Sb  Sb10  1  0.748917  0.259309  0.749409  1
  Sb  Sb11  1  0.410200  0.577020  0.756581  1
  Pt  Pt12  1  0.176219  0.008260  0.114830  1
  Pt  Pt13  1  0.870956  0.403248  0.115307  1
  Pt  Pt14  1  0.572322  0.713109  0.142203  1
  Pt  Pt15  1  0.008260  0.176220  0.614830  1
  Pt  Pt16  1  0.403247  0.870956  0.615307  1
  Pt  Pt17  1  0.713109  0.572321  0.642204  1
