# generated using pymatgen
data_Na2TbHo(InBr3)4
_symmetry_space_group_name_H-M   'P 1'
_cell_length_a   8.18636417
_cell_length_b   7.66583401
_cell_length_c   13.28264022
_cell_angle_alpha   56.16001227
_cell_angle_beta   90.01881446
_cell_angle_gamma   89.99926739
_symmetry_Int_Tables_number   1
_chemical_formula_structural   Na2TbHo(InBr3)4
_chemical_formula_sum   'Na2 Tb1 Ho1 In4 Br12'
_cell_volume   692.34839519
_cell_formula_units_Z   1
loop_
 _symmetry_equiv_pos_site_id
 _symmetry_equiv_pos_as_xyz
  1  'x, y, z'
loop_
 _atom_site_type_symbol
 _atom_site_label
 _atom_site_symmetry_multiplicity
 _atom_site_fract_x
 _atom_site_fract_y
 _atom_site_fract_z
 _atom_site_occupancy
  Na  Na0  1  0.500000  0.500000  0.000000  1
  Na  Na1  1  0.000000  0.500000  0.500000  1
  Tb  Tb2  1  0.500000  0.000000  0.500000  1
  Ho  Ho3  1  0.000000  0.000000  0.000000  1
  In  In4  1  0.068356  0.720037  0.757359  1
  In  In5  1  0.931644  0.279963  0.242641  1
  In  In6  1  0.568470  0.279742  0.742816  1
  In  In7  1  0.431530  0.720258  0.257184  1
  Br  Br8  1  0.787209  0.756314  0.562294  1
  Br  Br9  1  0.212791  0.243686  0.437706  1
  Br  Br10  1  0.284683  0.241415  0.938218  1
  Br  Br11  1  0.715317  0.758585  0.061782  1
  Br  Br12  1  0.457996  0.870910  0.744015  1
  Br  Br13  1  0.542004  0.129090  0.255985  1
  Br  Br14  1  0.958255  0.127832  0.758237  1
  Br  Br15  1  0.041745  0.872168  0.241763  1
  Br  Br16  1  0.313682  0.651974  0.546394  1
  Br  Br17  1  0.686318  0.348026  0.453606  1
  Br  Br18  1  0.815325  0.345006  0.953963  1
  Br  Br19  1  0.184675  0.654994  0.046037  1
