# generated using pymatgen
data_Tb5YCo16(P6Ru)2
_symmetry_space_group_name_H-M   'P 1'
_cell_length_a   3.71454200
_cell_length_b   10.54075000
_cell_length_c   12.26530900
_cell_angle_alpha   89.99721641
_cell_angle_beta   90.00000000
_cell_angle_gamma   90.00000000
_symmetry_Int_Tables_number   1
_chemical_formula_structural   Tb5YCo16(P6Ru)2
_chemical_formula_sum   'Tb5 Y1 Co16 P12 Ru2'
_cell_volume   480.23662688
_cell_formula_units_Z   1
loop_
 _symmetry_equiv_pos_site_id
 _symmetry_equiv_pos_as_xyz
  1  'x, y, z'
loop_
 _atom_site_type_symbol
 _atom_site_label
 _atom_site_symmetry_multiplicity
 _atom_site_fract_x
 _atom_site_fract_y
 _atom_site_fract_z
 _atom_site_occupancy
  Tb  Tb0  1  0.000000  0.499997  0.524297  1
  Tb  Tb1  1  0.500000  0.000017  0.475700  1
  Tb  Tb2  1  0.500000  0.182754  0.206636  1
  Tb  Tb3  1  0.000000  0.682778  0.793364  1
  Tb  Tb4  1  0.000000  0.317220  0.793346  1
  Y  Y5  1  0.500000  0.817211  0.206631  1
  Co  Co6  1  0.500000  0.500000  0.704058  1
  Co  Co7  1  0.000000  0.999987  0.295929  1
  Co  Co8  1  0.000000  0.500003  0.986449  1
  Co  Co9  1  0.500000  0.999984  0.013547  1
  Co  Co10  1  0.500000  0.332609  0.990687  1
  Co  Co11  1  0.500000  0.667410  0.990695  1
  Co  Co12  1  0.000000  0.167375  0.009315  1
  Co  Co13  1  0.000000  0.832612  0.009339  1
  Co  Co14  1  0.500000  0.296871  0.430833  1
  Co  Co15  1  0.500000  0.703122  0.430816  1
  Co  Co16  1  0.000000  0.203126  0.569176  1
  Co  Co17  1  0.000000  0.796869  0.569171  1
  Co  Co18  1  0.500000  0.879329  0.708338  1
  Co  Co19  1  0.500000  0.120677  0.708332  1
  Co  Co20  1  0.000000  0.620703  0.291654  1
  Co  Co21  1  0.000000  0.379325  0.291664  1
  P  P22  1  0.500000  0.500001  0.882501  1
  P  P23  1  0.000000  0.999988  0.117526  1
  P  P24  1  0.500000  0.499995  0.349267  1
  P  P25  1  0.000000  0.000003  0.650731  1
  P  P26  1  0.500000  0.310893  0.615914  1
  P  P27  1  0.500000  0.689101  0.615917  1
  P  P28  1  0.000000  0.189094  0.384087  1
  P  P29  1  0.000000  0.810921  0.384050  1
  P  P30  1  0.500000  0.846694  0.893993  1
  P  P31  1  0.500000  0.153308  0.893999  1
  P  P32  1  0.000000  0.653329  0.106027  1
  P  P33  1  0.000000  0.346690  0.106009  1
  Ru  Ru34  1  0.500000  0.500004  0.159071  1
  Ru  Ru35  1  0.000000  0.999999  0.840932  1
