# generated using pymatgen
data_Lu2Np6CdSb9
_symmetry_space_group_name_H-M   'P 1'
_cell_length_a   9.27951000
_cell_length_b   9.27950916
_cell_length_c   6.22022300
_cell_angle_alpha   90.00000000
_cell_angle_beta   90.00000000
_cell_angle_gamma   119.99999587
_symmetry_Int_Tables_number   1
_chemical_formula_structural   Lu2Np6CdSb9
_chemical_formula_sum   'Lu2 Np6 Cd1 Sb9'
_cell_volume   463.85971132
_cell_formula_units_Z   1
loop_
 _symmetry_equiv_pos_site_id
 _symmetry_equiv_pos_as_xyz
  1  'x, y, z'
loop_
 _atom_site_type_symbol
 _atom_site_label
 _atom_site_symmetry_multiplicity
 _atom_site_fract_x
 _atom_site_fract_y
 _atom_site_fract_z
 _atom_site_occupancy
  Lu  Lu0  1  0.000000  0.000000  0.000000  1
  Lu  Lu1  1  0.000000  0.000000  0.500000  1
  Np  Np2  1  0.622492  0.010669  0.262619  1
  Np  Np3  1  0.388176  0.010669  0.737381  1
  Np  Np4  1  0.989331  0.611824  0.262619  1
  Np  Np5  1  0.989331  0.377508  0.737381  1
  Np  Np6  1  0.388176  0.377508  0.262619  1
  Np  Np7  1  0.622492  0.611824  0.737381  1
  Cd  Cd8  1  0.333333  0.666667  0.000000  1
  Sb  Sb9  1  0.272907  0.989857  0.241934  1
  Sb  Sb10  1  0.716950  0.989857  0.758066  1
  Sb  Sb11  1  0.010143  0.283050  0.241934  1
  Sb  Sb12  1  0.010143  0.727093  0.758066  1
  Sb  Sb13  1  0.716950  0.727093  0.241934  1
  Sb  Sb14  1  0.272907  0.283050  0.758066  1
  Sb  Sb15  1  0.666667  0.333333  0.000000  1
  Sb  Sb16  1  0.666667  0.333333  0.500000  1
  Sb  Sb17  1  0.333333  0.666667  0.500000  1
