# generated using pymatgen
data_Th2Si7(MoIr3)3
_symmetry_space_group_name_H-M   'P 1'
_cell_length_a   9.83268500
_cell_length_b   9.83268475
_cell_length_c   3.88845100
_cell_angle_alpha   90.00000000
_cell_angle_beta   90.00000000
_cell_angle_gamma   119.99999747
_symmetry_Int_Tables_number   1
_chemical_formula_structural   Th2Si7(MoIr3)3
_chemical_formula_sum   'Th2 Si7 Mo3 Ir9'
_cell_volume   325.57534922
_cell_formula_units_Z   1
loop_
 _symmetry_equiv_pos_site_id
 _symmetry_equiv_pos_as_xyz
  1  'x, y, z'
loop_
 _atom_site_type_symbol
 _atom_site_label
 _atom_site_symmetry_multiplicity
 _atom_site_fract_x
 _atom_site_fract_y
 _atom_site_fract_z
 _atom_site_occupancy
  Th  Th0  1  0.333333  0.666667  0.000000  1
  Th  Th1  1  0.000000  0.000000  0.500000  1
  Si  Si2  1  0.776463  0.034444  0.000000  1
  Si  Si3  1  0.965556  0.742020  0.000000  1
  Si  Si4  1  0.257980  0.223537  0.000000  1
  Si  Si5  1  0.376209  0.935591  0.500000  1
  Si  Si6  1  0.064409  0.440619  0.500000  1
  Si  Si7  1  0.559381  0.623791  0.500000  1
  Si  Si8  1  0.666667  0.333333  0.000000  1
  Mo  Mo9  1  0.779952  0.230594  0.500000  1
  Mo  Mo10  1  0.769406  0.549359  0.500000  1
  Mo  Mo11  1  0.450641  0.220048  0.500000  1
  Ir  Ir12  1  0.033129  0.263865  0.000000  1
  Ir  Ir13  1  0.736135  0.769264  0.000000  1
  Ir  Ir14  1  0.230736  0.966871  0.000000  1
  Ir  Ir15  1  0.546781  0.059113  0.000000  1
  Ir  Ir16  1  0.940887  0.487668  0.000000  1
  Ir  Ir17  1  0.512332  0.453219  0.000000  1
  Ir  Ir18  1  0.609223  0.890511  0.500000  1
  Ir  Ir19  1  0.109489  0.718710  0.500000  1
  Ir  Ir20  1  0.281290  0.390777  0.500000  1
