# generated using pymatgen
data_Tb5YTh2(CdIr)2
_symmetry_space_group_name_H-M   'P 1'
_cell_length_a   9.79214044
_cell_length_b   9.79214049
_cell_length_c   9.79078000
_cell_angle_alpha   60.00459587
_cell_angle_beta   60.00459574
_cell_angle_gamma   59.99080438
_symmetry_Int_Tables_number   1
_chemical_formula_structural   Tb5YTh2(CdIr)2
_chemical_formula_sum   'Tb10 Y2 Th4 Cd4 Ir4'
_cell_volume   663.83100626
_cell_formula_units_Z   2
loop_
 _symmetry_equiv_pos_site_id
 _symmetry_equiv_pos_as_xyz
  1  'x, y, z'
loop_
 _atom_site_type_symbol
 _atom_site_label
 _atom_site_symmetry_multiplicity
 _atom_site_fract_x
 _atom_site_fract_y
 _atom_site_fract_z
 _atom_site_occupancy
  Tb  Tb0  1  0.811842  0.188158  0.188158  1
  Tb  Tb1  1  0.188158  0.811842  0.811842  1
  Tb  Tb2  1  0.188158  0.811842  0.188158  1
  Tb  Tb3  1  0.811842  0.188158  0.811842  1
  Tb  Tb4  1  0.188102  0.188102  0.811898  1
  Tb  Tb5  1  0.811898  0.811898  0.188102  1
  Tb  Tb6  1  0.935698  0.564302  0.564302  1
  Tb  Tb7  1  0.564302  0.935698  0.935698  1
  Tb  Tb8  1  0.564302  0.935698  0.564302  1
  Tb  Tb9  1  0.935698  0.564302  0.935698  1
  Y  Y10  1  0.564282  0.564282  0.935718  1
  Y  Y11  1  0.935718  0.935718  0.564282  1
  Th  Th12  1  0.349359  0.349359  0.349367  1
  Th  Th13  1  0.349359  0.349359  0.951915  1
  Th  Th14  1  0.349367  0.951915  0.349359  1
  Th  Th15  1  0.951915  0.349367  0.349359  1
  Cd  Cd16  1  0.582694  0.582694  0.582745  1
  Cd  Cd17  1  0.582694  0.582694  0.251868  1
  Cd  Cd18  1  0.582745  0.251868  0.582694  1
  Cd  Cd19  1  0.251868  0.582745  0.582694  1
  Ir  Ir20  1  0.143536  0.143536  0.143589  1
  Ir  Ir21  1  0.143536  0.143536  0.569338  1
  Ir  Ir22  1  0.143589  0.569338  0.143536  1
  Ir  Ir23  1  0.569338  0.143589  0.143536  1
