# generated using pymatgen
data_Tm3Zn3RuAu2
_symmetry_space_group_name_H-M   'P 1'
_cell_length_a   3.79093500
_cell_length_b   7.41131333
_cell_length_c   7.41131300
_cell_angle_alpha   119.99999408
_cell_angle_beta   90.00000000
_cell_angle_gamma   90.00000000
_symmetry_Int_Tables_number   1
_chemical_formula_structural   Tm3Zn3RuAu2
_chemical_formula_sum   'Tm3 Zn3 Ru1 Au2'
_cell_volume   180.32972691
_cell_formula_units_Z   1
loop_
 _symmetry_equiv_pos_site_id
 _symmetry_equiv_pos_as_xyz
  1  'x, y, z'
loop_
 _atom_site_type_symbol
 _atom_site_label
 _atom_site_symmetry_multiplicity
 _atom_site_fract_x
 _atom_site_fract_y
 _atom_site_fract_z
 _atom_site_occupancy
  Tm  Tm0  1  0.000000  0.416312  0.390484  1
  Tm  Tm1  1  0.000000  0.974171  0.583688  1
  Tm  Tm2  1  0.000000  0.609516  0.025829  1
  Zn  Zn3  1  0.500000  0.734656  0.726437  1
  Zn  Zn4  1  0.500000  0.991781  0.265344  1
  Zn  Zn5  1  0.500000  0.273563  0.008219  1
  Ru  Ru6  1  0.500000  0.666667  0.333333  1
  Au  Au7  1  0.500000  0.333333  0.666667  1
  Au  Au8  1  0.000000  0.000000  0.000000  1
