# generated using pymatgen
data_Cs4Na2TbLuSb4
_symmetry_space_group_name_H-M   'P 1'
_cell_length_a   10.32873312
_cell_length_b   10.32873291
_cell_length_c   10.32873269
_cell_angle_alpha   136.63477065
_cell_angle_beta   62.88103182
_cell_angle_gamma   136.78991625
_symmetry_Int_Tables_number   1
_chemical_formula_structural   Cs4Na2TbLuSb4
_chemical_formula_sum   'Cs4 Na2 Tb1 Lu1 Sb4'
_cell_volume   511.57260171
_cell_formula_units_Z   1
loop_
 _symmetry_equiv_pos_site_id
 _symmetry_equiv_pos_as_xyz
  1  'x, y, z'
loop_
 _atom_site_type_symbol
 _atom_site_label
 _atom_site_symmetry_multiplicity
 _atom_site_fract_x
 _atom_site_fract_y
 _atom_site_fract_z
 _atom_site_occupancy
  Cs  Cs0  1  0.322829  0.777507  0.099449  1
  Cs  Cs1  1  0.177171  0.276621  0.454679  1
  Cs  Cs2  1  0.821943  0.722493  0.545322  1
  Cs  Cs3  1  0.678058  0.223379  0.900551  1
  Na  Na4  1  0.750000  0.250000  0.500000  1
  Na  Na5  1  0.250000  0.750000  0.500000  1
  Tb  Tb6  1  0.750000  0.750000  0.000000  1
  Lu  Lu7  1  0.250000  0.250000  0.000000  1
  Sb  Sb8  1  0.911346  0.228219  0.131278  1
  Sb  Sb9  1  0.588654  0.719932  0.316874  1
  Sb  Sb10  1  0.403059  0.271781  0.683127  1
  Sb  Sb11  1  0.096941  0.780068  0.868722  1
