# generated using pymatgen
data_Tm5(NiHg2)2
_symmetry_space_group_name_H-M   'P 1'
_cell_length_a   3.53458900
_cell_length_b   7.70879500
_cell_length_c   17.77910700
_cell_angle_alpha   90.00000000
_cell_angle_beta   90.00000000
_cell_angle_gamma   90.00000000
_symmetry_Int_Tables_number   1
_chemical_formula_structural   Tm5(NiHg2)2
_chemical_formula_sum   'Tm10 Ni4 Hg8'
_cell_volume   484.43483139
_cell_formula_units_Z   2
loop_
 _symmetry_equiv_pos_site_id
 _symmetry_equiv_pos_as_xyz
  1  'x, y, z'
loop_
 _atom_site_type_symbol
 _atom_site_label
 _atom_site_symmetry_multiplicity
 _atom_site_fract_x
 _atom_site_fract_y
 _atom_site_fract_z
 _atom_site_occupancy
  Tm  Tm0  1  0.000000  0.500000  0.500000  1
  Tm  Tm1  1  0.000000  0.000000  0.000000  1
  Tm  Tm2  1  0.000000  0.743605  0.281558  1
  Tm  Tm3  1  0.000000  0.256395  0.718442  1
  Tm  Tm4  1  0.000000  0.756395  0.781558  1
  Tm  Tm5  1  0.000000  0.243605  0.218442  1
  Tm  Tm6  1  0.000000  0.614370  0.088114  1
  Tm  Tm7  1  0.000000  0.385630  0.911886  1
  Tm  Tm8  1  0.000000  0.885630  0.588114  1
  Tm  Tm9  1  0.000000  0.114370  0.411886  1
  Ni  Ni10  1  0.500000  0.526999  0.195800  1
  Ni  Ni11  1  0.500000  0.473001  0.804200  1
  Ni  Ni12  1  0.500000  0.973001  0.695800  1
  Ni  Ni13  1  0.500000  0.026999  0.304200  1
  Hg  Hg14  1  0.500000  0.708358  0.933045  1
  Hg  Hg15  1  0.500000  0.291642  0.066955  1
  Hg  Hg16  1  0.500000  0.791642  0.433045  1
  Hg  Hg17  1  0.500000  0.208358  0.566955  1
  Hg  Hg18  1  0.500000  0.577795  0.651868  1
  Hg  Hg19  1  0.500000  0.422205  0.348132  1
  Hg  Hg20  1  0.500000  0.922205  0.151868  1
  Hg  Hg21  1  0.500000  0.077795  0.848132  1
