# generated using pymatgen
data_Np2Si5OsPt2
_symmetry_space_group_name_H-M   'P 1'
_cell_length_a   8.17786534
_cell_length_b   8.17786395
_cell_length_c   5.95880902
_cell_angle_alpha   68.68236649
_cell_angle_beta   68.68236594
_cell_angle_gamma   89.45291858
_symmetry_Int_Tables_number   1
_chemical_formula_structural   Np2Si5OsPt2
_chemical_formula_sum   'Np4 Si10 Os2 Pt4'
_cell_volume   342.37394507
_cell_formula_units_Z   2
loop_
 _symmetry_equiv_pos_site_id
 _symmetry_equiv_pos_as_xyz
  1  'x, y, z'
loop_
 _atom_site_type_symbol
 _atom_site_label
 _atom_site_symmetry_multiplicity
 _atom_site_fract_x
 _atom_site_fract_y
 _atom_site_fract_z
 _atom_site_occupancy
  Np  Np0  1  0.861914  0.602278  0.768047  1
  Np  Np1  1  0.397722  0.138086  0.731953  1
  Np  Np2  1  0.138086  0.397722  0.231953  1
  Np  Np3  1  0.602278  0.861914  0.268047  1
  Si  Si4  1  0.048085  0.255583  0.847877  1
  Si  Si5  1  0.744417  0.951915  0.652123  1
  Si  Si6  1  0.951915  0.744417  0.152123  1
  Si  Si7  1  0.255583  0.048085  0.347877  1
  Si  Si8  1  0.221950  0.778050  0.750000  1
  Si  Si9  1  0.778050  0.221950  0.250000  1
  Si  Si10  1  0.500764  0.499236  0.750000  1
  Si  Si11  1  0.499236  0.500764  0.250000  1
  Si  Si12  1  0.777717  0.222283  0.750000  1
  Si  Si13  1  0.222283  0.777717  0.250000  1
  Os  Os14  1  0.000332  0.999668  0.750000  1
  Os  Os15  1  0.999668  0.000332  0.250000  1
  Pt  Pt16  1  0.249037  0.528720  0.612100  1
  Pt  Pt17  1  0.471280  0.750963  0.887900  1
  Pt  Pt18  1  0.750963  0.471280  0.387900  1
  Pt  Pt19  1  0.528720  0.249037  0.112100  1
