# generated using pymatgen
data_Sr2Ga10Pt
_symmetry_space_group_name_H-M   'P 1'
_cell_length_a   4.45968475
_cell_length_b   4.45968120
_cell_length_c   13.93302260
_cell_angle_alpha   99.11414943
_cell_angle_beta   99.11405488
_cell_angle_gamma   90.30145055
_symmetry_Int_Tables_number   1
_chemical_formula_structural   Sr2Ga10Pt
_chemical_formula_sum   'Sr2 Ga10 Pt1'
_cell_volume   270.02679212
_cell_formula_units_Z   1
loop_
 _symmetry_equiv_pos_site_id
 _symmetry_equiv_pos_as_xyz
  1  'x, y, z'
loop_
 _atom_site_type_symbol
 _atom_site_label
 _atom_site_symmetry_multiplicity
 _atom_site_fract_x
 _atom_site_fract_y
 _atom_site_fract_z
 _atom_site_occupancy
  Sr  Sr0  1  0.646996  0.647010  0.292947  1
  Sr  Sr1  1  0.353001  0.352992  0.707051  1
  Ga  Ga2  1  0.552250  0.048356  0.101536  1
  Ga  Ga3  1  0.048354  0.552246  0.101537  1
  Ga  Ga4  1  0.102101  0.102100  0.207938  1
  Ga  Ga5  1  0.195204  0.195206  0.393958  1
  Ga  Ga6  1  0.747107  0.252892  0.500001  1
  Ga  Ga7  1  0.252895  0.747107  0.500000  1
  Ga  Ga8  1  0.804797  0.804793  0.606042  1
  Ga  Ga9  1  0.897898  0.897897  0.792061  1
  Ga  Ga10  1  0.951644  0.447752  0.898464  1
  Ga  Ga11  1  0.447751  0.951644  0.898464  1
  Pt  Pt12  1  0.499998  0.500002  0.999999  1
