# generated using pymatgen
data_Pa2Zn2IrRh
_symmetry_space_group_name_H-M   'P 1'
_cell_length_a   3.84559200
_cell_length_b   7.32927301
_cell_length_c   16.36919498
_cell_angle_alpha   89.90461630
_cell_angle_beta   90.00000000
_cell_angle_gamma   90.00000000
_symmetry_Int_Tables_number   1
_chemical_formula_structural   Pa2Zn2IrRh
_chemical_formula_sum   'Pa8 Zn8 Ir4 Rh4'
_cell_volume   461.37156537
_cell_formula_units_Z   4
loop_
 _symmetry_equiv_pos_site_id
 _symmetry_equiv_pos_as_xyz
  1  'x, y, z'
loop_
 _atom_site_type_symbol
 _atom_site_label
 _atom_site_symmetry_multiplicity
 _atom_site_fract_x
 _atom_site_fract_y
 _atom_site_fract_z
 _atom_site_occupancy
  Pa  Pa0  1  0.250000  0.169334  0.940099  1
  Pa  Pa1  1  0.250000  0.670533  0.559759  1
  Pa  Pa2  1  0.750000  0.333406  0.439927  1
  Pa  Pa3  1  0.750000  0.942271  0.284928  1
  Pa  Pa4  1  0.750000  0.830906  0.060352  1
  Pa  Pa5  1  0.750000  0.439412  0.215020  1
  Pa  Pa6  1  0.250000  0.057621  0.715688  1
  Pa  Pa7  1  0.250000  0.557570  0.784792  1
  Zn  Zn8  1  0.750000  0.005534  0.561017  1
  Zn  Zn9  1  0.250000  0.612584  0.343732  1
  Zn  Zn10  1  0.750000  0.386501  0.654745  1
  Zn  Zn11  1  0.250000  0.494304  0.061218  1
  Zn  Zn12  1  0.750000  0.506586  0.939560  1
  Zn  Zn13  1  0.250000  0.995722  0.439145  1
  Zn  Zn14  1  0.250000  0.111205  0.154695  1
  Zn  Zn15  1  0.750000  0.886289  0.845797  1
  Ir  Ir16  1  0.750000  0.737370  0.439826  1
  Ir  Ir17  1  0.250000  0.240416  0.313137  1
  Ir  Ir18  1  0.750000  0.258937  0.814302  1
  Ir  Ir19  1  0.750000  0.758697  0.687306  1
  Rh  Rh20  1  0.250000  0.263365  0.558174  1
  Rh  Rh21  1  0.250000  0.740280  0.185600  1
  Rh  Rh22  1  0.750000  0.236283  0.058445  1
  Rh  Rh23  1  0.250000  0.764872  0.942737  1
