# generated using pymatgen
data_Nd2Sc3Pt4
_symmetry_space_group_name_H-M   'P 1'
_cell_length_a   7.56293000
_cell_length_b   7.49428200
_cell_length_c   13.83132000
_cell_angle_alpha   90.00000000
_cell_angle_beta   90.00000000
_cell_angle_gamma   90.00000000
_symmetry_Int_Tables_number   1
_chemical_formula_structural   Nd2Sc3Pt4
_chemical_formula_sum   'Nd8 Sc12 Pt16'
_cell_volume   783.94165412
_cell_formula_units_Z   4
loop_
 _symmetry_equiv_pos_site_id
 _symmetry_equiv_pos_as_xyz
  1  'x, y, z'
loop_
 _atom_site_type_symbol
 _atom_site_label
 _atom_site_symmetry_multiplicity
 _atom_site_fract_x
 _atom_site_fract_y
 _atom_site_fract_z
 _atom_site_occupancy
  Nd  Nd0  1  0.009984  0.173613  0.096754  1
  Nd  Nd1  1  0.990016  0.826387  0.903246  1
  Nd  Nd2  1  0.490016  0.673613  0.903246  1
  Nd  Nd3  1  0.990016  0.826387  0.596754  1
  Nd  Nd4  1  0.509984  0.326387  0.096754  1
  Nd  Nd5  1  0.009984  0.173613  0.403246  1
  Nd  Nd6  1  0.509984  0.326387  0.403246  1
  Nd  Nd7  1  0.490016  0.673613  0.596754  1
  Sc  Sc8  1  0.164028  0.495956  0.750000  1
  Sc  Sc9  1  0.835972  0.504044  0.250000  1
  Sc  Sc10  1  0.335972  0.995956  0.250000  1
  Sc  Sc11  1  0.664028  0.004044  0.750000  1
  Sc  Sc12  1  0.332214  0.164332  0.624573  1
  Sc  Sc13  1  0.667786  0.835668  0.375427  1
  Sc  Sc14  1  0.167786  0.664332  0.375427  1
  Sc  Sc15  1  0.667786  0.835668  0.124573  1
  Sc  Sc16  1  0.832214  0.335668  0.624573  1
  Sc  Sc17  1  0.332214  0.164332  0.875427  1
  Sc  Sc18  1  0.832214  0.335668  0.875427  1
  Sc  Sc19  1  0.167786  0.664332  0.124573  1
  Pt  Pt20  1  0.032472  0.133461  0.750000  1
  Pt  Pt21  1  0.967528  0.866539  0.250000  1
  Pt  Pt22  1  0.467528  0.633461  0.250000  1
  Pt  Pt23  1  0.532472  0.366539  0.750000  1
  Pt  Pt24  1  0.293238  0.862984  0.750000  1
  Pt  Pt25  1  0.706762  0.137016  0.250000  1
  Pt  Pt26  1  0.206762  0.362984  0.250000  1
  Pt  Pt27  1  0.793238  0.637016  0.750000  1
  Pt  Pt28  1  0.167583  0.455427  0.545096  1
  Pt  Pt29  1  0.832417  0.544573  0.454904  1
  Pt  Pt30  1  0.332417  0.955427  0.454904  1
  Pt  Pt31  1  0.832417  0.544573  0.045096  1
  Pt  Pt32  1  0.667583  0.044573  0.545096  1
  Pt  Pt33  1  0.167583  0.455427  0.954904  1
  Pt  Pt34  1  0.667583  0.044573  0.954904  1
  Pt  Pt35  1  0.332417  0.955427  0.045096  1
