# generated using pymatgen
data_PrErTm2(WO6)2
_symmetry_space_group_name_H-M   'P 1'
_cell_length_a   5.42709100
_cell_length_b   7.74293388
_cell_length_c   11.49101949
_cell_angle_alpha   75.52992141
_cell_angle_beta   90.00000000
_cell_angle_gamma   90.00000000
_symmetry_Int_Tables_number   1
_chemical_formula_structural   PrErTm2(WO6)2
_chemical_formula_sum   'Pr2 Er2 Tm4 W4 O24'
_cell_volume   467.55359242
_cell_formula_units_Z   2
loop_
 _symmetry_equiv_pos_site_id
 _symmetry_equiv_pos_as_xyz
  1  'x, y, z'
loop_
 _atom_site_type_symbol
 _atom_site_label
 _atom_site_symmetry_multiplicity
 _atom_site_fract_x
 _atom_site_fract_y
 _atom_site_fract_z
 _atom_site_occupancy
  Pr  Pr0  1  0.686079  0.500000  0.750000  1
  Pr  Pr1  1  0.313921  0.500000  0.250000  1
  Er  Er2  1  0.742626  0.000000  0.750000  1
  Er  Er3  1  0.257374  0.000000  0.250000  1
  Tm  Tm4  1  0.186138  0.798368  0.577155  1
  Tm  Tm5  1  0.813862  0.798368  0.077155  1
  Tm  Tm6  1  0.186138  0.201632  0.922845  1
  Tm  Tm7  1  0.813862  0.201632  0.422845  1
  W  W8  1  0.253445  0.728570  0.884546  1
  W  W9  1  0.746555  0.728570  0.384546  1
  W  W10  1  0.253445  0.271430  0.615454  1
  W  W11  1  0.746555  0.271430  0.115454  1
  O  O12  1  0.041145  0.942876  0.896516  1
  O  O13  1  0.536026  0.845334  0.931241  1
  O  O14  1  0.958855  0.942876  0.396516  1
  O  O15  1  0.455113  0.797092  0.725918  1
  O  O16  1  0.463974  0.845334  0.431241  1
  O  O17  1  0.986902  0.722428  0.768134  1
  O  O18  1  0.544887  0.797092  0.225918  1
  O  O19  1  0.858828  0.642676  0.545902  1
  O  O20  1  0.345708  0.492459  0.888146  1
  O  O21  1  0.013098  0.722428  0.268134  1
  O  O22  1  0.345708  0.507541  0.611854  1
  O  O23  1  0.858828  0.357324  0.954098  1
  O  O24  1  0.141172  0.642676  0.045902  1
  O  O25  1  0.654292  0.492459  0.388146  1
  O  O26  1  0.986902  0.277572  0.731866  1
  O  O27  1  0.654292  0.507541  0.111854  1
  O  O28  1  0.141172  0.357324  0.454098  1
  O  O29  1  0.455113  0.202908  0.774082  1
  O  O30  1  0.013098  0.277572  0.231866  1
  O  O31  1  0.536026  0.154666  0.568759  1
  O  O32  1  0.544887  0.202908  0.274082  1
  O  O33  1  0.041145  0.057124  0.603484  1
  O  O34  1  0.463974  0.154666  0.068759  1
  O  O35  1  0.958855  0.057124  0.103484  1
