# generated using pymatgen
data_Zr4Cd(B7Ir6)2
_symmetry_space_group_name_H-M   'P 1'
_cell_length_a   3.46093943
_cell_length_b   7.87830325
_cell_length_c   13.60157709
_cell_angle_alpha   89.95427263
_cell_angle_beta   90.08053953
_cell_angle_gamma   90.11597128
_symmetry_Int_Tables_number   1
_chemical_formula_structural   Zr4Cd(B7Ir6)2
_chemical_formula_sum   'Zr4 Cd1 B14 Ir12'
_cell_volume   370.86385132
_cell_formula_units_Z   1
loop_
 _symmetry_equiv_pos_site_id
 _symmetry_equiv_pos_as_xyz
  1  'x, y, z'
loop_
 _atom_site_type_symbol
 _atom_site_label
 _atom_site_symmetry_multiplicity
 _atom_site_fract_x
 _atom_site_fract_y
 _atom_site_fract_z
 _atom_site_occupancy
  Zr  Zr0  1  0.250564  0.495978  0.836660  1
  Zr  Zr1  1  0.252512  0.001840  0.330136  1
  Zr  Zr2  1  0.747488  0.998160  0.669864  1
  Zr  Zr3  1  0.749436  0.504022  0.163340  1
  Cd  Cd4  1  0.500000  0.500000  0.500000  1
  B  B5  1  0.500000  0.000000  0.000000  1
  B  B6  1  0.000000  0.000000  0.000000  1
  B  B7  1  0.744412  0.326214  0.730235  1
  B  B8  1  0.750944  0.831481  0.217280  1
  B  B9  1  0.749556  0.754879  0.806602  1
  B  B10  1  0.746487  0.246546  0.297642  1
  B  B11  1  0.751183  0.423667  0.974796  1
  B  B12  1  0.742538  0.916991  0.472999  1
  B  B13  1  0.249056  0.168519  0.782720  1
  B  B14  1  0.255588  0.673786  0.269765  1
  B  B15  1  0.253513  0.753454  0.702358  1
  B  B16  1  0.250444  0.245121  0.193398  1
  B  B17  1  0.257462  0.083009  0.527001  1
  B  B18  1  0.248817  0.576333  0.025204  1
  Ir  Ir19  1  0.755848  0.595954  0.682606  1
  Ir  Ir20  1  0.749879  0.089104  0.159287  1
  Ir  Ir21  1  0.749375  0.702020  0.962991  1
  Ir  Ir22  1  0.761598  0.188171  0.457101  1
  Ir  Ir23  1  0.749960  0.201150  0.877305  1
  Ir  Ir24  1  0.758064  0.717505  0.358395  1
  Ir  Ir25  1  0.250121  0.910896  0.840713  1
  Ir  Ir26  1  0.244152  0.404046  0.317394  1
  Ir  Ir27  1  0.238402  0.811829  0.542899  1
  Ir  Ir28  1  0.250625  0.297980  0.037009  1
  Ir  Ir29  1  0.241936  0.282495  0.641605  1
  Ir  Ir30  1  0.250040  0.798850  0.122695  1
