# generated using pymatgen
data_K5Rb3Fe8P8(O4F)8
_symmetry_space_group_name_H-M   'P 1'
_cell_length_a   6.44680100
_cell_length_b   10.80440100
_cell_length_c   13.05242200
_cell_angle_alpha   90.00000000
_cell_angle_beta   90.00000000
_cell_angle_gamma   90.00000000
_symmetry_Int_Tables_number   1
_chemical_formula_structural   K5Rb3Fe8P8(O4F)8
_chemical_formula_sum   'K5 Rb3 Fe8 P8 O32 F8'
_cell_volume   909.15109394
_cell_formula_units_Z   1
loop_
 _symmetry_equiv_pos_site_id
 _symmetry_equiv_pos_as_xyz
  1  'x, y, z'
loop_
 _atom_site_type_symbol
 _atom_site_label
 _atom_site_symmetry_multiplicity
 _atom_site_fract_x
 _atom_site_fract_y
 _atom_site_fract_z
 _atom_site_occupancy
  K  K0  1  0.197793  0.942381  0.394802  1
  K  K1  1  0.697133  0.443257  0.105045  1
  K  K2  1  0.272392  0.702841  0.124835  1
  K  K3  1  0.727493  0.203662  0.875742  1
  K  K4  1  0.227450  0.703456  0.624281  1
  Rb  Rb5  1  0.776665  0.195367  0.379903  1
  Rb  Rb6  1  0.316840  0.940943  0.896196  1
  Rb  Rb7  1  0.817057  0.441698  0.603932  1
  Fe  Fe8  1  0.750780  0.748759  0.253143  1
  Fe  Fe9  1  0.249812  0.248061  0.747369  1
  Fe  Fe10  1  0.750410  0.747669  0.752815  1
  Fe  Fe11  1  0.252285  0.249705  0.245830  1
  Fe  Fe12  1  0.491267  0.499782  0.388063  1
  Fe  Fe13  1  0.506199  0.998659  0.611098  1
  Fe  Fe14  1  0.007034  0.499326  0.889973  1
  Fe  Fe15  1  0.991554  0.998892  0.111244  1
  P  P16  1  0.997908  0.497475  0.315837  1
  P  P17  1  0.496724  0.995480  0.182848  1
  P  P18  1  0.500844  0.496698  0.818110  1
  P  P19  1  0.000460  0.996525  0.682046  1
  P  P20  1  0.169482  0.248217  0.000171  1
  P  P21  1  0.828224  0.746735  0.000670  1
  P  P22  1  0.327994  0.248377  0.500420  1
  P  P23  1  0.669518  0.748217  0.499515  1
  O  O24  1  0.306357  0.966715  0.114174  1
  O  O25  1  0.810322  0.024285  0.613612  1
  O  O26  1  0.310621  0.524275  0.886420  1
  O  O27  1  0.687678  0.023515  0.115092  1
  O  O28  1  0.037301  0.382362  0.246056  1
  O  O29  1  0.960660  0.882013  0.752396  1
  O  O30  1  0.461304  0.381950  0.747860  1
  O  O31  1  0.536867  0.881417  0.253775  1
  O  O32  1  0.518687  0.859747  0.512830  1
  O  O33  1  0.476755  0.360376  0.486091  1
  O  O34  1  0.977143  0.858453  0.015790  1
  O  O35  1  0.018211  0.359499  0.987085  1
  O  O36  1  0.805353  0.471619  0.383857  1
  O  O37  1  0.191417  0.968385  0.613327  1
  O  O38  1  0.692016  0.469246  0.886904  1
  O  O39  1  0.187605  0.524296  0.384796  1
  O  O40  1  0.527794  0.631985  0.488026  1
  O  O41  1  0.466369  0.131258  0.513902  1
  O  O42  1  0.970949  0.630870  0.989687  1
  O  O43  1  0.448904  0.106625  0.254879  1
  O  O44  1  0.807666  0.767541  0.404089  1
  O  O45  1  0.189309  0.267957  0.595624  1
  O  O46  1  0.693727  0.766191  0.904088  1
  O  O47  1  0.308347  0.267868  0.095223  1
  O  O48  1  0.690667  0.727712  0.096743  1
  O  O49  1  0.305646  0.230074  0.903445  1
  O  O50  1  0.805668  0.730022  0.596250  1
  O  O51  1  0.197796  0.228722  0.402177  1
  O  O52  1  0.954090  0.608721  0.242998  1
  O  O53  1  0.046060  0.107976  0.754427  1
  O  O54  1  0.546078  0.608051  0.745562  1
  O  O55  1  0.028397  0.131628  0.011512  1
  F  F56  1  0.980045  0.868980  0.228164  1
  F  F57  1  0.022187  0.366987  0.776817  1
  F  F58  1  0.522084  0.866548  0.723771  1
  F  F59  1  0.479520  0.370474  0.271310  1
  F  F60  1  0.030798  0.119691  0.227408  1
  F  F61  1  0.975764  0.620171  0.770363  1
  F  F62  1  0.475309  0.120186  0.730264  1
  F  F63  1  0.525215  0.620632  0.269317  1
