# generated using pymatgen
data_Tb3Y13Cd4Os3Pd
_symmetry_space_group_name_H-M   'P 1'
_cell_length_a   9.67458885
_cell_length_b   9.78244589
_cell_length_c   9.78209134
_cell_angle_alpha   59.65598280
_cell_angle_beta   59.27262231
_cell_angle_gamma   59.27305770
_symmetry_Int_Tables_number   1
_chemical_formula_structural   Tb3Y13Cd4Os3Pd
_chemical_formula_sum   'Tb3 Y13 Cd4 Os3 Pd1'
_cell_volume   645.68157073
_cell_formula_units_Z   1
loop_
 _symmetry_equiv_pos_site_id
 _symmetry_equiv_pos_as_xyz
  1  'x, y, z'
loop_
 _atom_site_type_symbol
 _atom_site_label
 _atom_site_symmetry_multiplicity
 _atom_site_fract_x
 _atom_site_fract_y
 _atom_site_fract_z
 _atom_site_occupancy
  Tb  Tb0  1  0.347970  0.351330  0.351397  1
  Tb  Tb1  1  0.346081  0.351875  0.953527  1
  Tb  Tb2  1  0.346049  0.953556  0.351913  1
  Y  Y3  1  0.965837  0.344690  0.344708  1
  Y  Y4  1  0.814868  0.190113  0.190102  1
  Y  Y5  1  0.183273  0.810809  0.810816  1
  Y  Y6  1  0.186513  0.811084  0.191005  1
  Y  Y7  1  0.814513  0.189920  0.802757  1
  Y  Y8  1  0.186506  0.191010  0.811089  1
  Y  Y9  1  0.814532  0.802771  0.189892  1
  Y  Y10  1  0.938137  0.559954  0.559906  1
  Y  Y11  1  0.554447  0.939648  0.939642  1
  Y  Y12  1  0.553288  0.939657  0.567292  1
  Y  Y13  1  0.936088  0.560807  0.939135  1
  Y  Y14  1  0.553244  0.567293  0.939677  1
  Y  Y15  1  0.936080  0.939152  0.560785  1
  Cd  Cd16  1  0.580548  0.579352  0.579331  1
  Cd  Cd17  1  0.580889  0.579537  0.258998  1
  Cd  Cd18  1  0.580907  0.258986  0.579526  1
  Cd  Cd19  1  0.256048  0.581398  0.581364  1
  Os  Os20  1  0.148491  0.137601  0.137600  1
  Os  Os21  1  0.149802  0.139795  0.577314  1
  Os  Os22  1  0.149829  0.577276  0.139812  1
  Pd  Pd23  1  0.576059  0.142384  0.142412  1
