# generated using pymatgen
data_Er4ThGa2Ru3
_symmetry_space_group_name_H-M   'P 1'
_cell_length_a   8.30487976
_cell_length_b   8.29828056
_cell_length_c   8.30042700
_cell_angle_alpha   109.24808044
_cell_angle_beta   109.81743997
_cell_angle_gamma   109.41449586
_symmetry_Int_Tables_number   1
_chemical_formula_structural   Er4ThGa2Ru3
_chemical_formula_sum   'Er8 Th2 Ga4 Ru6'
_cell_volume   439.98243838
_cell_formula_units_Z   2
loop_
 _symmetry_equiv_pos_site_id
 _symmetry_equiv_pos_as_xyz
  1  'x, y, z'
loop_
 _atom_site_type_symbol
 _atom_site_label
 _atom_site_symmetry_multiplicity
 _atom_site_fract_x
 _atom_site_fract_y
 _atom_site_fract_z
 _atom_site_occupancy
  Er  Er0  1  0.777027  0.779393  0.775567  1
  Er  Er1  1  0.317501  0.567806  0.751871  1
  Er  Er2  1  0.749928  0.317418  0.569427  1
  Er  Er3  1  0.567656  0.747438  0.315110  1
  Er  Er4  1  0.716315  0.499799  0.997728  1
  Er  Er5  1  0.998473  0.720828  0.503565  1
  Er  Er6  1  0.499878  0.995781  0.718490  1
  Er  Er7  1  0.251545  0.184349  0.930763  1
  Th  Th8  1  0.942046  0.252812  0.194002  1
  Th  Th9  1  0.191635  0.939869  0.249515  1
  Ga  Ga10  1  0.418620  0.415726  0.412625  1
  Ga  Ga11  1  0.092527  0.494794  0.993919  1
  Ga  Ga12  1  0.996608  0.091201  0.506500  1
  Ga  Ga13  1  0.499791  0.002032  0.089568  1
  Ru  Ru14  1  0.869259  0.119424  0.751189  1
  Ru  Ru15  1  0.754593  0.883193  0.120573  1
  Ru  Ru16  1  0.121669  0.754380  0.884897  1
  Ru  Ru17  1  0.237610  0.617830  0.370805  1
  Ru  Ru18  1  0.367638  0.236813  0.613955  1
  Ru  Ru19  1  0.629685  0.379115  0.249933  1
