# generated using pymatgen
data_TbErU8(Re3C8)2
_symmetry_space_group_name_H-M   'P 1'
_cell_length_a   11.35878301
_cell_length_b   11.35878301
_cell_length_c   3.26937900
_cell_angle_alpha   90.00000000
_cell_angle_beta   90.00000000
_cell_angle_gamma   89.99655987
_symmetry_Int_Tables_number   1
_chemical_formula_structural   TbErU8(Re3C8)2
_chemical_formula_sum   'Tb1 Er1 U8 Re6 C16'
_cell_volume   421.82165755
_cell_formula_units_Z   1
loop_
 _symmetry_equiv_pos_site_id
 _symmetry_equiv_pos_as_xyz
  1  'x, y, z'
loop_
 _atom_site_type_symbol
 _atom_site_label
 _atom_site_symmetry_multiplicity
 _atom_site_fract_x
 _atom_site_fract_y
 _atom_site_fract_z
 _atom_site_occupancy
  Tb  Tb0  1  0.500000  0.000000  0.000000  1
  Er  Er1  1  0.000000  0.500000  0.000000  1
  U  U2  1  0.270480  0.541913  0.500000  1
  U  U3  1  0.729520  0.458087  0.500000  1
  U  U4  1  0.542182  0.728240  0.500000  1
  U  U5  1  0.771760  0.957818  0.500000  1
  U  U6  1  0.228240  0.042182  0.500000  1
  U  U7  1  0.958087  0.229520  0.500000  1
  U  U8  1  0.457818  0.271760  0.500000  1
  U  U9  1  0.041913  0.770480  0.500000  1
  Re  Re10  1  0.202447  0.297553  0.000000  1
  Re  Re11  1  0.703987  0.203987  0.000000  1
  Re  Re12  1  0.296013  0.796013  0.000000  1
  Re  Re13  1  0.500000  0.500000  0.000000  1
  Re  Re14  1  0.797553  0.702447  0.000000  1
  Re  Re15  1  0.000000  0.000000  0.000000  1
  C  C16  1  0.346882  0.403141  0.000000  1
  C  C17  1  0.620059  0.120059  0.500000  1
  C  C18  1  0.903141  0.846882  0.000000  1
  C  C19  1  0.656415  0.843585  0.000000  1
  C  C20  1  0.343585  0.156415  0.000000  1
  C  C21  1  0.117840  0.382160  0.500000  1
  C  C22  1  0.152422  0.902450  0.000000  1
  C  C23  1  0.845536  0.345536  0.000000  1
  C  C24  1  0.653118  0.596859  0.000000  1
  C  C25  1  0.597550  0.347578  0.000000  1
  C  C26  1  0.882160  0.617840  0.500000  1
  C  C27  1  0.847578  0.097550  0.000000  1
  C  C28  1  0.379941  0.879941  0.500000  1
  C  C29  1  0.154464  0.654464  0.000000  1
  C  C30  1  0.096859  0.153118  0.000000  1
  C  C31  1  0.402450  0.652422  0.000000  1
