# generated using pymatgen
data_MnNbB3(RuW)2
_symmetry_space_group_name_H-M   'P 1'
_cell_length_a   3.07195700
_cell_length_b   6.31818500
_cell_length_c   10.74406900
_cell_angle_alpha   90.00000000
_cell_angle_beta   90.00000000
_cell_angle_gamma   90.00000000
_symmetry_Int_Tables_number   1
_chemical_formula_structural   MnNbB3(RuW)2
_chemical_formula_sum   'Mn2 Nb2 B6 Ru4 W4'
_cell_volume   208.53370494
_cell_formula_units_Z   2
loop_
 _symmetry_equiv_pos_site_id
 _symmetry_equiv_pos_as_xyz
  1  'x, y, z'
loop_
 _atom_site_type_symbol
 _atom_site_label
 _atom_site_symmetry_multiplicity
 _atom_site_fract_x
 _atom_site_fract_y
 _atom_site_fract_z
 _atom_site_occupancy
  Mn  Mn0  1  0.500000  0.694978  0.250000  1
  Mn  Mn1  1  0.500000  0.305022  0.750000  1
  Nb  Nb2  1  0.000000  0.358348  0.250000  1
  Nb  Nb3  1  0.000000  0.641652  0.750000  1
  B  B4  1  0.000000  0.925740  0.250000  1
  B  B5  1  0.000000  0.074260  0.750000  1
  B  B6  1  0.500000  0.450261  0.082708  1
  B  B7  1  0.500000  0.549739  0.917292  1
  B  B8  1  0.500000  0.450261  0.417292  1
  B  B9  1  0.500000  0.549739  0.582708  1
  Ru  Ru10  1  0.500000  0.062787  0.121785  1
  Ru  Ru11  1  0.500000  0.937213  0.878215  1
  Ru  Ru12  1  0.500000  0.062787  0.378215  1
  Ru  Ru13  1  0.500000  0.937213  0.621785  1
  W  W14  1  0.000000  0.287187  0.952863  1
  W  W15  1  0.000000  0.712813  0.047137  1
  W  W16  1  0.000000  0.287187  0.547137  1
  W  W17  1  0.000000  0.712813  0.452863  1
