# generated using pymatgen
data_Tb7Er(ThRh)6
_symmetry_space_group_name_H-M   'P 1'
_cell_length_a   9.89952100
_cell_length_b   9.79372758
_cell_length_c   6.36743714
_cell_angle_alpha   90.15865596
_cell_angle_beta   90.00000000
_cell_angle_gamma   120.35799077
_symmetry_Int_Tables_number   1
_chemical_formula_structural   Tb7Er(ThRh)6
_chemical_formula_sum   'Tb7 Er1 Th6 Rh6'
_cell_volume   532.69335437
_cell_formula_units_Z   1
loop_
 _symmetry_equiv_pos_site_id
 _symmetry_equiv_pos_as_xyz
  1  'x, y, z'
loop_
 _atom_site_type_symbol
 _atom_site_label
 _atom_site_symmetry_multiplicity
 _atom_site_fract_x
 _atom_site_fract_y
 _atom_site_fract_z
 _atom_site_occupancy
  Tb  Tb0  1  0.873365  0.746732  0.740864  1
  Tb  Tb1  1  0.538549  0.462718  0.445490  1
  Tb  Tb2  1  0.924170  0.462718  0.445490  1
  Tb  Tb3  1  0.538461  0.076922  0.445667  1
  Tb  Tb4  1  0.461718  0.540056  0.940554  1
  Tb  Tb5  1  0.078338  0.540056  0.940554  1
  Tb  Tb6  1  0.461341  0.922682  0.941637  1
  Er  Er7  1  0.333026  0.666052  0.460480  1
  Th  Th8  1  0.666672  0.333342  0.961440  1
  Th  Th9  1  0.127064  0.869946  0.245400  1
  Th  Th10  1  0.742882  0.869946  0.245400  1
  Th  Th11  1  0.128400  0.256801  0.243761  1
  Th  Th12  1  0.870116  0.124605  0.740022  1
  Th  Th13  1  0.254489  0.124605  0.740022  1
  Rh  Rh14  1  0.813533  0.184836  0.190865  1
  Rh  Rh15  1  0.371304  0.184836  0.190865  1
  Rh  Rh16  1  0.814008  0.628014  0.196457  1
  Rh  Rh17  1  0.192772  0.819066  0.688403  1
  Rh  Rh18  1  0.626294  0.819066  0.688403  1
  Rh  Rh19  1  0.183500  0.367000  0.694790  1
