# generated using pymatgen
data_La3LuHgAu4
_symmetry_space_group_name_H-M   'P 1'
_cell_length_a   8.40731642
_cell_length_b   8.40731603
_cell_length_c   8.40731600
_cell_angle_alpha   65.51440974
_cell_angle_beta   65.51441093
_cell_angle_gamma   65.51438592
_symmetry_Int_Tables_number   1
_chemical_formula_structural   La3LuHgAu4
_chemical_formula_sum   'La6 Lu2 Hg2 Au8'
_cell_volume   470.56951944
_cell_formula_units_Z   2
loop_
 _symmetry_equiv_pos_site_id
 _symmetry_equiv_pos_as_xyz
  1  'x, y, z'
loop_
 _atom_site_type_symbol
 _atom_site_label
 _atom_site_symmetry_multiplicity
 _atom_site_fract_x
 _atom_site_fract_y
 _atom_site_fract_z
 _atom_site_occupancy
  La  La0  1  0.892911  0.189064  0.613257  1
  La  La1  1  0.613257  0.892911  0.189064  1
  La  La2  1  0.189064  0.613257  0.892911  1
  La  La3  1  0.107089  0.810936  0.386743  1
  La  La4  1  0.386743  0.107089  0.810936  1
  La  La5  1  0.810936  0.386743  0.107089  1
  Lu  Lu6  1  0.660399  0.660399  0.660399  1
  Lu  Lu7  1  0.339601  0.339601  0.339601  1
  Hg  Hg8  1  0.000000  0.000000  0.000000  1
  Hg  Hg9  1  0.500000  0.500000  0.500000  1
  Au  Au10  1  0.803325  0.803325  0.803325  1
  Au  Au11  1  0.196675  0.196675  0.196675  1
  Au  Au12  1  0.939151  0.549796  0.325049  1
  Au  Au13  1  0.325049  0.939151  0.549796  1
  Au  Au14  1  0.549796  0.325049  0.939151  1
  Au  Au15  1  0.060849  0.450204  0.674951  1
  Au  Au16  1  0.674951  0.060849  0.450204  1
  Au  Au17  1  0.450204  0.674951  0.060849  1
