# generated using pymatgen
data_Nd2Dy2Sn10(PtRh)3
_symmetry_space_group_name_H-M   'P 1'
_cell_length_a   13.64625715
_cell_length_b   13.64625696
_cell_length_c   7.42064559
_cell_angle_alpha   89.92571477
_cell_angle_beta   90.07428614
_cell_angle_gamma   161.21139012
_symmetry_Int_Tables_number   1
_chemical_formula_structural   Nd2Dy2Sn10(PtRh)3
_chemical_formula_sum   'Nd2 Dy2 Sn10 Pt3 Rh3'
_cell_volume   445.07048726
_cell_formula_units_Z   1
loop_
 _symmetry_equiv_pos_site_id
 _symmetry_equiv_pos_as_xyz
  1  'x, y, z'
loop_
 _atom_site_type_symbol
 _atom_site_label
 _atom_site_symmetry_multiplicity
 _atom_site_fract_x
 _atom_site_fract_y
 _atom_site_fract_z
 _atom_site_occupancy
  Nd  Nd0  1  0.174813  0.825187  0.750497  1
  Nd  Nd1  1  0.826921  0.173079  0.249941  1
  Dy  Dy2  1  0.476217  0.523783  0.738330  1
  Dy  Dy3  1  0.524034  0.475966  0.237754  1
  Sn  Sn4  1  0.881429  0.118571  0.724266  1
  Sn  Sn5  1  0.119887  0.880113  0.227451  1
  Sn  Sn6  1  0.701032  0.298968  0.054002  1
  Sn  Sn7  1  0.297154  0.702846  0.544095  1
  Sn  Sn8  1  0.596981  0.403019  0.619607  1
  Sn  Sn9  1  0.403100  0.596900  0.119227  1
  Sn  Sn10  1  0.952308  0.047692  0.397588  1
  Sn  Sn11  1  0.048020  0.951980  0.897994  1
  Sn  Sn12  1  0.288960  0.711040  0.981276  1
  Sn  Sn13  1  0.709432  0.290568  0.470287  1
  Pt  Pt14  1  0.049395  0.950605  0.514263  1
  Pt  Pt15  1  0.950833  0.049167  0.014434  1
  Pt  Pt16  1  0.777526  0.222474  0.770553  1
  Rh  Rh17  1  0.222682  0.777318  0.269851  1
  Rh  Rh18  1  0.397126  0.602874  0.488279  1
  Rh  Rh19  1  0.602149  0.397851  0.986302  1
