# generated using pymatgen
data_LaNd2(ZnPd)4
_symmetry_space_group_name_H-M   'P 1'
_cell_length_a   8.38746085
_cell_length_b   8.38746079
_cell_length_c   8.38746068
_cell_angle_alpha   151.01240867
_cell_angle_beta   127.42788591
_cell_angle_gamma   61.15203625
_symmetry_Int_Tables_number   1
_chemical_formula_structural   LaNd2(ZnPd)4
_chemical_formula_sum   'La1 Nd2 Zn4 Pd4'
_cell_volume   225.22122926
_cell_formula_units_Z   1
loop_
 _symmetry_equiv_pos_site_id
 _symmetry_equiv_pos_as_xyz
  1  'x, y, z'
loop_
 _atom_site_type_symbol
 _atom_site_label
 _atom_site_symmetry_multiplicity
 _atom_site_fract_x
 _atom_site_fract_y
 _atom_site_fract_z
 _atom_site_occupancy
  La  La0  1  0.500000  0.000000  0.500000  1
  Nd  Nd1  1  0.870442  0.870442  0.000000  1
  Nd  Nd2  1  0.129558  0.129558  0.000000  1
  Zn  Zn3  1  0.480064  0.673126  0.806938  1
  Zn  Zn4  1  0.866188  0.673126  0.193062  1
  Zn  Zn5  1  0.133812  0.326874  0.806938  1
  Zn  Zn6  1  0.519936  0.326874  0.193062  1
  Pd  Pd7  1  0.283513  0.783513  0.500000  1
  Pd  Pd8  1  0.716487  0.216487  0.500000  1
  Pd  Pd9  1  0.804891  0.500000  0.304891  1
  Pd  Pd10  1  0.195109  0.500000  0.695109  1
