# generated using pymatgen
data_Ho8Ti11Si16Mo
_symmetry_space_group_name_H-M   'P 1'
_cell_length_a   7.03119363
_cell_length_b   7.03119302
_cell_length_c   12.92361413
_cell_angle_alpha   89.96925332
_cell_angle_beta   90.03074601
_cell_angle_gamma   90.00972846
_symmetry_Int_Tables_number   1
_chemical_formula_structural   Ho8Ti11Si16Mo
_chemical_formula_sum   'Ho8 Ti11 Si16 Mo1'
_cell_volume   638.91330194
_cell_formula_units_Z   1
loop_
 _symmetry_equiv_pos_site_id
 _symmetry_equiv_pos_as_xyz
  1  'x, y, z'
loop_
 _atom_site_type_symbol
 _atom_site_label
 _atom_site_symmetry_multiplicity
 _atom_site_fract_x
 _atom_site_fract_y
 _atom_site_fract_z
 _atom_site_occupancy
  Ho  Ho0  1  0.340899  0.003028  0.466908  1
  Ho  Ho1  1  0.497118  0.840541  0.717184  1
  Ho  Ho2  1  0.501529  0.159331  0.215721  1
  Ho  Ho3  1  0.840541  0.497118  0.282816  1
  Ho  Ho4  1  0.159331  0.501529  0.784279  1
  Ho  Ho5  1  0.657948  0.998302  0.966988  1
  Ho  Ho6  1  0.003028  0.340899  0.533092  1
  Ho  Ho7  1  0.998302  0.657948  0.033012  1
  Ti  Ti8  1  0.173827  0.827293  0.249653  1
  Ti  Ti9  1  0.827293  0.173827  0.750347  1
  Ti  Ti10  1  0.673010  0.673010  0.500000  1
  Ti  Ti11  1  0.153167  0.008712  0.876395  1
  Ti  Ti12  1  0.492032  0.650969  0.124547  1
  Ti  Ti13  1  0.507136  0.348876  0.626159  1
  Ti  Ti14  1  0.650969  0.492032  0.875453  1
  Ti  Ti15  1  0.348876  0.507136  0.373841  1
  Ti  Ti16  1  0.848493  0.992566  0.375764  1
  Ti  Ti17  1  0.008712  0.153167  0.123605  1
  Ti  Ti18  1  0.992566  0.848493  0.624236  1
  Si  Si19  1  0.202448  0.131027  0.684285  1
  Si  Si20  1  0.369307  0.701272  0.934255  1
  Si  Si21  1  0.630944  0.297271  0.434208  1
  Si  Si22  1  0.701272  0.369307  0.065745  1
  Si  Si23  1  0.297271  0.630944  0.565792  1
  Si  Si24  1  0.797324  0.868970  0.184332  1
  Si  Si25  1  0.131027  0.202448  0.315715  1
  Si  Si26  1  0.868970  0.797324  0.815668  1
  Si  Si27  1  0.290996  0.953876  0.064805  1
  Si  Si28  1  0.546666  0.791472  0.314966  1
  Si  Si29  1  0.452525  0.208481  0.815406  1
  Si  Si30  1  0.791472  0.546666  0.685034  1
  Si  Si31  1  0.208481  0.452525  0.184594  1
  Si  Si32  1  0.708819  0.047279  0.564866  1
  Si  Si33  1  0.953876  0.290996  0.935195  1
  Si  Si34  1  0.047279  0.708819  0.435134  1
  Mo  Mo35  1  0.326544  0.326544  0.000000  1
