# generated using pymatgen
data_KEu2(H6Ir)2
_symmetry_space_group_name_H-M   'P 1'
_cell_length_a   5.18831700
_cell_length_b   5.18831733
_cell_length_c   8.25287100
_cell_angle_alpha   90.00000000
_cell_angle_beta   90.00000000
_cell_angle_gamma   119.99999149
_symmetry_Int_Tables_number   1
_chemical_formula_structural   KEu2(H6Ir)2
_chemical_formula_sum   'K1 Eu2 H12 Ir2'
_cell_volume   192.39277549
_cell_formula_units_Z   1
loop_
 _symmetry_equiv_pos_site_id
 _symmetry_equiv_pos_as_xyz
  1  'x, y, z'
loop_
 _atom_site_type_symbol
 _atom_site_label
 _atom_site_symmetry_multiplicity
 _atom_site_fract_x
 _atom_site_fract_y
 _atom_site_fract_z
 _atom_site_occupancy
  K  K0  1  0.000000  0.000000  0.000000  1
  Eu  Eu1  1  0.666667  0.333333  0.352771  1
  Eu  Eu2  1  0.333333  0.666667  0.647229  1
  H  H3  1  0.171682  0.828318  0.368271  1
  H  H4  1  0.656636  0.828318  0.368271  1
  H  H5  1  0.171682  0.343364  0.368271  1
  H  H6  1  0.828318  0.171682  0.631729  1
  H  H7  1  0.343364  0.171682  0.631729  1
  H  H8  1  0.828318  0.656636  0.631729  1
  H  H9  1  0.522630  0.045259  0.864720  1
  H  H10  1  0.522630  0.477370  0.864720  1
  H  H11  1  0.954741  0.477370  0.864720  1
  H  H12  1  0.477370  0.954741  0.135280  1
  H  H13  1  0.477370  0.522630  0.135280  1
  H  H14  1  0.045259  0.522630  0.135280  1
  Ir  Ir15  1  0.666667  0.333333  0.738542  1
  Ir  Ir16  1  0.333333  0.666667  0.261458  1
