# generated using pymatgen
data_Tb6Ho10Cd4Os3Pt
_symmetry_space_group_name_H-M   'P 1'
_cell_length_a   9.57833924
_cell_length_b   9.72982752
_cell_length_c   9.72982900
_cell_angle_alpha   59.99999837
_cell_angle_beta   59.47542495
_cell_angle_gamma   59.47542902
_symmetry_Int_Tables_number   1
_chemical_formula_structural   Tb6Ho10Cd4Os3Pt
_chemical_formula_sum   'Tb6 Ho10 Cd4 Os3 Pt1'
_cell_volume   636.05721004
_cell_formula_units_Z   1
loop_
 _symmetry_equiv_pos_site_id
 _symmetry_equiv_pos_as_xyz
  1  'x, y, z'
loop_
 _atom_site_type_symbol
 _atom_site_label
 _atom_site_symmetry_multiplicity
 _atom_site_fract_x
 _atom_site_fract_y
 _atom_site_fract_z
 _atom_site_occupancy
  Tb  Tb0  1  0.935115  0.562461  0.562461  1
  Tb  Tb1  1  0.554510  0.940096  0.940096  1
  Tb  Tb2  1  0.554510  0.940096  0.565300  1
  Tb  Tb3  1  0.935115  0.562461  0.939964  1
  Tb  Tb4  1  0.554510  0.565300  0.940096  1
  Tb  Tb5  1  0.935115  0.939964  0.562461  1
  Ho  Ho6  1  0.345756  0.350373  0.350373  1
  Ho  Ho7  1  0.345756  0.350373  0.953497  1
  Ho  Ho8  1  0.345756  0.953497  0.350373  1
  Ho  Ho9  1  0.970171  0.343276  0.343276  1
  Ho  Ho10  1  0.814825  0.189396  0.189396  1
  Ho  Ho11  1  0.186135  0.811077  0.811077  1
  Ho  Ho12  1  0.186135  0.811077  0.191711  1
  Ho  Ho13  1  0.814825  0.189396  0.806383  1
  Ho  Ho14  1  0.186135  0.191711  0.811077  1
  Ho  Ho15  1  0.814825  0.806383  0.189396  1
  Cd  Cd16  1  0.580470  0.578972  0.578972  1
  Cd  Cd17  1  0.580470  0.578972  0.261586  1
  Cd  Cd18  1  0.580470  0.261586  0.578972  1
  Cd  Cd19  1  0.256780  0.581073  0.581073  1
  Os  Os20  1  0.148887  0.136306  0.136306  1
  Os  Os21  1  0.148887  0.136306  0.578502  1
  Os  Os22  1  0.148887  0.578502  0.136306  1
  Pt  Pt23  1  0.575958  0.141348  0.141348  1
