# generated using pymatgen
data_La4Pr12Mg3AlIr4
_symmetry_space_group_name_H-M   'P 1'
_cell_length_a   10.08589583
_cell_length_b   10.08589664
_cell_length_c   10.08589595
_cell_angle_alpha   59.97670499
_cell_angle_beta   59.97669582
_cell_angle_gamma   59.97670426
_symmetry_Int_Tables_number   1
_chemical_formula_structural   La4Pr12Mg3AlIr4
_chemical_formula_sum   'La4 Pr12 Mg3 Al1 Ir4'
_cell_volume   725.10178650
_cell_formula_units_Z   1
loop_
 _symmetry_equiv_pos_site_id
 _symmetry_equiv_pos_as_xyz
  1  'x, y, z'
loop_
 _atom_site_type_symbol
 _atom_site_label
 _atom_site_symmetry_multiplicity
 _atom_site_fract_x
 _atom_site_fract_y
 _atom_site_fract_z
 _atom_site_occupancy
  La  La0  1  0.345509  0.345509  0.345509  1
  La  La1  1  0.348638  0.348638  0.957886  1
  La  La2  1  0.348638  0.957886  0.348638  1
  La  La3  1  0.957886  0.348638  0.348638  1
  Pr  Pr4  1  0.812055  0.187475  0.187475  1
  Pr  Pr5  1  0.191175  0.807667  0.807667  1
  Pr  Pr6  1  0.187475  0.812055  0.187475  1
  Pr  Pr7  1  0.807667  0.191175  0.807667  1
  Pr  Pr8  1  0.187475  0.187475  0.812055  1
  Pr  Pr9  1  0.807667  0.807667  0.191175  1
  Pr  Pr10  1  0.936469  0.562149  0.562149  1
  Pr  Pr11  1  0.560473  0.938197  0.938197  1
  Pr  Pr12  1  0.562149  0.936469  0.562149  1
  Pr  Pr13  1  0.938197  0.560473  0.938197  1
  Pr  Pr14  1  0.562149  0.562149  0.936469  1
  Pr  Pr15  1  0.938197  0.938197  0.560473  1
  Mg  Mg16  1  0.578415  0.578415  0.268198  1
  Mg  Mg17  1  0.578415  0.268198  0.578415  1
  Mg  Mg18  1  0.268198  0.578415  0.578415  1
  Al  Al19  1  0.581553  0.581553  0.581553  1
  Ir  Ir20  1  0.142437  0.142437  0.142437  1
  Ir  Ir21  1  0.142652  0.142652  0.573861  1
  Ir  Ir22  1  0.142652  0.573861  0.142652  1
  Ir  Ir23  1  0.573861  0.142652  0.142652  1
