# generated using pymatgen
data_Tb4CeMn2O12
_symmetry_space_group_name_H-M   'P 1'
_cell_length_a   6.84587225
_cell_length_b   6.84587258
_cell_length_c   7.26845375
_cell_angle_alpha   74.48265453
_cell_angle_beta   74.48265686
_cell_angle_gamma   50.25642906
_symmetry_Int_Tables_number   1
_chemical_formula_structural   Tb4CeMn2O12
_chemical_formula_sum   'Tb4 Ce1 Mn2 O12'
_cell_volume   250.22860394
_cell_formula_units_Z   1
loop_
 _symmetry_equiv_pos_site_id
 _symmetry_equiv_pos_as_xyz
  1  'x, y, z'
loop_
 _atom_site_type_symbol
 _atom_site_label
 _atom_site_symmetry_multiplicity
 _atom_site_fract_x
 _atom_site_fract_y
 _atom_site_fract_z
 _atom_site_occupancy
  Tb  Tb0  1  0.695368  0.695368  0.146764  1
  Tb  Tb1  1  0.996440  0.996440  0.000939  1
  Tb  Tb2  1  0.305906  0.305906  0.856678  1
  Tb  Tb3  1  0.307742  0.307742  0.335707  1
  Ce  Ce4  1  0.692742  0.692742  0.664192  1
  Mn  Mn5  1  0.242804  0.757443  0.499204  1
  Mn  Mn6  1  0.757443  0.242804  0.499204  1
  O  O7  1  0.406261  0.901143  0.920917  1
  O  O8  1  0.580077  0.096328  0.582052  1
  O  O9  1  0.900778  0.423311  0.420479  1
  O  O10  1  0.095874  0.597607  0.075323  1
  O  O11  1  0.000903  0.000903  0.321123  1
  O  O12  1  0.499419  0.499419  0.679436  1
  O  O13  1  0.901143  0.406261  0.920917  1
  O  O14  1  0.096328  0.580077  0.582052  1
  O  O15  1  0.423311  0.900778  0.420479  1
  O  O16  1  0.597607  0.095874  0.075323  1
  O  O17  1  0.499778  0.499778  0.321508  1
  O  O18  1  0.000077  0.000077  0.677702  1
