# generated using pymatgen
data_Yb2Pa2Ge6Os7
_symmetry_space_group_name_H-M   'P 1'
_cell_length_a   7.24096423
_cell_length_b   7.21786175
_cell_length_c   7.21786100
_cell_angle_alpha   109.46902799
_cell_angle_beta   109.40769444
_cell_angle_gamma   109.40769442
_symmetry_Int_Tables_number   1
_chemical_formula_structural   Yb2Pa2Ge6Os7
_chemical_formula_sum   'Yb2 Pa2 Ge6 Os7'
_cell_volume   290.85883231
_cell_formula_units_Z   1
loop_
 _symmetry_equiv_pos_site_id
 _symmetry_equiv_pos_as_xyz
  1  'x, y, z'
loop_
 _atom_site_type_symbol
 _atom_site_label
 _atom_site_symmetry_multiplicity
 _atom_site_fract_x
 _atom_site_fract_y
 _atom_site_fract_z
 _atom_site_occupancy
  Yb  Yb0  1  0.000000  0.000000  0.500000  1
  Yb  Yb1  1  0.000000  0.500000  0.000000  1
  Pa  Pa2  1  0.500000  0.000000  0.000000  1
  Pa  Pa3  1  0.500000  0.500000  0.500000  1
  Ge  Ge4  1  0.699704  0.690037  0.009667  1
  Ge  Ge5  1  0.300296  0.990333  0.309963  1
  Ge  Ge6  1  0.000000  0.311350  0.311350  1
  Ge  Ge7  1  0.300296  0.309963  0.990333  1
  Ge  Ge8  1  0.699704  0.009667  0.690037  1
  Ge  Ge9  1  0.000000  0.688650  0.688650  1
  Os  Os10  1  0.741103  0.248631  0.492472  1
  Os  Os11  1  0.741103  0.492472  0.248631  1
  Os  Os12  1  0.500000  0.250000  0.750000  1
  Os  Os13  1  0.258897  0.507528  0.751369  1
  Os  Os14  1  0.258897  0.751369  0.507528  1
  Os  Os15  1  0.500000  0.750000  0.250000  1
  Os  Os16  1  0.000000  0.000000  0.000000  1
