# generated using pymatgen
data_Tm3BSbRh6
_symmetry_space_group_name_H-M   'P 1'
_cell_length_a   5.80532300
_cell_length_b   5.80532258
_cell_length_c   13.57267400
_cell_angle_alpha   90.00000000
_cell_angle_beta   90.00000000
_cell_angle_gamma   119.99999669
_symmetry_Int_Tables_number   1
_chemical_formula_structural   Tm3BSbRh6
_chemical_formula_sum   'Tm6 B2 Sb2 Rh12'
_cell_volume   396.14010227
_cell_formula_units_Z   2
loop_
 _symmetry_equiv_pos_site_id
 _symmetry_equiv_pos_as_xyz
  1  'x, y, z'
loop_
 _atom_site_type_symbol
 _atom_site_label
 _atom_site_symmetry_multiplicity
 _atom_site_fract_x
 _atom_site_fract_y
 _atom_site_fract_z
 _atom_site_occupancy
  Tm  Tm0  1  0.000000  0.000000  0.750000  1
  Tm  Tm1  1  0.000000  0.000000  0.250000  1
  Tm  Tm2  1  0.333333  0.666667  0.413224  1
  Tm  Tm3  1  0.666667  0.333333  0.913224  1
  Tm  Tm4  1  0.666667  0.333333  0.586776  1
  Tm  Tm5  1  0.333333  0.666667  0.086776  1
  B  B6  1  0.000000  0.000000  0.500000  1
  B  B7  1  0.000000  0.000000  0.000000  1
  Sb  Sb8  1  0.333333  0.666667  0.750000  1
  Sb  Sb9  1  0.666667  0.333333  0.250000  1
  Rh  Rh10  1  0.344037  0.172019  0.412045  1
  Rh  Rh11  1  0.827981  0.172019  0.412045  1
  Rh  Rh12  1  0.827981  0.655963  0.412045  1
  Rh  Rh13  1  0.172019  0.344037  0.912045  1
  Rh  Rh14  1  0.655963  0.827981  0.587955  1
  Rh  Rh15  1  0.655963  0.827981  0.912045  1
  Rh  Rh16  1  0.344037  0.172019  0.087955  1
  Rh  Rh17  1  0.172019  0.344037  0.587955  1
  Rh  Rh18  1  0.172019  0.827981  0.587955  1
  Rh  Rh19  1  0.827981  0.172019  0.087955  1
  Rh  Rh20  1  0.827981  0.655963  0.087955  1
  Rh  Rh21  1  0.172019  0.827981  0.912045  1
