# generated using pymatgen
data_Pr2Pa(GaPd)3
_symmetry_space_group_name_H-M   'P 1'
_cell_length_a   7.41735228
_cell_length_b   7.41735287
_cell_length_c   3.99103200
_cell_angle_alpha   90.00000000
_cell_angle_beta   90.00000000
_cell_angle_gamma   119.86821721
_symmetry_Int_Tables_number   1
_chemical_formula_structural   Pr2Pa(GaPd)3
_chemical_formula_sum   'Pr2 Pa1 Ga3 Pd3'
_cell_volume   190.40961319
_cell_formula_units_Z   1
loop_
 _symmetry_equiv_pos_site_id
 _symmetry_equiv_pos_as_xyz
  1  'x, y, z'
loop_
 _atom_site_type_symbol
 _atom_site_label
 _atom_site_symmetry_multiplicity
 _atom_site_fract_x
 _atom_site_fract_y
 _atom_site_fract_z
 _atom_site_occupancy
  Pr  Pr0  1  0.587463  0.997482  0.500000  1
  Pr  Pr1  1  0.997482  0.587463  0.500000  1
  Pa  Pa2  1  0.414352  0.414352  0.500000  1
  Ga  Ga3  1  0.756968  0.756968  0.000000  1
  Ga  Ga4  1  0.247500  0.998414  0.000000  1
  Ga  Ga5  1  0.998414  0.247500  0.000000  1
  Pd  Pd6  1  0.641839  0.336586  0.000000  1
  Pd  Pd7  1  0.336586  0.641839  0.000000  1
  Pd  Pd8  1  0.019394  0.019394  0.500000  1
