# generated using pymatgen
data_Er4VFe3(WO6)4
_symmetry_space_group_name_H-M   'P 1'
_cell_length_a   5.19917030
_cell_length_b   7.41235108
_cell_length_c   11.10806266
_cell_angle_alpha   90.02406274
_cell_angle_beta   89.94218762
_cell_angle_gamma   90.05706575
_symmetry_Int_Tables_number   1
_chemical_formula_structural   Er4VFe3(WO6)4
_chemical_formula_sum   'Er4 V1 Fe3 W4 O24'
_cell_volume   428.08289116
_cell_formula_units_Z   1
loop_
 _symmetry_equiv_pos_site_id
 _symmetry_equiv_pos_as_xyz
  1  'x, y, z'
loop_
 _atom_site_type_symbol
 _atom_site_label
 _atom_site_symmetry_multiplicity
 _atom_site_fract_x
 _atom_site_fract_y
 _atom_site_fract_z
 _atom_site_occupancy
  Er  Er0  1  0.544933  0.250447  0.045799  1
  Er  Er1  1  0.045211  0.750761  0.455046  1
  Er  Er2  1  0.954313  0.251515  0.544823  1
  Er  Er3  1  0.455459  0.750615  0.954613  1
  V  V4  1  0.949522  0.498071  0.864996  1
  Fe  Fe5  1  0.043924  0.995173  0.138564  1
  Fe  Fe6  1  0.545204  0.495882  0.362403  1
  Fe  Fe7  1  0.456539  0.995664  0.638078  1
  W  W8  1  0.055359  0.506712  0.143536  1
  W  W9  1  0.553205  0.007111  0.357210  1
  W  W10  1  0.443762  0.506457  0.642547  1
  W  W11  1  0.947419  0.007224  0.857076  1
  O  O12  1  0.753928  0.959692  0.020072  1
  O  O13  1  0.763018  0.547752  0.029837  1
  O  O14  1  0.183171  0.748875  0.115427  1
  O  O15  1  0.932551  0.258469  0.143272  1
  O  O16  1  0.379009  0.432237  0.207167  1
  O  O17  1  0.394201  0.069341  0.211633  1
  O  O18  1  0.894854  0.569602  0.288305  1
  O  O19  1  0.878176  0.932165  0.293223  1
  O  O20  1  0.431995  0.758647  0.356321  1
  O  O21  1  0.682890  0.248859  0.383681  1
  O  O22  1  0.263056  0.047585  0.470852  1
  O  O23  1  0.254102  0.459626  0.478976  1
  O  O24  1  0.746368  0.959731  0.519968  1
  O  O25  1  0.736921  0.547219  0.528273  1
  O  O26  1  0.316992  0.749389  0.615887  1
  O  O27  1  0.569002  0.258283  0.643315  1
  O  O28  1  0.122002  0.430777  0.704879  1
  O  O29  1  0.105802  0.069259  0.711772  1
  O  O30  1  0.605176  0.570208  0.787140  1
  O  O31  1  0.622834  0.932588  0.793346  1
  O  O32  1  0.068393  0.758412  0.856560  1
  O  O33  1  0.816811  0.249365  0.884540  1
  O  O34  1  0.236893  0.047755  0.970657  1
  O  O35  1  0.247004  0.458928  0.980206  1
