# generated using pymatgen
data_Ca4Al6SeO16
_symmetry_space_group_name_H-M   'P 1'
_cell_length_a   8.12051519
_cell_length_b   8.12008426
_cell_length_c   8.12051240
_cell_angle_alpha   109.87457506
_cell_angle_beta   109.86001130
_cell_angle_gamma   108.68145758
_symmetry_Int_Tables_number   1
_chemical_formula_structural   Ca4Al6SeO16
_chemical_formula_sum   'Ca4 Al6 Se1 O16'
_cell_volume   412.14167283
_cell_formula_units_Z   1
loop_
 _symmetry_equiv_pos_site_id
 _symmetry_equiv_pos_as_xyz
  1  'x, y, z'
loop_
 _atom_site_type_symbol
 _atom_site_label
 _atom_site_symmetry_multiplicity
 _atom_site_fract_x
 _atom_site_fract_y
 _atom_site_fract_z
 _atom_site_occupancy
  Ca  Ca0  1  0.568213  0.012316  0.028444  1
  Ca  Ca1  1  0.987668  0.016113  0.555882  1
  Ca  Ca2  1  0.983874  0.539769  0.971555  1
  Ca  Ca3  1  0.460240  0.431791  0.444125  1
  Al  Al4  1  0.482867  0.746845  0.238835  1
  Al  Al5  1  0.249991  0.749989  0.499999  1
  Al  Al6  1  0.755965  0.517113  0.263981  1
  Al  Al7  1  0.749996  0.249993  0.500003  1
  Al  Al8  1  0.508015  0.244029  0.761163  1
  Al  Al9  1  0.253131  0.491978  0.736017  1
  Se  Se10  1  0.999996  0.000023  0.999991  1
  O  O11  1  0.414560  0.995325  0.717034  1
  O  O12  1  0.689017  0.318698  0.315082  1
  O  O13  1  0.385098  0.696314  0.985440  1
  O  O14  1  0.681283  0.996362  0.370321  1
  O  O15  1  0.004658  0.721688  0.419233  1
  O  O16  1  0.303665  0.289104  0.688782  1
  O  O17  1  0.278298  0.697526  0.282968  1
  O  O18  1  0.003620  0.373931  0.684910  1
  O  O19  1  0.710875  0.399654  0.014562  1
  O  O20  1  0.626042  0.310957  0.629674  1
  O  O21  1  0.302460  0.585420  0.580767  1
  O  O22  1  0.600321  0.614875  0.311213  1
  O  O23  1  0.888908  0.044485  0.137278  1
  O  O24  1  0.955616  0.092898  0.844463  1
  O  O25  1  0.907192  0.751637  0.862725  1
  O  O26  1  0.248429  0.111168  0.155555  1
