# generated using pymatgen
data_CaNd(Be12Cu)2
_symmetry_space_group_name_H-M   'P 1'
_cell_length_a   7.31765675
_cell_length_b   7.36815091
_cell_length_c   7.30059000
_cell_angle_alpha   59.84718744
_cell_angle_beta   59.82844516
_cell_angle_gamma   59.61794606
_symmetry_Int_Tables_number   1
_chemical_formula_structural   CaNd(Be12Cu)2
_chemical_formula_sum   'Ca1 Nd1 Be24 Cu2'
_cell_volume   276.84772190
_cell_formula_units_Z   1
loop_
 _symmetry_equiv_pos_site_id
 _symmetry_equiv_pos_as_xyz
  1  'x, y, z'
loop_
 _atom_site_type_symbol
 _atom_site_label
 _atom_site_symmetry_multiplicity
 _atom_site_fract_x
 _atom_site_fract_y
 _atom_site_fract_z
 _atom_site_occupancy
  Ca  Ca0  1  0.747874  0.752126  0.747874  1
  Nd  Nd1  1  0.253271  0.246729  0.253271  1
  Be  Be2  1  0.500119  0.499881  0.500119  1
  Be  Be3  1  0.999934  0.000066  0.999934  1
  Be  Be4  1  0.566124  0.790560  0.433008  1
  Be  Be5  1  0.433008  0.210308  0.566124  1
  Be  Be6  1  0.287765  0.935245  0.710957  1
  Be  Be7  1  0.710957  0.066034  0.287765  1
  Be  Be8  1  0.930460  0.276739  0.070991  1
  Be  Be9  1  0.070991  0.721809  0.930460  1
  Be  Be10  1  0.210829  0.796883  0.559986  1
  Be  Be11  1  0.789637  0.203926  0.439931  1
  Be  Be12  1  0.439931  0.566506  0.789637  1
  Be  Be13  1  0.559986  0.432303  0.210829  1
  Be  Be14  1  0.712916  0.282320  0.935862  1
  Be  Be15  1  0.286138  0.715267  0.065748  1
  Be  Be16  1  0.065748  0.932846  0.286138  1
  Be  Be17  1  0.935862  0.068902  0.712916  1
  Be  Be18  1  0.567474  0.210126  0.789186  1
  Be  Be19  1  0.431451  0.791178  0.211568  1
  Be  Be20  1  0.789186  0.433214  0.567474  1
  Be  Be21  1  0.211568  0.565802  0.431451  1
  Be  Be22  1  0.936404  0.714138  0.287062  1
  Be  Be23  1  0.065405  0.284519  0.711652  1
  Be  Be24  1  0.287062  0.062396  0.936404  1
  Be  Be25  1  0.711652  0.938423  0.065405  1
  Cu  Cu26  1  0.800952  0.559577  0.197294  1
  Cu  Cu27  1  0.197294  0.442176  0.800952  1
