# generated using pymatgen
data_La5Pr4Nd(Bi3Br)2
_symmetry_space_group_name_H-M   'P 1'
_cell_length_a   9.76937800
_cell_length_b   9.77088653
_cell_length_c   6.82783800
_cell_angle_alpha   90.00327480
_cell_angle_beta   90.00064984
_cell_angle_gamma   119.99478010
_symmetry_Int_Tables_number   1
_chemical_formula_structural   La5Pr4Nd(Bi3Br)2
_chemical_formula_sum   'La5 Pr4 Nd1 Bi6 Br2'
_cell_volume   564.46570916
_cell_formula_units_Z   1
loop_
 _symmetry_equiv_pos_site_id
 _symmetry_equiv_pos_as_xyz
  1  'x, y, z'
loop_
 _atom_site_type_symbol
 _atom_site_label
 _atom_site_symmetry_multiplicity
 _atom_site_fract_x
 _atom_site_fract_y
 _atom_site_fract_z
 _atom_site_occupancy
  La  La0  1  0.999749  0.272230  0.249968  1
  La  La1  1  0.727513  0.727747  0.249963  1
  La  La2  1  0.272378  0.000016  0.249994  1
  La  La3  1  0.273145  0.272971  0.750030  1
  La  La4  1  0.000155  0.727066  0.750053  1
  Pr  Pr5  1  0.726148  0.000015  0.750046  1
  Pr  Pr6  1  0.333832  0.666952  0.500380  1
  Pr  Pr7  1  0.333847  0.666962  0.999616  1
  Pr  Pr8  1  0.666875  0.333052  0.500379  1
  Nd  Nd9  1  0.666869  0.333014  0.999601  1
  Bi  Bi10  1  0.386491  0.000226  0.750189  1
  Bi  Bi11  1  0.615238  0.000195  0.249809  1
  Bi  Bi12  1  0.999772  0.615077  0.249805  1
  Bi  Bi13  1  0.615923  0.616640  0.750180  1
  Bi  Bi14  1  0.998863  0.383145  0.750191  1
  Bi  Bi15  1  0.384915  0.384703  0.249799  1
  Br  Br16  1  0.999136  0.999985  0.500721  1
  Br  Br17  1  0.999151  0.000003  0.999274  1
