# generated using pymatgen
data_NdEr3CdIr
_symmetry_space_group_name_H-M   'P 1'
_cell_length_a   9.64431989
_cell_length_b   9.63774959
_cell_length_c   9.63774824
_cell_angle_alpha   60.04511285
_cell_angle_beta   59.97744374
_cell_angle_gamma   59.97744739
_symmetry_Int_Tables_number   1
_chemical_formula_structural   NdEr3CdIr
_chemical_formula_sum   'Nd4 Er12 Cd4 Ir4'
_cell_volume   633.44284321
_cell_formula_units_Z   4
loop_
 _symmetry_equiv_pos_site_id
 _symmetry_equiv_pos_as_xyz
  1  'x, y, z'
loop_
 _atom_site_type_symbol
 _atom_site_label
 _atom_site_symmetry_multiplicity
 _atom_site_fract_x
 _atom_site_fract_y
 _atom_site_fract_z
 _atom_site_occupancy
  Nd  Nd0  1  0.561561  0.938439  0.561561  1
  Nd  Nd1  1  0.938439  0.561561  0.938439  1
  Nd  Nd2  1  0.561561  0.561561  0.938439  1
  Nd  Nd3  1  0.938439  0.938439  0.561561  1
  Er  Er4  1  0.347541  0.347541  0.347541  1
  Er  Er5  1  0.347541  0.347541  0.957376  1
  Er  Er6  1  0.347541  0.957376  0.347541  1
  Er  Er7  1  0.957376  0.347541  0.347541  1
  Er  Er8  1  0.812351  0.187649  0.187649  1
  Er  Er9  1  0.187649  0.812351  0.812351  1
  Er  Er10  1  0.188714  0.811286  0.188714  1
  Er  Er11  1  0.811286  0.188714  0.811286  1
  Er  Er12  1  0.188714  0.188714  0.811286  1
  Er  Er13  1  0.811286  0.811286  0.188714  1
  Er  Er14  1  0.942454  0.557546  0.557546  1
  Er  Er15  1  0.557546  0.942454  0.942454  1
  Cd  Cd16  1  0.581465  0.579053  0.579053  1
  Cd  Cd17  1  0.579053  0.581465  0.260427  1
  Cd  Cd18  1  0.579053  0.260427  0.581465  1
  Cd  Cd19  1  0.260427  0.579053  0.579053  1
  Ir  Ir20  1  0.143548  0.140126  0.140126  1
  Ir  Ir21  1  0.140126  0.143548  0.576199  1
  Ir  Ir22  1  0.140126  0.576199  0.143548  1
  Ir  Ir23  1  0.576199  0.140126  0.140126  1
