# generated using pymatgen
data_La7Nd(Lu3Sn4)4
_symmetry_space_group_name_H-M   'P 1'
_cell_length_a   8.09640010
_cell_length_b   8.27641310
_cell_length_c   15.53417800
_cell_angle_alpha   90.00745583
_cell_angle_beta   90.00890956
_cell_angle_gamma   90.04013019
_symmetry_Int_Tables_number   1
_chemical_formula_structural   La7Nd(Lu3Sn4)4
_chemical_formula_sum   'La7 Nd1 Lu12 Sn16'
_cell_volume   1040.93181550
_cell_formula_units_Z   1
loop_
 _symmetry_equiv_pos_site_id
 _symmetry_equiv_pos_as_xyz
  1  'x, y, z'
loop_
 _atom_site_type_symbol
 _atom_site_label
 _atom_site_symmetry_multiplicity
 _atom_site_fract_x
 _atom_site_fract_y
 _atom_site_fract_z
 _atom_site_occupancy
  La  La0  1  0.509418  0.324612  0.904509  1
  La  La1  1  0.009713  0.175645  0.595758  1
  La  La2  1  0.490259  0.675219  0.404145  1
  La  La3  1  0.990143  0.824402  0.095491  1
  La  La4  1  0.490633  0.675594  0.095413  1
  La  La5  1  0.990265  0.824428  0.404008  1
  La  La6  1  0.509648  0.324452  0.596119  1
  Nd  Nd7  1  0.010133  0.175789  0.903834  1
  Lu  Lu8  1  0.348645  0.836484  0.875168  1
  Lu  Lu9  1  0.848640  0.663638  0.625588  1
  Lu  Lu10  1  0.651342  0.163748  0.374803  1
  Lu  Lu11  1  0.151124  0.335968  0.124922  1
  Lu  Lu12  1  0.651214  0.163512  0.124746  1
  Lu  Lu13  1  0.151599  0.336554  0.374805  1
  Lu  Lu14  1  0.348632  0.836252  0.625311  1
  Lu  Lu15  1  0.848830  0.663946  0.874821  1
  Lu  Lu16  1  0.181020  0.503805  0.750272  1
  Lu  Lu17  1  0.681204  0.996405  0.750382  1
  Lu  Lu18  1  0.818965  0.496006  0.249930  1
  Lu  Lu19  1  0.318771  0.003783  0.249851  1
  Sn  Sn20  1  0.313263  0.043193  0.042018  1
  Sn  Sn21  1  0.816268  0.457282  0.457282  1
  Sn  Sn22  1  0.683518  0.957073  0.543016  1
  Sn  Sn23  1  0.182985  0.541363  0.957104  1
  Sn  Sn24  1  0.686675  0.958777  0.956712  1
  Sn  Sn25  1  0.183655  0.542692  0.543109  1
  Sn  Sn26  1  0.316214  0.042859  0.457112  1
  Sn  Sn27  1  0.816926  0.456273  0.042128  1
  Sn  Sn28  1  0.545530  0.627919  0.750070  1
  Sn  Sn29  1  0.045552  0.873131  0.750490  1
  Sn  Sn30  1  0.454800  0.371622  0.249576  1
  Sn  Sn31  1  0.954702  0.128432  0.249999  1
  Sn  Sn32  1  0.315887  0.142766  0.750637  1
  Sn  Sn33  1  0.818345  0.355952  0.751197  1
  Sn  Sn34  1  0.682370  0.857425  0.249886  1
  Sn  Sn35  1  0.183117  0.642999  0.249791  1
