# generated using pymatgen
data_Sr(Si2Ir3)2
_symmetry_space_group_name_H-M   'P 1'
_cell_length_a   7.09185100
_cell_length_b   7.09184941
_cell_length_c   3.86302500
_cell_angle_alpha   90.00000000
_cell_angle_beta   90.00000000
_cell_angle_gamma   120.00001209
_symmetry_Int_Tables_number   1
_chemical_formula_structural   Sr(Si2Ir3)2
_chemical_formula_sum   'Sr1 Si4 Ir6'
_cell_volume   168.25857445
_cell_formula_units_Z   1
loop_
 _symmetry_equiv_pos_site_id
 _symmetry_equiv_pos_as_xyz
  1  'x, y, z'
loop_
 _atom_site_type_symbol
 _atom_site_label
 _atom_site_symmetry_multiplicity
 _atom_site_fract_x
 _atom_site_fract_y
 _atom_site_fract_z
 _atom_site_occupancy
  Sr  Sr0  1  0.000000  0.000000  0.000000  1
  Si  Si1  1  0.333333  0.666667  0.000000  1
  Si  Si2  1  0.801065  0.602130  0.500000  1
  Si  Si3  1  0.397870  0.198935  0.500000  1
  Si  Si4  1  0.801065  0.198935  0.500000  1
  Ir  Ir5  1  0.532822  0.065642  0.000000  1
  Ir  Ir6  1  0.934358  0.467178  0.000000  1
  Ir  Ir7  1  0.532822  0.467178  0.000000  1
  Ir  Ir8  1  0.200364  0.400728  0.500000  1
  Ir  Ir9  1  0.599272  0.799636  0.500000  1
  Ir  Ir10  1  0.200364  0.799636  0.500000  1
