# generated using pymatgen
data_Er4Tm(SnPb)2
_symmetry_space_group_name_H-M   'P 1'
_cell_length_a   8.07119300
_cell_length_b   8.13687800
_cell_length_c   15.43852900
_cell_angle_alpha   90.00000000
_cell_angle_beta   90.00000000
_cell_angle_gamma   90.00000000
_symmetry_Int_Tables_number   1
_chemical_formula_structural   Er4Tm(SnPb)2
_chemical_formula_sum   'Er16 Tm4 Sn8 Pb8'
_cell_volume   1013.91478203
_cell_formula_units_Z   4
loop_
 _symmetry_equiv_pos_site_id
 _symmetry_equiv_pos_as_xyz
  1  'x, y, z'
loop_
 _atom_site_type_symbol
 _atom_site_label
 _atom_site_symmetry_multiplicity
 _atom_site_fract_x
 _atom_site_fract_y
 _atom_site_fract_z
 _atom_site_occupancy
  Er  Er0  1  0.378083  0.839903  0.876977  1
  Er  Er1  1  0.878083  0.660097  0.623023  1
  Er  Er2  1  0.621917  0.160097  0.376977  1
  Er  Er3  1  0.121917  0.339903  0.123023  1
  Er  Er4  1  0.621917  0.160097  0.123023  1
  Er  Er5  1  0.121917  0.339903  0.376977  1
  Er  Er6  1  0.378083  0.839903  0.623023  1
  Er  Er7  1  0.878083  0.660097  0.876977  1
  Er  Er8  1  0.535147  0.323414  0.897514  1
  Er  Er9  1  0.035147  0.176586  0.602486  1
  Er  Er10  1  0.464853  0.676586  0.397514  1
  Er  Er11  1  0.964853  0.823414  0.102486  1
  Er  Er12  1  0.464853  0.676586  0.102486  1
  Er  Er13  1  0.964853  0.823414  0.397514  1
  Er  Er14  1  0.535147  0.323414  0.602486  1
  Er  Er15  1  0.035147  0.176586  0.897514  1
  Tm  Tm16  1  0.209200  0.503907  0.750000  1
  Tm  Tm17  1  0.709200  0.996093  0.750000  1
  Tm  Tm18  1  0.790800  0.496093  0.250000  1
  Tm  Tm19  1  0.290800  0.003907  0.250000  1
  Sn  Sn20  1  0.574205  0.623440  0.750000  1
  Sn  Sn21  1  0.074205  0.876560  0.750000  1
  Sn  Sn22  1  0.425795  0.376560  0.250000  1
  Sn  Sn23  1  0.925795  0.123440  0.250000  1
  Sn  Sn24  1  0.343806  0.149594  0.750000  1
  Sn  Sn25  1  0.843806  0.350406  0.750000  1
  Sn  Sn26  1  0.656194  0.850406  0.250000  1
  Sn  Sn27  1  0.156194  0.649594  0.250000  1
  Pb  Pb28  1  0.281724  0.033310  0.041824  1
  Pb  Pb29  1  0.781724  0.466690  0.458176  1
  Pb  Pb30  1  0.718276  0.966690  0.541824  1
  Pb  Pb31  1  0.218276  0.533310  0.958176  1
  Pb  Pb32  1  0.718276  0.966690  0.958176  1
  Pb  Pb33  1  0.218276  0.533310  0.541824  1
  Pb  Pb34  1  0.281724  0.033310  0.458176  1
  Pb  Pb35  1  0.781724  0.466690  0.041824  1
