# generated using pymatgen
data_Ti6Nb2Si2Sb4Pd
_symmetry_space_group_name_H-M   'P 1'
_cell_length_a   4.99525646
_cell_length_b   7.75726473
_cell_length_c   7.79065347
_cell_angle_alpha   95.72877554
_cell_angle_beta   108.69878500
_cell_angle_gamma   71.21773496
_symmetry_Int_Tables_number   1
_chemical_formula_structural   Ti6Nb2Si2Sb4Pd
_chemical_formula_sum   'Ti6 Nb2 Si2 Sb4 Pd1'
_cell_volume   270.72073656
_cell_formula_units_Z   1
loop_
 _symmetry_equiv_pos_site_id
 _symmetry_equiv_pos_as_xyz
  1  'x, y, z'
loop_
 _atom_site_type_symbol
 _atom_site_label
 _atom_site_symmetry_multiplicity
 _atom_site_fract_x
 _atom_site_fract_y
 _atom_site_fract_z
 _atom_site_occupancy
  Ti  Ti0  1  0.412364  0.875808  0.713085  1
  Ti  Ti1  1  0.575087  0.124192  0.286915  1
  Ti  Ti2  1  0.925298  0.283793  0.125027  1
  Ti  Ti3  1  0.084064  0.716207  0.874973  1
  Ti  Ti4  1  0.712372  0.713318  0.126782  1
  Ti  Ti5  1  0.298908  0.286682  0.873218  1
  Nb  Nb6  1  0.790236  0.125104  0.717635  1
  Nb  Nb7  1  0.197704  0.874896  0.282365  1
  Si  Si8  1  0.252346  0.000000  0.000000  1
  Si  Si9  1  0.745270  0.000000  0.000000  1
  Sb  Sb10  1  0.382633  0.495837  0.195665  1
  Sb  Sb11  1  0.682806  0.504163  0.804335  1
  Sb  Sb12  1  0.818131  0.801456  0.500060  1
  Sb  Sb13  1  0.119526  0.198544  0.499940  1
  Pd  Pd14  1  0.253255  0.500000  0.500000  1
