# generated using pymatgen
data_CaNdAl20IrRu3
_symmetry_space_group_name_H-M   'P 1'
_cell_length_a   6.88854158
_cell_length_b   6.88360409
_cell_length_c   9.19334942
_cell_angle_alpha   90.08626577
_cell_angle_beta   90.03782777
_cell_angle_gamma   96.76432563
_symmetry_Int_Tables_number   1
_chemical_formula_structural   CaNdAl20IrRu3
_chemical_formula_sum   'Ca1 Nd1 Al20 Ir1 Ru3'
_cell_volume   432.89504012
_cell_formula_units_Z   1
loop_
 _symmetry_equiv_pos_site_id
 _symmetry_equiv_pos_as_xyz
  1  'x, y, z'
loop_
 _atom_site_type_symbol
 _atom_site_label
 _atom_site_symmetry_multiplicity
 _atom_site_fract_x
 _atom_site_fract_y
 _atom_site_fract_z
 _atom_site_occupancy
  Ca  Ca0  1  0.873879  0.125007  0.750204  1
  Nd  Nd1  1  0.125103  0.876386  0.249981  1
  Al  Al2  1  0.620951  0.375950  0.546470  1
  Al  Al3  1  0.379463  0.623399  0.448286  1
  Al  Al4  1  0.377510  0.622541  0.051058  1
  Al  Al5  1  0.623253  0.376392  0.953793  1
  Al  Al6  1  0.226423  0.225307  0.500305  1
  Al  Al7  1  0.771871  0.776473  0.501997  1
  Al  Al8  1  0.772594  0.774783  0.999239  1
  Al  Al9  1  0.225724  0.226995  0.998568  1
  Al  Al10  1  0.842547  0.157943  0.099677  1
  Al  Al11  1  0.160050  0.839176  0.898842  1
  Al  Al12  1  0.161006  0.841715  0.602159  1
  Al  Al13  1  0.841417  0.155995  0.399244  1
  Al  Al14  1  0.857696  0.587392  0.751581  1
  Al  Al15  1  0.140004  0.410611  0.248536  1
  Al  Al16  1  0.413928  0.141782  0.750429  1
  Al  Al17  1  0.588484  0.860714  0.249543  1
  Al  Al18  1  0.220911  0.478969  0.751844  1
  Al  Al19  1  0.777534  0.517578  0.248140  1
  Al  Al20  1  0.521140  0.779693  0.749674  1
  Al  Al21  1  0.482519  0.222103  0.250306  1
  Ir  Ir22  1  0.999300  0.501217  0.500311  1
  Ru  Ru23  1  0.999453  0.501281  0.999776  1
  Ru  Ru24  1  0.498395  0.000190  0.999747  1
  Ru  Ru25  1  0.498844  0.000409  0.500293  1
