# generated using pymatgen
data_Li7Si2SnPd6
_symmetry_space_group_name_H-M   'P 1'
_cell_length_a   6.94705299
_cell_length_b   6.94705245
_cell_length_c   6.94705287
_cell_angle_alpha   60.90689112
_cell_angle_beta   60.90689135
_cell_angle_gamma   60.90689451
_symmetry_Int_Tables_number   1
_chemical_formula_structural   Li7Si2SnPd6
_chemical_formula_sum   'Li7 Si2 Sn1 Pd6'
_cell_volume   241.92150174
_cell_formula_units_Z   1
loop_
 _symmetry_equiv_pos_site_id
 _symmetry_equiv_pos_as_xyz
  1  'x, y, z'
loop_
 _atom_site_type_symbol
 _atom_site_label
 _atom_site_symmetry_multiplicity
 _atom_site_fract_x
 _atom_site_fract_y
 _atom_site_fract_z
 _atom_site_occupancy
  Li  Li0  1  0.727906  0.727906  0.727906  1
  Li  Li1  1  0.572142  0.826145  0.341462  1
  Li  Li2  1  0.341462  0.572142  0.826145  1
  Li  Li3  1  0.826145  0.341462  0.572142  1
  Li  Li4  1  0.661003  0.156177  0.444256  1
  Li  Li5  1  0.156177  0.444256  0.661003  1
  Li  Li6  1  0.444256  0.661003  0.156177  1
  Si  Si7  1  0.894067  0.894067  0.894067  1
  Si  Si8  1  0.096192  0.096192  0.096192  1
  Sn  Sn9  1  0.283273  0.283273  0.283273  1
  Pd  Pd10  1  0.904250  0.492687  0.103916  1
  Pd  Pd11  1  0.103916  0.904250  0.492687  1
  Pd  Pd12  1  0.492687  0.103916  0.904250  1
  Pd  Pd13  1  0.249394  0.007492  0.739639  1
  Pd  Pd14  1  0.739639  0.249394  0.007492  1
  Pd  Pd15  1  0.007492  0.739639  0.249394  1
