# generated using pymatgen
data_Y8Lu2Os3Ru
_symmetry_space_group_name_H-M   'P 1'
_cell_length_a   6.34555727
_cell_length_b   7.34810323
_cell_length_c   8.44389157
_cell_angle_alpha   96.85530586
_cell_angle_beta   112.19845401
_cell_angle_gamma   89.89786868
_symmetry_Int_Tables_number   1
_chemical_formula_structural   Y8Lu2Os3Ru
_chemical_formula_sum   'Y8 Lu2 Os3 Ru1'
_cell_volume   361.52976715
_cell_formula_units_Z   1
loop_
 _symmetry_equiv_pos_site_id
 _symmetry_equiv_pos_as_xyz
  1  'x, y, z'
loop_
 _atom_site_type_symbol
 _atom_site_label
 _atom_site_symmetry_multiplicity
 _atom_site_fract_x
 _atom_site_fract_y
 _atom_site_fract_z
 _atom_site_occupancy
  Y  Y0  1  0.523732  0.083470  0.815377  1
  Y  Y1  1  0.475494  0.916231  0.182930  1
  Y  Y2  1  0.708187  0.416276  0.183250  1
  Y  Y3  1  0.291436  0.583219  0.816409  1
  Y  Y4  1  0.298488  0.315688  0.434161  1
  Y  Y5  1  0.702748  0.684949  0.566410  1
  Y  Y6  1  0.863376  0.186018  0.567510  1
  Y  Y7  1  0.135836  0.814740  0.433781  1
  Lu  Lu8  1  0.077274  0.250944  0.999747  1
  Lu  Lu9  1  0.923251  0.749045  0.999286  1
  Os  Os10  1  0.315112  0.575656  0.215228  1
  Os  Os11  1  0.685126  0.424222  0.785682  1
  Os  Os12  1  0.100075  0.925515  0.784805  1
  Ru  Ru13  1  0.899865  0.074027  0.215424  1
