# generated using pymatgen
data_Zn(Ni7Sb2)3
_symmetry_space_group_name_H-M   'P 1'
_cell_length_a   5.24190200
_cell_length_b   5.24190224
_cell_length_c   14.97885600
_cell_angle_alpha   90.00000000
_cell_angle_beta   90.00000000
_cell_angle_gamma   120.00001108
_symmetry_Int_Tables_number   1
_chemical_formula_structural   Zn(Ni7Sb2)3
_chemical_formula_sum   'Zn1 Ni21 Sb6'
_cell_volume   356.44049959
_cell_formula_units_Z   1
loop_
 _symmetry_equiv_pos_site_id
 _symmetry_equiv_pos_as_xyz
  1  'x, y, z'
loop_
 _atom_site_type_symbol
 _atom_site_label
 _atom_site_symmetry_multiplicity
 _atom_site_fract_x
 _atom_site_fract_y
 _atom_site_fract_z
 _atom_site_occupancy
  Zn  Zn0  1  0.666668  0.333334  0.856447  1
  Ni  Ni1  1  0.502725  0.005448  0.996073  1
  Ni  Ni2  1  0.994552  0.497276  0.996073  1
  Ni  Ni3  1  0.502724  0.497276  0.996073  1
  Ni  Ni4  1  0.345876  0.172939  0.140640  1
  Ni  Ni5  1  0.827062  0.172939  0.140640  1
  Ni  Ni6  1  0.827063  0.654125  0.140640  1
  Ni  Ni7  1  0.498925  0.997848  0.286106  1
  Ni  Ni8  1  0.002152  0.501076  0.286106  1
  Ni  Ni9  1  0.498924  0.501076  0.286106  1
  Ni  Ni10  1  0.165887  0.331774  0.429232  1
  Ni  Ni11  1  0.165886  0.834112  0.429232  1
  Ni  Ni12  1  0.668226  0.834112  0.429232  1
  Ni  Ni13  1  0.330811  0.165407  0.573911  1
  Ni  Ni14  1  0.834594  0.165407  0.573911  1
  Ni  Ni15  1  0.834595  0.669189  0.573911  1
  Ni  Ni16  1  0.502756  0.497246  0.716644  1
  Ni  Ni17  1  0.994490  0.497246  0.716644  1
  Ni  Ni18  1  0.502755  0.005510  0.716644  1
  Ni  Ni19  1  0.175931  0.351863  0.857617  1
  Ni  Ni20  1  0.175932  0.824068  0.857617  1
  Ni  Ni21  1  0.648136  0.824068  0.857617  1
  Sb  Sb22  1  0.000000  0.000000  0.995758  1
  Sb  Sb23  1  0.333333  0.666666  0.137544  1
  Sb  Sb24  1  0.000000  0.000000  0.281173  1
  Sb  Sb25  1  0.666668  0.333334  0.430024  1
  Sb  Sb26  1  0.333333  0.666666  0.575325  1
  Sb  Sb27  1  0.000000  0.000000  0.723064  1
