# generated using pymatgen
data_PrNd9(InSi2)2
_symmetry_space_group_name_H-M   'P 1'
_cell_length_a   7.93852529
_cell_length_b   7.93852521
_cell_length_c   9.21486552
_cell_angle_alpha   115.36157533
_cell_angle_beta   115.36157617
_cell_angle_gamma   90.08143371
_symmetry_Int_Tables_number   1
_chemical_formula_structural   PrNd9(InSi2)2
_chemical_formula_sum   'Pr1 Nd9 In2 Si4'
_cell_volume   461.86413425
_cell_formula_units_Z   1
loop_
 _symmetry_equiv_pos_site_id
 _symmetry_equiv_pos_as_xyz
  1  'x, y, z'
loop_
 _atom_site_type_symbol
 _atom_site_label
 _atom_site_symmetry_multiplicity
 _atom_site_fract_x
 _atom_site_fract_y
 _atom_site_fract_z
 _atom_site_occupancy
  Pr  Pr0  1  0.538526  0.038526  0.721868  1
  Nd  Nd1  1  0.500147  0.500185  0.000398  1
  Nd  Nd2  1  0.000185  0.000147  0.000398  1
  Nd  Nd3  1  0.962285  0.814216  0.277016  1
  Nd  Nd4  1  0.314216  0.462285  0.277016  1
  Nd  Nd5  1  0.812673  0.312673  0.276695  1
  Nd  Nd6  1  0.460819  0.960819  0.276368  1
  Nd  Nd7  1  0.037442  0.186264  0.723028  1
  Nd  Nd8  1  0.686264  0.537442  0.723028  1
  Nd  Nd9  1  0.186937  0.686937  0.723247  1
  In  In10  1  0.750471  0.749159  0.499330  1
  In  In11  1  0.249159  0.250471  0.499330  1
  Si  Si12  1  0.616101  0.883602  0.000695  1
  Si  Si13  1  0.383602  0.116101  0.000695  1
  Si  Si14  1  0.885260  0.385260  0.000798  1
  Si  Si15  1  0.115913  0.615913  0.000090  1
