# generated using pymatgen
data_CaNd19Si15Ni
_symmetry_space_group_name_H-M   'P 1'
_cell_length_a   7.79380383
_cell_length_b   7.92346243
_cell_length_c   15.16997638
_cell_angle_alpha   89.52695891
_cell_angle_beta   89.69513291
_cell_angle_gamma   90.00555130
_symmetry_Int_Tables_number   1
_chemical_formula_structural   CaNd19Si15Ni
_chemical_formula_sum   'Ca1 Nd19 Si15 Ni1'
_cell_volume   936.76018654
_cell_formula_units_Z   1
loop_
 _symmetry_equiv_pos_site_id
 _symmetry_equiv_pos_as_xyz
  1  'x, y, z'
loop_
 _atom_site_type_symbol
 _atom_site_label
 _atom_site_symmetry_multiplicity
 _atom_site_fract_x
 _atom_site_fract_y
 _atom_site_fract_z
 _atom_site_occupancy
  Ca  Ca0  1  0.134245  0.508639  0.748556  1
  Nd  Nd1  1  0.811593  0.334539  0.612695  1
  Nd  Nd2  1  0.453131  0.686833  0.897249  1
  Nd  Nd3  1  0.955945  0.813745  0.896809  1
  Nd  Nd4  1  0.186999  0.682437  0.121269  1
  Nd  Nd5  1  0.692598  0.818339  0.121434  1
  Nd  Nd6  1  0.306522  0.180303  0.878214  1
  Nd  Nd7  1  0.189716  0.676910  0.379528  1
  Nd  Nd8  1  0.043927  0.187546  0.104006  1
  Nd  Nd9  1  0.309613  0.182962  0.620870  1
  Nd  Nd10  1  0.860256  0.491344  0.262008  1
  Nd  Nd11  1  0.364077  0.004850  0.252519  1
  Nd  Nd12  1  0.538424  0.312214  0.397417  1
  Nd  Nd13  1  0.811342  0.319792  0.878241  1
  Nd  Nd14  1  0.963352  0.817819  0.600087  1
  Nd  Nd15  1  0.453213  0.687861  0.604087  1
  Nd  Nd16  1  0.042140  0.181434  0.398801  1
  Nd  Nd17  1  0.692924  0.810807  0.384255  1
  Nd  Nd18  1  0.636902  0.998143  0.748017  1
  Nd  Nd19  1  0.546733  0.312366  0.103833  1
  Si  Si20  1  0.482656  0.600740  0.247014  1
  Si  Si21  1  0.253186  0.377184  0.247698  1
  Si  Si22  1  0.518404  0.402220  0.750435  1
  Si  Si23  1  0.630822  0.024644  0.957744  1
  Si  Si24  1  0.014378  0.100562  0.748151  1
  Si  Si25  1  0.742173  0.623873  0.749687  1
  Si  Si26  1  0.752412  0.118984  0.249760  1
  Si  Si27  1  0.365685  0.970389  0.460929  1
  Si  Si28  1  0.982678  0.898226  0.249195  1
  Si  Si29  1  0.366044  0.975162  0.041436  1
  Si  Si30  1  0.634628  0.025504  0.541858  1
  Si  Si31  1  0.134228  0.473750  0.960404  1
  Si  Si32  1  0.140362  0.474947  0.538982  1
  Si  Si33  1  0.866696  0.525760  0.039988  1
  Si  Si34  1  0.243543  0.881574  0.750640  1
  Ni  Ni35  1  0.878450  0.517597  0.456181  1
