# generated using pymatgen
data_RbClOF4
_symmetry_space_group_name_H-M   'P 1'
_cell_length_a   5.71567500
_cell_length_b   5.76435400
_cell_length_c   14.31527500
_cell_angle_alpha   90.00000000
_cell_angle_beta   90.00000000
_cell_angle_gamma   90.00000000
_symmetry_Int_Tables_number   1
_chemical_formula_structural   RbClOF4
_chemical_formula_sum   'Rb4 Cl4 O4 F16'
_cell_volume   471.64785698
_cell_formula_units_Z   4
loop_
 _symmetry_equiv_pos_site_id
 _symmetry_equiv_pos_as_xyz
  1  'x, y, z'
loop_
 _atom_site_type_symbol
 _atom_site_label
 _atom_site_symmetry_multiplicity
 _atom_site_fract_x
 _atom_site_fract_y
 _atom_site_fract_z
 _atom_site_occupancy
  Rb  Rb0  1  0.750000  0.691100  0.880311  1
  Rb  Rb1  1  0.750000  0.191100  0.619689  1
  Rb  Rb2  1  0.250000  0.808900  0.380311  1
  Rb  Rb3  1  0.250000  0.308900  0.119689  1
  Cl  Cl4  1  0.750000  0.857689  0.140072  1
  Cl  Cl5  1  0.750000  0.357689  0.359928  1
  Cl  Cl6  1  0.250000  0.142311  0.859928  1
  Cl  Cl7  1  0.250000  0.642311  0.640072  1
  O  O8  1  0.250000  0.940373  0.917392  1
  O  O9  1  0.250000  0.440373  0.582608  1
  O  O10  1  0.750000  0.059627  0.082608  1
  O  O11  1  0.750000  0.559627  0.417392  1
  F  F12  1  0.024431  0.800616  0.572065  1
  F  F13  1  0.524431  0.699384  0.072065  1
  F  F14  1  0.975569  0.699384  0.072065  1
  F  F15  1  0.521148  0.963383  0.222410  1
  F  F16  1  0.475569  0.800616  0.572065  1
  F  F17  1  0.978852  0.463383  0.277590  1
  F  F18  1  0.024431  0.300616  0.927935  1
  F  F19  1  0.021148  0.536617  0.722410  1
  F  F20  1  0.975569  0.199384  0.427935  1
  F  F21  1  0.478852  0.536617  0.722410  1
  F  F22  1  0.475569  0.300616  0.927935  1
  F  F23  1  0.478852  0.036617  0.777590  1
  F  F24  1  0.521148  0.463383  0.277590  1
  F  F25  1  0.978852  0.963383  0.222410  1
  F  F26  1  0.524431  0.199384  0.427935  1
  F  F27  1  0.021148  0.036617  0.777590  1
