# generated using pymatgen
data_ScSi4(Pt2Rh)2
_symmetry_space_group_name_H-M   'P 1'
_cell_length_a   7.21558903
_cell_length_b   7.14517249
_cell_length_c   3.74233600
_cell_angle_alpha   90.00000000
_cell_angle_beta   90.00000000
_cell_angle_gamma   120.31607602
_symmetry_Int_Tables_number   1
_chemical_formula_structural   ScSi4(Pt2Rh)2
_chemical_formula_sum   'Sc1 Si4 Pt4 Rh2'
_cell_volume   166.55813990
_cell_formula_units_Z   1
loop_
 _symmetry_equiv_pos_site_id
 _symmetry_equiv_pos_as_xyz
  1  'x, y, z'
loop_
 _atom_site_type_symbol
 _atom_site_label
 _atom_site_symmetry_multiplicity
 _atom_site_fract_x
 _atom_site_fract_y
 _atom_site_fract_z
 _atom_site_occupancy
  Sc  Sc0  1  0.002258  0.004405  0.000000  1
  Si  Si1  1  0.669877  0.339788  0.000000  1
  Si  Si2  1  0.198293  0.396174  0.500000  1
  Si  Si3  1  0.190074  0.799466  0.500000  1
  Si  Si4  1  0.609158  0.799752  0.500000  1
  Pt  Pt5  1  0.468385  0.934942  0.000000  1
  Pt  Pt6  1  0.808307  0.617587  0.500000  1
  Pt  Pt7  1  0.813958  0.187255  0.500000  1
  Pt  Pt8  1  0.373458  0.186283  0.500000  1
  Rh  Rh9  1  0.465484  0.532885  0.000000  1
  Rh  Rh10  1  0.067413  0.534797  0.000000  1
