# generated using pymatgen
data_Zr4NiRh
_symmetry_space_group_name_H-M   'P 1'
_cell_length_a   5.36309276
_cell_length_b   5.36309263
_cell_length_c   5.36309294
_cell_angle_alpha   104.77136556
_cell_angle_beta   104.77137238
_cell_angle_gamma   119.34550800
_symmetry_Int_Tables_number   1
_chemical_formula_structural   Zr4NiRh
_chemical_formula_sum   'Zr4 Ni1 Rh1'
_cell_volume   116.06256807
_cell_formula_units_Z   1
loop_
 _symmetry_equiv_pos_site_id
 _symmetry_equiv_pos_as_xyz
  1  'x, y, z'
loop_
 _atom_site_type_symbol
 _atom_site_label
 _atom_site_symmetry_multiplicity
 _atom_site_fract_x
 _atom_site_fract_y
 _atom_site_fract_z
 _atom_site_occupancy
  Zr  Zr0  1  0.913255  0.413255  0.826510  1
  Zr  Zr1  1  0.586745  0.086745  0.173490  1
  Zr  Zr2  1  0.086745  0.913255  0.500000  1
  Zr  Zr3  1  0.413255  0.586745  0.500000  1
  Ni  Ni4  1  0.500000  0.500000  0.000000  1
  Rh  Rh5  1  0.000000  0.000000  0.000000  1
