# generated using pymatgen
data_Lu8TiTc11Ge16
_symmetry_space_group_name_H-M   'P 1'
_cell_length_a   6.89934504
_cell_length_b   6.94095215
_cell_length_c   12.79517100
_cell_angle_alpha   89.84114551
_cell_angle_beta   89.99383804
_cell_angle_gamma   89.33785521
_symmetry_Int_Tables_number   1
_chemical_formula_structural   Lu8TiTc11Ge16
_chemical_formula_sum   'Lu8 Ti1 Tc11 Ge16'
_cell_volume   612.69218007
_cell_formula_units_Z   1
loop_
 _symmetry_equiv_pos_site_id
 _symmetry_equiv_pos_as_xyz
  1  'x, y, z'
loop_
 _atom_site_type_symbol
 _atom_site_label
 _atom_site_symmetry_multiplicity
 _atom_site_fract_x
 _atom_site_fract_y
 _atom_site_fract_z
 _atom_site_occupancy
  Lu  Lu0  1  0.489040  0.674386  0.589579  1
  Lu  Lu1  1  0.983392  0.820293  0.909325  1
  Lu  Lu2  1  0.518680  0.326214  0.088729  1
  Lu  Lu3  1  0.014910  0.170717  0.408550  1
  Lu  Lu4  1  0.513294  0.335533  0.407450  1
  Lu  Lu5  1  0.013299  0.161436  0.092122  1
  Lu  Lu6  1  0.494130  0.668310  0.907677  1
  Lu  Lu7  1  0.985526  0.835277  0.594155  1
  Ti  Ti8  1  0.169280  0.344891  0.628445  1
  Tc  Tc9  1  0.666821  0.149258  0.614993  1
  Tc  Tc10  1  0.205336  0.365675  0.884426  1
  Tc  Tc11  1  0.308909  0.857624  0.126592  1
  Tc  Tc12  1  0.806717  0.641250  0.371208  1
  Tc  Tc13  1  0.330228  0.852809  0.368973  1
  Tc  Tc14  1  0.829576  0.641932  0.127199  1
  Tc  Tc15  1  0.654871  0.143345  0.882335  1
  Tc  Tc16  1  0.840272  0.516633  0.750360  1
  Tc  Tc17  1  0.323442  0.996754  0.749760  1
  Tc  Tc18  1  0.174373  0.489207  0.249617  1
  Tc  Tc19  1  0.674018  0.008692  0.247591  1
  Ge  Ge20  1  0.670927  0.950098  0.447511  1
  Ge  Ge21  1  0.172612  0.550845  0.052514  1
  Ge  Ge22  1  0.318841  0.044425  0.950885  1
  Ge  Ge23  1  0.831897  0.450896  0.548640  1
  Ge  Ge24  1  0.328802  0.048381  0.544881  1
  Ge  Ge25  1  0.844656  0.436296  0.947279  1
  Ge  Ge26  1  0.662323  0.941114  0.051415  1
  Ge  Ge27  1  0.166406  0.555693  0.450066  1
  Ge  Ge28  1  0.484358  0.361712  0.745613  1
  Ge  Ge29  1  0.969332  0.151053  0.766874  1
  Ge  Ge30  1  0.521182  0.642131  0.241897  1
  Ge  Ge31  1  0.020518  0.852765  0.257461  1
  Ge  Ge32  1  0.682734  0.867143  0.748294  1
  Ge  Ge33  1  0.195168  0.648256  0.748893  1
  Ge  Ge34  1  0.317238  0.148305  0.249275  1
  Ge  Ge35  1  0.816892  0.350650  0.249415  1
