# generated using pymatgen
data_Ce3Y(NiGe)4
_symmetry_space_group_name_H-M   'P 1'
_cell_length_a   4.29557900
_cell_length_b   7.11797278
_cell_length_c   7.23468463
_cell_angle_alpha   90.18846653
_cell_angle_beta   90.00000000
_cell_angle_gamma   90.00000000
_symmetry_Int_Tables_number   1
_chemical_formula_structural   Ce3Y(NiGe)4
_chemical_formula_sum   'Ce3 Y1 Ni4 Ge4'
_cell_volume   221.20517776
_cell_formula_units_Z   1
loop_
 _symmetry_equiv_pos_site_id
 _symmetry_equiv_pos_as_xyz
  1  'x, y, z'
loop_
 _atom_site_type_symbol
 _atom_site_label
 _atom_site_symmetry_multiplicity
 _atom_site_fract_x
 _atom_site_fract_y
 _atom_site_fract_z
 _atom_site_occupancy
  Ce  Ce0  1  0.250000  0.488639  0.708141  1
  Ce  Ce1  1  0.250000  0.987670  0.792772  1
  Ce  Ce2  1  0.750000  0.010107  0.208448  1
  Y  Y3  1  0.750000  0.509419  0.290028  1
  Ni  Ni4  1  0.250000  0.701308  0.077928  1
  Ni  Ni5  1  0.250000  0.205802  0.421363  1
  Ni  Ni6  1  0.750000  0.801469  0.581517  1
  Ni  Ni7  1  0.750000  0.305654  0.917448  1
  Ge  Ge8  1  0.250000  0.800222  0.408531  1
  Ge  Ge9  1  0.250000  0.300914  0.091661  1
  Ge  Ge10  1  0.750000  0.693349  0.912966  1
  Ge  Ge11  1  0.750000  0.195448  0.589196  1
