# generated using pymatgen
data_Ca5Ac14YbIr12
_symmetry_space_group_name_H-M   'P 1'
_cell_length_a   6.76780649
_cell_length_b   11.59793400
_cell_length_c   11.68662383
_cell_angle_alpha   90.00228870
_cell_angle_beta   90.34763266
_cell_angle_gamma   90.00135162
_symmetry_Int_Tables_number   1
_chemical_formula_structural   Ca5Ac14YbIr12
_chemical_formula_sum   'Ca5 Ac14 Yb1 Ir12'
_cell_volume   917.29628963
_cell_formula_units_Z   1
loop_
 _symmetry_equiv_pos_site_id
 _symmetry_equiv_pos_as_xyz
  1  'x, y, z'
loop_
 _atom_site_type_symbol
 _atom_site_label
 _atom_site_symmetry_multiplicity
 _atom_site_fract_x
 _atom_site_fract_y
 _atom_site_fract_z
 _atom_site_occupancy
  Ca  Ca0  1  0.607805  0.455097  0.339431  1
  Ca  Ca1  1  0.107914  0.044863  0.339690  1
  Ca  Ca2  1  0.510012  0.738465  0.251193  1
  Ca  Ca3  1  0.009942  0.761462  0.251219  1
  Ca  Ca4  1  0.006119  0.247090  0.752602  1
  Ac  Ac5  1  0.380263  0.843117  0.531302  1
  Ac  Ac6  1  0.880243  0.656330  0.531173  1
  Ac  Ac7  1  0.889339  0.838706  0.959552  1
  Ac  Ac8  1  0.389376  0.661747  0.959468  1
  Ac  Ac9  1  0.888517  0.535964  0.837271  1
  Ac  Ac10  1  0.388535  0.964543  0.836716  1
  Ac  Ac11  1  0.386343  0.539311  0.658342  1
  Ac  Ac12  1  0.886330  0.960103  0.657456  1
  Ac  Ac13  1  0.611490  0.165745  0.461660  1
  Ac  Ac14  1  0.111479  0.335058  0.461154  1
  Ac  Ac15  1  0.109010  0.159231  0.045165  1
  Ac  Ac16  1  0.609023  0.339970  0.044584  1
  Ac  Ac17  1  0.106495  0.464662  0.168259  1
  Ac  Ac18  1  0.606507  0.035349  0.168675  1
  Yb  Yb19  1  0.506032  0.253006  0.752452  1
  Ir  Ir20  1  0.258973  0.899941  0.088543  1
  Ir  Ir21  1  0.758899  0.599919  0.088589  1
  Ir  Ir22  1  0.747982  0.903587  0.406811  1
  Ir  Ir23  1  0.248185  0.596543  0.406934  1
  Ir  Ir24  1  0.749690  0.096314  0.906095  1
  Ir  Ir25  1  0.255506  0.404386  0.905429  1
  Ir  Ir26  1  0.258883  0.098040  0.599917  1
  Ir  Ir27  1  0.752888  0.401418  0.599499  1
  Ir  Ir28  1  0.116189  0.748853  0.744671  1
  Ir  Ir29  1  0.616576  0.751210  0.744615  1
  Ir  Ir30  1  0.872899  0.251117  0.250762  1
  Ir  Ir31  1  0.372551  0.248860  0.250777  1
