# generated using pymatgen
data_Hf18GaMo8Se
_symmetry_space_group_name_H-M   'P 1'
_cell_length_a   8.72061900
_cell_length_b   8.72061774
_cell_length_c   8.67322800
_cell_angle_alpha   90.00000000
_cell_angle_beta   90.00000000
_cell_angle_gamma   119.99999341
_symmetry_Int_Tables_number   1
_chemical_formula_structural   Hf18GaMo8Se
_chemical_formula_sum   'Hf18 Ga1 Mo8 Se1'
_cell_volume   571.22339549
_cell_formula_units_Z   1
loop_
 _symmetry_equiv_pos_site_id
 _symmetry_equiv_pos_as_xyz
  1  'x, y, z'
loop_
 _atom_site_type_symbol
 _atom_site_label
 _atom_site_symmetry_multiplicity
 _atom_site_fract_x
 _atom_site_fract_y
 _atom_site_fract_z
 _atom_site_occupancy
  Hf  Hf0  1  0.539365  0.078729  0.250000  1
  Hf  Hf1  1  0.457816  0.915631  0.750000  1
  Hf  Hf2  1  0.921271  0.460635  0.250000  1
  Hf  Hf3  1  0.084369  0.542184  0.750000  1
  Hf  Hf4  1  0.539365  0.460635  0.250000  1
  Hf  Hf5  1  0.457816  0.542184  0.750000  1
  Hf  Hf6  1  0.195794  0.391588  0.045917  1
  Hf  Hf7  1  0.805140  0.610281  0.955451  1
  Hf  Hf8  1  0.608412  0.804206  0.045917  1
  Hf  Hf9  1  0.805140  0.610281  0.544549  1
  Hf  Hf10  1  0.389719  0.194860  0.955451  1
  Hf  Hf11  1  0.195794  0.391588  0.454083  1
  Hf  Hf12  1  0.195794  0.804206  0.045917  1
  Hf  Hf13  1  0.389719  0.194860  0.544549  1
  Hf  Hf14  1  0.805140  0.194860  0.955451  1
  Hf  Hf15  1  0.608412  0.804206  0.454083  1
  Hf  Hf16  1  0.805140  0.194860  0.544549  1
  Hf  Hf17  1  0.195794  0.804206  0.454083  1
  Ga  Ga18  1  0.333333  0.666667  0.250000  1
  Mo  Mo19  1  0.000000  0.000000  0.999733  1
  Mo  Mo20  1  0.000000  0.000000  0.500267  1
  Mo  Mo21  1  0.889678  0.779357  0.250000  1
  Mo  Mo22  1  0.110416  0.220831  0.750000  1
  Mo  Mo23  1  0.220643  0.110322  0.250000  1
  Mo  Mo24  1  0.779169  0.889584  0.750000  1
  Mo  Mo25  1  0.889678  0.110322  0.250000  1
  Mo  Mo26  1  0.110416  0.889584  0.750000  1
  Se  Se27  1  0.666667  0.333333  0.750000  1
