# generated using pymatgen
data_Pr2Nb3Co9As7
_symmetry_space_group_name_H-M   'P 1'
_cell_length_a   3.88184900
_cell_length_b   9.62159192
_cell_length_c   9.62159200
_cell_angle_alpha   120.00000029
_cell_angle_beta   90.00000000
_cell_angle_gamma   90.00000000
_symmetry_Int_Tables_number   1
_chemical_formula_structural   Pr2Nb3Co9As7
_chemical_formula_sum   'Pr2 Nb3 Co9 As7'
_cell_volume   311.21687542
_cell_formula_units_Z   1
loop_
 _symmetry_equiv_pos_site_id
 _symmetry_equiv_pos_as_xyz
  1  'x, y, z'
loop_
 _atom_site_type_symbol
 _atom_site_label
 _atom_site_symmetry_multiplicity
 _atom_site_fract_x
 _atom_site_fract_y
 _atom_site_fract_z
 _atom_site_occupancy
  Pr  Pr0  1  0.000000  0.666667  0.333333  1
  Pr  Pr1  1  0.500000  0.333333  0.666667  1
  Nb  Nb2  1  0.500000  0.778347  0.895088  1
  Nb  Nb3  1  0.500000  0.116741  0.221653  1
  Nb  Nb4  1  0.500000  0.104912  0.883259  1
  Co  Co5  1  0.000000  0.572940  0.939394  1
  Co  Co6  1  0.000000  0.366454  0.427060  1
  Co  Co7  1  0.000000  0.060606  0.633546  1
  Co  Co8  1  0.000000  0.876690  0.157159  1
  Co  Co9  1  0.000000  0.280468  0.123310  1
  Co  Co10  1  0.000000  0.842841  0.719532  1
  Co  Co11  1  0.500000  0.948466  0.382981  1
  Co  Co12  1  0.500000  0.434514  0.051534  1
  Co  Co13  1  0.500000  0.617019  0.565486  1
  As  As14  1  0.000000  0.000000  0.000000  1
  As  As15  1  0.500000  0.707677  0.118051  1
  As  As16  1  0.500000  0.410376  0.292323  1
  As  As17  1  0.500000  0.881949  0.589624  1
  As  As18  1  0.000000  0.585029  0.691105  1
  As  As19  1  0.000000  0.106078  0.414971  1
  As  As20  1  0.000000  0.308895  0.893922  1
