# generated using pymatgen
data_TbEr2Ta3(B2Ru5)2
_symmetry_space_group_name_H-M   'P 1'
_cell_length_a   9.58964625
_cell_length_b   9.59057988
_cell_length_c   3.12058800
_cell_angle_alpha   90.00000000
_cell_angle_beta   90.00000000
_cell_angle_gamma   90.45476908
_symmetry_Int_Tables_number   1
_chemical_formula_structural   TbEr2Ta3(B2Ru5)2
_chemical_formula_sum   'Tb1 Er2 Ta3 B4 Ru10'
_cell_volume   286.99227549
_cell_formula_units_Z   1
loop_
 _symmetry_equiv_pos_site_id
 _symmetry_equiv_pos_as_xyz
  1  'x, y, z'
loop_
 _atom_site_type_symbol
 _atom_site_label
 _atom_site_symmetry_multiplicity
 _atom_site_fract_x
 _atom_site_fract_y
 _atom_site_fract_z
 _atom_site_occupancy
  Tb  Tb0  1  0.824050  0.674809  0.000000  1
  Er  Er1  1  0.175179  0.323763  0.000000  1
  Er  Er2  1  0.325611  0.825771  0.000000  1
  Ta  Ta3  1  0.675687  0.175622  0.000000  1
  Ta  Ta4  1  0.497577  0.502842  0.000000  1
  Ta  Ta5  1  0.003277  0.998603  0.000000  1
  B  B6  1  0.622855  0.881912  0.000000  1
  B  B7  1  0.381051  0.123618  0.000000  1
  B  B8  1  0.119545  0.618724  0.000000  1
  B  B9  1  0.876290  0.375602  0.000000  1
  Ru  Ru10  1  0.569742  0.722589  0.500000  1
  Ru  Ru11  1  0.440292  0.280545  0.500000  1
  Ru  Ru12  1  0.070593  0.780732  0.500000  1
  Ru  Ru13  1  0.916218  0.213186  0.500000  1
  Ru  Ru14  1  0.280620  0.569339  0.500000  1
  Ru  Ru15  1  0.713041  0.415138  0.500000  1
  Ru  Ru16  1  0.222038  0.071235  0.500000  1
  Ru  Ru17  1  0.780255  0.941503  0.500000  1
  Ru  Ru18  1  0.509077  0.009572  0.500000  1
  Ru  Ru19  1  0.997004  0.494895  0.500000  1
