# generated using pymatgen
data_Rb4Ho9Tm3Se20
_symmetry_space_group_name_H-M   'P 1'
_cell_length_a   4.12295900
_cell_length_b   12.28646848
_cell_length_c   22.01760943
_cell_angle_alpha   90.07273850
_cell_angle_beta   90.00000000
_cell_angle_gamma   90.00000000
_symmetry_Int_Tables_number   1
_chemical_formula_structural   Rb4Ho9Tm3Se20
_chemical_formula_sum   'Rb4 Ho9 Tm3 Se20'
_cell_volume   1115.33646257
_cell_formula_units_Z   1
loop_
 _symmetry_equiv_pos_site_id
 _symmetry_equiv_pos_as_xyz
  1  'x, y, z'
loop_
 _atom_site_type_symbol
 _atom_site_label
 _atom_site_symmetry_multiplicity
 _atom_site_fract_x
 _atom_site_fract_y
 _atom_site_fract_z
 _atom_site_occupancy
  Rb  Rb0  1  0.250000  0.850338  0.094279  1
  Rb  Rb1  1  0.750000  0.149686  0.905543  1
  Rb  Rb2  1  0.750000  0.350223  0.405724  1
  Rb  Rb3  1  0.250000  0.649827  0.594262  1
  Ho  Ho4  1  0.750000  0.799584  0.826893  1
  Ho  Ho5  1  0.250000  0.200228  0.173297  1
  Ho  Ho6  1  0.250000  0.299427  0.673041  1
  Ho  Ho7  1  0.750000  0.700501  0.326928  1
  Ho  Ho8  1  0.250000  0.956503  0.697972  1
  Ho  Ho9  1  0.750000  0.043419  0.302047  1
  Ho  Ho10  1  0.750000  0.456617  0.801707  1
  Ho  Ho11  1  0.250000  0.543669  0.198043  1
  Ho  Ho12  1  0.750000  0.390718  0.053389  1
  Tm  Tm13  1  0.250000  0.609256  0.946336  1
  Tm  Tm14  1  0.250000  0.891131  0.446474  1
  Tm  Tm15  1  0.750000  0.108842  0.553504  1
  Se  Se16  1  0.250000  0.948279  0.568791  1
  Se  Se17  1  0.750000  0.051734  0.431249  1
  Se  Se18  1  0.750000  0.448694  0.930676  1
  Se  Se19  1  0.250000  0.553650  0.068822  1
  Se  Se20  1  0.750000  0.765255  0.954837  1
  Se  Se21  1  0.250000  0.232156  0.045186  1
  Se  Se22  1  0.250000  0.264963  0.545129  1
  Se  Se23  1  0.750000  0.735048  0.454890  1
  Se  Se24  1  0.250000  0.954640  0.826956  1
  Se  Se25  1  0.750000  0.045262  0.173136  1
  Se  Se26  1  0.750000  0.454583  0.672906  1
  Se  Se27  1  0.250000  0.545493  0.326971  1
  Se  Se28  1  0.750000  0.127038  0.683668  1
  Se  Se29  1  0.250000  0.872990  0.316355  1
  Se  Se30  1  0.250000  0.627219  0.816167  1
  Se  Se31  1  0.750000  0.372896  0.184686  1
  Se  Se32  1  0.750000  0.696863  0.198020  1
  Se  Se33  1  0.250000  0.303346  0.802029  1
  Se  Se34  1  0.250000  0.196678  0.302225  1
  Se  Se35  1  0.750000  0.803242  0.697864  1
