# generated using pymatgen
data_Tb3Er17Sn16
_symmetry_space_group_name_H-M   'P 1'
_cell_length_a   7.99535209
_cell_length_b   8.11946850
_cell_length_c   15.35294796
_cell_angle_alpha   89.99336432
_cell_angle_beta   90.12342119
_cell_angle_gamma   89.96061183
_symmetry_Int_Tables_number   1
_chemical_formula_structural   Tb3Er17Sn16
_chemical_formula_sum   'Tb3 Er17 Sn16'
_cell_volume   996.68026568
_cell_formula_units_Z   1
loop_
 _symmetry_equiv_pos_site_id
 _symmetry_equiv_pos_as_xyz
  1  'x, y, z'
loop_
 _atom_site_type_symbol
 _atom_site_label
 _atom_site_symmetry_multiplicity
 _atom_site_fract_x
 _atom_site_fract_y
 _atom_site_fract_z
 _atom_site_occupancy
  Tb  Tb0  1  0.980457  0.820626  0.403495  1
  Tb  Tb1  1  0.519240  0.321211  0.596167  1
  Tb  Tb2  1  0.020174  0.178765  0.903644  1
  Er  Er3  1  0.367949  0.837498  0.877462  1
  Er  Er4  1  0.866631  0.663147  0.622967  1
  Er  Er5  1  0.633235  0.162401  0.376912  1
  Er  Er6  1  0.132487  0.337404  0.122467  1
  Er  Er7  1  0.632063  0.162311  0.122539  1
  Er  Er8  1  0.132920  0.337430  0.377176  1
  Er  Er9  1  0.367405  0.837532  0.622948  1
  Er  Er10  1  0.868638  0.662447  0.877286  1
  Er  Er11  1  0.521898  0.321333  0.902590  1
  Er  Er12  1  0.020981  0.179265  0.597098  1
  Er  Er13  1  0.479107  0.679177  0.403084  1
  Er  Er14  1  0.978365  0.820195  0.097354  1
  Er  Er15  1  0.478755  0.678598  0.096502  1
  Er  Er16  1  0.198639  0.504081  0.750285  1
  Er  Er17  1  0.698708  0.996535  0.750184  1
  Er  Er18  1  0.801703  0.496304  0.249645  1
  Er  Er19  1  0.301705  0.003568  0.249721  1
  Sn  Sn20  1  0.292609  0.035456  0.042379  1
  Sn  Sn21  1  0.792814  0.462596  0.458171  1
  Sn  Sn22  1  0.706088  0.962794  0.541819  1
  Sn  Sn23  1  0.207877  0.537162  0.958563  1
  Sn  Sn24  1  0.705961  0.961115  0.959243  1
  Sn  Sn25  1  0.204608  0.539176  0.541301  1
  Sn  Sn26  1  0.294991  0.038420  0.459015  1
  Sn  Sn27  1  0.792595  0.462757  0.041307  1
  Sn  Sn28  1  0.565196  0.619577  0.750147  1
  Sn  Sn29  1  0.065326  0.881295  0.750088  1
  Sn  Sn30  1  0.435966  0.382383  0.249972  1
  Sn  Sn31  1  0.935225  0.118533  0.249817  1
  Sn  Sn32  1  0.330771  0.148916  0.750109  1
  Sn  Sn33  1  0.830605  0.351709  0.749337  1
  Sn  Sn34  1  0.668604  0.850375  0.249804  1
  Sn  Sn35  1  0.169705  0.647909  0.249399  1
