# generated using pymatgen
data_YAl4Si2Pd
_symmetry_space_group_name_H-M   'P 1'
_cell_length_a   4.09179000
_cell_length_b   4.09178919
_cell_length_c   31.07291100
_cell_angle_alpha   90.00000000
_cell_angle_beta   90.00019604
_cell_angle_gamma   120.00003886
_symmetry_Int_Tables_number   1
_chemical_formula_structural   YAl4Si2Pd
_chemical_formula_sum   'Y3 Al12 Si6 Pd3'
_cell_volume   450.54584644
_cell_formula_units_Z   3
loop_
 _symmetry_equiv_pos_site_id
 _symmetry_equiv_pos_as_xyz
  1  'x, y, z'
loop_
 _atom_site_type_symbol
 _atom_site_label
 _atom_site_symmetry_multiplicity
 _atom_site_fract_x
 _atom_site_fract_y
 _atom_site_fract_z
 _atom_site_occupancy
  Y  Y0  1  0.333337  0.666669  0.166692  1
  Y  Y1  1  0.999999  0.999999  0.499994  1
  Y  Y2  1  0.666666  0.333333  0.833348  1
  Al  Al3  1  0.666668  0.333335  0.027958  1
  Al  Al4  1  0.000004  0.000003  0.082944  1
  Al  Al5  1  0.666663  0.333331  0.250400  1
  Al  Al6  1  0.999986  0.999993  0.305395  1
  Al  Al7  1  0.333320  0.666659  0.361234  1
  Al  Al8  1  0.666660  0.333329  0.416232  1
  Al  Al9  1  0.333339  0.666670  0.583739  1
  Al  Al10  1  0.666676  0.333337  0.638744  1
  Al  Al11  1  0.000010  0.000005  0.694575  1
  Al  Al12  1  0.333337  0.666668  0.749575  1
  Al  Al13  1  0.000000  0.999999  0.917088  1
  Al  Al14  1  0.333334  0.666667  0.972088  1
  Si  Si15  1  0.666667  0.333333  0.111118  1
  Si  Si16  1  0.000004  0.000002  0.222251  1
  Si  Si17  1  0.333324  0.666663  0.444395  1
  Si  Si18  1  0.666672  0.333335  0.555582  1
  Si  Si19  1  0.000000  0.999999  0.777734  1
  Si  Si20  1  0.333334  0.666667  0.888930  1
  Pd  Pd21  1  0.000003  0.000000  0.000025  1
  Pd  Pd22  1  0.666658  0.333328  0.333328  1
  Pd  Pd23  1  0.333341  0.666670  0.666662  1
