# generated using pymatgen
data_Er4AgPt
_symmetry_space_group_name_H-M   'P 1'
_cell_length_a   9.48558780
_cell_length_b   9.48491012
_cell_length_c   9.48532781
_cell_angle_alpha   60.27482783
_cell_angle_beta   60.27330389
_cell_angle_gamma   60.27441565
_symmetry_Int_Tables_number   1
_chemical_formula_structural   Er4AgPt
_chemical_formula_sum   'Er16 Ag4 Pt4'
_cell_volume   607.18569291
_cell_formula_units_Z   4
loop_
 _symmetry_equiv_pos_site_id
 _symmetry_equiv_pos_as_xyz
  1  'x, y, z'
loop_
 _atom_site_type_symbol
 _atom_site_label
 _atom_site_symmetry_multiplicity
 _atom_site_fract_x
 _atom_site_fract_y
 _atom_site_fract_z
 _atom_site_occupancy
  Er  Er0  1  0.352264  0.352257  0.352264  1
  Er  Er1  1  0.358088  0.358107  0.930957  1
  Er  Er2  1  0.358101  0.930963  0.358098  1
  Er  Er3  1  0.930967  0.358087  0.358089  1
  Er  Er4  1  0.811537  0.188664  0.188668  1
  Er  Er5  1  0.187645  0.810478  0.810479  1
  Er  Er6  1  0.188684  0.811521  0.188676  1
  Er  Er7  1  0.810475  0.187636  0.810480  1
  Er  Er8  1  0.188685  0.188667  0.811528  1
  Er  Er9  1  0.810465  0.810491  0.187638  1
  Er  Er10  1  0.933137  0.566255  0.566256  1
  Er  Er11  1  0.565768  0.935522  0.935519  1
  Er  Er12  1  0.566274  0.933124  0.566262  1
  Er  Er13  1  0.935536  0.565758  0.935520  1
  Er  Er14  1  0.566272  0.566257  0.933125  1
  Er  Er15  1  0.935533  0.935519  0.565760  1
  Ag  Ag16  1  0.583312  0.583274  0.583318  1
  Ag  Ag17  1  0.582561  0.582415  0.252502  1
  Ag  Ag18  1  0.582552  0.252461  0.582464  1
  Ag  Ag19  1  0.252467  0.582518  0.582495  1
  Pt  Pt20  1  0.145967  0.145921  0.145973  1
  Pt  Pt21  1  0.142737  0.142895  0.568268  1
  Pt  Pt22  1  0.142779  0.568278  0.142897  1
  Pt  Pt23  1  0.568196  0.142933  0.142764  1
