# generated using pymatgen
data_Tb4Tm8Co5Pb
_symmetry_space_group_name_H-M   'P 1'
_cell_length_a   8.21892364
_cell_length_b   8.21892362
_cell_length_c   8.21892407
_cell_angle_alpha   110.92517737
_cell_angle_beta   110.54157814
_cell_angle_gamma   106.97560566
_symmetry_Int_Tables_number   1
_chemical_formula_structural   Tb4Tm8Co5Pb
_chemical_formula_sum   'Tb4 Tm8 Co5 Pb1'
_cell_volume   426.77881599
_cell_formula_units_Z   1
loop_
 _symmetry_equiv_pos_site_id
 _symmetry_equiv_pos_as_xyz
  1  'x, y, z'
loop_
 _atom_site_type_symbol
 _atom_site_label
 _atom_site_symmetry_multiplicity
 _atom_site_fract_x
 _atom_site_fract_y
 _atom_site_fract_z
 _atom_site_occupancy
  Tb  Tb0  1  0.287967  0.186218  0.474184  1
  Tb  Tb1  1  0.712033  0.813782  0.525816  1
  Tb  Tb2  1  0.287967  0.813782  0.101748  1
  Tb  Tb3  1  0.712033  0.186218  0.898252  1
  Tm  Tm4  1  0.621496  0.313407  0.308089  1
  Tm  Tm5  1  0.378504  0.686593  0.691911  1
  Tm  Tm6  1  0.005318  0.313407  0.691911  1
  Tm  Tm7  1  0.994682  0.686593  0.308089  1
  Tm  Tm8  1  0.209909  0.403224  0.193315  1
  Tm  Tm9  1  0.790091  0.596776  0.806685  1
  Tm  Tm10  1  0.209909  0.016594  0.806685  1
  Tm  Tm11  1  0.790091  0.983406  0.193315  1
  Co  Co12  1  0.000000  0.376059  0.376059  1
  Co  Co13  1  0.000000  0.623941  0.623941  1
  Co  Co14  1  0.387141  0.887141  0.500000  1
  Co  Co15  1  0.612859  0.112859  0.500000  1
  Co  Co16  1  0.000000  0.000000  0.000000  1
  Pb  Pb17  1  0.500000  0.500000  0.000000  1
