# generated using pymatgen
data_Ho16Al4Ni3Rh
_symmetry_space_group_name_H-M   'P 1'
_cell_length_a   9.43812505
_cell_length_b   9.43812515
_cell_length_c   9.43812460
_cell_angle_alpha   59.96661319
_cell_angle_beta   59.96661547
_cell_angle_gamma   59.96660527
_symmetry_Int_Tables_number   1
_chemical_formula_structural   Ho16Al4Ni3Rh
_chemical_formula_sum   'Ho16 Al4 Ni3 Rh1'
_cell_volume   594.03661035
_cell_formula_units_Z   1
loop_
 _symmetry_equiv_pos_site_id
 _symmetry_equiv_pos_as_xyz
  1  'x, y, z'
loop_
 _atom_site_type_symbol
 _atom_site_label
 _atom_site_symmetry_multiplicity
 _atom_site_fract_x
 _atom_site_fract_y
 _atom_site_fract_z
 _atom_site_occupancy
  Ho  Ho0  1  0.348793  0.348793  0.348793  1
  Ho  Ho1  1  0.353023  0.353023  0.944490  1
  Ho  Ho2  1  0.353023  0.944490  0.353023  1
  Ho  Ho3  1  0.944490  0.353023  0.353023  1
  Ho  Ho4  1  0.805264  0.192482  0.192482  1
  Ho  Ho5  1  0.192906  0.807985  0.807985  1
  Ho  Ho6  1  0.192482  0.805264  0.192482  1
  Ho  Ho7  1  0.807985  0.192906  0.807985  1
  Ho  Ho8  1  0.192482  0.192482  0.805264  1
  Ho  Ho9  1  0.807985  0.807985  0.192906  1
  Ho  Ho10  1  0.935557  0.564662  0.564661  1
  Ho  Ho11  1  0.563057  0.936466  0.936465  1
  Ho  Ho12  1  0.564662  0.935557  0.564661  1
  Ho  Ho13  1  0.936466  0.563058  0.936465  1
  Ho  Ho14  1  0.564661  0.564662  0.935556  1
  Ho  Ho15  1  0.936466  0.936466  0.563057  1
  Al  Al16  1  0.578870  0.578870  0.578870  1
  Al  Al17  1  0.577057  0.577057  0.269428  1
  Al  Al18  1  0.577057  0.269428  0.577057  1
  Al  Al19  1  0.269428  0.577057  0.577057  1
  Ni  Ni20  1  0.141097  0.141097  0.573434  1
  Ni  Ni21  1  0.141097  0.573434  0.141097  1
  Ni  Ni22  1  0.573434  0.141097  0.141097  1
  Rh  Rh23  1  0.142656  0.142656  0.142656  1
