# generated using pymatgen
data_Tb2DyPa(Al3Ir)6
_symmetry_space_group_name_H-M   'P 1'
_cell_length_a   7.57840101
_cell_length_b   7.57288436
_cell_length_c   9.43643000
_cell_angle_alpha   90.00000000
_cell_angle_beta   90.00000000
_cell_angle_gamma   119.61442298
_symmetry_Int_Tables_number   1
_chemical_formula_structural   Tb2DyPa(Al3Ir)6
_chemical_formula_sum   'Tb2 Dy1 Pa1 Al18 Ir6'
_cell_volume   470.81637652
_cell_formula_units_Z   1
loop_
 _symmetry_equiv_pos_site_id
 _symmetry_equiv_pos_as_xyz
  1  'x, y, z'
loop_
 _atom_site_type_symbol
 _atom_site_label
 _atom_site_symmetry_multiplicity
 _atom_site_fract_x
 _atom_site_fract_y
 _atom_site_fract_z
 _atom_site_occupancy
  Tb  Tb0  1  0.004961  0.329501  0.250000  1
  Tb  Tb1  1  0.671710  0.994973  0.750000  1
  Dy  Dy2  1  0.329622  0.004370  0.250000  1
  Pa  Pa3  1  0.996001  0.671064  0.750000  1
  Al  Al4  1  0.131395  0.130324  0.750000  1
  Al  Al5  1  0.872709  0.873911  0.250000  1
  Al  Al6  1  0.001013  0.332273  0.574564  1
  Al  Al7  1  0.999046  0.665011  0.421628  1
  Al  Al8  1  0.999046  0.665011  0.078372  1
  Al  Al9  1  0.338162  0.003825  0.925444  1
  Al  Al10  1  0.001013  0.332273  0.925436  1
  Al  Al11  1  0.665140  0.999735  0.075564  1
  Al  Al12  1  0.665140  0.999735  0.424436  1
  Al  Al13  1  0.338162  0.003825  0.574556  1
  Al  Al14  1  0.332925  0.332843  0.054896  1
  Al  Al15  1  0.663262  0.665771  0.948215  1
  Al  Al16  1  0.663262  0.665771  0.551785  1
  Al  Al17  1  0.332925  0.332843  0.445104  1
  Al  Al18  1  0.339044  0.546486  0.750000  1
  Al  Al19  1  0.659489  0.450307  0.250000  1
  Al  Al20  1  0.546356  0.341382  0.750000  1
  Al  Al21  1  0.451367  0.660993  0.250000  1
  Ir  Ir22  1  0.673817  0.330169  0.502198  1
  Ir  Ir23  1  0.325956  0.671917  0.502209  1
  Ir  Ir24  1  0.325956  0.671917  0.997791  1
  Ir  Ir25  1  0.673817  0.330169  0.997802  1
  Ir  Ir26  1  0.999351  0.996800  0.503100  1
  Ir  Ir27  1  0.999351  0.996800  0.996900  1
