# generated using pymatgen
data_NdErRe4(SiC)2
_symmetry_space_group_name_H-M   'P 1'
_cell_length_a   5.82367073
_cell_length_b   5.82367008
_cell_length_c   7.33894100
_cell_angle_alpha   90.00000000
_cell_angle_beta   90.00000000
_cell_angle_gamma   140.19263699
_symmetry_Int_Tables_number   1
_chemical_formula_structural   NdErRe4(SiC)2
_chemical_formula_sum   'Nd1 Er1 Re4 Si2 C2'
_cell_volume   159.34863852
_cell_formula_units_Z   1
loop_
 _symmetry_equiv_pos_site_id
 _symmetry_equiv_pos_as_xyz
  1  'x, y, z'
loop_
 _atom_site_type_symbol
 _atom_site_label
 _atom_site_symmetry_multiplicity
 _atom_site_fract_x
 _atom_site_fract_y
 _atom_site_fract_z
 _atom_site_occupancy
  Nd  Nd0  1  0.543037  0.456963  0.250000  1
  Er  Er1  1  0.457058  0.542942  0.750000  1
  Re  Re2  1  0.826559  0.173441  0.058473  1
  Re  Re3  1  0.173866  0.826134  0.936431  1
  Re  Re4  1  0.173866  0.826134  0.563569  1
  Re  Re5  1  0.826559  0.173441  0.441527  1
  Si  Si6  1  0.264682  0.735318  0.250000  1
  Si  Si7  1  0.735942  0.264058  0.750000  1
  C  C8  1  0.999216  0.000784  0.992545  1
  C  C9  1  0.999216  0.000784  0.507455  1
