# generated using pymatgen
data_Ba2Co2RhN3
_symmetry_space_group_name_H-M   'P 1'
_cell_length_a   6.79410534
_cell_length_b   6.79410478
_cell_length_c   6.79502187
_cell_angle_alpha   88.54487482
_cell_angle_beta   88.54487226
_cell_angle_gamma   116.84344507
_symmetry_Int_Tables_number   1
_chemical_formula_structural   Ba2Co2RhN3
_chemical_formula_sum   'Ba4 Co4 Rh2 N6'
_cell_volume   279.52947966
_cell_formula_units_Z   2
loop_
 _symmetry_equiv_pos_site_id
 _symmetry_equiv_pos_as_xyz
  1  'x, y, z'
loop_
 _atom_site_type_symbol
 _atom_site_label
 _atom_site_symmetry_multiplicity
 _atom_site_fract_x
 _atom_site_fract_y
 _atom_site_fract_z
 _atom_site_occupancy
  Ba  Ba0  1  0.839100  0.674899  0.900150  1
  Ba  Ba1  1  0.325101  0.160900  0.599850  1
  Ba  Ba2  1  0.160900  0.325101  0.099850  1
  Ba  Ba3  1  0.674899  0.839100  0.400150  1
  Co  Co4  1  0.554512  0.154244  0.100973  1
  Co  Co5  1  0.445488  0.845756  0.899027  1
  Co  Co6  1  0.845756  0.445488  0.399027  1
  Co  Co7  1  0.154244  0.554512  0.600973  1
  Rh  Rh8  1  0.804839  0.195161  0.750000  1
  Rh  Rh9  1  0.195161  0.804839  0.250000  1
  N  N10  1  0.382686  0.617314  0.750000  1
  N  N11  1  0.617314  0.382686  0.250000  1
  N  N12  1  0.016720  0.718812  0.501077  1
  N  N13  1  0.718812  0.016720  0.001077  1
  N  N14  1  0.983280  0.281188  0.498923  1
  N  N15  1  0.281188  0.983280  0.998923  1
