# generated using pymatgen
data_Tb3YbSb6Rh7
_symmetry_space_group_name_H-M   'P 1'
_cell_length_a   7.62936671
_cell_length_b   7.62515633
_cell_length_c   7.62515715
_cell_angle_alpha   109.46003519
_cell_angle_beta   109.48239965
_cell_angle_gamma   109.48241000
_symmetry_Int_Tables_number   1
_chemical_formula_structural   Tb3YbSb6Rh7
_chemical_formula_sum   'Tb3 Yb1 Sb6 Rh7'
_cell_volume   341.43196751
_cell_formula_units_Z   1
loop_
 _symmetry_equiv_pos_site_id
 _symmetry_equiv_pos_as_xyz
  1  'x, y, z'
loop_
 _atom_site_type_symbol
 _atom_site_label
 _atom_site_symmetry_multiplicity
 _atom_site_fract_x
 _atom_site_fract_y
 _atom_site_fract_z
 _atom_site_occupancy
  Tb  Tb0  1  0.000000  0.500000  0.000000  1
  Tb  Tb1  1  0.000000  0.000000  0.500000  1
  Tb  Tb2  1  0.500000  0.500000  0.500000  1
  Yb  Yb3  1  0.500000  0.000000  0.000000  1
  Sb  Sb4  1  0.997261  0.316904  0.316904  1
  Sb  Sb5  1  0.680357  0.000000  0.683096  1
  Sb  Sb6  1  0.680357  0.683096  0.000000  1
  Sb  Sb7  1  0.002739  0.683096  0.683096  1
  Sb  Sb8  1  0.319643  0.000000  0.316904  1
  Sb  Sb9  1  0.319643  0.316904  0.000000  1
  Rh  Rh10  1  0.000000  0.000000  0.000000  1
  Rh  Rh11  1  0.500000  0.747901  0.252099  1
  Rh  Rh12  1  0.752099  0.504198  0.252099  1
  Rh  Rh13  1  0.247901  0.747901  0.495802  1
  Rh  Rh14  1  0.247901  0.495802  0.747901  1
  Rh  Rh15  1  0.500000  0.252099  0.747901  1
  Rh  Rh16  1  0.752099  0.252099  0.504198  1
