# generated using pymatgen
data_Li2Sc(P3Pd10)2
_symmetry_space_group_name_H-M   'P 1'
_cell_length_a   8.57235011
_cell_length_b   8.57234982
_cell_length_c   8.57235100
_cell_angle_alpha   59.99999932
_cell_angle_beta   60.00000043
_cell_angle_gamma   59.99999472
_symmetry_Int_Tables_number   1
_chemical_formula_structural   Li2Sc(P3Pd10)2
_chemical_formula_sum   'Li2 Sc1 P6 Pd20'
_cell_volume   445.43538608
_cell_formula_units_Z   1
loop_
 _symmetry_equiv_pos_site_id
 _symmetry_equiv_pos_as_xyz
  1  'x, y, z'
loop_
 _atom_site_type_symbol
 _atom_site_label
 _atom_site_symmetry_multiplicity
 _atom_site_fract_x
 _atom_site_fract_y
 _atom_site_fract_z
 _atom_site_occupancy
  Li  Li0  1  0.000000  0.000000  0.000000  1
  Li  Li1  1  0.750000  0.750000  0.750000  1
  Sc  Sc2  1  0.250000  0.250000  0.250000  1
  P  P3  1  0.737312  0.262688  0.262688  1
  P  P4  1  0.737312  0.737312  0.262688  1
  P  P5  1  0.737312  0.262688  0.737312  1
  P  P6  1  0.262688  0.737312  0.262688  1
  P  P7  1  0.262688  0.737312  0.737312  1
  P  P8  1  0.262688  0.262688  0.737312  1
  Pd  Pd9  1  0.342793  0.001216  0.001216  1
  Pd  Pd10  1  0.001216  0.654775  0.342793  1
  Pd  Pd11  1  0.342793  0.001216  0.654775  1
  Pd  Pd12  1  0.001216  0.654775  0.001216  1
  Pd  Pd13  1  0.654775  0.342793  0.001216  1
  Pd  Pd14  1  0.616877  0.616877  0.149369  1
  Pd  Pd15  1  0.382136  0.853595  0.382136  1
  Pd  Pd16  1  0.149369  0.616877  0.616877  1
  Pd  Pd17  1  0.654775  0.001216  0.342793  1
  Pd  Pd18  1  0.001216  0.342793  0.654775  1
  Pd  Pd19  1  0.654775  0.001216  0.001216  1
  Pd  Pd20  1  0.001216  0.001216  0.342793  1
  Pd  Pd21  1  0.616877  0.149369  0.616877  1
  Pd  Pd22  1  0.342793  0.654775  0.001216  1
  Pd  Pd23  1  0.382136  0.382136  0.382136  1
  Pd  Pd24  1  0.616877  0.616877  0.616877  1
  Pd  Pd25  1  0.382136  0.382136  0.853595  1
  Pd  Pd26  1  0.001216  0.001216  0.654775  1
  Pd  Pd27  1  0.853595  0.382136  0.382136  1
  Pd  Pd28  1  0.001216  0.342793  0.001216  1
