# generated using pymatgen
data_Ce2Al7Cu18Si
_symmetry_space_group_name_H-M   'P 1'
_cell_length_a   8.38550156
_cell_length_b   8.27484964
_cell_length_c   8.32662900
_cell_angle_alpha   120.32884091
_cell_angle_beta   120.76064654
_cell_angle_gamma   89.12189443
_symmetry_Int_Tables_number   1
_chemical_formula_structural   Ce2Al7Cu18Si
_chemical_formula_sum   'Ce2 Al7 Cu18 Si1'
_cell_volume   404.90012067
_cell_formula_units_Z   1
loop_
 _symmetry_equiv_pos_site_id
 _symmetry_equiv_pos_as_xyz
  1  'x, y, z'
loop_
 _atom_site_type_symbol
 _atom_site_label
 _atom_site_symmetry_multiplicity
 _atom_site_fract_x
 _atom_site_fract_y
 _atom_site_fract_z
 _atom_site_occupancy
  Ce  Ce0  1  0.750775  0.750625  0.005116  1
  Ce  Ce1  1  0.244730  0.245108  0.994030  1
  Al  Al2  1  0.061265  0.557973  0.860719  1
  Al  Al3  1  0.697786  0.199823  0.139345  1
  Al  Al4  1  0.553935  0.692117  0.497038  1
  Al  Al5  1  0.207504  0.063180  0.502077  1
  Al  Al6  1  0.942794  0.441915  0.141457  1
  Al  Al7  1  0.299057  0.803387  0.858766  1
  Al  Al8  1  0.442272  0.303250  0.497340  1
  Cu  Cu9  1  0.059950  0.202135  0.262889  1
  Cu  Cu10  1  0.937203  0.797359  0.733412  1
  Cu  Cu11  1  0.564677  0.300143  0.858808  1
  Cu  Cu12  1  0.439654  0.703559  0.144023  1
  Cu  Cu13  1  0.794792  0.058763  0.855761  1
  Cu  Cu14  1  0.204938  0.940546  0.141277  1
  Cu  Cu15  1  0.704404  0.564490  0.266746  1
  Cu  Cu16  1  0.297948  0.440307  0.737136  1
  Cu  Cu17  1  0.435695  0.938254  0.732541  1
  Cu  Cu18  1  0.202879  0.705818  0.267370  1
  Cu  Cu19  1  0.940040  0.193666  0.500465  1
  Cu  Cu20  1  0.706717  0.437268  0.500516  1
  Cu  Cu21  1  0.565541  0.060065  0.266780  1
  Cu  Cu22  1  0.798987  0.293387  0.733673  1
  Cu  Cu23  1  0.054816  0.805674  0.500304  1
  Cu  Cu24  1  0.292503  0.563052  0.500331  1
  Cu  Cu25  1  0.999305  0.498308  0.500171  1
  Cu  Cu26  1  0.502854  0.999348  0.500047  1
  Si  Si27  1  0.796982  0.940482  0.501861  1
