# generated using pymatgen
data_HoEr2Zn2In3Rh
_symmetry_space_group_name_H-M   'P 1'
_cell_length_a   7.74109101
_cell_length_b   7.73551341
_cell_length_c   3.80036800
_cell_angle_alpha   90.00000000
_cell_angle_beta   90.00000000
_cell_angle_gamma   120.01879536
_symmetry_Int_Tables_number   1
_chemical_formula_structural   HoEr2Zn2In3Rh
_chemical_formula_sum   'Ho1 Er2 Zn2 In3 Rh1'
_cell_volume   197.04495348
_cell_formula_units_Z   1
loop_
 _symmetry_equiv_pos_site_id
 _symmetry_equiv_pos_as_xyz
  1  'x, y, z'
loop_
 _atom_site_type_symbol
 _atom_site_label
 _atom_site_symmetry_multiplicity
 _atom_site_fract_x
 _atom_site_fract_y
 _atom_site_fract_z
 _atom_site_occupancy
  Ho  Ho0  1  0.024818  0.608985  0.500000  1
  Er  Er1  1  0.390844  0.416106  0.500000  1
  Er  Er2  1  0.583931  0.974625  0.500000  1
  Zn  Zn3  1  0.666394  0.333163  0.000000  1
  Zn  Zn4  1  0.000004  0.000093  0.500000  1
  In  In5  1  0.266314  0.005288  0.000000  1
  In  In6  1  0.738776  0.733949  0.000000  1
  In  In7  1  0.994961  0.260916  0.000000  1
  Rh  Rh8  1  0.333959  0.666875  0.000000  1
