# generated using pymatgen
data_Lu2MgAl3GeAu2
_symmetry_space_group_name_H-M   'P 1'
_cell_length_a   6.93185346
_cell_length_b   6.85915913
_cell_length_c   4.17055500
_cell_angle_alpha   90.00000000
_cell_angle_beta   90.00000000
_cell_angle_gamma   118.70654319
_symmetry_Int_Tables_number   1
_chemical_formula_structural   Lu2MgAl3GeAu2
_chemical_formula_sum   'Lu2 Mg1 Al3 Ge1 Au2'
_cell_volume   173.92376011
_cell_formula_units_Z   1
loop_
 _symmetry_equiv_pos_site_id
 _symmetry_equiv_pos_as_xyz
  1  'x, y, z'
loop_
 _atom_site_type_symbol
 _atom_site_label
 _atom_site_symmetry_multiplicity
 _atom_site_fract_x
 _atom_site_fract_y
 _atom_site_fract_z
 _atom_site_occupancy
  Lu  Lu0  1  0.578095  0.001532  0.500000  1
  Lu  Lu1  1  0.996854  0.575253  0.500000  1
  Mg  Mg2  1  0.406655  0.418214  0.500000  1
  Al  Al3  1  0.755316  0.762380  0.000000  1
  Al  Al4  1  0.238703  0.988567  0.000000  1
  Al  Al5  1  0.009625  0.248847  0.000000  1
  Ge  Ge6  1  0.666930  0.335408  0.000000  1
  Au  Au7  1  0.338488  0.662099  0.000000  1
  Au  Au8  1  0.009333  0.007701  0.500000  1
