# generated using pymatgen
data_K16ZrSnBi7Sb
_symmetry_space_group_name_H-M   'P 1'
_cell_length_a   11.83149234
_cell_length_b   11.84098610
_cell_length_c   11.82050300
_cell_angle_alpha   60.05720361
_cell_angle_beta   60.03071761
_cell_angle_gamma   60.08759005
_symmetry_Int_Tables_number   1
_chemical_formula_structural   K16ZrSnBi7Sb
_chemical_formula_sum   'K16 Zr1 Sn1 Bi7 Sb1'
_cell_volume   1172.52904412
_cell_formula_units_Z   1
loop_
 _symmetry_equiv_pos_site_id
 _symmetry_equiv_pos_as_xyz
  1  'x, y, z'
loop_
 _atom_site_type_symbol
 _atom_site_label
 _atom_site_symmetry_multiplicity
 _atom_site_fract_x
 _atom_site_fract_y
 _atom_site_fract_z
 _atom_site_occupancy
  K  K0  1  0.623189  0.130827  0.622992  1
  K  K1  1  0.623435  0.621461  0.131757  1
  K  K2  1  0.131807  0.621439  0.623377  1
  K  K3  1  0.623435  0.621461  0.623347  1
  K  K4  1  0.020733  0.020734  0.479266  1
  K  K5  1  0.779681  0.222995  0.217181  1
  K  K6  1  0.220879  0.778748  0.779680  1
  K  K7  1  0.779383  0.778976  0.220820  1
  K  K8  1  0.779681  0.222995  0.780142  1
  K  K9  1  0.220879  0.778748  0.220693  1
  K  K10  1  0.479271  0.020848  0.478881  1
  K  K11  1  0.479271  0.020848  0.021000  1
  K  K12  1  0.019516  0.479120  0.481622  1
  K  K13  1  0.019516  0.479120  0.019741  1
  K  K14  1  0.217247  0.222829  0.779962  1
  K  K15  1  0.481635  0.478615  0.019875  1
  Zr  Zr16  1  0.750647  0.748026  0.750664  1
  Sn  Sn17  1  0.500603  0.499979  0.499709  1
  Bi  Bi18  1  0.395088  0.814372  0.395270  1
  Bi  Bi19  1  0.852067  0.851152  0.444960  1
  Bi  Bi20  1  0.445290  0.851063  0.851824  1
  Bi  Bi21  1  0.852067  0.851152  0.851822  1
  Bi  Bi22  1  0.814763  0.394795  0.395221  1
  Bi  Bi23  1  0.394947  0.394711  0.395163  1
  Bi  Bi24  1  0.394947  0.394711  0.815179  1
  Sb  Sb25  1  0.850023  0.450276  0.849851  1
