# generated using pymatgen
data_Tb18Y2Si15Os
_symmetry_space_group_name_H-M   'P 1'
_cell_length_a   7.42259719
_cell_length_b   7.78723641
_cell_length_c   14.68567300
_cell_angle_alpha   90.00000000
_cell_angle_beta   90.00000000
_cell_angle_gamma   90.04110409
_symmetry_Int_Tables_number   1
_chemical_formula_structural   Tb18Y2Si15Os
_chemical_formula_sum   'Tb18 Y2 Si15 Os1'
_cell_volume   848.85399030
_cell_formula_units_Z   1
loop_
 _symmetry_equiv_pos_site_id
 _symmetry_equiv_pos_as_xyz
  1  'x, y, z'
loop_
 _atom_site_type_symbol
 _atom_site_label
 _atom_site_symmetry_multiplicity
 _atom_site_fract_x
 _atom_site_fract_y
 _atom_site_fract_z
 _atom_site_occupancy
  Tb  Tb0  1  0.672424  0.185015  0.625091  1
  Tb  Tb1  1  0.191313  0.323895  0.873438  1
  Tb  Tb2  1  0.318262  0.819754  0.123151  1
  Tb  Tb3  1  0.817123  0.678876  0.377453  1
  Tb  Tb4  1  0.318262  0.819754  0.376849  1
  Tb  Tb5  1  0.817123  0.678876  0.122547  1
  Tb  Tb6  1  0.672424  0.185015  0.874909  1
  Tb  Tb7  1  0.191313  0.323895  0.626562  1
  Tb  Tb8  1  0.522183  0.674177  0.596938  1
  Tb  Tb9  1  0.026751  0.815837  0.903470  1
  Tb  Tb10  1  0.473274  0.315335  0.097175  1
  Tb  Tb11  1  0.973274  0.183276  0.403112  1
  Tb  Tb12  1  0.473274  0.315335  0.402825  1
  Tb  Tb13  1  0.973274  0.183276  0.096888  1
  Tb  Tb14  1  0.522183  0.674177  0.903062  1
  Tb  Tb15  1  0.026751  0.815837  0.596530  1
  Tb  Tb16  1  0.840160  0.512701  0.750000  1
  Tb  Tb17  1  0.354920  0.985332  0.750000  1
  Y  Y18  1  0.150437  0.484205  0.250000  1
  Y  Y19  1  0.649909  0.014691  0.250000  1
  Si  Si20  1  0.645298  0.972072  0.460269  1
  Si  Si21  1  0.148302  0.528097  0.039283  1
  Si  Si22  1  0.350175  0.025450  0.961011  1
  Si  Si23  1  0.857275  0.471055  0.538966  1
  Si  Si24  1  0.350175  0.025450  0.538989  1
  Si  Si25  1  0.857275  0.471055  0.961034  1
  Si  Si26  1  0.645298  0.972072  0.039731  1
  Si  Si27  1  0.148302  0.528097  0.460717  1
  Si  Si28  1  0.978653  0.100233  0.750000  1
  Si  Si29  1  0.524111  0.601922  0.250000  1
  Si  Si30  1  0.020973  0.896095  0.250000  1
  Si  Si31  1  0.742307  0.876680  0.750000  1
  Si  Si32  1  0.231993  0.632795  0.750000  1
  Si  Si33  1  0.266394  0.127207  0.250000  1
  Si  Si34  1  0.767764  0.373370  0.250000  1
  Os  Os35  1  0.481069  0.409086  0.750000  1
