# generated using pymatgen
data_La3Pr3IrBr10
_symmetry_space_group_name_H-M   'P 1'
_cell_length_a   7.81951213
_cell_length_b   9.74965882
_cell_length_c   9.63579076
_cell_angle_alpha   108.41344981
_cell_angle_beta   96.09089061
_cell_angle_gamma   106.99539112
_symmetry_Int_Tables_number   1
_chemical_formula_structural   La3Pr3IrBr10
_chemical_formula_sum   'La3 Pr3 Ir1 Br10'
_cell_volume   650.42480189
_cell_formula_units_Z   1
loop_
 _symmetry_equiv_pos_site_id
 _symmetry_equiv_pos_as_xyz
  1  'x, y, z'
loop_
 _atom_site_type_symbol
 _atom_site_label
 _atom_site_symmetry_multiplicity
 _atom_site_fract_x
 _atom_site_fract_y
 _atom_site_fract_z
 _atom_site_occupancy
  La  La0  1  0.131331  0.053323  0.762976  1
  La  La1  1  0.630066  0.853535  0.808262  1
  La  La2  1  0.869375  0.948482  0.237206  1
  Pr  Pr3  1  0.029542  0.695884  0.901686  1
  Pr  Pr4  1  0.366042  0.143374  0.187710  1
  Pr  Pr5  1  0.971684  0.304860  0.100348  1
  Ir  Ir6  1  0.998689  0.999548  0.998910  1
  Br  Br7  1  0.205280  0.746298  0.651520  1
  Br  Br8  1  0.648488  0.540622  0.727365  1
  Br  Br9  1  0.246216  0.081112  0.452857  1
  Br  Br10  1  0.790535  0.253305  0.347399  1
  Br  Br11  1  0.551842  0.172511  0.923078  1
  Br  Br12  1  0.756903  0.920308  0.544984  1
  Br  Br13  1  0.911514  0.630243  0.166813  1
  Br  Br14  1  0.354170  0.456353  0.274201  1
  Br  Br15  1  0.090480  0.371488  0.835458  1
  Br  Br16  1  0.447841  0.828756  0.079228  1
