# generated using pymatgen
data_Zr6Sc4Al12Rh6Au
_symmetry_space_group_name_H-M   'P 1'
_cell_length_a   8.94775791
_cell_length_b   8.94775684
_cell_length_c   8.93020000
_cell_angle_alpha   60.06487882
_cell_angle_beta   60.06488275
_cell_angle_gamma   59.97725260
_symmetry_Int_Tables_number   1
_chemical_formula_structural   Zr6Sc4Al12Rh6Au
_chemical_formula_sum   'Zr6 Sc4 Al12 Rh6 Au1'
_cell_volume   505.97018845
_cell_formula_units_Z   1
loop_
 _symmetry_equiv_pos_site_id
 _symmetry_equiv_pos_as_xyz
  1  'x, y, z'
loop_
 _atom_site_type_symbol
 _atom_site_label
 _atom_site_symmetry_multiplicity
 _atom_site_fract_x
 _atom_site_fract_y
 _atom_site_fract_z
 _atom_site_occupancy
  Zr  Zr0  1  0.677337  0.677337  0.322663  1
  Zr  Zr1  1  0.314173  0.685716  0.313465  1
  Zr  Zr2  1  0.685716  0.314173  0.313465  1
  Zr  Zr3  1  0.320955  0.320955  0.679045  1
  Zr  Zr4  1  0.685716  0.314173  0.686645  1
  Zr  Zr5  1  0.314173  0.685716  0.686645  1
  Sc  Sc6  1  0.875815  0.875815  0.355318  1
  Sc  Sc7  1  0.881495  0.356965  0.880769  1
  Sc  Sc8  1  0.356965  0.881495  0.880769  1
  Sc  Sc9  1  0.875815  0.875815  0.893051  1
  Al  Al10  1  0.124135  0.124135  0.636640  1
  Al  Al11  1  0.126618  0.635502  0.118941  1
  Al  Al12  1  0.635502  0.126618  0.118941  1
  Al  Al13  1  0.124135  0.124135  0.115091  1
  Al  Al14  1  0.662311  0.662311  0.009684  1
  Al  Al15  1  0.656792  0.011738  0.665734  1
  Al  Al16  1  0.011738  0.656792  0.665734  1
  Al  Al17  1  0.662311  0.662311  0.665694  1
  Al  Al18  1  0.336358  0.336358  0.991605  1
  Al  Al19  1  0.343911  0.991450  0.332320  1
  Al  Al20  1  0.991450  0.343911  0.332320  1
  Al  Al21  1  0.336358  0.336358  0.335679  1
  Rh  Rh22  1  0.000102  0.000102  0.999898  1
  Rh  Rh23  1  0.499631  0.000446  0.498884  1
  Rh  Rh24  1  0.000446  0.499631  0.498884  1
  Rh  Rh25  1  0.499154  0.499154  0.000846  1
  Rh  Rh26  1  0.000446  0.499631  0.001039  1
  Rh  Rh27  1  0.499631  0.000446  0.001039  1
  Au  Au28  1  0.000810  0.000810  0.499190  1
