# generated using pymatgen
data_Tm3B6(Ir3Ru)2
_symmetry_space_group_name_H-M   'P 1'
_cell_length_a   9.96626203
_cell_length_b   9.16016948
_cell_length_c   5.56762873
_cell_angle_alpha   81.21357016
_cell_angle_beta   65.27579952
_cell_angle_gamma   33.11695780
_symmetry_Int_Tables_number   1
_chemical_formula_structural   Tm3B6(Ir3Ru)2
_chemical_formula_sum   'Tm3 B6 Ir6 Ru2'
_cell_volume   231.39577490
_cell_formula_units_Z   1
loop_
 _symmetry_equiv_pos_site_id
 _symmetry_equiv_pos_as_xyz
  1  'x, y, z'
loop_
 _atom_site_type_symbol
 _atom_site_label
 _atom_site_symmetry_multiplicity
 _atom_site_fract_x
 _atom_site_fract_y
 _atom_site_fract_z
 _atom_site_occupancy
  Tm  Tm0  1  0.000000  0.000000  0.000000  1
  Tm  Tm1  1  0.822825  0.822825  0.177175  1
  Tm  Tm2  1  0.177175  0.177175  0.822825  1
  B  B3  1  0.667627  0.332373  0.681049  1
  B  B4  1  0.332373  0.667627  0.318951  1
  B  B5  1  0.179725  0.473597  0.514977  1
  B  B6  1  0.473597  0.179725  0.831700  1
  B  B7  1  0.820275  0.526403  0.485023  1
  B  B8  1  0.526403  0.820275  0.168300  1
  Ir  Ir9  1  0.913834  0.913834  0.586166  1
  Ir  Ir10  1  0.414909  0.414909  0.585091  1
  Ir  Ir11  1  0.585091  0.585091  0.414909  1
  Ir  Ir12  1  0.249123  0.249123  0.250877  1
  Ir  Ir13  1  0.750877  0.750877  0.749123  1
  Ir  Ir14  1  0.086166  0.086166  0.413834  1
  Ru  Ru15  1  0.586599  0.586599  0.913401  1
  Ru  Ru16  1  0.413401  0.413401  0.086599  1
