# generated using pymatgen
data_Tm16MgAl(CdPt2)2
_symmetry_space_group_name_H-M   'P 1'
_cell_length_a   9.52444236
_cell_length_b   9.52444624
_cell_length_c   9.55399930
_cell_angle_alpha   60.33568417
_cell_angle_beta   60.33570010
_cell_angle_gamma   60.16044934
_symmetry_Int_Tables_number   1
_chemical_formula_structural   Tm16MgAl(CdPt2)2
_chemical_formula_sum   'Tm16 Mg1 Al1 Cd2 Pt4'
_cell_volume   616.68547003
_cell_formula_units_Z   1
loop_
 _symmetry_equiv_pos_site_id
 _symmetry_equiv_pos_as_xyz
  1  'x, y, z'
loop_
 _atom_site_type_symbol
 _atom_site_label
 _atom_site_symmetry_multiplicity
 _atom_site_fract_x
 _atom_site_fract_y
 _atom_site_fract_z
 _atom_site_occupancy
  Tm  Tm0  1  0.348162  0.348162  0.347690  1
  Tm  Tm1  1  0.358167  0.358165  0.934473  1
  Tm  Tm2  1  0.354913  0.939858  0.356993  1
  Tm  Tm3  1  0.939858  0.354913  0.356993  1
  Tm  Tm4  1  0.810793  0.189393  0.189283  1
  Tm  Tm5  1  0.194776  0.807590  0.807609  1
  Tm  Tm6  1  0.189391  0.810794  0.189284  1
  Tm  Tm7  1  0.807590  0.194775  0.807609  1
  Tm  Tm8  1  0.191138  0.191139  0.808317  1
  Tm  Tm9  1  0.808516  0.808516  0.193633  1
  Tm  Tm10  1  0.932143  0.567297  0.567115  1
  Tm  Tm11  1  0.563657  0.937379  0.935806  1
  Tm  Tm12  1  0.567296  0.932143  0.567114  1
  Tm  Tm13  1  0.937381  0.563657  0.935806  1
  Tm  Tm14  1  0.568027  0.568026  0.929105  1
  Tm  Tm15  1  0.936941  0.936941  0.563085  1
  Mg  Mg16  1  0.575339  0.575339  0.270434  1
  Al  Al17  1  0.582021  0.582022  0.583727  1
  Cd  Cd18  1  0.581705  0.254113  0.580808  1
  Cd  Cd19  1  0.254113  0.581705  0.580808  1
  Pt  Pt20  1  0.145447  0.145447  0.143097  1
  Pt  Pt21  1  0.140418  0.140417  0.572689  1
  Pt  Pt22  1  0.140809  0.571403  0.139261  1
  Pt  Pt23  1  0.571403  0.140809  0.139262  1
