# generated using pymatgen
data_Pa2TlF11
_symmetry_space_group_name_H-M   'P 1'
_cell_length_a   9.33934309
_cell_length_b   9.33934312
_cell_length_c   9.33934466
_cell_angle_alpha   124.77672669
_cell_angle_beta   107.27980361
_cell_angle_gamma   97.61881176
_symmetry_Int_Tables_number   1
_chemical_formula_structural   Pa2TlF11
_chemical_formula_sum   'Pa4 Tl2 F22'
_cell_volume   589.63928150
_cell_formula_units_Z   2
loop_
 _symmetry_equiv_pos_site_id
 _symmetry_equiv_pos_as_xyz
  1  'x, y, z'
loop_
 _atom_site_type_symbol
 _atom_site_label
 _atom_site_symmetry_multiplicity
 _atom_site_fract_x
 _atom_site_fract_y
 _atom_site_fract_z
 _atom_site_occupancy
  Pa  Pa0  1  0.678978  0.140740  0.819717  1
  Pa  Pa1  1  0.321022  0.859260  0.180283  1
  Pa  Pa2  1  0.178978  0.359260  0.538239  1
  Pa  Pa3  1  0.821022  0.640740  0.461761  1
  Tl  Tl4  1  0.750000  0.750000  0.000000  1
  Tl  Tl5  1  0.250000  0.250000  0.000000  1
  F  F6  1  0.500000  0.000000  0.500000  1
  F  F7  1  0.000000  0.500000  0.500000  1
  F  F8  1  0.777469  0.369663  0.147133  1
  F  F9  1  0.222531  0.630337  0.852867  1
  F  F10  1  0.277469  0.130337  0.407806  1
  F  F11  1  0.722531  0.869663  0.592194  1
  F  F12  1  0.698520  0.367269  0.822334  1
  F  F13  1  0.544937  0.876186  0.177666  1
  F  F14  1  0.955063  0.132731  0.331251  1
  F  F15  1  0.801480  0.623814  0.668749  1
  F  F16  1  0.301480  0.632731  0.177666  1
  F  F17  1  0.455063  0.123814  0.822334  1
  F  F18  1  0.044937  0.867269  0.668749  1
  F  F19  1  0.198520  0.376186  0.331251  1
  F  F20  1  0.926732  0.229269  0.900496  1
  F  F21  1  0.328772  0.026235  0.099504  1
  F  F22  1  0.171228  0.270731  0.697462  1
  F  F23  1  0.573268  0.473765  0.302538  1
  F  F24  1  0.073268  0.770731  0.099504  1
  F  F25  1  0.671228  0.973765  0.900496  1
  F  F26  1  0.828772  0.729269  0.302538  1
  F  F27  1  0.426732  0.526235  0.697462  1
