# generated using pymatgen
data_Zr8Cr7Si16W5
_symmetry_space_group_name_H-M   'P 1'
_cell_length_a   6.60817769
_cell_length_b   6.62622164
_cell_length_c   12.37507984
_cell_angle_alpha   89.96713281
_cell_angle_beta   89.91472893
_cell_angle_gamma   89.88247223
_symmetry_Int_Tables_number   1
_chemical_formula_structural   Zr8Cr7Si16W5
_chemical_formula_sum   'Zr8 Cr7 Si16 W5'
_cell_volume   541.86888651
_cell_formula_units_Z   1
loop_
 _symmetry_equiv_pos_site_id
 _symmetry_equiv_pos_as_xyz
  1  'x, y, z'
loop_
 _atom_site_type_symbol
 _atom_site_label
 _atom_site_symmetry_multiplicity
 _atom_site_fract_x
 _atom_site_fract_y
 _atom_site_fract_z
 _atom_site_occupancy
  Zr  Zr0  1  0.492325  0.665984  0.594740  1
  Zr  Zr1  1  0.992875  0.831997  0.907217  1
  Zr  Zr2  1  0.506124  0.332078  0.094722  1
  Zr  Zr3  1  0.006146  0.167528  0.404744  1
  Zr  Zr4  1  0.502965  0.331912  0.404382  1
  Zr  Zr5  1  0.005617  0.168045  0.094957  1
  Zr  Zr6  1  0.495618  0.668926  0.907278  1
  Zr  Zr7  1  0.993457  0.832405  0.595135  1
  Cr  Cr8  1  0.663089  0.159851  0.624008  1
  Cr  Cr9  1  0.169535  0.342804  0.877517  1
  Cr  Cr10  1  0.335607  0.840191  0.123837  1
  Cr  Cr11  1  0.830745  0.660640  0.374746  1
  Cr  Cr12  1  0.339949  0.841237  0.374089  1
  Cr  Cr13  1  0.834831  0.659024  0.123812  1
  Cr  Cr14  1  0.662833  0.157986  0.876980  1
  Si  Si15  1  0.668315  0.951194  0.457622  1
  Si  Si16  1  0.166310  0.549833  0.042380  1
  Si  Si17  1  0.333032  0.049551  0.958254  1
  Si  Si18  1  0.827465  0.452890  0.539467  1
  Si  Si19  1  0.338188  0.039504  0.538858  1
  Si  Si20  1  0.835752  0.449371  0.957418  1
  Si  Si21  1  0.665924  0.950456  0.042873  1
  Si  Si22  1  0.163021  0.556269  0.453143  1
  Si  Si23  1  0.466048  0.365610  0.754101  1
  Si  Si24  1  0.955148  0.133203  0.755686  1
  Si  Si25  1  0.540247  0.635567  0.248587  1
  Si  Si26  1  0.041083  0.862985  0.249537  1
  Si  Si27  1  0.696721  0.872011  0.750039  1
  Si  Si28  1  0.199316  0.632786  0.753767  1
  Si  Si29  1  0.301981  0.126759  0.249044  1
  Si  Si30  1  0.801670  0.373222  0.249652  1
  W  W31  1  0.165725  0.336347  0.623450  1
  W  W32  1  0.830329  0.503775  0.749798  1
  W  W33  1  0.328095  0.998433  0.750385  1
  W  W34  1  0.171604  0.497396  0.248435  1
  W  W35  1  0.672313  0.002229  0.249338  1
