# generated using pymatgen
data_TmAs4RuRh5
_symmetry_space_group_name_H-M   'P 1'
_cell_length_a   7.19433500
_cell_length_b   7.26882342
_cell_length_c   3.83476500
_cell_angle_alpha   90.00000000
_cell_angle_beta   90.00000000
_cell_angle_gamma   119.66158977
_symmetry_Int_Tables_number   1
_chemical_formula_structural   TmAs4RuRh5
_chemical_formula_sum   'Tm1 As4 Ru1 Rh5'
_cell_volume   174.25893220
_cell_formula_units_Z   1
loop_
 _symmetry_equiv_pos_site_id
 _symmetry_equiv_pos_as_xyz
  1  'x, y, z'
loop_
 _atom_site_type_symbol
 _atom_site_label
 _atom_site_symmetry_multiplicity
 _atom_site_fract_x
 _atom_site_fract_y
 _atom_site_fract_z
 _atom_site_occupancy
  Tm  Tm0  1  0.000731  0.001462  0.000000  1
  As  As1  1  0.805623  0.187571  0.500000  1
  As  As2  1  0.381947  0.187571  0.500000  1
  As  As3  1  0.334536  0.669073  0.000000  1
  As  As4  1  0.810230  0.620461  0.500000  1
  Ru  Ru5  1  0.534729  0.069458  0.000000  1
  Rh  Rh6  1  0.197375  0.802525  0.500000  1
  Rh  Rh7  1  0.193244  0.386489  0.500000  1
  Rh  Rh8  1  0.933135  0.469766  0.000000  1
  Rh  Rh9  1  0.536631  0.469766  0.000000  1
  Rh  Rh10  1  0.605150  0.802525  0.500000  1
