# generated using pymatgen
data_Tm16Ga6IrRh
_symmetry_space_group_name_H-M   'P 1'
_cell_length_a   9.92547200
_cell_length_b   9.92547122
_cell_length_c   6.89675400
_cell_angle_alpha   90.00000000
_cell_angle_beta   90.00000000
_cell_angle_gamma   120.00000259
_symmetry_Int_Tables_number   1
_chemical_formula_structural   Tm16Ga6IrRh
_chemical_formula_sum   'Tm16 Ga6 Ir1 Rh1'
_cell_volume   588.40676729
_cell_formula_units_Z   1
loop_
 _symmetry_equiv_pos_site_id
 _symmetry_equiv_pos_as_xyz
  1  'x, y, z'
loop_
 _atom_site_type_symbol
 _atom_site_label
 _atom_site_symmetry_multiplicity
 _atom_site_fract_x
 _atom_site_fract_y
 _atom_site_fract_z
 _atom_site_occupancy
  Tm  Tm0  1  0.171095  0.828905  0.990478  1
  Tm  Tm1  1  0.341906  0.170954  0.490060  1
  Tm  Tm2  1  0.829046  0.658094  0.490060  1
  Tm  Tm3  1  0.171095  0.342189  0.990478  1
  Tm  Tm4  1  0.657811  0.828905  0.990478  1
  Tm  Tm5  1  0.829046  0.170954  0.490060  1
  Tm  Tm6  1  0.333333  0.666667  0.661033  1
  Tm  Tm7  1  0.666667  0.333333  0.162554  1
  Tm  Tm8  1  0.466067  0.533933  0.294331  1
  Tm  Tm9  1  0.932321  0.466161  0.795165  1
  Tm  Tm10  1  0.533839  0.067679  0.795165  1
  Tm  Tm11  1  0.466067  0.932135  0.294331  1
  Tm  Tm12  1  0.067865  0.533933  0.294331  1
  Tm  Tm13  1  0.533839  0.466161  0.795165  1
  Tm  Tm14  1  0.000000  0.000000  0.265724  1
  Tm  Tm15  1  0.000000  0.000000  0.765568  1
  Ga  Ga16  1  0.163345  0.836655  0.541383  1
  Ga  Ga17  1  0.327010  0.163505  0.041189  1
  Ga  Ga18  1  0.836495  0.672990  0.041189  1
  Ga  Ga19  1  0.163345  0.326690  0.541383  1
  Ga  Ga20  1  0.673310  0.836655  0.541383  1
  Ga  Ga21  1  0.836495  0.163505  0.041189  1
  Ir  Ir22  1  0.333333  0.666667  0.056300  1
  Rh  Rh23  1  0.666667  0.333333  0.555008  1
