# generated using pymatgen
data_YCoAs3Rh4
_symmetry_space_group_name_H-M   'P 1'
_cell_length_a   3.91791000
_cell_length_b   11.22532900
_cell_length_c   12.82543800
_cell_angle_alpha   90.00000000
_cell_angle_beta   90.00000000
_cell_angle_gamma   90.00000000
_symmetry_Int_Tables_number   1
_chemical_formula_structural   YCoAs3Rh4
_chemical_formula_sum   'Y4 Co4 As12 Rh16'
_cell_volume   564.06056679
_cell_formula_units_Z   4
loop_
 _symmetry_equiv_pos_site_id
 _symmetry_equiv_pos_as_xyz
  1  'x, y, z'
loop_
 _atom_site_type_symbol
 _atom_site_label
 _atom_site_symmetry_multiplicity
 _atom_site_fract_x
 _atom_site_fract_y
 _atom_site_fract_z
 _atom_site_occupancy
  Y  Y0  1  0.250000  0.583784  0.707089  1
  Y  Y1  1  0.250000  0.916216  0.207089  1
  Y  Y2  1  0.750000  0.416216  0.292911  1
  Y  Y3  1  0.750000  0.083784  0.792911  1
  Co  Co4  1  0.250000  0.466267  0.932492  1
  Co  Co5  1  0.250000  0.033733  0.432492  1
  Co  Co6  1  0.750000  0.533733  0.067508  1
  Co  Co7  1  0.750000  0.966267  0.567508  1
  As  As8  1  0.250000  0.420589  0.106750  1
  As  As9  1  0.250000  0.079411  0.606750  1
  As  As10  1  0.750000  0.579411  0.893250  1
  As  As11  1  0.750000  0.920589  0.393250  1
  As  As12  1  0.250000  0.271773  0.872902  1
  As  As13  1  0.250000  0.228227  0.372902  1
  As  As14  1  0.750000  0.728227  0.127098  1
  As  As15  1  0.750000  0.771773  0.627098  1
  As  As16  1  0.250000  0.599962  0.388377  1
  As  As17  1  0.250000  0.900038  0.888377  1
  As  As18  1  0.750000  0.400038  0.611623  1
  As  As19  1  0.750000  0.099962  0.111623  1
  Rh  Rh20  1  0.250000  0.711983  0.988392  1
  Rh  Rh21  1  0.250000  0.788017  0.488392  1
  Rh  Rh22  1  0.750000  0.288017  0.011608  1
  Rh  Rh23  1  0.750000  0.211983  0.511608  1
  Rh  Rh24  1  0.250000  0.407747  0.480166  1
  Rh  Rh25  1  0.250000  0.092253  0.980166  1
  Rh  Rh26  1  0.750000  0.592253  0.519834  1
  Rh  Rh27  1  0.750000  0.907747  0.019834  1
  Rh  Rh28  1  0.250000  0.223225  0.178433  1
  Rh  Rh29  1  0.250000  0.276775  0.678433  1
  Rh  Rh30  1  0.750000  0.776775  0.821567  1
  Rh  Rh31  1  0.750000  0.723225  0.321567  1
  Rh  Rh32  1  0.250000  0.887964  0.697343  1
  Rh  Rh33  1  0.250000  0.612036  0.197343  1
  Rh  Rh34  1  0.750000  0.112036  0.302657  1
  Rh  Rh35  1  0.750000  0.387964  0.802657  1
