# generated using pymatgen
data_Tb2Y2Al18(NiRh)3
_symmetry_space_group_name_H-M   'P 1'
_cell_length_a   7.48124374
_cell_length_b   7.48165408
_cell_length_c   9.37278315
_cell_angle_alpha   89.95926993
_cell_angle_beta   89.95571161
_cell_angle_gamma   119.14524053
_symmetry_Int_Tables_number   1
_chemical_formula_structural   Tb2Y2Al18(NiRh)3
_chemical_formula_sum   'Tb2 Y2 Al18 Ni3 Rh3'
_cell_volume   458.19117875
_cell_formula_units_Z   1
loop_
 _symmetry_equiv_pos_site_id
 _symmetry_equiv_pos_as_xyz
  1  'x, y, z'
loop_
 _atom_site_type_symbol
 _atom_site_label
 _atom_site_symmetry_multiplicity
 _atom_site_fract_x
 _atom_site_fract_y
 _atom_site_fract_z
 _atom_site_occupancy
  Tb  Tb0  1  0.994585  0.673120  0.249756  1
  Tb  Tb1  1  0.004025  0.325968  0.750398  1
  Y  Y2  1  0.674035  0.995972  0.249609  1
  Y  Y3  1  0.326878  0.005413  0.750238  1
  Al  Al4  1  0.131762  0.131993  0.249761  1
  Al  Al5  1  0.868008  0.868237  0.750239  1
  Al  Al6  1  0.998590  0.338198  0.073472  1
  Al  Al7  1  0.002463  0.663645  0.926226  1
  Al  Al8  1  0.003462  0.663130  0.573786  1
  Al  Al9  1  0.336916  0.996557  0.426222  1
  Al  Al10  1  0.003372  0.338328  0.426162  1
  Al  Al11  1  0.661636  0.996623  0.573827  1
  Al  Al12  1  0.661763  0.001396  0.926543  1
  Al  Al13  1  0.336397  0.997556  0.073762  1
  Al  Al14  1  0.333451  0.334318  0.548142  1
  Al  Al15  1  0.665670  0.666566  0.451857  1
  Al  Al16  1  0.664489  0.665495  0.048059  1
  Al  Al17  1  0.334525  0.335496  0.951945  1
  Al  Al18  1  0.341208  0.555709  0.249575  1
  Al  Al19  1  0.658310  0.447818  0.752531  1
  Al  Al20  1  0.552170  0.341672  0.247468  1
  Al  Al21  1  0.444303  0.658810  0.750423  1
  Ni  Ni22  1  0.671134  0.328863  0.999999  1
  Ni  Ni23  1  0.328458  0.671544  0.000000  1
  Ni  Ni24  1  0.329666  0.670340  0.500000  1
  Rh  Rh25  1  0.672261  0.327691  0.500000  1
  Rh  Rh26  1  0.999572  0.000431  0.999999  1
  Rh  Rh27  1  0.000889  0.999112  0.500001  1
