# generated using pymatgen
data_MoSe23
_symmetry_space_group_name_H-M   'P 1'
_cell_length_a   5.96811026
_cell_length_b   9.84349145
_cell_length_c   15.83245300
_cell_angle_alpha   89.63402248
_cell_angle_beta   90.46347019
_cell_angle_gamma   87.71809577
_symmetry_Int_Tables_number   1
_chemical_formula_structural   MoSe23
_chemical_formula_sum   'Mo1 Se23'
_cell_volume   929.32086823
_cell_formula_units_Z   1
loop_
 _symmetry_equiv_pos_site_id
 _symmetry_equiv_pos_as_xyz
  1  'x, y, z'
loop_
 _atom_site_type_symbol
 _atom_site_label
 _atom_site_symmetry_multiplicity
 _atom_site_fract_x
 _atom_site_fract_y
 _atom_site_fract_z
 _atom_site_occupancy
  Mo  Mo0  1  0.479991  0.308053  0.429186  1
  Se  Se1  1  0.713767  0.857656  0.395587  1
  Se  Se2  1  0.983152  0.290596  0.119939  1
  Se  Se3  1  0.805738  0.181149  0.427882  1
  Se  Se4  1  0.393980  0.866126  0.485045  1
  Se  Se5  1  0.195144  0.255470  0.995871  1
  Se  Se6  1  0.756145  0.725235  0.994485  1
  Se  Se7  1  0.225839  0.242082  0.331147  1
  Se  Se8  1  0.856261  0.632575  0.416460  1
  Se  Se9  1  0.816723  0.084889  0.157978  1
  Se  Se10  1  0.232050  0.784461  0.142647  1
  Se  Se11  1  0.628111  0.632063  0.654263  1
  Se  Se12  1  0.115101  0.432204  0.603886  1
  Se  Se13  1  0.227132  0.851933  0.865983  1
  Se  Se14  1  0.784687  0.126776  0.831804  1
  Se  Se15  1  0.943116  0.633722  0.115726  1
  Se  Se16  1  0.535798  0.863478  0.623882  1
  Se  Se17  1  0.365340  0.244832  0.572181  1
  Se  Se18  1  0.987861  0.666690  0.879071  1
  Se  Se19  1  0.971529  0.320934  0.878199  1
  Se  Se20  1  0.526148  0.529018  0.366232  1
  Se  Se21  1  0.080863  0.948711  0.236773  1
  Se  Se22  1  0.317557  0.528719  0.715657  1
  Se  Se23  1  0.057967  0.992631  0.760118  1
