# generated using pymatgen
data_Sr15La3(ThPt8)2
_symmetry_space_group_name_H-M   'P 1'
_cell_length_a   7.98195423
_cell_length_b   8.11284746
_cell_length_c   15.55642907
_cell_angle_alpha   89.96755097
_cell_angle_beta   90.27813380
_cell_angle_gamma   90.22806054
_symmetry_Int_Tables_number   1
_chemical_formula_structural   Sr15La3(ThPt8)2
_chemical_formula_sum   'Sr15 La3 Th2 Pt16'
_cell_volume   1007.35798673
_cell_formula_units_Z   1
loop_
 _symmetry_equiv_pos_site_id
 _symmetry_equiv_pos_as_xyz
  1  'x, y, z'
loop_
 _atom_site_type_symbol
 _atom_site_label
 _atom_site_symmetry_multiplicity
 _atom_site_fract_x
 _atom_site_fract_y
 _atom_site_fract_z
 _atom_site_occupancy
  Sr  Sr0  1  0.161728  0.331301  0.379884  1
  Sr  Sr1  1  0.339248  0.831267  0.619506  1
  Sr  Sr2  1  0.842465  0.667384  0.883787  1
  Sr  Sr3  1  0.496663  0.325500  0.903005  1
  Sr  Sr4  1  0.993252  0.178617  0.597831  1
  Sr  Sr5  1  0.506059  0.679510  0.403265  1
  Sr  Sr6  1  0.006830  0.821317  0.094867  1
  Sr  Sr7  1  0.506037  0.679304  0.095258  1
  Sr  Sr8  1  0.008282  0.817770  0.409891  1
  Sr  Sr9  1  0.492887  0.318669  0.593731  1
  Sr  Sr10  1  0.995075  0.181125  0.904593  1
  Sr  Sr11  1  0.179781  0.486745  0.750279  1
  Sr  Sr12  1  0.681602  0.015569  0.750599  1
  Sr  Sr13  1  0.821482  0.520379  0.252173  1
  Sr  Sr14  1  0.312903  0.981046  0.251187  1
  La  La15  1  0.340197  0.838791  0.877892  1
  La  La16  1  0.834896  0.665568  0.623429  1
  La  La17  1  0.663898  0.163893  0.376854  1
  Th  Th18  1  0.159956  0.337694  0.121092  1
  Th  Th19  1  0.657218  0.162613  0.122143  1
  Pt  Pt20  1  0.325587  0.059176  0.042050  1
  Pt  Pt21  1  0.810723  0.455493  0.463693  1
  Pt  Pt22  1  0.688851  0.954474  0.534399  1
  Pt  Pt23  1  0.189921  0.542781  0.968463  1
  Pt  Pt24  1  0.659466  0.977567  0.965806  1
  Pt  Pt25  1  0.141591  0.532574  0.544846  1
  Pt  Pt26  1  0.355798  0.032127  0.454398  1
  Pt  Pt27  1  0.837052  0.439033  0.047326  1
  Pt  Pt28  1  0.546100  0.630853  0.755871  1
  Pt  Pt29  1  0.047638  0.873454  0.750416  1
  Pt  Pt30  1  0.458381  0.361299  0.237873  1
  Pt  Pt31  1  0.950402  0.135943  0.236444  1
  Pt  Pt32  1  0.291190  0.119762  0.756544  1
  Pt  Pt33  1  0.786811  0.382951  0.744613  1
  Pt  Pt34  1  0.700094  0.889693  0.246037  1
  Pt  Pt35  1  0.209939  0.608752  0.239956  1
