# generated using pymatgen
data_La3Nd13MgHg3Pt4
_symmetry_space_group_name_H-M   'P 1'
_cell_length_a   10.02652079
_cell_length_b   10.07027694
_cell_length_c   10.07033652
_cell_angle_alpha   60.19167344
_cell_angle_beta   60.00881224
_cell_angle_gamma   60.00852671
_symmetry_Int_Tables_number   1
_chemical_formula_structural   La3Nd13MgHg3Pt4
_chemical_formula_sum   'La3 Nd13 Mg1 Hg3 Pt4'
_cell_volume   720.11669736
_cell_formula_units_Z   1
loop_
 _symmetry_equiv_pos_site_id
 _symmetry_equiv_pos_as_xyz
  1  'x, y, z'
loop_
 _atom_site_type_symbol
 _atom_site_label
 _atom_site_symmetry_multiplicity
 _atom_site_fract_x
 _atom_site_fract_y
 _atom_site_fract_z
 _atom_site_occupancy
  La  La0  1  0.348860  0.349098  0.349123  1
  La  La1  1  0.351155  0.350893  0.947399  1
  La  La2  1  0.351155  0.947407  0.350877  1
  Nd  Nd3  1  0.937905  0.354682  0.354684  1
  Nd  Nd4  1  0.809657  0.192088  0.192072  1
  Nd  Nd5  1  0.188329  0.810883  0.810893  1
  Nd  Nd6  1  0.186954  0.811995  0.191263  1
  Nd  Nd7  1  0.807616  0.192914  0.807375  1
  Nd  Nd8  1  0.186939  0.191261  0.812011  1
  Nd  Nd9  1  0.807619  0.807366  0.192915  1
  Nd  Nd10  1  0.936559  0.565319  0.565325  1
  Nd  Nd11  1  0.562730  0.934892  0.934859  1
  Nd  Nd12  1  0.562502  0.938876  0.565359  1
  Nd  Nd13  1  0.934580  0.564600  0.934509  1
  Nd  Nd14  1  0.562490  0.565365  0.938876  1
  Nd  Nd15  1  0.934583  0.934522  0.564596  1
  Mg  Mg16  1  0.282311  0.572309  0.572293  1
  Hg  Hg17  1  0.583959  0.586260  0.586258  1
  Hg  Hg18  1  0.582638  0.586287  0.243565  1
  Hg  Hg19  1  0.582638  0.243564  0.586289  1
  Pt  Pt20  1  0.142296  0.144114  0.144123  1
  Pt  Pt21  1  0.141761  0.141686  0.571907  1
  Pt  Pt22  1  0.141768  0.571893  0.141704  1
  Pt  Pt23  1  0.572996  0.141725  0.141728  1
