# generated using pymatgen
data_DyHoEr2(SbO4)4
_symmetry_space_group_name_H-M   'P 1'
_cell_length_a   5.37875200
_cell_length_b   7.64728120
_cell_length_c   7.54257422
_cell_angle_alpha   81.19609868
_cell_angle_beta   90.36986770
_cell_angle_gamma   92.21419792
_symmetry_Int_Tables_number   1
_chemical_formula_structural   DyHoEr2(SbO4)4
_chemical_formula_sum   'Dy1 Ho1 Er2 Sb4 O16'
_cell_volume   306.36311320
_cell_formula_units_Z   1
loop_
 _symmetry_equiv_pos_site_id
 _symmetry_equiv_pos_as_xyz
  1  'x, y, z'
loop_
 _atom_site_type_symbol
 _atom_site_label
 _atom_site_symmetry_multiplicity
 _atom_site_fract_x
 _atom_site_fract_y
 _atom_site_fract_z
 _atom_site_occupancy
  Dy  Dy0  1  0.261806  0.132748  0.615020  1
  Ho  Ho1  1  0.738028  0.867460  0.384230  1
  Er  Er2  1  0.212830  0.157722  0.110445  1
  Er  Er3  1  0.786802  0.841924  0.889549  1
  Sb  Sb4  1  0.240178  0.663919  0.193613  1
  Sb  Sb5  1  0.759834  0.336269  0.806636  1
  Sb  Sb6  1  0.725170  0.335416  0.308369  1
  Sb  Sb7  1  0.274770  0.664619  0.691260  1
  O  O8  1  0.087481  0.433797  0.689167  1
  O  O9  1  0.912680  0.566220  0.311120  1
  O  O10  1  0.608511  0.324861  0.561088  1
  O  O11  1  0.392955  0.675540  0.438807  1
  O  O12  1  0.875934  0.331016  0.061958  1
  O  O13  1  0.124705  0.670057  0.937833  1
  O  O14  1  0.399273  0.429480  0.195698  1
  O  O15  1  0.600090  0.570243  0.804855  1
  O  O16  1  0.043342  0.887069  0.173434  1
  O  O17  1  0.955945  0.112643  0.827700  1
  O  O18  1  0.509356  0.110039  0.320841  1
  O  O19  1  0.491229  0.889389  0.678959  1
  O  O20  1  0.462490  0.188924  0.880610  1
  O  O21  1  0.537803  0.811362  0.120023  1
  O  O22  1  0.992833  0.168024  0.380906  1
  O  O23  1  0.005956  0.831260  0.617881  1
