# generated using pymatgen
data_HoHf7Ta4Ti8Si15P
_symmetry_space_group_name_H-M   'P 1'
_cell_length_a   6.85279842
_cell_length_b   6.85339090
_cell_length_c   12.57678600
_cell_angle_alpha   89.95931086
_cell_angle_beta   89.97990032
_cell_angle_gamma   89.93674910
_symmetry_Int_Tables_number   1
_chemical_formula_structural   HoHf7Ta4Ti8Si15P
_chemical_formula_sum   'Ho1 Hf7 Ta4 Ti8 Si15 P1'
_cell_volume   590.66703174
_cell_formula_units_Z   1
loop_
 _symmetry_equiv_pos_site_id
 _symmetry_equiv_pos_as_xyz
  1  'x, y, z'
loop_
 _atom_site_type_symbol
 _atom_site_label
 _atom_site_symmetry_multiplicity
 _atom_site_fract_x
 _atom_site_fract_y
 _atom_site_fract_z
 _atom_site_occupancy
  Ho  Ho0  1  0.997679  0.659443  0.030590  1
  Hf  Hf1  1  0.341248  0.998851  0.470731  1
  Hf  Hf2  1  0.500215  0.844348  0.717909  1
  Hf  Hf3  1  0.496941  0.157521  0.221292  1
  Hf  Hf4  1  0.842922  0.502063  0.282112  1
  Hf  Hf5  1  0.158627  0.495634  0.779424  1
  Hf  Hf6  1  0.654600  0.003143  0.968206  1
  Hf  Hf7  1  0.999501  0.342163  0.531575  1
  Ta  Ta8  1  0.331123  0.326716  0.999075  1
  Ta  Ta9  1  0.171677  0.831260  0.251872  1
  Ta  Ta10  1  0.830106  0.170842  0.748156  1
  Ta  Ta11  1  0.670311  0.670336  0.500157  1
  Ti  Ti12  1  0.156682  0.005399  0.868296  1
  Ti  Ti13  1  0.496057  0.651817  0.123935  1
  Ti  Ti14  1  0.501257  0.344050  0.622973  1
  Ti  Ti15  1  0.651806  0.493071  0.875143  1
  Ti  Ti16  1  0.347221  0.504686  0.378474  1
  Ti  Ti17  1  0.848171  0.996971  0.374235  1
  Ti  Ti18  1  0.006516  0.152756  0.128639  1
  Ti  Ti19  1  0.998729  0.851841  0.626660  1
  Si  Si20  1  0.368427  0.706459  0.924676  1
  Si  Si21  1  0.634386  0.293485  0.426190  1
  Si  Si22  1  0.703289  0.361253  0.073857  1
  Si  Si23  1  0.293317  0.634328  0.574083  1
  Si  Si24  1  0.790167  0.869573  0.179617  1
  Si  Si25  1  0.134868  0.207028  0.325171  1
  Si  Si26  1  0.863817  0.795298  0.820375  1
  Si  Si27  1  0.297982  0.955834  0.063098  1
  Si  Si28  1  0.544465  0.796255  0.314455  1
  Si  Si29  1  0.457159  0.204425  0.813698  1
  Si  Si30  1  0.795332  0.546029  0.685754  1
  Si  Si31  1  0.206612  0.453066  0.188683  1
  Si  Si32  1  0.704046  0.045131  0.562431  1
  Si  Si33  1  0.954464  0.289461  0.936388  1
  Si  Si34  1  0.045134  0.704535  0.437538  1
  P  P35  1  0.205150  0.134930  0.674529  1
