# generated using pymatgen
data_YbPr4Ga2Ge
_symmetry_space_group_name_H-M   'P 1'
_cell_length_a   7.95970300
_cell_length_b   9.06803686
_cell_length_c   7.95970300
_cell_angle_alpha   116.03294872
_cell_angle_beta   90.00000000
_cell_angle_gamma   116.03294872
_symmetry_Int_Tables_number   1
_chemical_formula_structural   YbPr4Ga2Ge
_chemical_formula_sum   'Yb2 Pr8 Ga4 Ge2'
_cell_volume   450.46178344
_cell_formula_units_Z   2
loop_
 _symmetry_equiv_pos_site_id
 _symmetry_equiv_pos_as_xyz
  1  'x, y, z'
loop_
 _atom_site_type_symbol
 _atom_site_label
 _atom_site_symmetry_multiplicity
 _atom_site_fract_x
 _atom_site_fract_y
 _atom_site_fract_z
 _atom_site_occupancy
  Yb  Yb0  1  0.000000  0.000000  0.000000  1
  Yb  Yb1  1  0.500000  0.000000  0.500000  1
  Pr  Pr2  1  0.525872  0.703141  0.677270  1
  Pr  Pr3  1  0.177270  0.703141  0.025872  1
  Pr  Pr4  1  0.677270  0.703141  0.177270  1
  Pr  Pr5  1  0.025872  0.703141  0.525872  1
  Pr  Pr6  1  0.474128  0.296859  0.322730  1
  Pr  Pr7  1  0.822730  0.296859  0.974128  1
  Pr  Pr8  1  0.322730  0.296859  0.822730  1
  Pr  Pr9  1  0.974128  0.296859  0.474128  1
  Ga  Ga10  1  0.883808  0.000000  0.616192  1
  Ga  Ga11  1  0.116192  0.000000  0.383808  1
  Ga  Ga12  1  0.616192  0.000000  0.116192  1
  Ga  Ga13  1  0.383808  0.000000  0.883808  1
  Ge  Ge14  1  0.750000  0.500000  0.750000  1
  Ge  Ge15  1  0.250000  0.500000  0.250000  1
