# generated using pymatgen
data_NdTh7AsSe17
_symmetry_space_group_name_H-M   'P 1'
_cell_length_a   8.49356974
_cell_length_b   8.45346560
_cell_length_c   11.24568100
_cell_angle_alpha   80.54545725
_cell_angle_beta   80.57469621
_cell_angle_gamma   65.00635409
_symmetry_Int_Tables_number   1
_chemical_formula_structural   NdTh7AsSe17
_chemical_formula_sum   'Nd1 Th7 As1 Se17'
_cell_volume   717.85529234
_cell_formula_units_Z   1
loop_
 _symmetry_equiv_pos_site_id
 _symmetry_equiv_pos_as_xyz
  1  'x, y, z'
loop_
 _atom_site_type_symbol
 _atom_site_label
 _atom_site_symmetry_multiplicity
 _atom_site_fract_x
 _atom_site_fract_y
 _atom_site_fract_z
 _atom_site_occupancy
  Nd  Nd0  1  0.813384  0.304943  0.299304  1
  Th  Th1  1  0.303026  0.814286  0.296794  1
  Th  Th2  1  0.184701  0.696960  0.701540  1
  Th  Th3  1  0.697711  0.186346  0.701025  1
  Th  Th4  1  0.205139  0.204002  0.540596  1
  Th  Th5  1  0.794338  0.794931  0.457058  1
  Th  Th6  1  0.679905  0.678735  0.980818  1
  Th  Th7  1  0.318872  0.320728  0.022022  1
  As  As8  1  0.998872  0.003454  0.001950  1
  Se  Se9  1  0.824687  0.431400  0.535822  1
  Se  Se10  1  0.431808  0.820090  0.532633  1
  Se  Se11  1  0.177205  0.567493  0.467248  1
  Se  Se12  1  0.568989  0.174632  0.470743  1
  Se  Se13  1  0.949622  0.327366  0.027536  1
  Se  Se14  1  0.326638  0.949121  0.028850  1
  Se  Se15  1  0.051513  0.672727  0.968119  1
  Se  Se16  1  0.672908  0.053468  0.968572  1
  Se  Se17  1  0.215066  0.205769  0.278356  1
  Se  Se18  1  0.790496  0.789811  0.722532  1
  Se  Se19  1  0.058171  0.058139  0.768736  1
  Se  Se20  1  0.945621  0.938417  0.232214  1
  Se  Se21  1  0.304815  0.303252  0.753432  1
  Se  Se22  1  0.690796  0.702990  0.245136  1
  Se  Se23  1  0.518981  0.521683  0.831579  1
  Se  Se24  1  0.475100  0.484279  0.164154  1
  Se  Se25  1  0.001637  0.994980  0.503234  1
