# generated using pymatgen
data_Ho7Tm3In8(PtRh)2
_symmetry_space_group_name_H-M   'P 1'
_cell_length_a   3.60035700
_cell_length_b   8.10356568
_cell_length_c   18.19033930
_cell_angle_alpha   90.11906402
_cell_angle_beta   90.00000000
_cell_angle_gamma   90.00000000
_symmetry_Int_Tables_number   1
_chemical_formula_structural   Ho7Tm3In8(PtRh)2
_chemical_formula_sum   'Ho7 Tm3 In8 Pt2 Rh2'
_cell_volume   530.71527163
_cell_formula_units_Z   1
loop_
 _symmetry_equiv_pos_site_id
 _symmetry_equiv_pos_as_xyz
  1  'x, y, z'
loop_
 _atom_site_type_symbol
 _atom_site_label
 _atom_site_symmetry_multiplicity
 _atom_site_fract_x
 _atom_site_fract_y
 _atom_site_fract_z
 _atom_site_occupancy
  Ho  Ho0  1  0.000000  0.617055  0.085573  1
  Ho  Ho1  1  0.000000  0.238865  0.221362  1
  Ho  Ho2  1  0.000000  0.761048  0.778696  1
  Ho  Ho3  1  0.000000  0.250951  0.720119  1
  Ho  Ho4  1  0.000000  0.749150  0.279931  1
  Ho  Ho5  1  0.000000  0.000125  0.999972  1
  Ho  Ho6  1  0.000000  0.500010  0.500019  1
  Tm  Tm7  1  0.000000  0.115384  0.411917  1
  Tm  Tm8  1  0.000000  0.884628  0.588110  1
  Tm  Tm9  1  0.000000  0.383232  0.913966  1
  In  In10  1  0.500000  0.422628  0.351111  1
  In  In11  1  0.500000  0.577301  0.648927  1
  In  In12  1  0.500000  0.074597  0.850133  1
  In  In13  1  0.500000  0.925874  0.149967  1
  In  In14  1  0.500000  0.292179  0.066285  1
  In  In15  1  0.500000  0.707342  0.933467  1
  In  In16  1  0.500000  0.205725  0.567405  1
  In  In17  1  0.500000  0.794319  0.432586  1
  Pt  Pt18  1  0.500000  0.476182  0.803783  1
  Pt  Pt19  1  0.500000  0.523395  0.196650  1
  Rh  Rh20  1  0.500000  0.023182  0.304688  1
  Rh  Rh21  1  0.500000  0.976829  0.695333  1
