# generated using pymatgen
data_Dy9Y7(CdPd)4
_symmetry_space_group_name_H-M   'P 1'
_cell_length_a   9.69258604
_cell_length_b   9.69258606
_cell_length_c   9.68979800
_cell_angle_alpha   60.00952173
_cell_angle_beta   60.00952165
_cell_angle_gamma   60.15695817
_symmetry_Int_Tables_number   1
_chemical_formula_structural   Dy9Y7(CdPd)4
_chemical_formula_sum   'Dy9 Y7 Cd4 Pd4'
_cell_volume   644.54643725
_cell_formula_units_Z   1
loop_
 _symmetry_equiv_pos_site_id
 _symmetry_equiv_pos_as_xyz
  1  'x, y, z'
loop_
 _atom_site_type_symbol
 _atom_site_label
 _atom_site_symmetry_multiplicity
 _atom_site_fract_x
 _atom_site_fract_y
 _atom_site_fract_z
 _atom_site_occupancy
  Dy  Dy0  1  0.353535  0.353535  0.351137  1
  Dy  Dy1  1  0.353535  0.353535  0.941795  1
  Dy  Dy2  1  0.357285  0.934440  0.354138  1
  Dy  Dy3  1  0.934440  0.357285  0.354138  1
  Dy  Dy4  1  0.811080  0.189648  0.189707  1
  Dy  Dy5  1  0.189648  0.811080  0.809563  1
  Dy  Dy6  1  0.189648  0.811080  0.189707  1
  Dy  Dy7  1  0.811080  0.189648  0.809563  1
  Dy  Dy8  1  0.190898  0.190898  0.809102  1
  Y  Y9  1  0.811360  0.811360  0.188640  1
  Y  Y10  1  0.935436  0.564407  0.565496  1
  Y  Y11  1  0.564407  0.935436  0.934662  1
  Y  Y12  1  0.564407  0.935436  0.565496  1
  Y  Y13  1  0.935436  0.564407  0.934662  1
  Y  Y14  1  0.565842  0.565842  0.934158  1
  Y  Y15  1  0.936168  0.936168  0.563832  1
  Cd  Cd16  1  0.581081  0.581081  0.583227  1
  Cd  Cd17  1  0.581081  0.581081  0.254609  1
  Cd  Cd18  1  0.580327  0.254241  0.582716  1
  Cd  Cd19  1  0.254241  0.580327  0.582716  1
  Pd  Pd20  1  0.144297  0.144297  0.147857  1
  Pd  Pd21  1  0.144297  0.144297  0.563550  1
  Pd  Pd22  1  0.143778  0.566695  0.144764  1
  Pd  Pd23  1  0.566695  0.143778  0.144764  1
