# generated using pymatgen
data_PaB4Os
_symmetry_space_group_name_H-M   'P 1'
_cell_length_a   3.60545800
_cell_length_b   6.00160902
_cell_length_c   11.64245319
_cell_angle_alpha   90.00558730
_cell_angle_beta   90.00000000
_cell_angle_gamma   90.00000000
_symmetry_Int_Tables_number   1
_chemical_formula_structural   PaB4Os
_chemical_formula_sum   'Pa4 B16 Os4'
_cell_volume   251.92579550
_cell_formula_units_Z   4
loop_
 _symmetry_equiv_pos_site_id
 _symmetry_equiv_pos_as_xyz
  1  'x, y, z'
loop_
 _atom_site_type_symbol
 _atom_site_label
 _atom_site_symmetry_multiplicity
 _atom_site_fract_x
 _atom_site_fract_y
 _atom_site_fract_z
 _atom_site_occupancy
  Pa  Pa0  1  0.000000  0.871297  0.350486  1
  Pa  Pa1  1  0.000000  0.628658  0.850589  1
  Pa  Pa2  1  0.000000  0.371206  0.149469  1
  Pa  Pa3  1  0.000000  0.128823  0.649483  1
  B  B4  1  0.500000  0.472132  0.691127  1
  B  B5  1  0.500000  0.527915  0.308789  1
  B  B6  1  0.500000  0.971937  0.808897  1
  B  B7  1  0.500000  0.028025  0.191214  1
  B  B8  1  0.500000  0.288905  0.810946  1
  B  B9  1  0.500000  0.710939  0.189123  1
  B  B10  1  0.500000  0.788958  0.689053  1
  B  B11  1  0.500000  0.211224  0.310889  1
  B  B12  1  0.500000  0.366029  0.967756  1
  B  B13  1  0.500000  0.633658  0.032344  1
  B  B14  1  0.500000  0.866170  0.532141  1
  B  B15  1  0.500000  0.134087  0.467655  1
  B  B16  1  0.500000  0.386492  0.545492  1
  B  B17  1  0.500000  0.613589  0.454461  1
  B  B18  1  0.500000  0.886286  0.954517  1
  B  B19  1  0.500000  0.113453  0.045569  1
  Os  Os20  1  0.000000  0.142854  0.904532  1
  Os  Os21  1  0.000000  0.856912  0.095552  1
  Os  Os22  1  0.000000  0.643119  0.595392  1
  Os  Os23  1  0.000000  0.357334  0.404526  1
