# generated using pymatgen
data_TbHo3(CCl)2
_symmetry_space_group_name_H-M   'P 1'
_cell_length_a   3.63058100
_cell_length_b   3.63058216
_cell_length_c   13.55841200
_cell_angle_alpha   90.00000000
_cell_angle_beta   90.00000000
_cell_angle_gamma   119.99998036
_symmetry_Int_Tables_number   1
_chemical_formula_structural   TbHo3(CCl)2
_chemical_formula_sum   'Tb1 Ho3 C2 Cl2'
_cell_volume   154.77183927
_cell_formula_units_Z   1
loop_
 _symmetry_equiv_pos_site_id
 _symmetry_equiv_pos_as_xyz
  1  'x, y, z'
loop_
 _atom_site_type_symbol
 _atom_site_label
 _atom_site_symmetry_multiplicity
 _atom_site_fract_x
 _atom_site_fract_y
 _atom_site_fract_z
 _atom_site_occupancy
  Tb  Tb0  1  0.333333  0.666667  0.905510  1
  Ho  Ho1  1  0.333333  0.666667  0.593082  1
  Ho  Ho2  1  0.666667  0.333333  0.406344  1
  Ho  Ho3  1  0.666667  0.333333  0.094567  1
  C  C4  1  0.000000  0.000000  0.002588  1
  C  C5  1  0.000000  0.000000  0.499647  1
  Cl  Cl6  1  0.333333  0.666667  0.250967  1
  Cl  Cl7  1  0.666667  0.333333  0.747295  1
