# generated using pymatgen
data_LiCa20Zn9Cd2
_symmetry_space_group_name_H-M   'P 1'
_cell_length_a   8.01741400
_cell_length_b   8.01741400
_cell_length_c   15.18993000
_cell_angle_alpha   90.00000000
_cell_angle_beta   90.00000000
_cell_angle_gamma   90.00000000
_symmetry_Int_Tables_number   1
_chemical_formula_structural   LiCa20Zn9Cd2
_chemical_formula_sum   'Li1 Ca20 Zn9 Cd2'
_cell_volume   976.39240536
_cell_formula_units_Z   1
loop_
 _symmetry_equiv_pos_site_id
 _symmetry_equiv_pos_as_xyz
  1  'x, y, z'
loop_
 _atom_site_type_symbol
 _atom_site_label
 _atom_site_symmetry_multiplicity
 _atom_site_fract_x
 _atom_site_fract_y
 _atom_site_fract_z
 _atom_site_occupancy
  Li  Li0  1  0.500000  0.500000  0.000000  1
  Ca  Ca1  1  0.675084  0.162780  0.104100  1
  Ca  Ca2  1  0.169373  0.670137  0.606059  1
  Ca  Ca3  1  0.324916  0.837220  0.104100  1
  Ca  Ca4  1  0.830627  0.329863  0.606059  1
  Ca  Ca5  1  0.837220  0.675084  0.104100  1
  Ca  Ca6  1  0.329863  0.169373  0.606059  1
  Ca  Ca7  1  0.162780  0.324916  0.104100  1
  Ca  Ca8  1  0.670137  0.830627  0.606059  1
  Ca  Ca9  1  0.837220  0.324916  0.895900  1
  Ca  Ca10  1  0.329863  0.830627  0.393941  1
  Ca  Ca11  1  0.162780  0.675084  0.895900  1
  Ca  Ca12  1  0.670137  0.169373  0.393941  1
  Ca  Ca13  1  0.675084  0.837220  0.895900  1
  Ca  Ca14  1  0.169373  0.329863  0.393941  1
  Ca  Ca15  1  0.324916  0.162780  0.895900  1
  Ca  Ca16  1  0.830627  0.670137  0.393941  1
  Ca  Ca17  1  0.500000  0.500000  0.752780  1
  Ca  Ca18  1  0.000000  0.000000  0.250409  1
  Ca  Ca19  1  0.000000  0.000000  0.749591  1
  Ca  Ca20  1  0.500000  0.500000  0.247220  1
  Zn  Zn21  1  0.618103  0.119375  0.751958  1
  Zn  Zn22  1  0.119375  0.618103  0.248042  1
  Zn  Zn23  1  0.880625  0.381897  0.248042  1
  Zn  Zn24  1  0.381897  0.880625  0.751958  1
  Zn  Zn25  1  0.880625  0.618103  0.751958  1
  Zn  Zn26  1  0.381897  0.119375  0.248042  1
  Zn  Zn27  1  0.119375  0.381897  0.751958  1
  Zn  Zn28  1  0.618103  0.880625  0.248042  1
  Zn  Zn29  1  0.000000  0.000000  0.000000  1
  Cd  Cd30  1  0.500000  0.500000  0.500000  1
  Cd  Cd31  1  0.000000  0.000000  0.500000  1
