# generated using pymatgen
data_Li3Nd4AgAs8
_symmetry_space_group_name_H-M   'P 1'
_cell_length_a   3.99314700
_cell_length_b   4.02726901
_cell_length_c   21.42405003
_cell_angle_alpha   89.99389896
_cell_angle_beta   90.00000000
_cell_angle_gamma   90.00000000
_symmetry_Int_Tables_number   1
_chemical_formula_structural   Li3Nd4AgAs8
_chemical_formula_sum   'Li3 Nd4 Ag1 As8'
_cell_volume   344.53036904
_cell_formula_units_Z   1
loop_
 _symmetry_equiv_pos_site_id
 _symmetry_equiv_pos_as_xyz
  1  'x, y, z'
loop_
 _atom_site_type_symbol
 _atom_site_label
 _atom_site_symmetry_multiplicity
 _atom_site_fract_x
 _atom_site_fract_y
 _atom_site_fract_z
 _atom_site_occupancy
  Li  Li0  1  0.750000  0.726323  0.249931  1
  Li  Li1  1  0.250000  0.226304  0.250096  1
  Li  Li2  1  0.750000  0.773636  0.749992  1
  Nd  Nd3  1  0.250000  0.729786  0.116042  1
  Nd  Nd4  1  0.750000  0.229704  0.384045  1
  Nd  Nd5  1  0.250000  0.770741  0.615514  1
  Nd  Nd6  1  0.750000  0.271607  0.884312  1
  Ag  Ag7  1  0.250000  0.274227  0.750283  1
  As  As8  1  0.750000  0.226194  0.170411  1
  As  As9  1  0.250000  0.726345  0.329581  1
  As  As10  1  0.750000  0.272957  0.665860  1
  As  As11  1  0.250000  0.773686  0.834013  1
  As  As12  1  0.250000  0.208972  0.001155  1
  As  As13  1  0.750000  0.709902  0.498890  1
  As  As14  1  0.250000  0.289468  0.501626  1
  As  As15  1  0.750000  0.790149  0.998247  1
