# generated using pymatgen
data_Zr6Al2Ga5Cu16H3
_symmetry_space_group_name_H-M   'P 1'
_cell_length_a   8.48614358
_cell_length_b   8.48614294
_cell_length_c   8.48614435
_cell_angle_alpha   120.39790546
_cell_angle_beta   120.08947376
_cell_angle_gamma   89.57864195
_symmetry_Int_Tables_number   1
_chemical_formula_structural   Zr6Al2Ga5Cu16H3
_chemical_formula_sum   'Zr6 Al2 Ga5 Cu16 H3'
_cell_volume   430.52345818
_cell_formula_units_Z   1
loop_
 _symmetry_equiv_pos_site_id
 _symmetry_equiv_pos_as_xyz
  1  'x, y, z'
loop_
 _atom_site_type_symbol
 _atom_site_label
 _atom_site_symmetry_multiplicity
 _atom_site_fract_x
 _atom_site_fract_y
 _atom_site_fract_z
 _atom_site_occupancy
  Zr  Zr0  1  0.798528  0.200538  0.998424  1
  Zr  Zr1  1  0.798528  0.800105  0.597990  1
  Zr  Zr2  1  0.784713  0.784713  0.000000  1
  Zr  Zr3  1  0.202115  0.800105  0.001576  1
  Zr  Zr4  1  0.202115  0.200538  0.402010  1
  Zr  Zr5  1  0.211127  0.211127  0.000000  1
  Al  Al6  1  0.998421  0.498421  0.500000  1
  Al  Al7  1  0.499477  0.499477  0.000000  1
  Ga  Ga8  1  0.497726  0.496286  0.497339  1
  Ga  Ga9  1  0.497726  0.000389  0.001440  1
  Ga  Ga10  1  0.499309  0.999309  0.500000  1
  Ga  Ga11  1  0.998948  0.000389  0.502661  1
  Ga  Ga12  1  0.998948  0.496286  0.998560  1
  Cu  Cu13  1  0.471344  0.822026  0.649318  1
  Cu  Cu14  1  0.172709  0.822026  0.350682  1
  Cu  Cu15  1  0.167454  0.826898  0.659444  1
  Cu  Cu16  1  0.167454  0.508009  0.340556  1
  Cu  Cu17  1  0.513755  0.170399  0.343357  1
  Cu  Cu18  1  0.827042  0.170399  0.656643  1
  Cu  Cu19  1  0.829834  0.169040  0.339207  1
  Cu  Cu20  1  0.829834  0.490628  0.660793  1
  Cu  Cu21  1  0.857291  0.616390  0.240903  1
  Cu  Cu22  1  0.375487  0.616390  0.759097  1
  Cu  Cu23  1  0.381536  0.620808  0.239272  1
  Cu  Cu24  1  0.381536  0.142263  0.760728  1
  Cu  Cu25  1  0.142204  0.382870  0.759334  1
  Cu  Cu26  1  0.623535  0.382870  0.240666  1
  Cu  Cu27  1  0.616811  0.376909  0.760097  1
  Cu  Cu28  1  0.616811  0.856713  0.239903  1
  H  H29  1  0.040560  0.040560  0.000000  1
  H  H30  1  0.740199  0.908460  0.831741  1
  H  H31  1  0.076719  0.908460  0.168259  1
