# generated using pymatgen
data_Pr3Nd7Al4(OsRu)3
_symmetry_space_group_name_H-M   'P 1'
_cell_length_a   8.59156262
_cell_length_b   8.57428634
_cell_length_c   8.59200109
_cell_angle_alpha   109.22378482
_cell_angle_beta   109.97880080
_cell_angle_gamma   109.32789248
_symmetry_Int_Tables_number   1
_chemical_formula_structural   Pr3Nd7Al4(OsRu)3
_chemical_formula_sum   'Pr3 Nd7 Al4 Os3 Ru3'
_cell_volume   486.51725670
_cell_formula_units_Z   1
loop_
 _symmetry_equiv_pos_site_id
 _symmetry_equiv_pos_as_xyz
  1  'x, y, z'
loop_
 _atom_site_type_symbol
 _atom_site_label
 _atom_site_symmetry_multiplicity
 _atom_site_fract_x
 _atom_site_fract_y
 _atom_site_fract_z
 _atom_site_occupancy
  Pr  Pr0  1  0.498740  0.999627  0.285601  1
  Pr  Pr1  1  0.286786  0.500720  0.000715  1
  Pr  Pr2  1  0.001151  0.285862  0.499588  1
  Nd  Nd3  1  0.247770  0.681390  0.432824  1
  Nd  Nd4  1  0.751461  0.818162  0.066189  1
  Nd  Nd5  1  0.434846  0.249829  0.684637  1
  Nd  Nd6  1  0.681738  0.433041  0.250590  1
  Nd  Nd7  1  0.065671  0.750102  0.815285  1
  Nd  Nd8  1  0.817060  0.066712  0.749067  1
  Nd  Nd9  1  0.212264  0.212840  0.212957  1
  Al  Al10  1  0.588204  0.587415  0.589197  1
  Al  Al11  1  0.500315  0.001120  0.911080  1
  Al  Al12  1  0.910219  0.499432  0.999270  1
  Al  Al13  1  0.001786  0.911401  0.500905  1
  Os  Os14  1  0.250661  0.118164  0.868453  1
  Os  Os15  1  0.749774  0.382397  0.632621  1
  Os  Os16  1  0.867156  0.250563  0.116552  1
  Ru  Ru17  1  0.115926  0.866681  0.250217  1
  Ru  Ru18  1  0.634096  0.750081  0.384202  1
  Ru  Ru19  1  0.384376  0.634459  0.750051  1
