# generated using pymatgen
data_Dy2Ho14MgHg3Ir4
_symmetry_space_group_name_H-M   'P 1'
_cell_length_a   9.61628584
_cell_length_b   9.56097746
_cell_length_c   9.57133900
_cell_angle_alpha   59.96415432
_cell_angle_beta   60.15450601
_cell_angle_gamma   60.06982282
_symmetry_Int_Tables_number   1
_chemical_formula_structural   Dy2Ho14MgHg3Ir4
_chemical_formula_sum   'Dy2 Ho14 Mg1 Hg3 Ir4'
_cell_volume   623.13609434
_cell_formula_units_Z   1
loop_
 _symmetry_equiv_pos_site_id
 _symmetry_equiv_pos_as_xyz
  1  'x, y, z'
loop_
 _atom_site_type_symbol
 _atom_site_label
 _atom_site_symmetry_multiplicity
 _atom_site_fract_x
 _atom_site_fract_y
 _atom_site_fract_z
 _atom_site_occupancy
  Dy  Dy0  1  0.561240  0.563426  0.937667  1
  Dy  Dy1  1  0.936703  0.939809  0.561744  1
  Ho  Ho2  1  0.350108  0.348090  0.346655  1
  Ho  Ho3  1  0.350108  0.348090  0.955147  1
  Ho  Ho4  1  0.351396  0.954119  0.347242  1
  Ho  Ho5  1  0.942174  0.352919  0.352453  1
  Ho  Ho6  1  0.807861  0.190392  0.192365  1
  Ho  Ho7  1  0.186312  0.811299  0.812351  1
  Ho  Ho8  1  0.186312  0.811299  0.190037  1
  Ho  Ho9  1  0.807861  0.190392  0.809382  1
  Ho  Ho10  1  0.187941  0.188987  0.811535  1
  Ho  Ho11  1  0.807584  0.808865  0.191775  1
  Ho  Ho12  1  0.937752  0.560897  0.561403  1
  Ho  Ho13  1  0.560260  0.939230  0.937540  1
  Ho  Ho14  1  0.560260  0.939230  0.562971  1
  Ho  Ho15  1  0.937752  0.560897  0.939948  1
  Mg  Mg16  1  0.284254  0.571344  0.572201  1
  Hg  Hg17  1  0.582619  0.586717  0.586446  1
  Hg  Hg18  1  0.582619  0.586717  0.244217  1
  Hg  Hg19  1  0.582369  0.243056  0.587287  1
  Ir  Ir20  1  0.140196  0.143893  0.141857  1
  Ir  Ir21  1  0.140196  0.143893  0.574054  1
  Ir  Ir22  1  0.140157  0.574400  0.142721  1
  Ir  Ir23  1  0.575962  0.142040  0.140999  1
