# generated using pymatgen
data_CeTh(VSi3)2
_symmetry_space_group_name_H-M   'P 1'
_cell_length_a   6.00349100
_cell_length_b   6.00349099
_cell_length_c   5.53930600
_cell_angle_alpha   90.00000000
_cell_angle_beta   90.00000000
_cell_angle_gamma   119.99999452
_symmetry_Int_Tables_number   1
_chemical_formula_structural   CeTh(VSi3)2
_chemical_formula_sum   'Ce1 Th1 V2 Si6'
_cell_volume   172.89950107
_cell_formula_units_Z   1
loop_
 _symmetry_equiv_pos_site_id
 _symmetry_equiv_pos_as_xyz
  1  'x, y, z'
loop_
 _atom_site_type_symbol
 _atom_site_label
 _atom_site_symmetry_multiplicity
 _atom_site_fract_x
 _atom_site_fract_y
 _atom_site_fract_z
 _atom_site_occupancy
  Ce  Ce0  1  0.333334  0.666667  0.750000  1
  Th  Th1  1  0.666666  0.333334  0.250000  1
  V  V2  1  0.000000  0.000000  0.001260  1
  V  V3  1  0.000000  0.000000  0.498740  1
  Si  Si4  1  0.199084  0.398168  0.250000  1
  Si  Si5  1  0.199084  0.800916  0.250000  1
  Si  Si6  1  0.601832  0.800916  0.250000  1
  Si  Si7  1  0.396013  0.198006  0.750000  1
  Si  Si8  1  0.801992  0.198006  0.750000  1
  Si  Si9  1  0.801993  0.603987  0.750000  1
