# generated using pymatgen
data_Ho9Tm(TlSb)4
_symmetry_space_group_name_H-M   'P 1'
_cell_length_a   8.77284110
_cell_length_b   8.77284269
_cell_length_c   8.07085900
_cell_angle_alpha   90.00859485
_cell_angle_beta   90.00859485
_cell_angle_gamma   125.17313134
_symmetry_Int_Tables_number   1
_chemical_formula_structural   Ho9Tm(TlSb)4
_chemical_formula_sum   'Ho9 Tm1 Tl4 Sb4'
_cell_volume   507.74190865
_cell_formula_units_Z   1
loop_
 _symmetry_equiv_pos_site_id
 _symmetry_equiv_pos_as_xyz
  1  'x, y, z'
loop_
 _atom_site_type_symbol
 _atom_site_label
 _atom_site_symmetry_multiplicity
 _atom_site_fract_x
 _atom_site_fract_y
 _atom_site_fract_z
 _atom_site_occupancy
  Ho  Ho0  1  0.031164  0.306586  0.334308  1
  Ho  Ho1  1  0.968836  0.693414  0.665692  1
  Ho  Ho2  1  0.468630  0.193006  0.834586  1
  Ho  Ho3  1  0.806994  0.531370  0.165414  1
  Ho  Ho4  1  0.531370  0.806994  0.165414  1
  Ho  Ho5  1  0.193006  0.468630  0.834586  1
  Ho  Ho6  1  0.693414  0.968836  0.665692  1
  Ho  Ho7  1  0.306586  0.031164  0.334308  1
  Ho  Ho8  1  0.500000  0.500000  0.500000  1
  Tm  Tm9  1  0.000000  0.000000  0.000000  1
  Tl  Tl10  1  0.366422  0.366422  0.131482  1
  Tl  Tl11  1  0.633578  0.633578  0.868518  1
  Tl  Tl12  1  0.132591  0.132591  0.632613  1
  Tl  Tl13  1  0.867409  0.867409  0.367387  1
  Sb  Sb14  1  0.797351  0.202649  0.000000  1
  Sb  Sb15  1  0.202649  0.797351  0.000000  1
  Sb  Sb16  1  0.703005  0.296995  0.500000  1
  Sb  Sb17  1  0.296995  0.703005  0.500000  1
