# generated using pymatgen
data_Dy5ErAl24(RuRh)4
_symmetry_space_group_name_H-M   'P 1'
_cell_length_a   8.80456463
_cell_length_b   8.77361686
_cell_length_c   9.54916900
_cell_angle_alpha   90.00000000
_cell_angle_beta   90.00000000
_cell_angle_gamma   119.51105563
_symmetry_Int_Tables_number   1
_chemical_formula_structural   Dy5ErAl24(RuRh)4
_chemical_formula_sum   'Dy5 Er1 Al24 Ru4 Rh4'
_cell_volume   641.95041471
_cell_formula_units_Z   1
loop_
 _symmetry_equiv_pos_site_id
 _symmetry_equiv_pos_as_xyz
  1  'x, y, z'
loop_
 _atom_site_type_symbol
 _atom_site_label
 _atom_site_symmetry_multiplicity
 _atom_site_fract_x
 _atom_site_fract_y
 _atom_site_fract_z
 _atom_site_occupancy
  Dy  Dy0  1  0.189395  0.385918  0.250000  1
  Dy  Dy1  1  0.615952  0.808531  0.250000  1
  Dy  Dy2  1  0.809808  0.195742  0.750000  1
  Dy  Dy3  1  0.810665  0.614308  0.750000  1
  Dy  Dy4  1  0.383873  0.191427  0.750000  1
  Er  Er5  1  0.190649  0.803761  0.250000  1
  Al  Al6  1  0.561116  0.437818  0.250000  1
  Al  Al7  1  0.560220  0.122616  0.250000  1
  Al  Al8  1  0.876319  0.438929  0.250000  1
  Al  Al9  1  0.438920  0.562150  0.750000  1
  Al  Al10  1  0.439316  0.877014  0.750000  1
  Al  Al11  1  0.124066  0.561600  0.750000  1
  Al  Al12  1  0.324685  0.162335  0.422201  1
  Al  Al13  1  0.837799  0.164256  0.422066  1
  Al  Al14  1  0.838144  0.673849  0.422157  1
  Al  Al15  1  0.675169  0.837387  0.577564  1
  Al  Al16  1  0.162174  0.835718  0.577559  1
  Al  Al17  1  0.162124  0.326294  0.577604  1
  Al  Al18  1  0.675169  0.837387  0.922436  1
  Al  Al19  1  0.162174  0.835718  0.922441  1
  Al  Al20  1  0.162124  0.326294  0.922396  1
  Al  Al21  1  0.324685  0.162335  0.077799  1
  Al  Al22  1  0.837799  0.164256  0.077934  1
  Al  Al23  1  0.838144  0.673849  0.077843  1
  Al  Al24  1  0.668866  0.334061  0.522771  1
  Al  Al25  1  0.330986  0.666139  0.476930  1
  Al  Al26  1  0.330986  0.666139  0.023070  1
  Al  Al27  1  0.668866  0.334061  0.977229  1
  Al  Al28  1  0.998116  0.998982  0.250000  1
  Al  Al29  1  0.002150  0.000756  0.750000  1
  Ru  Ru30  1  0.999970  0.000001  0.499991  1
  Ru  Ru31  1  0.999970  0.000001  0.000009  1
  Ru  Ru32  1  0.000148  0.500261  0.499818  1
  Ru  Ru33  1  0.000148  0.500261  0.000182  1
  Rh  Rh34  1  0.499887  0.500049  0.499923  1
  Rh  Rh35  1  0.499766  0.999873  0.499867  1
  Rh  Rh36  1  0.499887  0.500049  0.000077  1
  Rh  Rh37  1  0.499766  0.999873  0.000133  1
