# generated using pymatgen
data_Th2Nb3Si4
_symmetry_space_group_name_H-M   'P 1'
_cell_length_a   7.19919200
_cell_length_b   7.19919200
_cell_length_c   13.40401300
_cell_angle_alpha   90.00000000
_cell_angle_beta   90.00000000
_cell_angle_gamma   90.00000000
_symmetry_Int_Tables_number   1
_chemical_formula_structural   Th2Nb3Si4
_chemical_formula_sum   'Th8 Nb12 Si16'
_cell_volume   694.70808430
_cell_formula_units_Z   4
loop_
 _symmetry_equiv_pos_site_id
 _symmetry_equiv_pos_as_xyz
  1  'x, y, z'
loop_
 _atom_site_type_symbol
 _atom_site_label
 _atom_site_symmetry_multiplicity
 _atom_site_fract_x
 _atom_site_fract_y
 _atom_site_fract_z
 _atom_site_occupancy
  Th  Th0  1  0.998997  0.337606  0.217793  1
  Th  Th1  1  0.001003  0.662394  0.717793  1
  Th  Th2  1  0.162394  0.498997  0.467793  1
  Th  Th3  1  0.501003  0.837606  0.032207  1
  Th  Th4  1  0.837606  0.501003  0.967793  1
  Th  Th5  1  0.498997  0.162394  0.532207  1
  Th  Th6  1  0.337606  0.998997  0.782207  1
  Th  Th7  1  0.662394  0.001003  0.282207  1
  Nb  Nb8  1  0.168170  0.168170  0.000000  1
  Nb  Nb9  1  0.831830  0.831830  0.500000  1
  Nb  Nb10  1  0.331830  0.668170  0.250000  1
  Nb  Nb11  1  0.668170  0.331830  0.750000  1
  Nb  Nb12  1  0.158885  0.995213  0.374276  1
  Nb  Nb13  1  0.841115  0.004787  0.874276  1
  Nb  Nb14  1  0.504787  0.658885  0.624276  1
  Nb  Nb15  1  0.341115  0.495213  0.875724  1
  Nb  Nb16  1  0.495213  0.341115  0.124276  1
  Nb  Nb17  1  0.658885  0.504787  0.375724  1
  Nb  Nb18  1  0.995213  0.158885  0.625724  1
  Nb  Nb19  1  0.004787  0.841115  0.125724  1
  Si  Si20  1  0.288613  0.040011  0.186518  1
  Si  Si21  1  0.711387  0.959989  0.686518  1
  Si  Si22  1  0.459989  0.788613  0.436518  1
  Si  Si23  1  0.211387  0.540011  0.063482  1
  Si  Si24  1  0.540011  0.211387  0.936518  1
  Si  Si25  1  0.788613  0.459989  0.563482  1
  Si  Si26  1  0.040011  0.288613  0.813482  1
  Si  Si27  1  0.959989  0.711387  0.313482  1
  Si  Si28  1  0.375258  0.297517  0.313579  1
  Si  Si29  1  0.624742  0.702483  0.813579  1
  Si  Si30  1  0.202483  0.875258  0.563579  1
  Si  Si31  1  0.124742  0.797517  0.936421  1
  Si  Si32  1  0.797517  0.124742  0.063579  1
  Si  Si33  1  0.875258  0.202483  0.436421  1
  Si  Si34  1  0.297517  0.375258  0.686421  1
  Si  Si35  1  0.702483  0.624742  0.186421  1
