# generated using pymatgen
data_Ac(CoSi)2
_symmetry_space_group_name_H-M   'P 1'
_cell_length_a   6.08931062
_cell_length_b   6.08931094
_cell_length_c   6.08931045
_cell_angle_alpha   141.19117538
_cell_angle_beta   141.19117932
_cell_angle_gamma   56.04904972
_symmetry_Int_Tables_number   1
_chemical_formula_structural   Ac(CoSi)2
_chemical_formula_sum   'Ac1 Co2 Si2'
_cell_volume   88.00106365
_cell_formula_units_Z   1
loop_
 _symmetry_equiv_pos_site_id
 _symmetry_equiv_pos_as_xyz
  1  'x, y, z'
loop_
 _atom_site_type_symbol
 _atom_site_label
 _atom_site_symmetry_multiplicity
 _atom_site_fract_x
 _atom_site_fract_y
 _atom_site_fract_z
 _atom_site_occupancy
  Ac  Ac0  1  0.000000  0.000000  0.000000  1
  Co  Co1  1  0.750000  0.250000  0.500000  1
  Co  Co2  1  0.250000  0.750000  0.500000  1
  Si  Si3  1  0.349476  0.349476  0.000000  1
  Si  Si4  1  0.650524  0.650524  0.000000  1
