# generated using pymatgen
data_Sm2TlCl7
_symmetry_space_group_name_H-M   'P 1'
_cell_length_a   7.01633634
_cell_length_b   8.19044509
_cell_length_c   7.36264000
_cell_angle_alpha   70.40800962
_cell_angle_beta   61.67879927
_cell_angle_gamma   89.16296495
_symmetry_Int_Tables_number   1
_chemical_formula_structural   Sm2TlCl7
_chemical_formula_sum   'Sm2 Tl1 Cl7'
_cell_volume   345.53371224
_cell_formula_units_Z   1
loop_
 _symmetry_equiv_pos_site_id
 _symmetry_equiv_pos_as_xyz
  1  'x, y, z'
loop_
 _atom_site_type_symbol
 _atom_site_label
 _atom_site_symmetry_multiplicity
 _atom_site_fract_x
 _atom_site_fract_y
 _atom_site_fract_z
 _atom_site_occupancy
  Sm  Sm0  1  0.614017  0.039890  0.166236  1
  Sm  Sm1  1  0.310352  0.047236  0.767564  1
  Tl  Tl2  1  0.780226  0.625682  0.787184  1
  Cl  Cl3  1  0.907638  0.817464  0.068745  1
  Cl  Cl4  1  0.432369  0.288211  0.348538  1
  Cl  Cl5  1  0.735346  0.000392  0.489395  1
  Cl  Cl6  1  0.261843  0.831728  0.566726  1
  Cl  Cl7  1  0.405124  0.817041  0.071844  1
  Cl  Cl8  1  0.013474  0.267334  0.893467  1
  Cl  Cl9  1  0.539611  0.265024  0.840300  1
