# generated using pymatgen
data_Ho8Er4InCo5
_symmetry_space_group_name_H-M   'P 1'
_cell_length_a   8.23231686
_cell_length_b   8.23231679
_cell_length_c   8.23231790
_cell_angle_alpha   110.77087328
_cell_angle_beta   110.74358087
_cell_angle_gamma   106.92874345
_symmetry_Int_Tables_number   1
_chemical_formula_structural   Ho8Er4InCo5
_chemical_formula_sum   'Ho8 Er4 In1 Co5'
_cell_volume   428.85063582
_cell_formula_units_Z   1
loop_
 _symmetry_equiv_pos_site_id
 _symmetry_equiv_pos_as_xyz
  1  'x, y, z'
loop_
 _atom_site_type_symbol
 _atom_site_label
 _atom_site_symmetry_multiplicity
 _atom_site_fract_x
 _atom_site_fract_y
 _atom_site_fract_z
 _atom_site_occupancy
  Ho  Ho0  1  0.185973  0.291382  0.477355  1
  Ho  Ho1  1  0.814027  0.708618  0.522645  1
  Ho  Ho2  1  0.185973  0.708618  0.894591  1
  Ho  Ho3  1  0.814027  0.291382  0.105409  1
  Ho  Ho4  1  0.402111  0.209777  0.192334  1
  Ho  Ho5  1  0.597889  0.790223  0.807666  1
  Ho  Ho6  1  0.017443  0.209777  0.807666  1
  Ho  Ho7  1  0.982557  0.790223  0.192334  1
  Er  Er8  1  0.314614  0.619799  0.305186  1
  Er  Er9  1  0.685386  0.380201  0.694814  1
  Er  Er10  1  0.314614  0.009427  0.694814  1
  Er  Er11  1  0.685386  0.990573  0.305186  1
  In  In12  1  0.500000  0.500000  0.000000  1
  Co  Co13  1  0.112902  0.612902  0.500000  1
  Co  Co14  1  0.887098  0.387098  0.500000  1
  Co  Co15  1  0.378582  0.000000  0.378582  1
  Co  Co16  1  0.621418  0.000000  0.621418  1
  Co  Co17  1  0.000000  0.000000  0.000000  1
