# generated using pymatgen
data_Lu4V3FeB16
_symmetry_space_group_name_H-M   'P 1'
_cell_length_a   3.37334300
_cell_length_b   5.92504172
_cell_length_c   11.44677048
_cell_angle_alpha   89.98818979
_cell_angle_beta   89.99975795
_cell_angle_gamma   89.99994664
_symmetry_Int_Tables_number   1
_chemical_formula_structural   Lu4V3FeB16
_chemical_formula_sum   'Lu4 V3 Fe1 B16'
_cell_volume   228.78886343
_cell_formula_units_Z   1
loop_
 _symmetry_equiv_pos_site_id
 _symmetry_equiv_pos_as_xyz
  1  'x, y, z'
loop_
 _atom_site_type_symbol
 _atom_site_label
 _atom_site_symmetry_multiplicity
 _atom_site_fract_x
 _atom_site_fract_y
 _atom_site_fract_z
 _atom_site_occupancy
  Lu  Lu0  1  0.500002  0.376091  0.151083  1
  Lu  Lu1  1  0.500000  0.626138  0.848945  1
  Lu  Lu2  1  0.500000  0.124475  0.650068  1
  Lu  Lu3  1  0.499998  0.875466  0.349344  1
  V  V4  1  0.500000  0.372005  0.413180  1
  V  V5  1  0.500003  0.628028  0.583611  1
  V  V6  1  0.500001  0.128208  0.919523  1
  Fe  Fe7  1  0.500003  0.872033  0.082683  1
  B  B8  1  0.000003  0.109825  0.050488  1
  B  B9  1  0.000003  0.882376  0.955261  1
  B  B10  1  0.999998  0.383797  0.547070  1
  B  B11  1  0.999998  0.615961  0.451251  1
  B  B12  1  0.999997  0.133393  0.466710  1
  B  B13  1  0.999997  0.866465  0.532428  1
  B  B14  1  0.000001  0.366636  0.970521  1
  B  B15  1  0.000000  0.637188  0.033181  1
  B  B16  1  0.000001  0.020766  0.191977  1
  B  B17  1  0.000003  0.975164  0.808190  1
  B  B18  1  0.999996  0.474342  0.693697  1
  B  B19  1  0.999999  0.528096  0.304279  1
  B  B20  1  0.000000  0.211177  0.311324  1
  B  B21  1  0.000000  0.787384  0.687134  1
  B  B22  1  0.999999  0.285611  0.815024  1
  B  B23  1  0.000000  0.719375  0.183028  1
