# generated using pymatgen
data_SmGd7(MoO6)4
_symmetry_space_group_name_H-M   'P 1'
_cell_length_a   10.05686225
_cell_length_b   10.07418210
_cell_length_c   5.47869841
_cell_angle_alpha   75.13326468
_cell_angle_beta   75.17874257
_cell_angle_gamma   68.37021085
_symmetry_Int_Tables_number   1
_chemical_formula_structural   SmGd7(MoO6)4
_chemical_formula_sum   'Sm1 Gd7 Mo4 O24'
_cell_volume   490.61886933
_cell_formula_units_Z   1
loop_
 _symmetry_equiv_pos_site_id
 _symmetry_equiv_pos_as_xyz
  1  'x, y, z'
loop_
 _atom_site_type_symbol
 _atom_site_label
 _atom_site_symmetry_multiplicity
 _atom_site_fract_x
 _atom_site_fract_y
 _atom_site_fract_z
 _atom_site_occupancy
  Sm  Sm0  1  0.945673  0.713035  0.382142  1
  Gd  Gd1  1  0.635307  0.364351  0.750371  1
  Gd  Gd2  1  0.364303  0.635746  0.249572  1
  Gd  Gd3  1  0.107829  0.892654  0.750355  1
  Gd  Gd4  1  0.891892  0.107954  0.250534  1
  Gd  Gd5  1  0.714476  0.946849  0.880107  1
  Gd  Gd6  1  0.285690  0.054186  0.120036  1
  Gd  Gd7  1  0.054499  0.284862  0.620285  1
  Mo  Mo8  1  0.509278  0.797104  0.560356  1
  Mo  Mo9  1  0.490321  0.203207  0.439648  1
  Mo  Mo10  1  0.203217  0.490250  0.938561  1
  Mo  Mo11  1  0.796805  0.508861  0.061209  1
  O  O12  1  0.690265  0.162560  0.584971  1
  O  O13  1  0.309302  0.837980  0.414593  1
  O  O14  1  0.837747  0.309470  0.915607  1
  O  O15  1  0.162834  0.690122  0.082360  1
  O  O16  1  0.383160  0.826210  0.867165  1
  O  O17  1  0.616477  0.174138  0.132748  1
  O  O18  1  0.173661  0.616437  0.631028  1
  O  O19  1  0.825850  0.383463  0.368501  1
  O  O20  1  0.679449  0.787630  0.638317  1
  O  O21  1  0.320341  0.212263  0.362003  1
  O  O22  1  0.212998  0.320293  0.861045  1
  O  O23  1  0.787328  0.679338  0.136838  1
  O  O24  1  0.474759  0.068362  0.740064  1
  O  O25  1  0.525121  0.931980  0.260214  1
  O  O26  1  0.932670  0.523674  0.762127  1
  O  O27  1  0.069163  0.473634  0.239729  1
  O  O28  1  0.545714  0.613365  0.516736  1
  O  O29  1  0.454063  0.387006  0.482914  1
  O  O30  1  0.387024  0.453793  0.982952  1
  O  O31  1  0.612936  0.545368  0.016791  1
  O  O32  1  0.890976  0.926412  0.076523  1
  O  O33  1  0.108934  0.075360  0.922668  1
  O  O34  1  0.075449  0.109010  0.422332  1
  O  O35  1  0.924490  0.893074  0.578592  1
