# generated using pymatgen
data_Ca4In2Pt3Rh
_symmetry_space_group_name_H-M   'P 1'
_cell_length_a   5.88290462
_cell_length_b   5.82603211
_cell_length_c   8.20196316
_cell_angle_alpha   77.05685323
_cell_angle_beta   76.70823588
_cell_angle_gamma   58.40828032
_symmetry_Int_Tables_number   1
_chemical_formula_structural   Ca4In2Pt3Rh
_chemical_formula_sum   'Ca4 In2 Pt3 Rh1'
_cell_volume   231.21421291
_cell_formula_units_Z   1
loop_
 _symmetry_equiv_pos_site_id
 _symmetry_equiv_pos_as_xyz
  1  'x, y, z'
loop_
 _atom_site_type_symbol
 _atom_site_label
 _atom_site_symmetry_multiplicity
 _atom_site_fract_x
 _atom_site_fract_y
 _atom_site_fract_z
 _atom_site_occupancy
  Ca  Ca0  1  0.500697  0.796749  0.349028  1
  Ca  Ca1  1  0.203672  0.501741  0.147179  1
  Ca  Ca2  1  0.496946  0.203201  0.651362  1
  Ca  Ca3  1  0.797899  0.499058  0.853163  1
  In  In4  1  0.857537  0.146335  0.244990  1
  In  In5  1  0.150949  0.851780  0.754131  1
  Pt  Pt6  1  0.004323  0.724070  0.507149  1
  Pt  Pt7  1  0.714577  0.003647  0.005008  1
  Pt  Pt8  1  0.995370  0.277433  0.494177  1
  Rh  Rh9  1  0.278030  0.995986  0.993812  1
