# generated using pymatgen
data_K2Co(PdO2)3
_symmetry_space_group_name_H-M   'P 1'
_cell_length_a   7.16303773
_cell_length_b   7.16303801
_cell_length_c   7.16303655
_cell_angle_alpha   49.41057817
_cell_angle_beta   49.41057269
_cell_angle_gamma   49.41057922
_symmetry_Int_Tables_number   1
_chemical_formula_structural   K2Co(PdO2)3
_chemical_formula_sum   'K2 Co1 Pd3 O6'
_cell_volume   194.78515263
_cell_formula_units_Z   1
loop_
 _symmetry_equiv_pos_site_id
 _symmetry_equiv_pos_as_xyz
  1  'x, y, z'
loop_
 _atom_site_type_symbol
 _atom_site_label
 _atom_site_symmetry_multiplicity
 _atom_site_fract_x
 _atom_site_fract_y
 _atom_site_fract_z
 _atom_site_occupancy
  K  K0  1  0.829556  0.829556  0.829556  1
  K  K1  1  0.170444  0.170444  0.170444  1
  Co  Co2  1  0.000000  0.000000  0.000000  1
  Pd  Pd3  1  0.000000  0.500000  0.500000  1
  Pd  Pd4  1  0.500000  0.000000  0.500000  1
  Pd  Pd5  1  0.500000  0.500000  0.000000  1
  O  O6  1  0.894871  0.374250  0.894871  1
  O  O7  1  0.894871  0.894871  0.374250  1
  O  O8  1  0.374250  0.894871  0.894871  1
  O  O9  1  0.105129  0.625750  0.105129  1
  O  O10  1  0.105129  0.105129  0.625750  1
  O  O11  1  0.625750  0.105129  0.105129  1
