# generated using pymatgen
data_Al2CrH4
_symmetry_space_group_name_H-M   'P 1'
_cell_length_a   4.64410694
_cell_length_b   3.23700884
_cell_length_c   4.64135843
_cell_angle_alpha   110.38096866
_cell_angle_beta   91.07009293
_cell_angle_gamma   69.52184861
_symmetry_Int_Tables_number   1
_chemical_formula_structural   Al2CrH4
_chemical_formula_sum   'Al2 Cr1 H4'
_cell_volume   60.84808590
_cell_formula_units_Z   1
loop_
 _symmetry_equiv_pos_site_id
 _symmetry_equiv_pos_as_xyz
  1  'x, y, z'
loop_
 _atom_site_type_symbol
 _atom_site_label
 _atom_site_symmetry_multiplicity
 _atom_site_fract_x
 _atom_site_fract_y
 _atom_site_fract_z
 _atom_site_occupancy
  Al  Al0  1  0.261401  0.113984  0.311217  1
  Al  Al1  1  0.758261  0.615490  0.812985  1
  Cr  Cr2  1  0.316805  0.366460  0.871589  1
  H  H3  1  0.184408  0.877754  0.761604  1
  H  H4  1  0.019886  0.660936  0.159385  1
  H  H5  1  0.580120  0.353880  0.118795  1
  H  H6  1  0.602408  0.073327  0.570555  1
