# generated using pymatgen
data_MgHg2SO6
_symmetry_space_group_name_H-M   'P 1'
_cell_length_a   6.60146751
_cell_length_b   7.21047458
_cell_length_c   7.35793382
_cell_angle_alpha   73.78436722
_cell_angle_beta   65.58647957
_cell_angle_gamma   64.06095249
_symmetry_Int_Tables_number   1
_chemical_formula_structural   MgHg2SO6
_chemical_formula_sum   'Mg2 Hg4 S2 O12'
_cell_volume   284.71082701
_cell_formula_units_Z   2
loop_
 _symmetry_equiv_pos_site_id
 _symmetry_equiv_pos_as_xyz
  1  'x, y, z'
loop_
 _atom_site_type_symbol
 _atom_site_label
 _atom_site_symmetry_multiplicity
 _atom_site_fract_x
 _atom_site_fract_y
 _atom_site_fract_z
 _atom_site_occupancy
  Mg  Mg0  1  0.664685  0.874598  0.789138  1
  Mg  Mg1  1  0.335315  0.125402  0.210862  1
  Hg  Hg2  1  0.158559  0.363032  0.793283  1
  Hg  Hg3  1  0.339301  0.633559  0.209028  1
  Hg  Hg4  1  0.660699  0.366441  0.790972  1
  Hg  Hg5  1  0.841441  0.636968  0.206717  1
  S  S6  1  0.216701  0.873005  0.676338  1
  S  S7  1  0.783299  0.126995  0.323662  1
  O  O8  1  0.036120  0.101876  0.194421  1
  O  O9  1  0.963880  0.898124  0.805579  1
  O  O10  1  0.542023  0.816552  0.123436  1
  O  O11  1  0.344447  0.862265  0.808278  1
  O  O12  1  0.457977  0.183448  0.876564  1
  O  O13  1  0.782262  0.941981  0.478123  1
  O  O14  1  0.839868  0.553624  0.751312  1
  O  O15  1  0.217738  0.058019  0.521877  1
  O  O16  1  0.160132  0.446376  0.248688  1
  O  O17  1  0.664563  0.321064  0.419377  1
  O  O18  1  0.335437  0.678936  0.580623  1
  O  O19  1  0.655553  0.137735  0.191722  1
