# generated using pymatgen
data_Ba9Sr(BiSb3)2
_symmetry_space_group_name_H-M   'P 1'
_cell_length_a   10.07909959
_cell_length_b   10.07909946
_cell_length_c   9.19314187
_cell_angle_alpha   90.12347049
_cell_angle_beta   90.12346899
_cell_angle_gamma   125.98226577
_symmetry_Int_Tables_number   1
_chemical_formula_structural   Ba9Sr(BiSb3)2
_chemical_formula_sum   'Ba9 Sr1 Bi2 Sb6'
_cell_volume   755.71460665
_cell_formula_units_Z   1
loop_
 _symmetry_equiv_pos_site_id
 _symmetry_equiv_pos_as_xyz
  1  'x, y, z'
loop_
 _atom_site_type_symbol
 _atom_site_label
 _atom_site_symmetry_multiplicity
 _atom_site_fract_x
 _atom_site_fract_y
 _atom_site_fract_z
 _atom_site_occupancy
  Ba  Ba0  1  0.997849  0.997849  0.005593  1
  Ba  Ba1  1  0.316864  0.022303  0.662326  1
  Ba  Ba2  1  0.520983  0.814545  0.836620  1
  Ba  Ba3  1  0.186537  0.478136  0.166179  1
  Ba  Ba4  1  0.976631  0.683839  0.334763  1
  Ba  Ba5  1  0.683839  0.976631  0.334763  1
  Ba  Ba6  1  0.478136  0.186537  0.166179  1
  Ba  Ba7  1  0.814545  0.520983  0.836620  1
  Ba  Ba8  1  0.022303  0.316864  0.662326  1
  Sr  Sr9  1  0.497894  0.497894  0.494062  1
  Bi  Bi10  1  0.879842  0.879842  0.613772  1
  Bi  Bi11  1  0.387023  0.387023  0.877872  1
  Sb  Sb12  1  0.613256  0.613256  0.121572  1
  Sb  Sb13  1  0.121370  0.121370  0.387299  1
  Sb  Sb14  1  0.198565  0.802906  0.000010  1
  Sb  Sb15  1  0.306169  0.695288  0.500018  1
  Sb  Sb16  1  0.802906  0.198565  0.000010  1
  Sb  Sb17  1  0.695288  0.306169  0.500018  1
