# generated using pymatgen
data_Y4SiBi5Rh7
_symmetry_space_group_name_H-M   'P 1'
_cell_length_a   7.73672890
_cell_length_b   7.73673017
_cell_length_c   7.73672986
_cell_angle_alpha   106.64541688
_cell_angle_beta   110.90232219
_cell_angle_gamma   110.90233826
_symmetry_Int_Tables_number   1
_chemical_formula_structural   Y4SiBi5Rh7
_chemical_formula_sum   'Y4 Si1 Bi5 Rh7'
_cell_volume   355.84621062
_cell_formula_units_Z   1
loop_
 _symmetry_equiv_pos_site_id
 _symmetry_equiv_pos_as_xyz
  1  'x, y, z'
loop_
 _atom_site_type_symbol
 _atom_site_label
 _atom_site_symmetry_multiplicity
 _atom_site_fract_x
 _atom_site_fract_y
 _atom_site_fract_z
 _atom_site_occupancy
  Y  Y0  1  0.000000  0.983871  0.530004  1
  Y  Y1  1  0.000000  0.530004  0.983871  1
  Y  Y2  1  0.453866  0.983871  0.983871  1
  Y  Y3  1  0.546134  0.530004  0.530004  1
  Si  Si4  1  0.000000  0.640846  0.640846  1
  Bi  Bi5  1  0.689043  0.703808  0.014764  1
  Bi  Bi6  1  0.310957  0.014764  0.325721  1
  Bi  Bi7  1  0.000000  0.307803  0.307803  1
  Bi  Bi8  1  0.310957  0.325721  0.014764  1
  Bi  Bi9  1  0.689043  0.014764  0.703808  1
  Rh  Rh10  1  0.757888  0.267422  0.509534  1
  Rh  Rh11  1  0.757888  0.509534  0.267422  1
  Rh  Rh12  1  0.500000  0.261642  0.761642  1
  Rh  Rh13  1  0.242112  0.509534  0.751646  1
  Rh  Rh14  1  0.242112  0.751646  0.509534  1
  Rh  Rh15  1  0.500000  0.761642  0.261642  1
  Rh  Rh16  1  0.000000  0.903121  0.903121  1
