# generated using pymatgen
data_Cs3Ti2CuTe10
_symmetry_space_group_name_H-M   'P 1'
_cell_length_a   10.12480360
_cell_length_b   11.11545565
_cell_length_c   11.24800254
_cell_angle_alpha   89.54300068
_cell_angle_beta   89.12708343
_cell_angle_gamma   77.99310196
_symmetry_Int_Tables_number   1
_chemical_formula_structural   Cs3Ti2CuTe10
_chemical_formula_sum   'Cs6 Ti4 Cu2 Te20'
_cell_volume   1238.01786119
_cell_formula_units_Z   2
loop_
 _symmetry_equiv_pos_site_id
 _symmetry_equiv_pos_as_xyz
  1  'x, y, z'
loop_
 _atom_site_type_symbol
 _atom_site_label
 _atom_site_symmetry_multiplicity
 _atom_site_fract_x
 _atom_site_fract_y
 _atom_site_fract_z
 _atom_site_occupancy
  Cs  Cs0  1  0.883782  0.890551  0.262088  1
  Cs  Cs1  1  0.116218  0.109449  0.737912  1
  Cs  Cs2  1  0.444602  0.764427  0.389528  1
  Cs  Cs3  1  0.555398  0.235573  0.610472  1
  Cs  Cs4  1  0.299611  0.625046  0.895420  1
  Cs  Cs5  1  0.700389  0.374954  0.104580  1
  Ti  Ti6  1  0.109368  0.376090  0.366567  1
  Ti  Ti7  1  0.890632  0.623910  0.633433  1
  Ti  Ti8  1  0.303861  0.161234  0.145377  1
  Ti  Ti9  1  0.696139  0.838766  0.854623  1
  Cu  Cu10  1  0.922680  0.378624  0.556650  1
  Cu  Cu11  1  0.077320  0.621376  0.443350  1
  Te  Te12  1  0.844381  0.558954  0.400911  1
  Te  Te13  1  0.155619  0.441046  0.599089  1
  Te  Te14  1  0.929328  0.210623  0.402545  1
  Te  Te15  1  0.070672  0.789377  0.597455  1
  Te  Te16  1  0.190472  0.588034  0.239717  1
  Te  Te17  1  0.809528  0.411966  0.760283  1
  Te  Te18  1  0.213883  0.121353  0.389185  1
  Te  Te19  1  0.786117  0.878647  0.610815  1
  Te  Te20  1  0.083733  0.362967  0.115432  1
  Te  Te21  1  0.916267  0.637033  0.884568  1
  Te  Te22  1  0.386032  0.354176  0.290860  1
  Te  Te23  1  0.613968  0.645824  0.709140  1
  Te  Te24  1  0.047959  0.121521  0.070450  1
  Te  Te25  1  0.952041  0.878479  0.929550  1
  Te  Te26  1  0.521431  0.089162  0.296156  1
  Te  Te27  1  0.478569  0.910838  0.703844  1
  Te  Te28  1  0.331081  0.920548  0.072343  1
  Te  Te29  1  0.668919  0.079452  0.927657  1
  Te  Te30  1  0.408398  0.241466  0.937193  1
  Te  Te31  1  0.591602  0.758534  0.062807  1
