# generated using pymatgen
data_Ca5Nd8Er7Si16
_symmetry_space_group_name_H-M   'P 1'
_cell_length_a   7.45636798
_cell_length_b   14.86864968
_cell_length_c   7.84463341
_cell_angle_alpha   89.95293396
_cell_angle_beta   90.09646343
_cell_angle_gamma   90.08931351
_symmetry_Int_Tables_number   1
_chemical_formula_structural   Ca5Nd8Er7Si16
_chemical_formula_sum   'Ca5 Nd8 Er7 Si16'
_cell_volume   869.70151425
_cell_formula_units_Z   1
loop_
 _symmetry_equiv_pos_site_id
 _symmetry_equiv_pos_as_xyz
  1  'x, y, z'
loop_
 _atom_site_type_symbol
 _atom_site_label
 _atom_site_symmetry_multiplicity
 _atom_site_fract_x
 _atom_site_fract_y
 _atom_site_fract_z
 _atom_site_occupancy
  Ca  Ca0  1  0.345529  0.249491  0.011799  1
  Ca  Ca1  1  0.321559  0.621187  0.179897  1
  Ca  Ca2  1  0.845838  0.249697  0.488411  1
  Ca  Ca3  1  0.154578  0.749481  0.508795  1
  Ca  Ca4  1  0.651925  0.749542  0.989732  1
  Nd  Nd5  1  0.023002  0.098124  0.180436  1
  Nd  Nd6  1  0.022474  0.401928  0.180234  1
  Nd  Nd7  1  0.522957  0.097544  0.320052  1
  Nd  Nd8  1  0.523492  0.401484  0.318768  1
  Nd  Nd9  1  0.476814  0.597904  0.680728  1
  Nd  Nd10  1  0.476595  0.902667  0.680680  1
  Nd  Nd11  1  0.976889  0.598063  0.819207  1
  Nd  Nd12  1  0.977440  0.903901  0.819547  1
  Er  Er13  1  0.323048  0.877697  0.181717  1
  Er  Er14  1  0.822869  0.623297  0.319744  1
  Er  Er15  1  0.823882  0.877753  0.317988  1
  Er  Er16  1  0.177392  0.122877  0.680875  1
  Er  Er17  1  0.177818  0.376619  0.680395  1
  Er  Er18  1  0.677630  0.122653  0.819192  1
  Er  Er19  1  0.677258  0.375995  0.819459  1
  Si  Si20  1  0.655577  0.533131  0.032254  1
  Si  Si21  1  0.649159  0.964527  0.032505  1
  Si  Si22  1  0.029893  0.753039  0.107605  1
  Si  Si23  1  0.733262  0.249633  0.112299  1
  Si  Si24  1  0.232040  0.249787  0.387575  1
  Si  Si25  1  0.535300  0.752348  0.396266  1
  Si  Si26  1  0.142853  0.535379  0.473861  1
  Si  Si27  1  0.150145  0.965085  0.466547  1
  Si  Si28  1  0.850107  0.035238  0.532839  1
  Si  Si29  1  0.849121  0.463911  0.533398  1
  Si  Si30  1  0.468178  0.249852  0.608505  1
  Si  Si31  1  0.768073  0.750911  0.613192  1
  Si  Si32  1  0.263645  0.752918  0.882636  1
  Si  Si33  1  0.968184  0.249844  0.890310  1
  Si  Si34  1  0.350119  0.035416  0.967598  1
  Si  Si35  1  0.355356  0.461071  0.964954  1
