# generated using pymatgen
data_Tb4Sc4B24Ir3Ru
_symmetry_space_group_name_H-M   'P 1'
_cell_length_a   3.56189300
_cell_length_b   9.01812728
_cell_length_c   11.40169036
_cell_angle_alpha   90.02875115
_cell_angle_beta   90.00000000
_cell_angle_gamma   90.00000000
_symmetry_Int_Tables_number   1
_chemical_formula_structural   Tb4Sc4B24Ir3Ru
_chemical_formula_sum   'Tb4 Sc4 B24 Ir3 Ru1'
_cell_volume   366.24054161
_cell_formula_units_Z   1
loop_
 _symmetry_equiv_pos_site_id
 _symmetry_equiv_pos_as_xyz
  1  'x, y, z'
loop_
 _atom_site_type_symbol
 _atom_site_label
 _atom_site_symmetry_multiplicity
 _atom_site_fract_x
 _atom_site_fract_y
 _atom_site_fract_z
 _atom_site_occupancy
  Tb  Tb0  1  0.500000  0.318866  0.413135  1
  Tb  Tb1  1  0.500000  0.680303  0.586206  1
  Tb  Tb2  1  0.500000  0.180146  0.914859  1
  Tb  Tb3  1  0.500000  0.821297  0.086453  1
  Sc  Sc4  1  0.500000  0.442819  0.124167  1
  Sc  Sc5  1  0.500000  0.555138  0.875859  1
  Sc  Sc6  1  0.500000  0.054983  0.623974  1
  Sc  Sc7  1  0.500000  0.947018  0.374949  1
  B  B8  1  0.000000  0.100043  0.473315  1
  B  B9  1  0.000000  0.899858  0.527180  1
  B  B10  1  0.000000  0.400096  0.972777  1
  B  B11  1  0.000000  0.600346  0.026889  1
  B  B12  1  0.000000  0.129410  0.317297  1
  B  B13  1  0.000000  0.870288  0.681515  1
  B  B14  1  0.000000  0.370441  0.818455  1
  B  B15  1  0.000000  0.629520  0.181717  1
  B  B16  1  0.000000  0.055503  0.067077  1
  B  B17  1  0.000000  0.945087  0.933675  1
  B  B18  1  0.000000  0.444756  0.566159  1
  B  B19  1  0.000000  0.555102  0.433717  1
  B  B20  1  0.000000  0.482054  0.284943  1
  B  B21  1  0.000000  0.518050  0.715086  1
  B  B22  1  0.000000  0.018008  0.784740  1
  B  B23  1  0.000000  0.982936  0.215050  1
  B  B24  1  0.000000  0.253999  0.081559  1
  B  B25  1  0.000000  0.745336  0.919357  1
  B  B26  1  0.000000  0.245365  0.580501  1
  B  B27  1  0.000000  0.754578  0.419397  1
  B  B28  1  0.000000  0.294784  0.234369  1
  B  B29  1  0.000000  0.704277  0.764927  1
  B  B30  1  0.000000  0.204462  0.735185  1
  B  B31  1  0.000000  0.795539  0.265355  1
  Ir  Ir32  1  0.500000  0.858934  0.818905  1
  Ir  Ir33  1  0.500000  0.358725  0.681329  1
  Ir  Ir34  1  0.500000  0.641025  0.318340  1
  Ru  Ru35  1  0.500000  0.140907  0.181581  1
