# generated using pymatgen
data_Ti8TlF33
_symmetry_space_group_name_H-M   'P 1'
_cell_length_a   8.71065000
_cell_length_b   8.71064984
_cell_length_c   19.09698000
_cell_angle_alpha   90.00000000
_cell_angle_beta   90.00000000
_cell_angle_gamma   120.00000060
_symmetry_Int_Tables_number   1
_chemical_formula_structural   Ti8TlF33
_chemical_formula_sum   'Ti16 Tl2 F66'
_cell_volume   1254.86336950
_cell_formula_units_Z   2
loop_
 _symmetry_equiv_pos_site_id
 _symmetry_equiv_pos_as_xyz
  1  'x, y, z'
loop_
 _atom_site_type_symbol
 _atom_site_label
 _atom_site_symmetry_multiplicity
 _atom_site_fract_x
 _atom_site_fract_y
 _atom_site_fract_z
 _atom_site_occupancy
  Ti  Ti0  1  0.666667  0.333333  0.376471  1
  Ti  Ti1  1  0.333333  0.666667  0.876471  1
  Ti  Ti2  1  0.668260  0.988910  0.253114  1
  Ti  Ti3  1  0.320650  0.331740  0.253114  1
  Ti  Ti4  1  0.011090  0.679350  0.253114  1
  Ti  Ti5  1  0.679350  0.011090  0.753114  1
  Ti  Ti6  1  0.988910  0.668260  0.753114  1
  Ti  Ti7  1  0.331740  0.320650  0.753114  1
  Ti  Ti8  1  0.338341  0.990763  0.619821  1
  Ti  Ti9  1  0.652422  0.661659  0.619821  1
  Ti  Ti10  1  0.009237  0.347578  0.619821  1
  Ti  Ti11  1  0.347578  0.009237  0.119821  1
  Ti  Ti12  1  0.990763  0.338341  0.119821  1
  Ti  Ti13  1  0.661659  0.652422  0.119821  1
  Ti  Ti14  1  0.000000  0.000000  0.497639  1
  Ti  Ti15  1  0.000000  0.000000  0.997639  1
  Tl  Tl16  1  0.333333  0.666667  0.434129  1
  Tl  Tl17  1  0.666667  0.333333  0.934129  1
  F  F18  1  0.738368  0.204438  0.303090  1
  F  F19  1  0.466070  0.261632  0.303090  1
  F  F20  1  0.795562  0.533930  0.303090  1
  F  F21  1  0.533930  0.795562  0.803090  1
  F  F22  1  0.204438  0.738368  0.803090  1
  F  F23  1  0.261632  0.466070  0.803090  1
  F  F24  1  0.536327  0.072430  0.185031  1
  F  F25  1  0.536104  0.463673  0.185031  1
  F  F26  1  0.927570  0.463896  0.185031  1
  F  F27  1  0.463896  0.927570  0.685031  1
  F  F28  1  0.072430  0.536327  0.685031  1
  F  F29  1  0.463673  0.536104  0.685031  1
  F  F30  1  0.867430  0.134591  0.189643  1
  F  F31  1  0.267161  0.132570  0.189643  1
  F  F32  1  0.865409  0.732839  0.189643  1
  F  F33  1  0.732839  0.865409  0.689643  1
  F  F34  1  0.134591  0.867430  0.689643  1
  F  F35  1  0.132570  0.267161  0.689643  1
  F  F36  1  0.198600  0.071084  0.571730  1
  F  F37  1  0.872485  0.801400  0.571730  1
  F  F38  1  0.928916  0.127515  0.571730  1
  F  F39  1  0.127515  0.928916  0.071730  1
  F  F40  1  0.071084  0.198600  0.071730  1
  F  F41  1  0.801400  0.872485  0.071730  1
  F  F42  1  0.599752  0.800716  0.185071  1
  F  F43  1  0.200964  0.400248  0.185071  1
  F  F44  1  0.199284  0.799036  0.185071  1
  F  F45  1  0.799036  0.199284  0.685071  1
  F  F46  1  0.800716  0.599752  0.685071  1
  F  F47  1  0.400248  0.200964  0.685071  1
  F  F48  1  0.463185  0.880231  0.300235  1
  F  F49  1  0.417045  0.536815  0.300235  1
  F  F50  1  0.119769  0.582955  0.300235  1
  F  F51  1  0.582955  0.119769  0.800235  1
  F  F52  1  0.880231  0.463185  0.800235  1
  F  F53  1  0.536815  0.417045  0.800235  1
  F  F54  1  0.529585  0.116527  0.568919  1
  F  F55  1  0.586941  0.470415  0.568919  1
  F  F56  1  0.883473  0.413059  0.568919  1
  F  F57  1  0.413059  0.883473  0.068919  1
  F  F58  1  0.116527  0.529585  0.068919  1
  F  F59  1  0.470415  0.586941  0.068919  1
  F  F60  1  0.874427  0.408605  0.418488  1
  F  F61  1  0.534178  0.125573  0.418488  1
  F  F62  1  0.591395  0.465822  0.418488  1
  F  F63  1  0.465822  0.591395  0.918488  1
  F  F64  1  0.408605  0.874427  0.918488  1
  F  F65  1  0.125573  0.534178  0.918488  1
  F  F66  1  0.243641  0.791798  0.569630  1
  F  F67  1  0.548157  0.756359  0.569630  1
  F  F68  1  0.208202  0.451843  0.569630  1
  F  F69  1  0.451843  0.208202  0.069630  1
  F  F70  1  0.791798  0.243641  0.069630  1
  F  F71  1  0.756359  0.548157  0.069630  1
  F  F72  1  0.785219  0.915864  0.305235  1
  F  F73  1  0.130644  0.214781  0.305235  1
  F  F74  1  0.084136  0.869356  0.305235  1
  F  F75  1  0.869356  0.084136  0.805235  1
  F  F76  1  0.915864  0.785219  0.805235  1
  F  F77  1  0.214781  0.130644  0.805235  1
  F  F78  1  0.132550  0.207709  0.455495  1
  F  F79  1  0.075161  0.867450  0.455495  1
  F  F80  1  0.792291  0.924839  0.455495  1
  F  F81  1  0.924839  0.792291  0.955495  1
  F  F82  1  0.207709  0.132550  0.955495  1
  F  F83  1  0.867450  0.075161  0.955495  1
