# generated using pymatgen
data_HfSc7Si16(Mo5W)2
_symmetry_space_group_name_H-M   'P 1'
_cell_length_a   6.57647877
_cell_length_b   6.78650168
_cell_length_c   12.67889746
_cell_angle_alpha   89.94538774
_cell_angle_beta   89.94261707
_cell_angle_gamma   90.16274881
_symmetry_Int_Tables_number   1
_chemical_formula_structural   HfSc7Si16(Mo5W)2
_chemical_formula_sum   'Hf1 Sc7 Si16 Mo10 W2'
_cell_volume   565.87265022
_cell_formula_units_Z   1
loop_
 _symmetry_equiv_pos_site_id
 _symmetry_equiv_pos_as_xyz
  1  'x, y, z'
loop_
 _atom_site_type_symbol
 _atom_site_label
 _atom_site_symmetry_multiplicity
 _atom_site_fract_x
 _atom_site_fract_y
 _atom_site_fract_z
 _atom_site_occupancy
  Hf  Hf0  1  0.504748  0.669542  0.594638  1
  Sc  Sc1  1  0.995301  0.169772  0.093177  1
  Sc  Sc2  1  0.005424  0.830389  0.907589  1
  Sc  Sc3  1  0.505118  0.668973  0.907365  1
  Sc  Sc4  1  0.006457  0.830045  0.592396  1
  Sc  Sc5  1  0.495405  0.330558  0.093126  1
  Sc  Sc6  1  0.994818  0.170196  0.406802  1
  Sc  Sc7  1  0.495886  0.331325  0.406920  1
  Si  Si8  1  0.032819  0.122816  0.749584  1
  Si  Si9  1  0.966025  0.877010  0.249784  1
  Si  Si10  1  0.465409  0.622592  0.249261  1
  Si  Si11  1  0.534713  0.375836  0.750408  1
  Si  Si12  1  0.300291  0.861058  0.751082  1
  Si  Si13  1  0.698497  0.139725  0.249888  1
  Si  Si14  1  0.199287  0.359149  0.250133  1
  Si  Si15  1  0.802315  0.640931  0.751168  1
  Si  Si16  1  0.166740  0.461736  0.543500  1
  Si  Si17  1  0.832675  0.537309  0.455763  1
  Si  Si18  1  0.333942  0.963291  0.455681  1
  Si  Si19  1  0.834019  0.536637  0.044813  1
  Si  Si20  1  0.666669  0.038556  0.543973  1
  Si  Si21  1  0.165514  0.462951  0.955319  1
  Si  Si22  1  0.664958  0.036705  0.954744  1
  Si  Si23  1  0.334547  0.963467  0.045013  1
  Mo  Mo24  1  0.333716  0.005498  0.249927  1
  Mo  Mo25  1  0.665996  0.991246  0.748603  1
  Mo  Mo26  1  0.331418  0.164762  0.623953  1
  Mo  Mo27  1  0.667809  0.833161  0.376489  1
  Mo  Mo28  1  0.169451  0.665407  0.375981  1
  Mo  Mo29  1  0.668915  0.834425  0.124267  1
  Mo  Mo30  1  0.830296  0.338448  0.624346  1
  Mo  Mo31  1  0.329974  0.166255  0.875440  1
  Mo  Mo32  1  0.831103  0.335256  0.875600  1
  Mo  Mo33  1  0.168631  0.664070  0.124167  1
  W  W34  1  0.166847  0.505860  0.748605  1
  W  W35  1  0.834273  0.495042  0.250498  1
