# generated using pymatgen
data_Dy5Si10P2Ir16Rh3
_symmetry_space_group_name_H-M   'P 1'
_cell_length_a   12.83623811
_cell_length_b   12.82342743
_cell_length_c   3.96713900
_cell_angle_alpha   90.00000000
_cell_angle_beta   90.00000000
_cell_angle_gamma   119.96698857
_symmetry_Int_Tables_number   1
_chemical_formula_structural   Dy5Si10P2Ir16Rh3
_chemical_formula_sum   'Dy5 Si10 P2 Ir16 Rh3'
_cell_volume   565.71058109
_cell_formula_units_Z   1
loop_
 _symmetry_equiv_pos_site_id
 _symmetry_equiv_pos_as_xyz
  1  'x, y, z'
loop_
 _atom_site_type_symbol
 _atom_site_label
 _atom_site_symmetry_multiplicity
 _atom_site_fract_x
 _atom_site_fract_y
 _atom_site_fract_z
 _atom_site_occupancy
  Dy  Dy0  1  0.333099  0.666464  0.500000  1
  Dy  Dy1  1  0.666901  0.333363  0.500000  1
  Dy  Dy2  1  0.000000  0.813005  0.000000  1
  Dy  Dy3  1  0.185192  0.186519  0.000000  1
  Dy  Dy4  1  0.814808  0.001326  0.000000  1
  Si  Si5  1  0.000000  0.631478  0.500000  1
  Si  Si6  1  0.368331  0.368621  0.500000  1
  Si  Si7  1  0.631669  0.000290  0.500000  1
  Si  Si8  1  0.519012  0.686780  0.000000  1
  Si  Si9  1  0.313433  0.832094  0.000000  1
  Si  Si10  1  0.168195  0.480760  0.000000  1
  Si  Si11  1  0.480988  0.167769  0.000000  1
  Si  Si12  1  0.686567  0.518660  0.000000  1
  Si  Si13  1  0.831805  0.312564  0.000000  1
  Si  Si14  1  0.000000  0.179517  0.500000  1
  P  P15  1  0.819071  0.819239  0.500000  1
  P  P16  1  0.180929  0.000167  0.500000  1
  Ir  Ir17  1  0.513261  0.872841  0.000000  1
  Ir  Ir18  1  0.127021  0.640470  0.000000  1
  Ir  Ir19  1  0.360954  0.487191  0.000000  1
  Ir  Ir20  1  0.486739  0.359579  0.000000  1
  Ir  Ir21  1  0.872979  0.513448  0.000000  1
  Ir  Ir22  1  0.639046  0.126236  0.000000  1
  Ir  Ir23  1  0.000000  0.281291  0.000000  1
  Ir  Ir24  1  0.721613  0.721667  0.000000  1
  Ir  Ir25  1  0.278387  0.000054  0.000000  1
  Ir  Ir26  1  0.627131  0.807234  0.500000  1
  Ir  Ir27  1  0.192909  0.820023  0.500000  1
  Ir  Ir28  1  0.182099  0.375498  0.500000  1
  Ir  Ir29  1  0.372869  0.180104  0.500000  1
  Ir  Ir30  1  0.807091  0.627115  0.500000  1
  Ir  Ir31  1  0.817901  0.193399  0.500000  1
  Ir  Ir32  1  0.000000  0.995791  0.500000  1
  Rh  Rh33  1  0.000000  0.447770  0.500000  1
  Rh  Rh34  1  0.553759  0.552716  0.500000  1
  Rh  Rh35  1  0.446241  0.998958  0.500000  1
