# generated using pymatgen
data_Mg(TaPd4)3
_symmetry_space_group_name_H-M   'P 1'
_cell_length_a   5.60148500
_cell_length_b   5.60148535
_cell_length_c   9.19308100
_cell_angle_alpha   90.00000000
_cell_angle_beta   90.00000000
_cell_angle_gamma   119.99999204
_symmetry_Int_Tables_number   1
_chemical_formula_structural   Mg(TaPd4)3
_chemical_formula_sum   'Mg1 Ta3 Pd12'
_cell_volume   249.80327909
_cell_formula_units_Z   1
loop_
 _symmetry_equiv_pos_site_id
 _symmetry_equiv_pos_as_xyz
  1  'x, y, z'
loop_
 _atom_site_type_symbol
 _atom_site_label
 _atom_site_symmetry_multiplicity
 _atom_site_fract_x
 _atom_site_fract_y
 _atom_site_fract_z
 _atom_site_occupancy
  Mg  Mg0  1  0.333333  0.666667  0.000000  1
  Ta  Ta1  1  0.666667  0.333333  0.500000  1
  Ta  Ta2  1  0.000000  0.000000  0.756393  1
  Ta  Ta3  1  0.000000  0.000000  0.243607  1
  Pd  Pd4  1  0.833047  0.166953  0.000000  1
  Pd  Pd5  1  0.833047  0.666094  0.000000  1
  Pd  Pd6  1  0.333906  0.166953  0.000000  1
  Pd  Pd7  1  0.996502  0.498252  0.746560  1
  Pd  Pd8  1  0.501748  0.498252  0.746560  1
  Pd  Pd9  1  0.501748  0.003498  0.746560  1
  Pd  Pd10  1  0.996502  0.498252  0.253440  1
  Pd  Pd11  1  0.501748  0.498252  0.253440  1
  Pd  Pd12  1  0.501748  0.003498  0.253440  1
  Pd  Pd13  1  0.165277  0.834723  0.500000  1
  Pd  Pd14  1  0.165277  0.330556  0.500000  1
  Pd  Pd15  1  0.669444  0.834723  0.500000  1
