# generated using pymatgen
data_Sr(AgO2)2
_symmetry_space_group_name_H-M   'P 1'
_cell_length_a   6.80583580
_cell_length_b   6.80583635
_cell_length_c   6.80583671
_cell_angle_alpha   125.38161627
_cell_angle_beta   125.38161863
_cell_angle_gamma   80.90689905
_symmetry_Int_Tables_number   1
_chemical_formula_structural   Sr(AgO2)2
_chemical_formula_sum   'Sr2 Ag4 O8'
_cell_volume   201.96818956
_cell_formula_units_Z   2
loop_
 _symmetry_equiv_pos_site_id
 _symmetry_equiv_pos_as_xyz
  1  'x, y, z'
loop_
 _atom_site_type_symbol
 _atom_site_label
 _atom_site_symmetry_multiplicity
 _atom_site_fract_x
 _atom_site_fract_y
 _atom_site_fract_z
 _atom_site_occupancy
  Sr  Sr0  1  0.000000  0.000000  0.000000  1
  Sr  Sr1  1  0.750000  0.250000  0.500000  1
  Ag  Ag2  1  0.875000  0.625000  0.250000  1
  Ag  Ag3  1  0.375000  0.125000  0.750000  1
  Ag  Ag4  1  0.375000  0.625000  0.250000  1
  Ag  Ag5  1  0.375000  0.625000  0.750000  1
  O  O6  1  0.344669  0.982477  0.928154  1
  O  O7  1  0.695677  0.833485  0.428154  1
  O  O8  1  0.732477  0.304323  0.137808  1
  O  O9  1  0.583485  0.655331  0.637808  1
  O  O10  1  0.166515  0.594669  0.862192  1
  O  O11  1  0.017523  0.945677  0.362192  1
  O  O12  1  0.054323  0.416515  0.071846  1
  O  O13  1  0.405331  0.267523  0.571846  1
