# generated using pymatgen
data_MnNiCl6
_symmetry_space_group_name_H-M   'P 1'
_cell_length_a   6.03097083
_cell_length_b   6.03129272
_cell_length_c   7.05686141
_cell_angle_alpha   64.61329304
_cell_angle_beta   89.66946277
_cell_angle_gamma   59.96809471
_symmetry_Int_Tables_number   1
_chemical_formula_structural   MnNiCl6
_chemical_formula_sum   'Mn1 Ni1 Cl6'
_cell_volume   193.48282046
_cell_formula_units_Z   1
loop_
 _symmetry_equiv_pos_site_id
 _symmetry_equiv_pos_as_xyz
  1  'x, y, z'
loop_
 _atom_site_type_symbol
 _atom_site_label
 _atom_site_symmetry_multiplicity
 _atom_site_fract_x
 _atom_site_fract_y
 _atom_site_fract_z
 _atom_site_occupancy
  Mn  Mn0  1  0.333046  0.333219  0.999923  1
  Ni  Ni1  1  0.666959  0.666949  0.999793  1
  Cl  Cl2  1  0.424856  0.490337  0.213849  1
  Cl  Cl3  1  0.701977  0.870556  0.213753  1
  Cl  Cl4  1  0.081763  0.213338  0.213954  1
  Cl  Cl5  1  0.943299  0.774306  0.786345  1
  Cl  Cl6  1  0.285352  0.154497  0.786197  1
  Cl  Cl7  1  0.562748  0.496800  0.786187  1
