# generated using pymatgen
data_CsNb2Br11
_symmetry_space_group_name_H-M   'P 1'
_cell_length_a   7.74461972
_cell_length_b   7.81207967
_cell_length_c   19.25498197
_cell_angle_alpha   78.86151834
_cell_angle_beta   78.75614471
_cell_angle_gamma   88.47689408
_symmetry_Int_Tables_number   1
_chemical_formula_structural   CsNb2Br11
_chemical_formula_sum   'Cs2 Nb4 Br22'
_cell_volume   1120.99964927
_cell_formula_units_Z   2
loop_
 _symmetry_equiv_pos_site_id
 _symmetry_equiv_pos_as_xyz
  1  'x, y, z'
loop_
 _atom_site_type_symbol
 _atom_site_label
 _atom_site_symmetry_multiplicity
 _atom_site_fract_x
 _atom_site_fract_y
 _atom_site_fract_z
 _atom_site_occupancy
  Cs  Cs0  1  0.747259  0.747730  0.503422  1
  Cs  Cs1  1  0.252741  0.252270  0.496578  1
  Nb  Nb2  1  0.325450  0.822196  0.337739  1
  Nb  Nb3  1  0.674550  0.177804  0.662261  1
  Nb  Nb4  1  0.831211  0.330489  0.086862  1
  Nb  Nb5  1  0.168789  0.669511  0.913138  1
  Br  Br6  1  0.254522  0.767426  0.483907  1
  Br  Br7  1  0.745478  0.232574  0.516093  1
  Br  Br8  1  0.568966  0.028347  0.343567  1
  Br  Br9  1  0.431034  0.971653  0.656433  1
  Br  Br10  1  0.539177  0.568800  0.350285  1
  Br  Br11  1  0.460823  0.431200  0.649715  1
  Br  Br12  1  0.386710  0.863932  0.205461  1
  Br  Br13  1  0.613290  0.136068  0.794539  1
  Br  Br14  1  0.073375  0.606219  0.351534  1
  Br  Br15  1  0.926625  0.393781  0.648466  1
  Br  Br16  1  0.108516  0.070904  0.340317  1
  Br  Br17  1  0.891484  0.929096  0.659683  1
  Br  Br18  1  0.900332  0.037813  0.146125  1
  Br  Br19  1  0.099668  0.962187  0.853875  1
  Br  Br20  1  0.533042  0.380819  0.149031  1
  Br  Br21  1  0.466958  0.619181  0.850969  1
  Br  Br22  1  0.724872  0.221504  0.988509  1
  Br  Br23  1  0.275128  0.778496  0.011491  1
  Br  Br24  1  0.971502  0.476869  0.166879  1
  Br  Br25  1  0.028498  0.523131  0.833121  1
  Br  Br26  1  0.162513  0.345006  0.999710  1
  Br  Br27  1  0.837487  0.654994  0.000290  1
