# generated using pymatgen
data_Pr20Ir5Ru4Pt3
_symmetry_space_group_name_H-M   'P 1'
_cell_length_a   11.33178741
_cell_length_b   11.33178741
_cell_length_c   6.69292542
_cell_angle_alpha   90.02872223
_cell_angle_beta   90.02872223
_cell_angle_gamma   89.98916602
_symmetry_Int_Tables_number   1
_chemical_formula_structural   Pr20Ir5Ru4Pt3
_chemical_formula_sum   'Pr20 Ir5 Ru4 Pt3'
_cell_volume   859.43434518
_cell_formula_units_Z   1
loop_
 _symmetry_equiv_pos_site_id
 _symmetry_equiv_pos_as_xyz
  1  'x, y, z'
loop_
 _atom_site_type_symbol
 _atom_site_label
 _atom_site_symmetry_multiplicity
 _atom_site_fract_x
 _atom_site_fract_y
 _atom_site_fract_z
 _atom_site_occupancy
  Pr  Pr0  1  0.295694  0.087340  0.375381  1
  Pr  Pr1  1  0.294495  0.909018  0.881480  1
  Pr  Pr2  1  0.703866  0.089701  0.877455  1
  Pr  Pr3  1  0.702879  0.909608  0.376410  1
  Pr  Pr4  1  0.585674  0.792800  0.882384  1
  Pr  Pr5  1  0.585415  0.207640  0.382921  1
  Pr  Pr6  1  0.410967  0.792670  0.382821  1
  Pr  Pr7  1  0.413813  0.207250  0.882342  1
  Pr  Pr8  1  0.207200  0.414326  0.617616  1
  Pr  Pr9  1  0.207330  0.589033  0.117179  1
  Pr  Pr10  1  0.792360  0.414585  0.117079  1
  Pr  Pr11  1  0.792750  0.586187  0.617658  1
  Pr  Pr12  1  0.912660  0.704306  0.124619  1
  Pr  Pr13  1  0.910299  0.296134  0.622545  1
  Pr  Pr14  1  0.090982  0.705505  0.618520  1
  Pr  Pr15  1  0.090392  0.297121  0.123590  1
  Pr  Pr16  1  0.001670  0.998125  0.498705  1
  Pr  Pr17  1  0.001875  0.998330  0.001295  1
  Pr  Pr18  1  0.499689  0.500074  0.999913  1
  Pr  Pr19  1  0.499926  0.500311  0.500087  1
  Ir  Ir20  1  0.151367  0.848633  0.250000  1
  Ir  Ir21  1  0.653570  0.346430  0.750000  1
  Ir  Ir22  1  0.653600  0.653781  0.250184  1
  Ir  Ir23  1  0.346219  0.346400  0.249816  1
  Ir  Ir24  1  0.347117  0.652883  0.750000  1
  Ru  Ru25  1  0.500844  0.000277  0.116099  1
  Ru  Ru26  1  0.500753  0.000424  0.616828  1
  Ru  Ru27  1  0.999576  0.499247  0.883172  1
  Ru  Ru28  1  0.999723  0.499156  0.383901  1
  Pt  Pt29  1  0.847273  0.152727  0.250000  1
  Pt  Pt30  1  0.846346  0.846323  0.750019  1
  Pt  Pt31  1  0.153677  0.153654  0.749981  1
