# generated using pymatgen
data_Lu7Zr(Si4Ru3)4
_symmetry_space_group_name_H-M   'P 1'
_cell_length_a   10.11580355
_cell_length_b   10.11023886
_cell_length_c   13.59625386
_cell_angle_alpha   53.39148839
_cell_angle_beta   53.34516565
_cell_angle_gamma   30.87747959
_symmetry_Int_Tables_number   1
_chemical_formula_structural   Lu7Zr(Si4Ru3)4
_chemical_formula_sum   'Lu7 Zr1 Si16 Ru12'
_cell_volume   560.47248129
_cell_formula_units_Z   1
loop_
 _symmetry_equiv_pos_site_id
 _symmetry_equiv_pos_as_xyz
  1  'x, y, z'
loop_
 _atom_site_type_symbol
 _atom_site_label
 _atom_site_symmetry_multiplicity
 _atom_site_fract_x
 _atom_site_fract_y
 _atom_site_fract_z
 _atom_site_occupancy
  Lu  Lu0  1  0.039915  0.288631  0.639377  1
  Lu  Lu1  1  0.710785  0.960908  0.860340  1
  Lu  Lu2  1  0.959566  0.711064  0.360078  1
  Lu  Lu3  1  0.289727  0.039027  0.140418  1
  Lu  Lu4  1  0.298673  0.558489  0.643747  1
  Lu  Lu5  1  0.441065  0.701645  0.856689  1
  Lu  Lu6  1  0.702854  0.440821  0.355248  1
  Zr  Zr7  1  0.558420  0.292565  0.147074  1
  Si  Si8  1  0.975293  0.252504  0.895505  1
  Si  Si9  1  0.750497  0.021865  0.605084  1
  Si  Si10  1  0.024582  0.748402  0.106343  1
  Si  Si11  1  0.250490  0.977579  0.393127  1
  Si  Si12  1  0.140760  0.383272  0.899312  1
  Si  Si13  1  0.615810  0.860349  0.600212  1
  Si  Si14  1  0.858685  0.616229  0.102659  1
  Si  Si15  1  0.381114  0.146246  0.395707  1
  Si  Si16  1  0.081939  0.574517  0.567607  1
  Si  Si17  1  0.425517  0.918991  0.931781  1
  Si  Si18  1  0.917782  0.425225  0.432914  1
  Si  Si19  1  0.574830  0.082590  0.067592  1
  Si  Si20  1  0.621291  0.379348  0.749723  1
  Si  Si21  1  0.383551  0.615801  0.248953  1
  Si  Si22  1  0.128393  0.871839  0.750269  1
  Si  Si23  1  0.867773  0.131301  0.249200  1
  Ru  Ru24  1  0.898633  0.137902  0.587166  1
  Ru  Ru25  1  0.857597  0.105185  0.915466  1
  Ru  Ru26  1  0.102228  0.859985  0.411460  1
  Ru  Ru27  1  0.140169  0.896043  0.087362  1
  Ru  Ru28  1  0.833408  0.644085  0.782569  1
  Ru  Ru29  1  0.356311  0.167147  0.716876  1
  Ru  Ru30  1  0.168880  0.357514  0.217056  1
  Ru  Ru31  1  0.644049  0.833455  0.282521  1
  Ru  Ru32  1  0.249370  0.506172  0.931500  1
  Ru  Ru33  1  0.494652  0.750265  0.569617  1
  Ru  Ru34  1  0.750191  0.493111  0.067552  1
  Ru  Ru35  1  0.505200  0.249925  0.431897  1
