# generated using pymatgen
data_TbCe7(In3Ru2)4
_symmetry_space_group_name_H-M   'P 1'
_cell_length_a   4.68959200
_cell_length_b   7.51926047
_cell_length_c   17.80169662
_cell_angle_alpha   90.33648519
_cell_angle_beta   90.00000000
_cell_angle_gamma   90.00000000
_symmetry_Int_Tables_number   1
_chemical_formula_structural   TbCe7(In3Ru2)4
_chemical_formula_sum   'Tb1 Ce7 In12 Ru8'
_cell_volume   627.71729639
_cell_formula_units_Z   1
loop_
 _symmetry_equiv_pos_site_id
 _symmetry_equiv_pos_as_xyz
  1  'x, y, z'
loop_
 _atom_site_type_symbol
 _atom_site_label
 _atom_site_symmetry_multiplicity
 _atom_site_fract_x
 _atom_site_fract_y
 _atom_site_fract_z
 _atom_site_occupancy
  Tb  Tb0  1  0.750000  0.063083  0.143388  1
  Ce  Ce1  1  0.250000  0.564448  0.349848  1
  Ce  Ce2  1  0.250000  0.448122  0.927244  1
  Ce  Ce3  1  0.750000  0.945589  0.576998  1
  Ce  Ce4  1  0.250000  0.937783  0.857251  1
  Ce  Ce5  1  0.750000  0.436132  0.650261  1
  Ce  Ce6  1  0.250000  0.053664  0.421864  1
  Ce  Ce7  1  0.750000  0.552176  0.073133  1
  In  In8  1  0.250000  0.771999  0.190270  1
  In  In9  1  0.750000  0.124409  0.970797  1
  In  In10  1  0.250000  0.626565  0.530549  1
  In  In11  1  0.250000  0.355682  0.181783  1
  In  In12  1  0.750000  0.272465  0.300687  1
  In  In13  1  0.250000  0.140247  0.689044  1
  In  In14  1  0.750000  0.374916  0.464684  1
  In  In15  1  0.750000  0.642315  0.819172  1
  In  In16  1  0.750000  0.229651  0.811287  1
  In  In17  1  0.750000  0.856329  0.309948  1
  In  In18  1  0.250000  0.876282  0.033079  1
  In  In19  1  0.250000  0.730637  0.698158  1
  Ru  Ru20  1  0.250000  0.235077  0.528728  1
  Ru  Ru21  1  0.250000  0.433891  0.794300  1
  Ru  Ru22  1  0.250000  0.256475  0.031598  1
  Ru  Ru23  1  0.250000  0.065217  0.287238  1
  Ru  Ru24  1  0.750000  0.742808  0.970987  1
  Ru  Ru25  1  0.750000  0.934994  0.713025  1
  Ru  Ru26  1  0.750000  0.565032  0.207309  1
  Ru  Ru27  1  0.750000  0.764011  0.467370  1
