# generated using pymatgen
data_Dy2GaNiRu
_symmetry_space_group_name_H-M   'P 1'
_cell_length_a   4.14528590
_cell_length_b   5.59968696
_cell_length_c   5.44390297
_cell_angle_alpha   120.95122548
_cell_angle_beta   112.37876029
_cell_angle_gamma   89.99998930
_symmetry_Int_Tables_number   1
_chemical_formula_structural   Dy2GaNiRu
_chemical_formula_sum   'Dy2 Ga1 Ni1 Ru1'
_cell_volume   97.10708789
_cell_formula_units_Z   1
loop_
 _symmetry_equiv_pos_site_id
 _symmetry_equiv_pos_as_xyz
  1  'x, y, z'
loop_
 _atom_site_type_symbol
 _atom_site_label
 _atom_site_symmetry_multiplicity
 _atom_site_fract_x
 _atom_site_fract_y
 _atom_site_fract_z
 _atom_site_occupancy
  Dy  Dy0  1  0.796703  0.289429  0.593406  1
  Dy  Dy1  1  0.203297  0.696023  0.406594  1
  Ga  Ga2  1  0.000000  0.995666  0.000000  1
  Ni  Ni3  1  0.500000  0.739195  0.000000  1
  Ru  Ru4  1  0.500000  0.279687  0.000000  1
