# generated using pymatgen
data_SmThTcC2
_symmetry_space_group_name_H-M   'P 1'
_cell_length_a   5.33040100
_cell_length_b   6.65581600
_cell_length_c   9.99316000
_cell_angle_alpha   90.00000000
_cell_angle_beta   90.00000000
_cell_angle_gamma   90.00000000
_symmetry_Int_Tables_number   1
_chemical_formula_structural   SmThTcC2
_chemical_formula_sum   'Sm4 Th4 Tc4 C8'
_cell_volume   354.53901195
_cell_formula_units_Z   4
loop_
 _symmetry_equiv_pos_site_id
 _symmetry_equiv_pos_as_xyz
  1  'x, y, z'
loop_
 _atom_site_type_symbol
 _atom_site_label
 _atom_site_symmetry_multiplicity
 _atom_site_fract_x
 _atom_site_fract_y
 _atom_site_fract_z
 _atom_site_occupancy
  Sm  Sm0  1  0.750000  0.817970  0.049532  1
  Sm  Sm1  1  0.250000  0.182030  0.950468  1
  Sm  Sm2  1  0.750000  0.317970  0.450468  1
  Sm  Sm3  1  0.250000  0.682030  0.549532  1
  Th  Th4  1  0.750000  0.474656  0.783196  1
  Th  Th5  1  0.250000  0.025344  0.283196  1
  Th  Th6  1  0.750000  0.974656  0.716804  1
  Th  Th7  1  0.250000  0.525344  0.216804  1
  Tc  Tc8  1  0.750000  0.773563  0.362633  1
  Tc  Tc9  1  0.250000  0.726437  0.862633  1
  Tc  Tc10  1  0.250000  0.226437  0.637367  1
  Tc  Tc11  1  0.750000  0.273563  0.137367  1
  C  C12  1  0.250000  0.960504  0.741256  1
  C  C13  1  0.750000  0.539496  0.241256  1
  C  C14  1  0.250000  0.460504  0.758744  1
  C  C15  1  0.750000  0.039496  0.258744  1
  C  C16  1  0.250000  0.320005  0.449065  1
  C  C17  1  0.750000  0.179995  0.949065  1
  C  C18  1  0.250000  0.820005  0.050935  1
  C  C19  1  0.750000  0.679995  0.550935  1
