# generated using pymatgen
data_Ba2Ti2FeO7
_symmetry_space_group_name_H-M   'P 1'
_cell_length_a   8.74999400
_cell_length_b   8.74999400
_cell_length_c   5.62027500
_cell_angle_alpha   90.00000000
_cell_angle_beta   90.00000000
_cell_angle_gamma   90.00000000
_symmetry_Int_Tables_number   1
_chemical_formula_structural   Ba2Ti2FeO7
_chemical_formula_sum   'Ba4 Ti4 Fe2 O14'
_cell_volume   430.30171456
_cell_formula_units_Z   2
loop_
 _symmetry_equiv_pos_site_id
 _symmetry_equiv_pos_as_xyz
  1  'x, y, z'
loop_
 _atom_site_type_symbol
 _atom_site_label
 _atom_site_symmetry_multiplicity
 _atom_site_fract_x
 _atom_site_fract_y
 _atom_site_fract_z
 _atom_site_occupancy
  Ba  Ba0  1  0.335239  0.164762  0.991078  1
  Ba  Ba1  1  0.664763  0.835238  0.991078  1
  Ba  Ba2  1  0.835238  0.335239  0.008921  1
  Ba  Ba3  1  0.164762  0.664763  0.008921  1
  Ti  Ti4  1  0.140826  0.359175  0.541936  1
  Ti  Ti5  1  0.859175  0.640825  0.541936  1
  Ti  Ti6  1  0.640825  0.140826  0.458065  1
  Ti  Ti7  1  0.359175  0.859175  0.458065  1
  Fe  Fe8  1  0.000000  0.000000  0.499999  1
  Fe  Fe9  1  0.500000  0.500000  0.499999  1
  O  O10  1  0.088831  0.178828  0.681589  1
  O  O11  1  0.911168  0.821172  0.681589  1
  O  O12  1  0.588831  0.321171  0.318409  1
  O  O13  1  0.411169  0.678829  0.318409  1
  O  O14  1  0.678829  0.588831  0.681589  1
  O  O15  1  0.321171  0.411169  0.681589  1
  O  O16  1  0.821172  0.088831  0.318409  1
  O  O17  1  0.178828  0.911168  0.318409  1
  O  O18  1  0.139487  0.360512  0.221288  1
  O  O19  1  0.860513  0.639487  0.221288  1
  O  O20  1  0.639487  0.139487  0.778713  1
  O  O21  1  0.360512  0.860513  0.778713  1
  O  O22  1  0.000000  0.500000  0.670025  1
  O  O23  1  0.500000  0.000000  0.329975  1
