# generated using pymatgen
data_TbTh2Fe2Co9B4
_symmetry_space_group_name_H-M   'P 1'
_cell_length_a   5.09715300
_cell_length_b   5.09477794
_cell_length_c   9.80513300
_cell_angle_alpha   90.00001819
_cell_angle_beta   89.99999737
_cell_angle_gamma   120.01542865
_symmetry_Int_Tables_number   1
_chemical_formula_structural   TbTh2Fe2Co9B4
_chemical_formula_sum   'Tb1 Th2 Fe2 Co9 B4'
_cell_volume   220.48015715
_cell_formula_units_Z   1
loop_
 _symmetry_equiv_pos_site_id
 _symmetry_equiv_pos_as_xyz
  1  'x, y, z'
loop_
 _atom_site_type_symbol
 _atom_site_label
 _atom_site_symmetry_multiplicity
 _atom_site_fract_x
 _atom_site_fract_y
 _atom_site_fract_z
 _atom_site_occupancy
  Tb  Tb0  1  0.999997  0.000000  0.659228  1
  Th  Th1  1  0.999993  0.000000  0.997250  1
  Th  Th2  1  0.999991  0.000000  0.339937  1
  Fe  Fe3  1  0.333324  0.666660  0.998022  1
  Fe  Fe4  1  0.666664  0.333340  0.998022  1
  Co  Co5  1  0.499996  0.000000  0.501968  1
  Co  Co6  1  0.499995  0.500000  0.501955  1
  Co  Co7  1  0.999995  0.500000  0.501955  1
  Co  Co8  1  0.499992  0.000000  0.204309  1
  Co  Co9  1  0.499993  0.500000  0.204311  1
  Co  Co10  1  0.999994  0.500000  0.204311  1
  Co  Co11  1  0.499996  0.000000  0.795002  1
  Co  Co12  1  0.499996  0.500001  0.795064  1
  Co  Co13  1  0.999996  0.499999  0.795064  1
  B  B14  1  0.333331  0.666675  0.350527  1
  B  B15  1  0.666656  0.333325  0.350527  1
  B  B16  1  0.666594  0.333196  0.651276  1
  B  B17  1  0.333397  0.666804  0.651276  1
