# generated using pymatgen
data_Tb2Dy3Er5Pb6
_symmetry_space_group_name_H-M   'P 1'
_cell_length_a   9.02204538
_cell_length_b   9.03110415
_cell_length_c   6.61423900
_cell_angle_alpha   90.00000000
_cell_angle_beta   90.00000000
_cell_angle_gamma   120.04612775
_symmetry_Int_Tables_number   1
_chemical_formula_structural   Tb2Dy3Er5Pb6
_chemical_formula_sum   'Tb2 Dy3 Er5 Pb6'
_cell_volume   466.50287015
_cell_formula_units_Z   1
loop_
 _symmetry_equiv_pos_site_id
 _symmetry_equiv_pos_as_xyz
  1  'x, y, z'
loop_
 _atom_site_type_symbol
 _atom_site_label
 _atom_site_symmetry_multiplicity
 _atom_site_fract_x
 _atom_site_fract_y
 _atom_site_fract_z
 _atom_site_occupancy
  Tb  Tb0  1  0.237998  0.238030  0.750000  1
  Tb  Tb1  1  0.237961  0.999811  0.250000  1
  Dy  Dy2  1  0.762014  0.761949  0.250000  1
  Dy  Dy3  1  0.999948  0.238204  0.250000  1
  Dy  Dy4  1  0.761977  0.999881  0.750000  1
  Er  Er5  1  0.333372  0.666736  0.999968  1
  Er  Er6  1  0.666748  0.333431  0.999994  1
  Er  Er7  1  0.999877  0.761875  0.750000  1
  Er  Er8  1  0.333372  0.666736  0.500032  1
  Er  Er9  1  0.666748  0.333431  0.500006  1
  Pb  Pb10  1  0.999734  0.395687  0.750000  1
  Pb  Pb11  1  0.395310  0.395616  0.250000  1
  Pb  Pb12  1  0.605036  0.999932  0.250000  1
  Pb  Pb13  1  0.605808  0.605270  0.750000  1
  Pb  Pb14  1  0.394507  0.999209  0.750000  1
  Pb  Pb15  1  0.999588  0.604204  0.250000  1
