# generated using pymatgen
data_Lu12InFe2CuRe
_symmetry_space_group_name_H-M   'P 1'
_cell_length_a   8.10737258
_cell_length_b   8.10739690
_cell_length_c   8.10737177
_cell_angle_alpha   111.26490762
_cell_angle_beta   106.92820471
_cell_angle_gamma   110.25164958
_symmetry_Int_Tables_number   1
_chemical_formula_structural   Lu12InFe2CuRe
_chemical_formula_sum   'Lu12 In1 Fe2 Cu1 Re1'
_cell_volume   409.58718322
_cell_formula_units_Z   1
loop_
 _symmetry_equiv_pos_site_id
 _symmetry_equiv_pos_as_xyz
  1  'x, y, z'
loop_
 _atom_site_type_symbol
 _atom_site_label
 _atom_site_symmetry_multiplicity
 _atom_site_fract_x
 _atom_site_fract_y
 _atom_site_fract_z
 _atom_site_occupancy
  Lu  Lu0  1  0.309298  0.307958  0.617255  1
  Lu  Lu1  1  0.690702  0.692042  0.382745  1
  Lu  Lu2  1  0.690703  0.307958  0.998661  1
  Lu  Lu3  1  0.309297  0.692042  0.001339  1
  Lu  Lu4  1  0.192724  0.450485  0.257761  1
  Lu  Lu5  1  0.807276  0.549515  0.742239  1
  Lu  Lu6  1  0.192724  0.934966  0.742242  1
  Lu  Lu7  1  0.963099  0.192337  0.770762  1
  Lu  Lu8  1  0.807276  0.065034  0.257758  1
  Lu  Lu9  1  0.036901  0.807663  0.229238  1
  Lu  Lu10  1  0.421575  0.192337  0.229238  1
  Lu  Lu11  1  0.578425  0.807663  0.770762  1
  In  In12  1  0.500000  0.000000  0.500000  1
  Fe  Fe13  1  0.380585  0.380573  0.999988  1
  Fe  Fe14  1  0.619415  0.619427  0.000012  1
  Cu  Cu15  1  0.000000  0.500000  0.500000  1
  Re  Re16  1  0.000000  0.000000  0.000000  1
