# generated using pymatgen
data_Tb3DyGa20Ni11
_symmetry_space_group_name_H-M   'P 1'
_cell_length_a   4.08412421
_cell_length_b   10.59011422
_cell_length_c   12.98138801
_cell_angle_alpha   80.50071665
_cell_angle_beta   80.82237839
_cell_angle_gamma   78.69623882
_symmetry_Int_Tables_number   1
_chemical_formula_structural   Tb3DyGa20Ni11
_chemical_formula_sum   'Tb3 Dy1 Ga20 Ni11'
_cell_volume   538.30849578
_cell_formula_units_Z   1
loop_
 _symmetry_equiv_pos_site_id
 _symmetry_equiv_pos_as_xyz
  1  'x, y, z'
loop_
 _atom_site_type_symbol
 _atom_site_label
 _atom_site_symmetry_multiplicity
 _atom_site_fract_x
 _atom_site_fract_y
 _atom_site_fract_z
 _atom_site_occupancy
  Tb  Tb0  1  0.230387  0.366392  0.177974  1
  Tb  Tb1  1  0.774497  0.633648  0.821232  1
  Tb  Tb2  1  0.883979  0.904114  0.334026  1
  Dy  Dy3  1  0.121218  0.095587  0.665571  1
  Ga  Ga4  1  0.068720  0.666373  0.202753  1
  Ga  Ga5  1  0.299623  0.902382  0.502495  1
  Ga  Ga6  1  0.608187  0.793209  0.002883  1
  Ga  Ga7  1  0.250924  0.796687  0.703822  1
  Ga  Ga8  1  0.890876  0.670544  0.548371  1
  Ga  Ga9  1  0.753599  0.203336  0.295617  1
  Ga  Ga10  1  0.633276  0.940686  0.802280  1
  Ga  Ga11  1  0.704475  0.097604  0.497246  1
  Ga  Ga12  1  0.398441  0.207247  0.996369  1
  Ga  Ga13  1  0.936071  0.334017  0.796012  1
  Ga  Ga14  1  0.462663  0.703373  0.377354  1
  Ga  Ga15  1  0.996639  0.921569  0.090016  1
  Ga  Ga16  1  0.803213  0.398187  0.002867  1
  Ga  Ga17  1  0.542574  0.295941  0.621851  1
  Ga  Ga18  1  0.009083  0.079209  0.909043  1
  Ga  Ga19  1  0.201875  0.602104  0.996323  1
  Ga  Ga20  1  0.111190  0.329504  0.450577  1
  Ga  Ga21  1  0.372827  0.059716  0.197240  1
  Ga  Ga22  1  0.613600  0.471574  0.307278  1
  Ga  Ga23  1  0.391305  0.528431  0.691379  1
  Ni  Ni24  1  0.138660  0.840199  0.894777  1
  Ni  Ni25  1  0.503977  0.183189  0.811713  1
  Ni  Ni26  1  0.868243  0.160187  0.104523  1
  Ni  Ni27  1  0.976020  0.436938  0.612050  1
  Ni  Ni28  1  0.503195  0.499282  0.499246  1
  Ni  Ni29  1  0.655243  0.579940  0.113752  1
  Ni  Ni30  1  0.029401  0.563095  0.386746  1
  Ni  Ni31  1  0.349508  0.420441  0.885276  1
  Ni  Ni32  1  0.249625  0.119695  0.386574  1
  Ni  Ni33  1  0.501050  0.817178  0.187367  1
  Ni  Ni34  1  0.754643  0.880344  0.613039  1
