# generated using pymatgen
data_Mg11Al4InPd8
_symmetry_space_group_name_H-M   'P 1'
_cell_length_a   8.44480256
_cell_length_b   8.45045789
_cell_length_c   8.44480500
_cell_angle_alpha   59.97715163
_cell_angle_beta   59.90531813
_cell_angle_gamma   59.97720577
_symmetry_Int_Tables_number   1
_chemical_formula_structural   Mg11Al4InPd8
_chemical_formula_sum   'Mg11 Al4 In1 Pd8'
_cell_volume   425.67972364
_cell_formula_units_Z   1
loop_
 _symmetry_equiv_pos_site_id
 _symmetry_equiv_pos_as_xyz
  1  'x, y, z'
loop_
 _atom_site_type_symbol
 _atom_site_label
 _atom_site_symmetry_multiplicity
 _atom_site_fract_x
 _atom_site_fract_y
 _atom_site_fract_z
 _atom_site_occupancy
  Mg  Mg0  1  0.193981  0.196941  0.804841  1
  Mg  Mg1  1  0.193986  0.804234  0.804839  1
  Mg  Mg2  1  0.056672  0.443328  0.056672  1
  Mg  Mg3  1  0.804841  0.196941  0.193982  1
  Mg  Mg4  1  0.056476  0.443632  0.444550  1
  Mg  Mg5  1  0.444543  0.055458  0.444542  1
  Mg  Mg6  1  0.444550  0.443632  0.056476  1
  Mg  Mg7  1  0.804839  0.804234  0.193986  1
  Mg  Mg8  1  0.444555  0.055341  0.056473  1
  Mg  Mg9  1  0.804328  0.195674  0.804327  1
  Mg  Mg10  1  0.056474  0.055341  0.444555  1
  Al  Al11  1  0.623451  0.626785  0.623451  1
  Al  Al12  1  0.125625  0.623069  0.628235  1
  Al  Al13  1  0.628235  0.623069  0.125625  1
  Al  Al14  1  0.623451  0.126313  0.623451  1
  In  In15  1  0.190362  0.809638  0.190363  1
  Pd  Pd16  1  0.838381  0.482559  0.838381  1
  Pd  Pd17  1  0.838381  0.840680  0.838381  1
  Pd  Pd18  1  0.486133  0.839151  0.835565  1
  Pd  Pd19  1  0.412684  0.765426  0.412684  1
  Pd  Pd20  1  0.835564  0.839151  0.486134  1
  Pd  Pd21  1  0.768890  0.410097  0.410917  1
  Pd  Pd22  1  0.412683  0.409206  0.412683  1
  Pd  Pd23  1  0.410917  0.410096  0.768890  1
