# generated using pymatgen
data_Pr12B3SBr12
_symmetry_space_group_name_H-M   'P 1'
_cell_length_a   10.29311976
_cell_length_b   10.29312025
_cell_length_c   10.29312046
_cell_angle_alpha   109.91535494
_cell_angle_beta   109.91535433
_cell_angle_gamma   109.91535016
_symmetry_Int_Tables_number   1
_chemical_formula_structural   Pr12B3SBr12
_chemical_formula_sum   'Pr12 B3 S1 Br12'
_cell_volume   825.40441450
_cell_formula_units_Z   1
loop_
 _symmetry_equiv_pos_site_id
 _symmetry_equiv_pos_as_xyz
  1  'x, y, z'
loop_
 _atom_site_type_symbol
 _atom_site_label
 _atom_site_symmetry_multiplicity
 _atom_site_fract_x
 _atom_site_fract_y
 _atom_site_fract_z
 _atom_site_occupancy
  Pr  Pr0  1  0.470155  0.494686  0.226293  1
  Pr  Pr1  1  0.750000  0.230866  0.269134  1
  Pr  Pr2  1  0.750000  0.016772  0.483228  1
  Pr  Pr3  1  0.226293  0.470155  0.494686  1
  Pr  Pr4  1  0.269134  0.750000  0.230866  1
  Pr  Pr5  1  0.029845  0.273707  0.005314  1
  Pr  Pr6  1  0.005314  0.029845  0.273707  1
  Pr  Pr7  1  0.483228  0.750000  0.016772  1
  Pr  Pr8  1  0.494686  0.226293  0.470155  1
  Pr  Pr9  1  0.016772  0.483228  0.750000  1
  Pr  Pr10  1  0.273707  0.005314  0.029845  1
  Pr  Pr11  1  0.230866  0.269134  0.750000  1
  B  B12  1  0.497540  0.002460  0.250000  1
  B  B13  1  0.002460  0.250000  0.497540  1
  B  B14  1  0.250000  0.497540  0.002460  1
  S  S15  1  0.250000  0.250000  0.250000  1
  Br  Br16  1  0.250000  0.758545  0.741455  1
  Br  Br17  1  0.513483  0.506518  0.756541  1
  Br  Br18  1  0.986517  0.743459  0.993482  1
  Br  Br19  1  0.741455  0.250000  0.758545  1
  Br  Br20  1  0.993482  0.986517  0.743459  1
  Br  Br21  1  0.250000  0.993534  0.506466  1
  Br  Br22  1  0.756541  0.513483  0.506518  1
  Br  Br23  1  0.506466  0.250000  0.993534  1
  Br  Br24  1  0.758545  0.741455  0.250000  1
  Br  Br25  1  0.743459  0.993482  0.986517  1
  Br  Br26  1  0.993534  0.506466  0.250000  1
  Br  Br27  1  0.506518  0.756541  0.513483  1
