# generated using pymatgen
data_Pr16Dy4Sn11Bi5
_symmetry_space_group_name_H-M   'P 1'
_cell_length_a   8.38691852
_cell_length_b   8.44764603
_cell_length_c   16.20133500
_cell_angle_alpha   90.09341479
_cell_angle_beta   90.34212681
_cell_angle_gamma   89.91673161
_symmetry_Int_Tables_number   1
_chemical_formula_structural   Pr16Dy4Sn11Bi5
_chemical_formula_sum   'Pr16 Dy4 Sn11 Bi5'
_cell_volume   1147.83684580
_cell_formula_units_Z   1
loop_
 _symmetry_equiv_pos_site_id
 _symmetry_equiv_pos_as_xyz
  1  'x, y, z'
loop_
 _atom_site_type_symbol
 _atom_site_label
 _atom_site_symmetry_multiplicity
 _atom_site_fract_x
 _atom_site_fract_y
 _atom_site_fract_z
 _atom_site_occupancy
  Pr  Pr0  1  0.392206  0.838286  0.880293  1
  Pr  Pr1  1  0.891842  0.660842  0.619322  1
  Pr  Pr2  1  0.607871  0.159978  0.380254  1
  Pr  Pr3  1  0.104499  0.337434  0.119154  1
  Pr  Pr4  1  0.609719  0.164838  0.119830  1
  Pr  Pr5  1  0.113531  0.336433  0.382417  1
  Pr  Pr6  1  0.384839  0.838348  0.618414  1
  Pr  Pr7  1  0.888937  0.659205  0.881379  1
  Pr  Pr8  1  0.559222  0.332987  0.891168  1
  Pr  Pr9  1  0.056389  0.174216  0.606893  1
  Pr  Pr10  1  0.444281  0.674007  0.393530  1
  Pr  Pr11  1  0.943917  0.823726  0.109910  1
  Pr  Pr12  1  0.450584  0.667547  0.108873  1
  Pr  Pr13  1  0.958460  0.827225  0.394341  1
  Pr  Pr14  1  0.541309  0.328333  0.605138  1
  Pr  Pr15  1  0.051905  0.174579  0.891071  1
  Dy  Dy16  1  0.221569  0.499969  0.745776  1
  Dy  Dy17  1  0.721960  0.002494  0.748674  1
  Dy  Dy18  1  0.778512  0.499682  0.248183  1
  Dy  Dy19  1  0.278337  0.997919  0.253702  1
  Sn  Sn20  1  0.227212  0.524380  0.547289  1
  Sn  Sn21  1  0.272933  0.023071  0.452736  1
  Sn  Sn22  1  0.768614  0.480655  0.048452  1
  Sn  Sn23  1  0.587661  0.627236  0.748814  1
  Sn  Sn24  1  0.087084  0.874604  0.751275  1
  Sn  Sn25  1  0.410772  0.373290  0.250218  1
  Sn  Sn26  1  0.912264  0.124588  0.251100  1
  Sn  Sn27  1  0.356117  0.143796  0.750858  1
  Sn  Sn28  1  0.854507  0.357438  0.748238  1
  Sn  Sn29  1  0.645949  0.856409  0.251358  1
  Sn  Sn30  1  0.145847  0.640109  0.250291  1
  Bi  Bi31  1  0.266654  0.014510  0.049048  1
  Bi  Bi32  1  0.768932  0.480380  0.451872  1
  Bi  Bi33  1  0.730622  0.981003  0.547650  1
  Bi  Bi34  1  0.232568  0.517492  0.951195  1
  Bi  Bi35  1  0.732374  0.982993  0.951286  1
