# generated using pymatgen
data_DyNi3As3Ru2
_symmetry_space_group_name_H-M   'P 1'
_cell_length_a   3.86354200
_cell_length_b   10.93519400
_cell_length_c   12.33869000
_cell_angle_alpha   90.00000000
_cell_angle_beta   90.00000000
_cell_angle_gamma   90.00000000
_symmetry_Int_Tables_number   1
_chemical_formula_structural   DyNi3As3Ru2
_chemical_formula_sum   'Dy4 Ni12 As12 Ru8'
_cell_volume   521.29214757
_cell_formula_units_Z   4
loop_
 _symmetry_equiv_pos_site_id
 _symmetry_equiv_pos_as_xyz
  1  'x, y, z'
loop_
 _atom_site_type_symbol
 _atom_site_label
 _atom_site_symmetry_multiplicity
 _atom_site_fract_x
 _atom_site_fract_y
 _atom_site_fract_z
 _atom_site_occupancy
  Dy  Dy0  1  0.250000  0.587555  0.705190  1
  Dy  Dy1  1  0.250000  0.912445  0.205190  1
  Dy  Dy2  1  0.750000  0.412445  0.294810  1
  Dy  Dy3  1  0.750000  0.087555  0.794810  1
  Ni  Ni4  1  0.250000  0.218806  0.180924  1
  Ni  Ni5  1  0.250000  0.281194  0.680924  1
  Ni  Ni6  1  0.750000  0.781194  0.819076  1
  Ni  Ni7  1  0.750000  0.718806  0.319076  1
  Ni  Ni8  1  0.250000  0.886583  0.699190  1
  Ni  Ni9  1  0.250000  0.613417  0.199190  1
  Ni  Ni10  1  0.750000  0.113417  0.300810  1
  Ni  Ni11  1  0.750000  0.386583  0.800810  1
  Ni  Ni12  1  0.250000  0.468569  0.930825  1
  Ni  Ni13  1  0.250000  0.031431  0.430825  1
  Ni  Ni14  1  0.750000  0.531431  0.069175  1
  Ni  Ni15  1  0.750000  0.968569  0.569175  1
  As  As16  1  0.250000  0.415433  0.114024  1
  As  As17  1  0.250000  0.084567  0.614024  1
  As  As18  1  0.750000  0.584567  0.885976  1
  As  As19  1  0.750000  0.915433  0.385976  1
  As  As20  1  0.250000  0.272041  0.870948  1
  As  As21  1  0.250000  0.227959  0.370948  1
  As  As22  1  0.750000  0.727959  0.129052  1
  As  As23  1  0.750000  0.772041  0.629052  1
  As  As24  1  0.250000  0.598644  0.386717  1
  As  As25  1  0.250000  0.901356  0.886717  1
  As  As26  1  0.750000  0.401356  0.613283  1
  As  As27  1  0.750000  0.098644  0.113283  1
  Ru  Ru28  1  0.250000  0.707948  0.989108  1
  Ru  Ru29  1  0.250000  0.792052  0.489108  1
  Ru  Ru30  1  0.750000  0.292052  0.010892  1
  Ru  Ru31  1  0.750000  0.207948  0.510892  1
  Ru  Ru32  1  0.250000  0.405087  0.487116  1
  Ru  Ru33  1  0.250000  0.094913  0.987116  1
  Ru  Ru34  1  0.750000  0.594913  0.512884  1
  Ru  Ru35  1  0.750000  0.905087  0.012884  1
