# generated using pymatgen
data_Yb(IrCl4)3
_symmetry_space_group_name_H-M   'P 1'
_cell_length_a   12.15929111
_cell_length_b   11.60682688
_cell_length_c   6.22251537
_cell_angle_alpha   79.79582929
_cell_angle_beta   69.96204614
_cell_angle_gamma   32.10866228
_symmetry_Int_Tables_number   1
_chemical_formula_structural   Yb(IrCl4)3
_chemical_formula_sum   'Yb1 Ir3 Cl12'
_cell_volume   427.13318072
_cell_formula_units_Z   1
loop_
 _symmetry_equiv_pos_site_id
 _symmetry_equiv_pos_as_xyz
  1  'x, y, z'
loop_
 _atom_site_type_symbol
 _atom_site_label
 _atom_site_symmetry_multiplicity
 _atom_site_fract_x
 _atom_site_fract_y
 _atom_site_fract_z
 _atom_site_occupancy
  Yb  Yb0  1  0.416382  0.416382  0.583618  1
  Ir  Ir1  1  0.828780  0.828780  0.671220  1
  Ir  Ir2  1  0.667486  0.667486  0.832514  1
  Ir  Ir3  1  0.588136  0.588136  0.411864  1
  Cl  Cl4  1  0.733905  0.293003  0.256675  1
  Cl  Cl5  1  0.869199  0.457047  0.087142  1
  Cl  Cl6  1  0.386262  0.797210  0.156569  1
  Cl  Cl7  1  0.457047  0.869199  0.586612  1
  Cl  Cl8  1  0.119594  0.688650  0.363333  1
  Cl  Cl9  1  0.293003  0.733905  0.716417  1
  Cl  Cl10  1  0.542281  0.953672  0.967625  1
  Cl  Cl11  1  0.953672  0.542281  0.536423  1
  Cl  Cl12  1  0.049025  0.609369  0.901785  1
  Cl  Cl13  1  0.797210  0.386262  0.659960  1
  Cl  Cl14  1  0.688650  0.119594  0.828424  1
  Cl  Cl15  1  0.609369  0.049025  0.439820  1
