# generated using pymatgen
data_CaDy(BC)4
_symmetry_space_group_name_H-M   'P 1'
_cell_length_a   5.35368600
_cell_length_b   5.35368600
_cell_length_c   3.63309800
_cell_angle_alpha   90.00000000
_cell_angle_beta   90.00000000
_cell_angle_gamma   90.00000000
_symmetry_Int_Tables_number   1
_chemical_formula_structural   CaDy(BC)4
_chemical_formula_sum   'Ca1 Dy1 B4 C4'
_cell_volume   104.13168698
_cell_formula_units_Z   1
loop_
 _symmetry_equiv_pos_site_id
 _symmetry_equiv_pos_as_xyz
  1  'x, y, z'
loop_
 _atom_site_type_symbol
 _atom_site_label
 _atom_site_symmetry_multiplicity
 _atom_site_fract_x
 _atom_site_fract_y
 _atom_site_fract_z
 _atom_site_occupancy
  Ca  Ca0  1  0.500000  0.500000  0.000000  1
  Dy  Dy1  1  0.000000  0.000000  0.000000  1
  B  B2  1  0.137732  0.637938  0.500000  1
  B  B3  1  0.637938  0.862268  0.500000  1
  B  B4  1  0.862268  0.362062  0.500000  1
  B  B5  1  0.362062  0.137732  0.500000  1
  C  C6  1  0.840471  0.663038  0.500000  1
  C  C7  1  0.336962  0.840471  0.500000  1
  C  C8  1  0.663038  0.159529  0.500000  1
  C  C9  1  0.159529  0.336962  0.500000  1
