# generated using pymatgen
data_CeNd5Al23VOs8
_symmetry_space_group_name_H-M   'P 1'
_cell_length_a   8.91135500
_cell_length_b   8.92435395
_cell_length_c   9.64918498
_cell_angle_alpha   90.04464651
_cell_angle_beta   90.00000000
_cell_angle_gamma   119.95183242
_symmetry_Int_Tables_number   1
_chemical_formula_structural   CeNd5Al23VOs8
_chemical_formula_sum   'Ce1 Nd5 Al23 V1 Os8'
_cell_volume   664.89368483
_cell_formula_units_Z   1
loop_
 _symmetry_equiv_pos_site_id
 _symmetry_equiv_pos_as_xyz
  1  'x, y, z'
loop_
 _atom_site_type_symbol
 _atom_site_label
 _atom_site_symmetry_multiplicity
 _atom_site_fract_x
 _atom_site_fract_y
 _atom_site_fract_z
 _atom_site_occupancy
  Ce  Ce0  1  0.195688  0.391377  0.247974  1
  Nd  Nd1  1  0.808604  0.617207  0.750303  1
  Nd  Nd2  1  0.612266  0.804875  0.248148  1
  Nd  Nd3  1  0.383658  0.191224  0.750290  1
  Nd  Nd4  1  0.192608  0.804875  0.248148  1
  Nd  Nd5  1  0.807565  0.191224  0.750290  1
  Al  Al6  1  0.666914  0.333826  0.983830  1
  Al  Al7  1  0.666817  0.333632  0.515187  1
  Al  Al8  1  0.334226  0.668453  0.487254  1
  Al  Al9  1  0.162639  0.325278  0.572940  1
  Al  Al10  1  0.836989  0.673980  0.426866  1
  Al  Al11  1  0.674665  0.836925  0.574408  1
  Al  Al12  1  0.835800  0.671601  0.075290  1
  Al  Al13  1  0.325244  0.162795  0.425245  1
  Al  Al14  1  0.160495  0.320992  0.927151  1
  Al  Al15  1  0.162261  0.836925  0.574408  1
  Al  Al16  1  0.327448  0.163685  0.076896  1
  Al  Al17  1  0.837550  0.162795  0.425245  1
  Al  Al18  1  0.678444  0.839026  0.926478  1
  Al  Al19  1  0.836236  0.163685  0.076896  1
  Al  Al20  1  0.160580  0.839026  0.926478  1
  Al  Al21  1  0.562647  0.125295  0.252941  1
  Al  Al22  1  0.439901  0.879803  0.749499  1
  Al  Al23  1  0.872973  0.436213  0.252797  1
  Al  Al24  1  0.119829  0.559169  0.749373  1
  Al  Al25  1  0.563239  0.436213  0.252797  1
  Al  Al26  1  0.439340  0.559169  0.749373  1
  Al  Al27  1  0.001386  0.002772  0.251513  1
  Al  Al28  1  0.000105  0.000210  0.750351  1
  V  V29  1  0.333941  0.667884  0.976204  1
  Os  Os30  1  0.495110  0.990220  0.004757  1
  Os  Os31  1  0.012923  0.505260  0.007631  1
  Os  Os32  1  0.499789  0.999579  0.503065  1
  Os  Os33  1  0.492337  0.505260  0.007631  1
  Os  Os34  1  0.002707  0.500510  0.500141  1
  Os  Os35  1  0.497803  0.500510  0.500141  1
  Os  Os36  1  0.999698  0.999397  0.001935  1
  Os  Os37  1  0.999567  0.999133  0.500126  1
