# generated using pymatgen
data_Tm2Lu8Bi5Sb
_symmetry_space_group_name_H-M   'P 1'
_cell_length_a   8.09745008
_cell_length_b   9.35556400
_cell_length_c   11.78492557
_cell_angle_alpha   90.00000000
_cell_angle_beta   89.94083528
_cell_angle_gamma   90.00000000
_symmetry_Int_Tables_number   1
_chemical_formula_structural   Tm2Lu8Bi5Sb
_chemical_formula_sum   'Tm4 Lu16 Bi10 Sb2'
_cell_volume   892.78084930
_cell_formula_units_Z   2
loop_
 _symmetry_equiv_pos_site_id
 _symmetry_equiv_pos_as_xyz
  1  'x, y, z'
loop_
 _atom_site_type_symbol
 _atom_site_label
 _atom_site_symmetry_multiplicity
 _atom_site_fract_x
 _atom_site_fract_y
 _atom_site_fract_z
 _atom_site_occupancy
  Tm  Tm0  1  0.189214  0.250000  0.780644  1
  Tm  Tm1  1  0.810786  0.750000  0.219356  1
  Tm  Tm2  1  0.317207  0.750000  0.285259  1
  Tm  Tm3  1  0.682793  0.250000  0.714741  1
  Lu  Lu4  1  0.027077  0.250000  0.510836  1
  Lu  Lu5  1  0.972923  0.750000  0.489164  1
  Lu  Lu6  1  0.475303  0.750000  0.011265  1
  Lu  Lu7  1  0.524697  0.250000  0.988735  1
  Lu  Lu8  1  0.355371  0.250000  0.285200  1
  Lu  Lu9  1  0.644629  0.750000  0.714800  1
  Lu  Lu10  1  0.145377  0.750000  0.781383  1
  Lu  Lu11  1  0.854623  0.250000  0.218617  1
  Lu  Lu12  1  0.193567  0.067093  0.060578  1
  Lu  Lu13  1  0.806433  0.932907  0.939422  1
  Lu  Lu14  1  0.310491  0.934423  0.558646  1
  Lu  Lu15  1  0.806433  0.567093  0.939422  1
  Lu  Lu16  1  0.689509  0.065577  0.441354  1
  Lu  Lu17  1  0.193567  0.432907  0.060578  1
  Lu  Lu18  1  0.689509  0.434423  0.441354  1
  Lu  Lu19  1  0.310491  0.565577  0.558646  1
  Bi  Bi20  1  0.094768  0.750000  0.042549  1
  Bi  Bi21  1  0.905232  0.250000  0.957451  1
  Bi  Bi22  1  0.066805  0.003567  0.325817  1
  Bi  Bi23  1  0.933195  0.996433  0.674183  1
  Bi  Bi24  1  0.433201  0.995358  0.825575  1
  Bi  Bi25  1  0.933195  0.503567  0.674183  1
  Bi  Bi26  1  0.566799  0.004642  0.174425  1
  Bi  Bi27  1  0.066805  0.496433  0.325817  1
  Bi  Bi28  1  0.566799  0.495358  0.174425  1
  Bi  Bi29  1  0.433201  0.504642  0.825575  1
  Sb  Sb30  1  0.403667  0.250000  0.540869  1
  Sb  Sb31  1  0.596333  0.750000  0.459131  1
