# generated using pymatgen
data_TbDy3GaFe2Os5
_symmetry_space_group_name_H-M   'P 1'
_cell_length_a   5.28373413
_cell_length_b   5.29622572
_cell_length_c   9.24836221
_cell_angle_alpha   73.36144250
_cell_angle_beta   90.87977366
_cell_angle_gamma   120.07823888
_symmetry_Int_Tables_number   1
_chemical_formula_structural   TbDy3GaFe2Os5
_chemical_formula_sum   'Tb1 Dy3 Ga1 Fe2 Os5'
_cell_volume   211.99900261
_cell_formula_units_Z   1
loop_
 _symmetry_equiv_pos_site_id
 _symmetry_equiv_pos_as_xyz
  1  'x, y, z'
loop_
 _atom_site_type_symbol
 _atom_site_label
 _atom_site_symmetry_multiplicity
 _atom_site_fract_x
 _atom_site_fract_y
 _atom_site_fract_z
 _atom_site_occupancy
  Tb  Tb0  1  0.874305  0.749650  0.375005  1
  Dy  Dy1  1  0.381082  0.755463  0.870156  1
  Dy  Dy2  1  0.993936  0.994677  0.004583  1
  Dy  Dy3  1  0.500628  0.000196  0.500235  1
  Ga  Ga4  1  0.687509  0.375018  0.937474  1
  Fe  Fe5  1  0.941682  0.375583  0.190516  1
  Fe  Fe6  1  0.433367  0.374472  0.684423  1
  Os  Os7  1  0.436426  0.370984  0.186449  1
  Os  Os8  1  0.938530  0.379003  0.688536  1
  Os  Os9  1  0.436426  0.878993  0.186449  1
  Os  Os10  1  0.938530  0.870989  0.688536  1
  Os  Os11  1  0.187579  0.374971  0.437637  1
