# generated using pymatgen
data_Th2Np(SnRh)3
_symmetry_space_group_name_H-M   'P 1'
_cell_length_a   7.54446692
_cell_length_b   7.54446780
_cell_length_c   4.09395300
_cell_angle_alpha   90.00000000
_cell_angle_beta   90.00000000
_cell_angle_gamma   119.74334489
_symmetry_Int_Tables_number   1
_chemical_formula_structural   Th2Np(SnRh)3
_chemical_formula_sum   'Th2 Np1 Sn3 Rh3'
_cell_volume   202.32429538
_cell_formula_units_Z   1
loop_
 _symmetry_equiv_pos_site_id
 _symmetry_equiv_pos_as_xyz
  1  'x, y, z'
loop_
 _atom_site_type_symbol
 _atom_site_label
 _atom_site_symmetry_multiplicity
 _atom_site_fract_x
 _atom_site_fract_y
 _atom_site_fract_z
 _atom_site_occupancy
  Th  Th0  1  0.585642  0.998294  0.500000  1
  Th  Th1  1  0.998294  0.585642  0.500000  1
  Np  Np2  1  0.419717  0.419717  0.500000  1
  Sn  Sn3  1  0.744552  0.744552  0.000000  1
  Sn  Sn4  1  0.250933  0.005220  0.000000  1
  Sn  Sn5  1  0.005220  0.250933  0.000000  1
  Rh  Rh6  1  0.667871  0.333367  0.000000  1
  Rh  Rh7  1  0.333367  0.667871  0.000000  1
  Rh  Rh8  1  0.994404  0.994404  0.500000  1
