# generated using pymatgen
data_Sn2P2Ru3Rh
_symmetry_space_group_name_H-M   'P 1'
_cell_length_a   3.54066700
_cell_length_b   5.76520283
_cell_length_c   6.49717114
_cell_angle_alpha   89.77817030
_cell_angle_beta   90.00000000
_cell_angle_gamma   90.00000000
_symmetry_Int_Tables_number   1
_chemical_formula_structural   Sn2P2Ru3Rh
_chemical_formula_sum   'Sn2 P2 Ru3 Rh1'
_cell_volume   132.62357364
_cell_formula_units_Z   1
loop_
 _symmetry_equiv_pos_site_id
 _symmetry_equiv_pos_as_xyz
  1  'x, y, z'
loop_
 _atom_site_type_symbol
 _atom_site_label
 _atom_site_symmetry_multiplicity
 _atom_site_fract_x
 _atom_site_fract_y
 _atom_site_fract_z
 _atom_site_occupancy
  Sn  Sn0  1  0.000000  0.496097  0.436729  1
  Sn  Sn1  1  0.500000  0.003261  0.561713  1
  P  P2  1  0.000000  0.999447  0.099101  1
  P  P3  1  0.500000  0.497373  0.907943  1
  Ru  Ru4  1  0.500000  0.241507  0.184426  1
  Ru  Ru5  1  0.500000  0.754305  0.186853  1
  Ru  Ru6  1  0.000000  0.259075  0.814623  1
  Rh  Rh7  1  0.000000  0.748941  0.808614  1
