# generated using pymatgen
data_Dy4TmP12Ir11Ru8
_symmetry_space_group_name_H-M   'P 1'
_cell_length_a   12.62167407
_cell_length_b   12.59230909
_cell_length_c   3.97222000
_cell_angle_alpha   90.00000000
_cell_angle_beta   90.00000000
_cell_angle_gamma   120.05413818
_symmetry_Int_Tables_number   1
_chemical_formula_structural   Dy4TmP12Ir11Ru8
_chemical_formula_sum   'Dy4 Tm1 P12 Ir11 Ru8'
_cell_volume   546.44830302
_cell_formula_units_Z   1
loop_
 _symmetry_equiv_pos_site_id
 _symmetry_equiv_pos_as_xyz
  1  'x, y, z'
loop_
 _atom_site_type_symbol
 _atom_site_label
 _atom_site_symmetry_multiplicity
 _atom_site_fract_x
 _atom_site_fract_y
 _atom_site_fract_z
 _atom_site_occupancy
  Dy  Dy0  1  0.667010  0.331445  0.000000  1
  Dy  Dy1  1  0.334785  0.669038  0.000000  1
  Dy  Dy2  1  0.182774  0.184525  0.500000  1
  Dy  Dy3  1  0.999230  0.815283  0.500000  1
  Tm  Tm4  1  0.814326  0.001097  0.500000  1
  P  P5  1  0.634941  0.999090  0.000000  1
  P  P6  1  0.363120  0.363364  0.000000  1
  P  P7  1  0.000281  0.636219  0.000000  1
  P  P8  1  0.688740  0.517922  0.500000  1
  P  P9  1  0.829958  0.307534  0.500000  1
  P  P10  1  0.317638  0.834505  0.500000  1
  P  P11  1  0.519521  0.691152  0.500000  1
  P  P12  1  0.178623  0.000127  0.000000  1
  P  P13  1  0.818983  0.819470  0.000000  1
  P  P14  1  0.996132  0.180756  0.000000  1
  P  P15  1  0.480051  0.167101  0.500000  1
  P  P16  1  0.170176  0.482135  0.500000  1
  Ir  Ir17  1  0.625565  0.805091  0.000000  1
  Ir  Ir18  1  0.182833  0.376717  0.000000  1
  Ir  Ir19  1  0.374221  0.181275  0.000000  1
  Ir  Ir20  1  0.191854  0.818829  0.000000  1
  Ir  Ir21  1  0.805879  0.623199  0.000000  1
  Ir  Ir22  1  0.870175  0.507051  0.500000  1
  Ir  Ir23  1  0.492081  0.360117  0.500000  1
  Ir  Ir24  1  0.637323  0.129094  0.500000  1
  Ir  Ir25  1  0.132892  0.641135  0.500000  1
  Ir  Ir26  1  0.362422  0.492116  0.500000  1
  Ir  Ir27  1  0.998095  0.000443  0.000000  1
  Ru  Ru28  1  0.512142  0.871586  0.500000  1
  Ru  Ru29  1  0.712317  0.710963  0.500000  1
  Ru  Ru30  1  0.001964  0.288963  0.500000  1
  Ru  Ru31  1  0.450783  0.998674  0.000000  1
  Ru  Ru32  1  0.546533  0.544409  0.000000  1
  Ru  Ru33  1  0.002226  0.455116  0.000000  1
  Ru  Ru34  1  0.818141  0.194776  0.000000  1
  Ru  Ru35  1  0.286262  0.999680  0.500000  1
