# generated using pymatgen
data_K3Ga5Cl16
_symmetry_space_group_name_H-M   'P 1'
_cell_length_a   7.39468400
_cell_length_b   10.17587414
_cell_length_c   10.01233801
_cell_angle_alpha   90.66127557
_cell_angle_beta   90.00000000
_cell_angle_gamma   90.00000000
_symmetry_Int_Tables_number   1
_chemical_formula_structural   K3Ga5Cl16
_chemical_formula_sum   'K3 Ga5 Cl16'
_cell_volume   753.35196120
_cell_formula_units_Z   1
loop_
 _symmetry_equiv_pos_site_id
 _symmetry_equiv_pos_as_xyz
  1  'x, y, z'
loop_
 _atom_site_type_symbol
 _atom_site_label
 _atom_site_symmetry_multiplicity
 _atom_site_fract_x
 _atom_site_fract_y
 _atom_site_fract_z
 _atom_site_occupancy
  K  K0  1  0.818342  0.750000  0.250000  1
  K  K1  1  0.181915  0.250000  0.750000  1
  K  K2  1  0.681688  0.250000  0.250000  1
  Ga  Ga3  1  0.749659  0.997412  0.818060  1
  Ga  Ga4  1  0.250400  0.500323  0.320316  1
  Ga  Ga5  1  0.250400  0.999677  0.179684  1
  Ga  Ga6  1  0.749659  0.502588  0.681940  1
  Ga  Ga7  1  0.332885  0.750000  0.750000  1
  Cl  Cl8  1  0.327100  0.329491  0.441470  1
  Cl  Cl9  1  0.486118  0.540313  0.190878  1
  Cl  Cl10  1  0.666868  0.672593  0.560873  1
  Cl  Cl11  1  0.327100  0.170509  0.058530  1
  Cl  Cl12  1  0.013935  0.040502  0.309241  1
  Cl  Cl13  1  0.666868  0.827407  0.939127  1
  Cl  Cl14  1  0.825471  0.330422  0.558441  1
  Cl  Cl15  1  0.987868  0.543672  0.808592  1
  Cl  Cl16  1  0.173623  0.671213  0.445172  1
  Cl  Cl17  1  0.013935  0.459498  0.190759  1
  Cl  Cl18  1  0.486118  0.959687  0.309122  1
  Cl  Cl19  1  0.825471  0.169578  0.941559  1
  Cl  Cl20  1  0.173623  0.828787  0.054828  1
  Cl  Cl21  1  0.987868  0.956328  0.691408  1
  Cl  Cl22  1  0.511543  0.464388  0.810254  1
  Cl  Cl23  1  0.511543  0.035612  0.689746  1
