# generated using pymatgen
data_Li6Ca6Ag10N
_symmetry_space_group_name_H-M   'P 1'
_cell_length_a   8.51484559
_cell_length_b   8.51591700
_cell_length_c   8.51591655
_cell_angle_alpha   109.02900878
_cell_angle_beta   109.39941362
_cell_angle_gamma   109.99185058
_symmetry_Int_Tables_number   1
_chemical_formula_structural   Li6Ca6Ag10N
_chemical_formula_sum   'Li6 Ca6 Ag10 N1'
_cell_volume   475.29017814
_cell_formula_units_Z   1
loop_
 _symmetry_equiv_pos_site_id
 _symmetry_equiv_pos_as_xyz
  1  'x, y, z'
loop_
 _atom_site_type_symbol
 _atom_site_label
 _atom_site_symmetry_multiplicity
 _atom_site_fract_x
 _atom_site_fract_y
 _atom_site_fract_z
 _atom_site_occupancy
  Li  Li0  1  0.682278  0.343775  0.338504  1
  Li  Li1  1  0.345351  0.001205  0.661789  1
  Li  Li2  1  0.345351  0.683561  0.344146  1
  Li  Li3  1  0.351319  0.346064  0.685807  1
  Li  Li4  1  0.351319  0.665511  0.005255  1
  Li  Li5  1  0.996635  0.341336  0.655300  1
  Ca  Ca6  1  0.996885  0.251069  0.247962  1
  Ca  Ca7  1  0.250365  0.999522  0.250843  1
  Ca  Ca8  1  0.748522  0.000289  0.748233  1
  Ca  Ca9  1  0.750285  0.746989  0.003296  1
  Ca  Ca10  1  0.253234  0.250438  0.002796  1
  Ca  Ca11  1  0.996885  0.748923  0.745816  1
  Ag  Ag12  1  0.494456  0.495181  0.496167  1
  Ag  Ag13  1  0.494456  0.998289  0.999274  1
  Ag  Ag14  1  0.012095  0.502649  0.999697  1
  Ag  Ag15  1  0.012095  0.012398  0.509446  1
  Ag  Ag16  1  0.011304  0.658599  0.352705  1
  Ag  Ag17  1  0.649859  0.651403  0.302667  1
  Ag  Ag18  1  0.654094  0.005211  0.350761  1
  Ag  Ag19  1  0.649859  0.347194  0.998456  1
  Ag  Ag20  1  0.654094  0.303334  0.648883  1
  Ag  Ag21  1  0.300712  0.648077  0.652634  1
  N  N22  1  0.998548  0.998984  0.999563  1
