# generated using pymatgen
data_Al3Si4Ir3
_symmetry_space_group_name_H-M   'P 1'
_cell_length_a   7.39604829
_cell_length_b   7.39604808
_cell_length_c   7.39604900
_cell_angle_alpha   109.47122589
_cell_angle_beta   109.47122531
_cell_angle_gamma   109.47121266
_symmetry_Int_Tables_number   1
_chemical_formula_structural   Al3Si4Ir3
_chemical_formula_sum   'Al6 Si8 Ir6'
_cell_volume   311.44211684
_cell_formula_units_Z   2
loop_
 _symmetry_equiv_pos_site_id
 _symmetry_equiv_pos_as_xyz
  1  'x, y, z'
loop_
 _atom_site_type_symbol
 _atom_site_label
 _atom_site_symmetry_multiplicity
 _atom_site_fract_x
 _atom_site_fract_y
 _atom_site_fract_z
 _atom_site_occupancy
  Al  Al0  1  0.500000  0.750000  0.250000  1
  Al  Al1  1  0.500000  0.250000  0.750000  1
  Al  Al2  1  0.250000  0.500000  0.750000  1
  Al  Al3  1  0.750000  0.500000  0.250000  1
  Al  Al4  1  0.750000  0.250000  0.500000  1
  Al  Al5  1  0.250000  0.750000  0.500000  1
  Si  Si6  1  0.330530  0.330530  0.330530  1
  Si  Si7  1  0.669470  0.669470  0.669470  1
  Si  Si8  1  0.000000  0.000000  0.669470  1
  Si  Si9  1  0.000000  0.669470  0.000000  1
  Si  Si10  1  0.000000  0.000000  0.330530  1
  Si  Si11  1  0.000000  0.330530  0.000000  1
  Si  Si12  1  0.669470  0.000000  0.000000  1
  Si  Si13  1  0.330530  0.000000  0.000000  1
  Ir  Ir14  1  0.000000  0.331639  0.331639  1
  Ir  Ir15  1  0.000000  0.668361  0.668361  1
  Ir  Ir16  1  0.331639  0.000000  0.331639  1
  Ir  Ir17  1  0.668361  0.000000  0.668361  1
  Ir  Ir18  1  0.331639  0.331639  0.000000  1
  Ir  Ir19  1  0.668361  0.668361  0.000000  1
