# generated using pymatgen
data_DyBi5(MoO7)2
_symmetry_space_group_name_H-M   'P 1'
_cell_length_a   6.54382010
_cell_length_b   6.99329064
_cell_length_c   7.64240981
_cell_angle_alpha   106.03231745
_cell_angle_beta   89.53066378
_cell_angle_gamma   102.22882228
_symmetry_Int_Tables_number   1
_chemical_formula_structural   DyBi5(MoO7)2
_chemical_formula_sum   'Dy1 Bi5 Mo2 O14'
_cell_volume   328.03703437
_cell_formula_units_Z   1
loop_
 _symmetry_equiv_pos_site_id
 _symmetry_equiv_pos_as_xyz
  1  'x, y, z'
loop_
 _atom_site_type_symbol
 _atom_site_label
 _atom_site_symmetry_multiplicity
 _atom_site_fract_x
 _atom_site_fract_y
 _atom_site_fract_z
 _atom_site_occupancy
  Dy  Dy0  1  0.547633  0.006710  0.745820  1
  Bi  Bi1  1  0.484699  0.992862  0.255568  1
  Bi  Bi2  1  0.270105  0.503279  0.873758  1
  Bi  Bi3  1  0.743457  0.490758  0.124857  1
  Bi  Bi4  1  0.748928  0.541604  0.634263  1
  Bi  Bi5  1  0.251618  0.456626  0.367110  1
  Mo  Mo6  1  0.006566  0.999139  0.502203  1
  Mo  Mo7  1  0.004802  0.001161  0.998542  1
  O  O8  1  0.470342  0.634128  0.181433  1
  O  O9  1  0.535386  0.346309  0.816432  1
  O  O10  1  0.266617  0.955175  0.929072  1
  O  O11  1  0.711586  0.050889  0.040967  1
  O  O12  1  0.272382  0.956007  0.535893  1
  O  O13  1  0.715958  0.046695  0.479442  1
  O  O14  1  0.534394  0.339275  0.359258  1
  O  O15  1  0.469995  0.662415  0.647480  1
  O  O16  1  0.890162  0.697549  0.960225  1
  O  O17  1  0.101244  0.309010  0.042787  1
  O  O18  1  0.095741  0.307270  0.616313  1
  O  O19  1  0.901531  0.693186  0.387857  1
  O  O20  1  0.887978  0.929396  0.731342  1
  O  O21  1  0.088875  0.080555  0.269380  1
