# generated using pymatgen
data_Tb3Lu9In2FeTc2
_symmetry_space_group_name_H-M   'P 1'
_cell_length_a   8.28915880
_cell_length_b   8.28982675
_cell_length_c   8.30232160
_cell_angle_alpha   108.65451609
_cell_angle_beta   108.65121967
_cell_angle_gamma   111.05983511
_symmetry_Int_Tables_number   1
_chemical_formula_structural   Tb3Lu9In2FeTc2
_chemical_formula_sum   'Tb3 Lu9 In2 Fe1 Tc2'
_cell_volume   439.23617710
_cell_formula_units_Z   1
loop_
 _symmetry_equiv_pos_site_id
 _symmetry_equiv_pos_as_xyz
  1  'x, y, z'
loop_
 _atom_site_type_symbol
 _atom_site_label
 _atom_site_symmetry_multiplicity
 _atom_site_fract_x
 _atom_site_fract_y
 _atom_site_fract_z
 _atom_site_occupancy
  Tb  Tb0  1  0.302532  0.303489  0.608246  1
  Tb  Tb1  1  0.694286  0.695243  0.391754  1
  Tb  Tb2  1  0.695182  0.302842  0.000000  1
  Lu  Lu3  1  0.304176  0.693773  0.000000  1
  Lu  Lu4  1  0.189428  0.429791  0.238786  1
  Lu  Lu5  1  0.809589  0.572104  0.764028  1
  Lu  Lu6  1  0.189540  0.948758  0.760775  1
  Lu  Lu7  1  0.950641  0.191005  0.761214  1
  Lu  Lu8  1  0.806798  0.043745  0.235663  1
  Lu  Lu9  1  0.045562  0.808076  0.235972  1
  Lu  Lu10  1  0.428765  0.187984  0.239225  1
  Lu  Lu11  1  0.571136  0.808082  0.764337  1
  In  In12  1  0.998114  0.498030  0.500042  1
  In  In13  1  0.498072  0.997988  0.499958  1
  Fe  Fe14  1  0.631072  0.632089  0.000000  1
  Tc  Tc15  1  0.384508  0.386038  0.000000  1
  Tc  Tc16  1  0.000600  0.000962  0.000000  1
