# generated using pymatgen
data_Sm6Sc4Al12Rh7
_symmetry_space_group_name_H-M   'P 1'
_cell_length_a   9.19697749
_cell_length_b   9.19697768
_cell_length_c   9.19697800
_cell_angle_alpha   59.99999884
_cell_angle_beta   59.99999817
_cell_angle_gamma   60.00000360
_symmetry_Int_Tables_number   1
_chemical_formula_structural   Sm6Sc4Al12Rh7
_chemical_formula_sum   'Sm6 Sc4 Al12 Rh7'
_cell_volume   550.07310051
_cell_formula_units_Z   1
loop_
 _symmetry_equiv_pos_site_id
 _symmetry_equiv_pos_as_xyz
  1  'x, y, z'
loop_
 _atom_site_type_symbol
 _atom_site_label
 _atom_site_symmetry_multiplicity
 _atom_site_fract_x
 _atom_site_fract_y
 _atom_site_fract_z
 _atom_site_occupancy
  Sm  Sm0  1  0.702309  0.702309  0.297691  1
  Sm  Sm1  1  0.297691  0.702309  0.297691  1
  Sm  Sm2  1  0.702309  0.297691  0.297691  1
  Sm  Sm3  1  0.297691  0.297691  0.702309  1
  Sm  Sm4  1  0.702309  0.297691  0.702309  1
  Sm  Sm5  1  0.297691  0.702309  0.702309  1
  Sc  Sc6  1  0.881941  0.881941  0.354176  1
  Sc  Sc7  1  0.881941  0.354176  0.881941  1
  Sc  Sc8  1  0.354176  0.881941  0.881941  1
  Sc  Sc9  1  0.881941  0.881941  0.881941  1
  Al  Al10  1  0.120723  0.120723  0.637831  1
  Al  Al11  1  0.120723  0.637831  0.120723  1
  Al  Al12  1  0.637831  0.120723  0.120723  1
  Al  Al13  1  0.120723  0.120723  0.120723  1
  Al  Al14  1  0.671107  0.671107  0.986680  1
  Al  Al15  1  0.671107  0.986680  0.671107  1
  Al  Al16  1  0.986680  0.671107  0.671107  1
  Al  Al17  1  0.671107  0.671107  0.671107  1
  Al  Al18  1  0.327108  0.327108  0.018677  1
  Al  Al19  1  0.327108  0.018677  0.327108  1
  Al  Al20  1  0.018677  0.327108  0.327108  1
  Al  Al21  1  0.327108  0.327108  0.327108  1
  Rh  Rh22  1  0.000000  0.000000  0.000000  1
  Rh  Rh23  1  0.001260  0.001260  0.498740  1
  Rh  Rh24  1  0.498740  0.001260  0.498740  1
  Rh  Rh25  1  0.001260  0.498740  0.498740  1
  Rh  Rh26  1  0.498740  0.498740  0.001260  1
  Rh  Rh27  1  0.001260  0.498740  0.001260  1
  Rh  Rh28  1  0.498740  0.001260  0.001260  1
