# generated using pymatgen
data_Ho6Tm3Lu(In2Pt)4
_symmetry_space_group_name_H-M   'P 1'
_cell_length_a   3.63654000
_cell_length_b   8.14947174
_cell_length_c   18.15949000
_cell_angle_alpha   90.05486691
_cell_angle_beta   90.00000000
_cell_angle_gamma   90.00000000
_symmetry_Int_Tables_number   1
_chemical_formula_structural   Ho6Tm3Lu(In2Pt)4
_chemical_formula_sum   'Ho6 Tm3 Lu1 In8 Pt4'
_cell_volume   538.17221882
_cell_formula_units_Z   1
loop_
 _symmetry_equiv_pos_site_id
 _symmetry_equiv_pos_as_xyz
  1  'x, y, z'
loop_
 _atom_site_type_symbol
 _atom_site_label
 _atom_site_symmetry_multiplicity
 _atom_site_fract_x
 _atom_site_fract_y
 _atom_site_fract_z
 _atom_site_occupancy
  Ho  Ho0  1  0.000000  0.241149  0.218993  1
  Ho  Ho1  1  0.000000  0.758877  0.781022  1
  Ho  Ho2  1  0.000000  0.258885  0.718345  1
  Ho  Ho3  1  0.000000  0.740534  0.281917  1
  Ho  Ho4  1  0.000000  0.000060  0.000253  1
  Ho  Ho5  1  0.000000  0.500261  0.499663  1
  Tm  Tm6  1  0.000000  0.883821  0.585642  1
  Tm  Tm7  1  0.000000  0.383697  0.914055  1
  Tm  Tm8  1  0.000000  0.616512  0.086096  1
  Lu  Lu9  1  0.000000  0.116029  0.413525  1
  In  In10  1  0.500000  0.418495  0.351084  1
  In  In11  1  0.500000  0.580031  0.648959  1
  In  In12  1  0.500000  0.080209  0.850539  1
  In  In13  1  0.500000  0.919656  0.149912  1
  In  In14  1  0.500000  0.295507  0.065083  1
  In  In15  1  0.500000  0.704798  0.935194  1
  In  In16  1  0.500000  0.204394  0.563511  1
  In  In17  1  0.500000  0.796597  0.435637  1
  Pt  Pt18  1  0.500000  0.025358  0.305120  1
  Pt  Pt19  1  0.500000  0.975171  0.695344  1
  Pt  Pt20  1  0.500000  0.474758  0.804153  1
  Pt  Pt21  1  0.500000  0.525201  0.195955  1
