# generated using pymatgen
data_SrPb2(CN2)3
_symmetry_space_group_name_H-M   'P 1'
_cell_length_a   4.01224903
_cell_length_b   4.01283854
_cell_length_c   15.29661506
_cell_angle_alpha   89.99969166
_cell_angle_beta   89.99155263
_cell_angle_gamma   120.00475845
_symmetry_Int_Tables_number   1
_chemical_formula_structural   SrPb2(CN2)3
_chemical_formula_sum   'Sr1 Pb2 C3 N6'
_cell_volume   213.27733352
_cell_formula_units_Z   1
loop_
 _symmetry_equiv_pos_site_id
 _symmetry_equiv_pos_as_xyz
  1  'x, y, z'
loop_
 _atom_site_type_symbol
 _atom_site_label
 _atom_site_symmetry_multiplicity
 _atom_site_fract_x
 _atom_site_fract_y
 _atom_site_fract_z
 _atom_site_occupancy
  Sr  Sr0  1  0.666697  0.333349  0.833387  1
  Pb  Pb1  1  0.333310  0.666656  0.166477  1
  Pb  Pb2  1  0.000001  0.000001  0.500090  1
  C  C3  1  0.999948  0.999974  0.998795  1
  C  C4  1  0.666705  0.333354  0.333355  1
  C  C5  1  0.333183  0.666594  0.667874  1
  N  N6  1  0.999953  0.999976  0.079958  1
  N  N7  1  0.666683  0.333340  0.252368  1
  N  N8  1  0.666613  0.333306  0.414351  1
  N  N9  1  0.333549  0.666773  0.586703  1
  N  N10  1  0.333351  0.666675  0.748811  1
  N  N11  1  0.000073  0.000035  0.917861  1
