# generated using pymatgen
data_Hf2Zr2Nb4Si3P
_symmetry_space_group_name_H-M   'P 1'
_cell_length_a   3.62026700
_cell_length_b   6.97931771
_cell_length_c   8.45581224
_cell_angle_alpha   89.65778739
_cell_angle_beta   90.00000000
_cell_angle_gamma   90.00000000
_symmetry_Int_Tables_number   1
_chemical_formula_structural   Hf2Zr2Nb4Si3P
_chemical_formula_sum   'Hf2 Zr2 Nb4 Si3 P1'
_cell_volume   213.64914270
_cell_formula_units_Z   1
loop_
 _symmetry_equiv_pos_site_id
 _symmetry_equiv_pos_as_xyz
  1  'x, y, z'
loop_
 _atom_site_type_symbol
 _atom_site_label
 _atom_site_symmetry_multiplicity
 _atom_site_fract_x
 _atom_site_fract_y
 _atom_site_fract_z
 _atom_site_occupancy
  Hf  Hf0  1  0.750000  0.459720  0.168087  1
  Hf  Hf1  1  0.750000  0.957001  0.334045  1
  Zr  Zr2  1  0.250000  0.042595  0.668190  1
  Zr  Zr3  1  0.250000  0.537794  0.834865  1
  Nb  Nb4  1  0.750000  0.868565  0.941194  1
  Nb  Nb5  1  0.250000  0.631810  0.440144  1
  Nb  Nb6  1  0.750000  0.365034  0.559652  1
  Nb  Nb7  1  0.250000  0.137945  0.056174  1
  Si  Si8  1  0.250000  0.253644  0.357792  1
  Si  Si9  1  0.250000  0.757954  0.141465  1
  Si  Si10  1  0.750000  0.744506  0.640444  1
  P  P11  1  0.750000  0.243432  0.857947  1
