# generated using pymatgen
data_Li3Mg2Co19P12
_symmetry_space_group_name_H-M   'P 1'
_cell_length_a   11.74169565
_cell_length_b   11.74169597
_cell_length_c   3.53711200
_cell_angle_alpha   90.00000000
_cell_angle_beta   90.00000000
_cell_angle_gamma   119.90958750
_symmetry_Int_Tables_number   1
_chemical_formula_structural   Li3Mg2Co19P12
_chemical_formula_sum   'Li3 Mg2 Co19 P12'
_cell_volume   422.70369064
_cell_formula_units_Z   1
loop_
 _symmetry_equiv_pos_site_id
 _symmetry_equiv_pos_as_xyz
  1  'x, y, z'
loop_
 _atom_site_type_symbol
 _atom_site_label
 _atom_site_symmetry_multiplicity
 _atom_site_fract_x
 _atom_site_fract_y
 _atom_site_fract_z
 _atom_site_occupancy
  Li  Li0  1  0.333437  0.667178  0.500000  1
  Li  Li1  1  0.667178  0.333437  0.500000  1
  Li  Li2  1  0.815853  0.815853  0.000000  1
  Mg  Mg3  1  0.179266  0.998431  0.000000  1
  Mg  Mg4  1  0.998431  0.179266  0.000000  1
  Co  Co5  1  0.197241  0.376489  0.500000  1
  Co  Co6  1  0.622259  0.819973  0.500000  1
  Co  Co7  1  0.178345  0.804255  0.500000  1
  Co  Co8  1  0.819973  0.622259  0.500000  1
  Co  Co9  1  0.804255  0.178345  0.500000  1
  Co  Co10  1  0.376489  0.197241  0.500000  1
  Co  Co11  1  0.550377  0.001460  0.500000  1
  Co  Co12  1  0.001460  0.550377  0.500000  1
  Co  Co13  1  0.451555  0.451555  0.500000  1
  Co  Co14  1  0.127553  0.482066  0.000000  1
  Co  Co15  1  0.519121  0.645527  0.000000  1
  Co  Co16  1  0.354469  0.873312  0.000000  1
  Co  Co17  1  0.645527  0.519121  0.000000  1
  Co  Co18  1  0.873312  0.354469  0.000000  1
  Co  Co19  1  0.482066  0.127553  0.000000  1
  Co  Co20  1  0.714714  0.999647  0.000000  1
  Co  Co21  1  0.999647  0.714714  0.000000  1
  Co  Co22  1  0.286815  0.286815  0.000000  1
  Co  Co23  1  0.001535  0.001535  0.500000  1
  P  P24  1  0.363854  0.000299  0.500000  1
  P  P25  1  0.000299  0.363854  0.500000  1
  P  P26  1  0.638521  0.638521  0.500000  1
  P  P27  1  0.319522  0.487564  0.000000  1
  P  P28  1  0.513681  0.831937  0.000000  1
  P  P29  1  0.167583  0.681906  0.000000  1
  P  P30  1  0.831937  0.513681  0.000000  1
  P  P31  1  0.681906  0.167583  0.000000  1
  P  P32  1  0.487564  0.319522  0.000000  1
  P  P33  1  0.819473  0.995163  0.500000  1
  P  P34  1  0.995163  0.819473  0.500000  1
  P  P35  1  0.179618  0.179618  0.500000  1
