# generated using pymatgen
data_Y12Th4Mg4MnIr3
_symmetry_space_group_name_H-M   'P 1'
_cell_length_a   9.82271417
_cell_length_b   9.82271407
_cell_length_c   9.82271452
_cell_angle_alpha   59.57021756
_cell_angle_beta   59.57021582
_cell_angle_gamma   59.57022282
_symmetry_Int_Tables_number   1
_chemical_formula_structural   Y12Th4Mg4MnIr3
_chemical_formula_sum   'Y12 Th4 Mg4 Mn1 Ir3'
_cell_volume   663.61397477
_cell_formula_units_Z   1
loop_
 _symmetry_equiv_pos_site_id
 _symmetry_equiv_pos_as_xyz
  1  'x, y, z'
loop_
 _atom_site_type_symbol
 _atom_site_label
 _atom_site_symmetry_multiplicity
 _atom_site_fract_x
 _atom_site_fract_y
 _atom_site_fract_z
 _atom_site_occupancy
  Y  Y0  1  0.067995  0.436819  0.436819  1
  Y  Y1  1  0.437095  0.061768  0.061768  1
  Y  Y2  1  0.436819  0.067995  0.436819  1
  Y  Y3  1  0.061768  0.437095  0.061768  1
  Y  Y4  1  0.436819  0.436819  0.067995  1
  Y  Y5  1  0.061768  0.061768  0.437095  1
  Y  Y6  1  0.185918  0.812762  0.812762  1
  Y  Y7  1  0.811800  0.184651  0.184651  1
  Y  Y8  1  0.812762  0.185918  0.812762  1
  Y  Y9  1  0.184651  0.811800  0.184651  1
  Y  Y10  1  0.812762  0.812762  0.185918  1
  Y  Y11  1  0.184651  0.184651  0.811800  1
  Th  Th12  1  0.598831  0.598831  0.598831  1
  Th  Th13  1  0.591194  0.591194  0.214692  1
  Th  Th14  1  0.591194  0.214692  0.591194  1
  Th  Th15  1  0.214692  0.591194  0.591194  1
  Mg  Mg16  1  0.828893  0.828893  0.828893  1
  Mg  Mg17  1  0.830479  0.830479  0.508258  1
  Mg  Mg18  1  0.830479  0.508258  0.830479  1
  Mg  Mg19  1  0.508258  0.830479  0.830479  1
  Mn  Mn20  1  0.398031  0.398031  0.398031  1
  Ir  Ir21  1  0.395430  0.395430  0.822278  1
  Ir  Ir22  1  0.395430  0.822278  0.395430  1
  Ir  Ir23  1  0.822278  0.395430  0.395430  1
