# generated using pymatgen
data_MgSc(Nb2B5)4
_symmetry_space_group_name_H-M   'P 1'
_cell_length_a   6.21585749
_cell_length_b   7.06535088
_cell_length_c   7.41453770
_cell_angle_alpha   93.90698115
_cell_angle_beta   102.05141249
_cell_angle_gamma   116.09238326
_symmetry_Int_Tables_number   1
_chemical_formula_structural   MgSc(Nb2B5)4
_chemical_formula_sum   'Mg1 Sc1 Nb8 B20'
_cell_volume   281.21123326
_cell_formula_units_Z   1
loop_
 _symmetry_equiv_pos_site_id
 _symmetry_equiv_pos_as_xyz
  1  'x, y, z'
loop_
 _atom_site_type_symbol
 _atom_site_label
 _atom_site_symmetry_multiplicity
 _atom_site_fract_x
 _atom_site_fract_y
 _atom_site_fract_z
 _atom_site_occupancy
  Mg  Mg0  1  0.000249  0.601996  0.801612  1
  Sc  Sc1  1  0.999839  0.998221  0.999200  1
  Nb  Nb2  1  0.498534  0.999790  0.999194  1
  Nb  Nb3  1  0.500136  0.799552  0.400081  1
  Nb  Nb4  1  0.999921  0.396370  0.202467  1
  Nb  Nb5  1  0.503073  0.200680  0.600805  1
  Nb  Nb6  1  0.000512  0.802425  0.399393  1
  Nb  Nb7  1  0.499630  0.599234  0.799562  1
  Nb  Nb8  1  0.498744  0.400321  0.199865  1
  Nb  Nb9  1  0.999340  0.202925  0.598685  1
  B  B10  1  0.332869  0.232669  0.867379  1
  B  B11  1  0.331322  0.631938  0.066303  1
  B  B12  1  0.166275  0.367061  0.934059  1
  B  B13  1  0.332862  0.032460  0.265140  1
  B  B14  1  0.165488  0.765073  0.132322  1
  B  B15  1  0.833899  0.234526  0.866296  1
  B  B16  1  0.167111  0.166571  0.331857  1
  B  B17  1  0.833900  0.632413  0.065456  1
  B  B18  1  0.333878  0.433774  0.466543  1
  B  B19  1  0.668314  0.367673  0.932678  1
  B  B20  1  0.832470  0.031699  0.265461  1
  B  B21  1  0.666101  0.765916  0.131933  1
  B  B22  1  0.332262  0.832775  0.667175  1
  B  B23  1  0.166738  0.568677  0.535088  1
  B  B24  1  0.666403  0.166454  0.334611  1
  B  B25  1  0.833940  0.435121  0.468956  1
  B  B26  1  0.165554  0.965679  0.733377  1
  B  B27  1  0.834600  0.832985  0.666822  1
  B  B28  1  0.668614  0.567659  0.534339  1
  B  B29  1  0.667422  0.967364  0.733344  1
