# generated using pymatgen
data_Dy5ErAl24Os7Pt
_symmetry_space_group_name_H-M   'P 1'
_cell_length_a   8.83778155
_cell_length_b   8.83778119
_cell_length_c   9.55580690
_cell_angle_alpha   89.64673813
_cell_angle_beta   90.35325956
_cell_angle_gamma   119.87610784
_symmetry_Int_Tables_number   1
_chemical_formula_structural   Dy5ErAl24Os7Pt
_chemical_formula_sum   'Dy5 Er1 Al24 Os7 Pt1'
_cell_volume   647.16394477
_cell_formula_units_Z   1
loop_
 _symmetry_equiv_pos_site_id
 _symmetry_equiv_pos_as_xyz
  1  'x, y, z'
loop_
 _atom_site_type_symbol
 _atom_site_label
 _atom_site_symmetry_multiplicity
 _atom_site_fract_x
 _atom_site_fract_y
 _atom_site_fract_z
 _atom_site_occupancy
  Dy  Dy0  1  0.190677  0.386932  0.251220  1
  Dy  Dy1  1  0.809325  0.612986  0.748755  1
  Dy  Dy2  1  0.613068  0.809323  0.251220  1
  Dy  Dy3  1  0.387014  0.190675  0.748755  1
  Dy  Dy4  1  0.194921  0.805079  0.251330  1
  Er  Er5  1  0.804633  0.195367  0.748583  1
  Al  Al6  1  0.331668  0.668332  0.019948  1
  Al  Al7  1  0.668476  0.331524  0.979815  1
  Al  Al8  1  0.666714  0.333286  0.517260  1
  Al  Al9  1  0.333427  0.666573  0.482969  1
  Al  Al10  1  0.163555  0.325459  0.577500  1
  Al  Al11  1  0.836231  0.674401  0.422667  1
  Al  Al12  1  0.674541  0.836445  0.577500  1
  Al  Al13  1  0.841930  0.675394  0.077508  1
  Al  Al14  1  0.325599  0.163769  0.422667  1
  Al  Al15  1  0.157812  0.324484  0.922323  1
  Al  Al16  1  0.163496  0.836504  0.575587  1
  Al  Al17  1  0.324606  0.158070  0.077508  1
  Al  Al18  1  0.836503  0.163497  0.424750  1
  Al  Al19  1  0.675516  0.842188  0.922323  1
  Al  Al20  1  0.836869  0.163131  0.075335  1
  Al  Al21  1  0.163127  0.836873  0.924308  1
  Al  Al22  1  0.560376  0.122023  0.249023  1
  Al  Al23  1  0.440085  0.878311  0.750971  1
  Al  Al24  1  0.877977  0.439624  0.249023  1
  Al  Al25  1  0.121689  0.559915  0.750971  1
  Al  Al26  1  0.561728  0.438272  0.251884  1
  Al  Al27  1  0.438242  0.561758  0.748145  1
  Al  Al28  1  0.999651  0.000349  0.250121  1
  Al  Al29  1  0.000094  0.999906  0.749900  1
  Os  Os30  1  0.500241  0.000123  0.999828  1
  Os  Os31  1  0.999877  0.499759  0.999828  1
  Os  Os32  1  0.500291  0.000153  0.500213  1
  Os  Os33  1  0.999847  0.499709  0.500213  1
  Os  Os34  1  0.500096  0.499904  0.500044  1
  Os  Os35  1  0.000019  0.999981  0.999971  1
  Os  Os36  1  0.000016  0.999984  0.500037  1
  Pt  Pt37  1  0.500065  0.499935  0.999994  1
