# generated using pymatgen
data_Pa(Al5Re)2
_symmetry_space_group_name_H-M   'P 1'
_cell_length_a   6.90751895
_cell_length_b   6.90752374
_cell_length_c   9.16769800
_cell_angle_alpha   90.00000000
_cell_angle_beta   90.00000000
_cell_angle_gamma   97.32197111
_symmetry_Int_Tables_number   1
_chemical_formula_structural   Pa(Al5Re)2
_chemical_formula_sum   'Pa2 Al20 Re4'
_cell_volume   433.85924928
_cell_formula_units_Z   2
loop_
 _symmetry_equiv_pos_site_id
 _symmetry_equiv_pos_as_xyz
  1  'x, y, z'
loop_
 _atom_site_type_symbol
 _atom_site_label
 _atom_site_symmetry_multiplicity
 _atom_site_fract_x
 _atom_site_fract_y
 _atom_site_fract_z
 _atom_site_occupancy
  Pa  Pa0  1  0.866542  0.133457  0.750000  1
  Pa  Pa1  1  0.133458  0.866543  0.250000  1
  Al  Al2  1  0.521269  0.785181  0.750000  1
  Al  Al3  1  0.785182  0.521269  0.250000  1
  Al  Al4  1  0.478731  0.214819  0.250000  1
  Al  Al5  1  0.214818  0.478731  0.750000  1
  Al  Al6  1  0.622379  0.377621  0.956001  1
  Al  Al7  1  0.377621  0.622379  0.043999  1
  Al  Al8  1  0.622379  0.377621  0.543999  1
  Al  Al9  1  0.377621  0.622379  0.456001  1
  Al  Al10  1  0.408260  0.143375  0.750000  1
  Al  Al11  1  0.143375  0.408260  0.250000  1
  Al  Al12  1  0.591740  0.856625  0.250000  1
  Al  Al13  1  0.856625  0.591740  0.750000  1
  Al  Al14  1  0.844335  0.155665  0.398545  1
  Al  Al15  1  0.155665  0.844335  0.601455  1
  Al  Al16  1  0.844335  0.155665  0.101455  1
  Al  Al17  1  0.155665  0.844335  0.898545  1
  Al  Al18  1  0.776079  0.776079  0.000000  1
  Al  Al19  1  0.776079  0.776079  0.500000  1
  Al  Al20  1  0.223921  0.223921  0.000000  1
  Al  Al21  1  0.223921  0.223921  0.500000  1
  Re  Re22  1  0.500000  0.000000  0.000000  1
  Re  Re23  1  0.000000  0.500000  0.000000  1
  Re  Re24  1  0.500000  0.000000  0.500000  1
  Re  Re25  1  0.000000  0.500000  0.500000  1
