# generated using pymatgen
data_NaCe6(NCl)6
_symmetry_space_group_name_H-M   'P 1'
_cell_length_a   6.79983668
_cell_length_b   6.79946995
_cell_length_c   10.72833923
_cell_angle_alpha   83.94500219
_cell_angle_beta   83.91895016
_cell_angle_gamma   120.02416010
_symmetry_Int_Tables_number   1
_chemical_formula_structural   NaCe6(NCl)6
_chemical_formula_sum   'Na1 Ce6 N6 Cl6'
_cell_volume   419.75305373
_cell_formula_units_Z   1
loop_
 _symmetry_equiv_pos_site_id
 _symmetry_equiv_pos_as_xyz
  1  'x, y, z'
loop_
 _atom_site_type_symbol
 _atom_site_label
 _atom_site_symmetry_multiplicity
 _atom_site_fract_x
 _atom_site_fract_y
 _atom_site_fract_z
 _atom_site_occupancy
  Na  Na0  1  0.000000  0.000000  0.000000  1
  Ce  Ce1  1  0.211807  0.211797  0.365362  1
  Ce  Ce2  1  0.544481  0.878959  0.364590  1
  Ce  Ce3  1  0.878995  0.544478  0.364613  1
  Ce  Ce4  1  0.121005  0.455522  0.635387  1
  Ce  Ce5  1  0.455519  0.121041  0.635410  1
  Ce  Ce6  1  0.788193  0.788203  0.634638  1
  N  N7  1  0.140630  0.140661  0.582055  1
  N  N8  1  0.471032  0.805596  0.583012  1
  N  N9  1  0.805570  0.471070  0.583057  1
  N  N10  1  0.194430  0.528930  0.416943  1
  N  N11  1  0.528968  0.194404  0.416988  1
  N  N12  1  0.859370  0.859339  0.417945  1
  Cl  Cl13  1  0.060328  0.733568  0.818954  1
  Cl  Cl14  1  0.387039  0.387067  0.818952  1
  Cl  Cl15  1  0.733611  0.060382  0.818947  1
  Cl  Cl16  1  0.266389  0.939618  0.181053  1
  Cl  Cl17  1  0.612961  0.612933  0.181048  1
  Cl  Cl18  1  0.939672  0.266432  0.181046  1
