# generated using pymatgen
data_HoTmNb4(B2Ru5)2
_symmetry_space_group_name_H-M   'P 1'
_cell_length_a   9.55055083
_cell_length_b   9.55055149
_cell_length_c   3.08735500
_cell_angle_alpha   90.00000000
_cell_angle_beta   90.00000000
_cell_angle_gamma   90.53928809
_symmetry_Int_Tables_number   1
_chemical_formula_structural   HoTmNb4(B2Ru5)2
_chemical_formula_sum   'Ho1 Tm1 Nb4 B4 Ru10'
_cell_volume   281.59452226
_cell_formula_units_Z   1
loop_
 _symmetry_equiv_pos_site_id
 _symmetry_equiv_pos_as_xyz
  1  'x, y, z'
loop_
 _atom_site_type_symbol
 _atom_site_label
 _atom_site_symmetry_multiplicity
 _atom_site_fract_x
 _atom_site_fract_y
 _atom_site_fract_z
 _atom_site_occupancy
  Ho  Ho0  1  0.824299  0.675701  0.000000  1
  Tm  Tm1  1  0.175880  0.324120  0.000000  1
  Nb  Nb2  1  0.324148  0.824229  0.000000  1
  Nb  Nb3  1  0.675771  0.175852  0.000000  1
  Nb  Nb4  1  0.499626  0.499859  0.000000  1
  Nb  Nb5  1  0.000141  0.000374  0.000000  1
  B  B6  1  0.620911  0.879089  0.000000  1
  B  B7  1  0.378712  0.121288  0.000000  1
  B  B8  1  0.120953  0.620659  0.000000  1
  B  B9  1  0.879341  0.379047  0.000000  1
  Ru  Ru10  1  0.560605  0.722687  0.500000  1
  Ru  Ru11  1  0.438708  0.277548  0.500000  1
  Ru  Ru12  1  0.080627  0.784748  0.500000  1
  Ru  Ru13  1  0.920006  0.215353  0.500000  1
  Ru  Ru14  1  0.284647  0.579994  0.500000  1
  Ru  Ru15  1  0.715252  0.419373  0.500000  1
  Ru  Ru16  1  0.222452  0.061292  0.500000  1
  Ru  Ru17  1  0.777313  0.939395  0.500000  1
  Ru  Ru18  1  0.499869  0.000131  0.500000  1
  Ru  Ru19  1  0.000739  0.499261  0.500000  1
