# generated using pymatgen
data_DyMn3Fe2P3
_symmetry_space_group_name_H-M   'P 1'
_cell_length_a   3.64351600
_cell_length_b   10.40226800
_cell_length_c   12.08069100
_cell_angle_alpha   90.00000000
_cell_angle_beta   90.00000000
_cell_angle_gamma   90.00000000
_symmetry_Int_Tables_number   1
_chemical_formula_structural   DyMn3Fe2P3
_chemical_formula_sum   'Dy4 Mn12 Fe8 P12'
_cell_volume   457.86821460
_cell_formula_units_Z   4
loop_
 _symmetry_equiv_pos_site_id
 _symmetry_equiv_pos_as_xyz
  1  'x, y, z'
loop_
 _atom_site_type_symbol
 _atom_site_label
 _atom_site_symmetry_multiplicity
 _atom_site_fract_x
 _atom_site_fract_y
 _atom_site_fract_z
 _atom_site_occupancy
  Dy  Dy0  1  0.250000  0.581228  0.709660  1
  Dy  Dy1  1  0.250000  0.918772  0.209660  1
  Dy  Dy2  1  0.750000  0.418772  0.290340  1
  Dy  Dy3  1  0.750000  0.081228  0.790340  1
  Mn  Mn4  1  0.250000  0.707484  0.988829  1
  Mn  Mn5  1  0.250000  0.792516  0.488829  1
  Mn  Mn6  1  0.750000  0.292516  0.011171  1
  Mn  Mn7  1  0.750000  0.207484  0.511171  1
  Mn  Mn8  1  0.250000  0.407015  0.493195  1
  Mn  Mn9  1  0.250000  0.092985  0.993195  1
  Mn  Mn10  1  0.750000  0.592985  0.506805  1
  Mn  Mn11  1  0.750000  0.907015  0.006805  1
  Mn  Mn12  1  0.250000  0.219906  0.172881  1
  Mn  Mn13  1  0.250000  0.280094  0.672881  1
  Mn  Mn14  1  0.750000  0.780094  0.827119  1
  Mn  Mn15  1  0.750000  0.719906  0.327119  1
  Fe  Fe16  1  0.250000  0.872936  0.699532  1
  Fe  Fe17  1  0.250000  0.627064  0.199532  1
  Fe  Fe18  1  0.750000  0.127064  0.300468  1
  Fe  Fe19  1  0.750000  0.372936  0.800468  1
  Fe  Fe20  1  0.250000  0.461993  0.933954  1
  Fe  Fe21  1  0.250000  0.038007  0.433954  1
  Fe  Fe22  1  0.750000  0.538007  0.066046  1
  Fe  Fe23  1  0.750000  0.961993  0.566046  1
  P  P24  1  0.250000  0.428601  0.112041  1
  P  P25  1  0.250000  0.071399  0.612041  1
  P  P26  1  0.750000  0.571399  0.887959  1
  P  P27  1  0.750000  0.928601  0.387959  1
  P  P28  1  0.250000  0.267136  0.868163  1
  P  P29  1  0.250000  0.232864  0.368163  1
  P  P30  1  0.750000  0.732864  0.131837  1
  P  P31  1  0.750000  0.767136  0.631837  1
  P  P32  1  0.250000  0.595181  0.386279  1
  P  P33  1  0.250000  0.904819  0.886279  1
  P  P34  1  0.750000  0.404819  0.613721  1
  P  P35  1  0.750000  0.095181  0.113721  1
