# generated using pymatgen
data_LiTi6Be5Ir12
_symmetry_space_group_name_H-M   'P 1'
_cell_length_a   4.22704200
_cell_length_b   5.96062500
_cell_length_c   12.64808500
_cell_angle_alpha   90.00000000
_cell_angle_beta   90.00130294
_cell_angle_gamma   90.00000000
_symmetry_Int_Tables_number   1
_chemical_formula_structural   LiTi6Be5Ir12
_chemical_formula_sum   'Li1 Ti6 Be5 Ir12'
_cell_volume   318.67877458
_cell_formula_units_Z   1
loop_
 _symmetry_equiv_pos_site_id
 _symmetry_equiv_pos_as_xyz
  1  'x, y, z'
loop_
 _atom_site_type_symbol
 _atom_site_label
 _atom_site_symmetry_multiplicity
 _atom_site_fract_x
 _atom_site_fract_y
 _atom_site_fract_z
 _atom_site_occupancy
  Li  Li0  1  0.000000  0.000000  0.000000  1
  Ti  Ti1  1  0.000000  0.500001  0.000000  1
  Ti  Ti2  1  0.499578  0.000000  0.165943  1
  Ti  Ti3  1  0.999577  0.500001  0.333056  1
  Ti  Ti4  1  0.500000  0.000000  0.500000  1
  Ti  Ti5  1  0.000425  0.500001  0.666944  1
  Ti  Ti6  1  0.500421  0.000000  0.834057  1
  Be  Be7  1  0.499500  0.500001  0.166375  1
  Be  Be8  1  0.999500  0.000000  0.333171  1
  Be  Be9  1  0.500000  0.500001  0.500000  1
  Be  Be10  1  0.000499  0.000000  0.666829  1
  Be  Be11  1  0.500502  0.500001  0.833625  1
  Ir  Ir12  1  0.500000  0.253689  0.000000  1
  Ir  Ir13  1  0.500000  0.746311  0.000000  1
  Ir  Ir14  1  0.999602  0.251334  0.168735  1
  Ir  Ir15  1  0.999602  0.748667  0.168735  1
  Ir  Ir16  1  0.499614  0.250210  0.334028  1
  Ir  Ir17  1  0.499614  0.749790  0.334028  1
  Ir  Ir18  1  0.000000  0.249637  0.500000  1
  Ir  Ir19  1  0.000000  0.750364  0.500000  1
  Ir  Ir20  1  0.500386  0.250210  0.665972  1
  Ir  Ir21  1  0.500386  0.749790  0.665972  1
  Ir  Ir22  1  0.000399  0.251334  0.831265  1
  Ir  Ir23  1  0.000399  0.748667  0.831265  1
