# generated using pymatgen
data_DyEr3ScBi3
_symmetry_space_group_name_H-M   'P 1'
_cell_length_a   8.08965300
_cell_length_b   9.40738400
_cell_length_c   11.90041700
_cell_angle_alpha   90.00000000
_cell_angle_beta   90.00000000
_cell_angle_gamma   90.00000000
_symmetry_Int_Tables_number   1
_chemical_formula_structural   DyEr3ScBi3
_chemical_formula_sum   'Dy4 Er12 Sc4 Bi12'
_cell_volume   905.65115388
_cell_formula_units_Z   4
loop_
 _symmetry_equiv_pos_site_id
 _symmetry_equiv_pos_as_xyz
  1  'x, y, z'
loop_
 _atom_site_type_symbol
 _atom_site_label
 _atom_site_symmetry_multiplicity
 _atom_site_fract_x
 _atom_site_fract_y
 _atom_site_fract_z
 _atom_site_occupancy
  Dy  Dy0  1  0.316406  0.250000  0.219286  1
  Dy  Dy1  1  0.816406  0.250000  0.280714  1
  Dy  Dy2  1  0.683594  0.750000  0.780714  1
  Dy  Dy3  1  0.183594  0.750000  0.719286  1
  Er  Er4  1  0.354283  0.750000  0.217244  1
  Er  Er5  1  0.854283  0.750000  0.282756  1
  Er  Er6  1  0.645717  0.250000  0.782756  1
  Er  Er7  1  0.145717  0.250000  0.717244  1
  Er  Er8  1  0.694257  0.565490  0.059389  1
  Er  Er9  1  0.194257  0.934510  0.440611  1
  Er  Er10  1  0.305743  0.065490  0.940611  1
  Er  Er11  1  0.805743  0.434510  0.559389  1
  Er  Er12  1  0.305743  0.434510  0.940611  1
  Er  Er13  1  0.805743  0.065490  0.559389  1
  Er  Er14  1  0.694257  0.934510  0.059389  1
  Er  Er15  1  0.194257  0.565490  0.440611  1
  Sc  Sc16  1  0.477703  0.250000  0.487665  1
  Sc  Sc17  1  0.977703  0.250000  0.012335  1
  Sc  Sc18  1  0.522297  0.750000  0.512335  1
  Sc  Sc19  1  0.022297  0.750000  0.987665  1
  Bi  Bi20  1  0.400022  0.750000  0.958630  1
  Bi  Bi21  1  0.900022  0.750000  0.541370  1
  Bi  Bi22  1  0.599978  0.250000  0.041370  1
  Bi  Bi23  1  0.099978  0.250000  0.458630  1
  Bi  Bi24  1  0.566428  0.995293  0.331511  1
  Bi  Bi25  1  0.066428  0.504707  0.168489  1
  Bi  Bi26  1  0.433572  0.495293  0.668489  1
  Bi  Bi27  1  0.933572  0.004707  0.831511  1
  Bi  Bi28  1  0.433572  0.004707  0.668489  1
  Bi  Bi29  1  0.933572  0.495293  0.831511  1
  Bi  Bi30  1  0.566428  0.504707  0.331511  1
  Bi  Bi31  1  0.066428  0.995293  0.168489  1
