# generated using pymatgen
data_Ba6NdY(BO3)6
_symmetry_space_group_name_H-M   'P 1'
_cell_length_a   8.28944566
_cell_length_b   8.28944624
_cell_length_c   8.28944483
_cell_angle_alpha   105.60438172
_cell_angle_beta   105.60439437
_cell_angle_gamma   105.60439257
_symmetry_Int_Tables_number   1
_chemical_formula_structural   Ba6NdY(BO3)6
_chemical_formula_sum   'Ba6 Nd1 Y1 B6 O18'
_cell_volume   491.31823615
_cell_formula_units_Z   1
loop_
 _symmetry_equiv_pos_site_id
 _symmetry_equiv_pos_as_xyz
  1  'x, y, z'
loop_
 _atom_site_type_symbol
 _atom_site_label
 _atom_site_symmetry_multiplicity
 _atom_site_fract_x
 _atom_site_fract_y
 _atom_site_fract_z
 _atom_site_occupancy
  Ba  Ba0  1  0.353980  0.731899  0.845981  1
  Ba  Ba1  1  0.845981  0.353980  0.731899  1
  Ba  Ba2  1  0.731899  0.845981  0.353980  1
  Ba  Ba3  1  0.646020  0.268101  0.154019  1
  Ba  Ba4  1  0.154019  0.646020  0.268101  1
  Ba  Ba5  1  0.268101  0.154019  0.646020  1
  Nd  Nd6  1  0.000000  0.000000  0.000000  1
  Y  Y7  1  0.500000  0.500000  0.500000  1
  B  B8  1  0.708472  0.616525  0.955125  1
  B  B9  1  0.955125  0.708472  0.616525  1
  B  B10  1  0.616525  0.955125  0.708472  1
  B  B11  1  0.044875  0.291528  0.383475  1
  B  B12  1  0.383475  0.044875  0.291528  1
  B  B13  1  0.291528  0.383475  0.044875  1
  O  O14  1  0.054736  0.806480  0.542292  1
  O  O15  1  0.542292  0.054736  0.806480  1
  O  O16  1  0.427503  0.493499  0.213717  1
  O  O17  1  0.493499  0.213717  0.427503  1
  O  O18  1  0.213717  0.427503  0.493499  1
  O  O19  1  0.786283  0.572497  0.506501  1
  O  O20  1  0.572497  0.506501  0.786283  1
  O  O21  1  0.506501  0.786283  0.572497  1
  O  O22  1  0.260653  0.199388  0.980669  1
  O  O23  1  0.199388  0.980669  0.260653  1
  O  O24  1  0.980669  0.260653  0.199388  1
  O  O25  1  0.739347  0.800612  0.019331  1
  O  O26  1  0.800612  0.019331  0.739347  1
  O  O27  1  0.019331  0.739347  0.800612  1
  O  O28  1  0.193520  0.457708  0.945264  1
  O  O29  1  0.457708  0.945264  0.193520  1
  O  O30  1  0.945264  0.193520  0.457708  1
  O  O31  1  0.806480  0.542292  0.054736  1
