# generated using pymatgen
data_BrO31
_symmetry_space_group_name_H-M   'P 1'
_cell_length_a   7.29903931
_cell_length_b   10.52560918
_cell_length_c   11.79347000
_cell_angle_alpha   82.15725808
_cell_angle_beta   86.13166240
_cell_angle_gamma   77.75900539
_symmetry_Int_Tables_number   1
_chemical_formula_structural   BrO31
_chemical_formula_sum   'Br2 O62'
_cell_volume   876.47799931
_cell_formula_units_Z   2
loop_
 _symmetry_equiv_pos_site_id
 _symmetry_equiv_pos_as_xyz
  1  'x, y, z'
loop_
 _atom_site_type_symbol
 _atom_site_label
 _atom_site_symmetry_multiplicity
 _atom_site_fract_x
 _atom_site_fract_y
 _atom_site_fract_z
 _atom_site_occupancy
  Br  Br0  1  0.660547  0.094513  0.578614  1
  Br  Br1  1  0.339453  0.905487  0.421386  1
  O  O2  1  0.385600  0.545272  0.315422  1
  O  O3  1  0.614400  0.454728  0.684578  1
  O  O4  1  0.113072  0.467368  0.895223  1
  O  O5  1  0.886928  0.532632  0.104777  1
  O  O6  1  0.110318  0.591030  0.392109  1
  O  O7  1  0.889682  0.408970  0.607891  1
  O  O8  1  0.394207  0.183554  0.282880  1
  O  O9  1  0.605793  0.816446  0.717120  1
  O  O10  1  0.305713  0.188514  0.711561  1
  O  O11  1  0.694287  0.811486  0.288439  1
  O  O12  1  0.107553  0.009822  0.124361  1
  O  O13  1  0.892447  0.990178  0.875639  1
  O  O14  1  0.066645  0.275556  0.355273  1
  O  O15  1  0.933355  0.724444  0.644727  1
  O  O16  1  0.755400  0.534301  0.414583  1
  O  O17  1  0.244600  0.465699  0.585417  1
  O  O18  1  0.841819  0.096425  0.056026  1
  O  O19  1  0.158181  0.903575  0.943974  1
  O  O20  1  0.418028  0.404834  0.044296  1
  O  O21  1  0.581972  0.595166  0.955704  1
  O  O22  1  0.204112  0.972251  0.633703  1
  O  O23  1  0.795888  0.027749  0.366297  1
  O  O24  1  0.330385  0.299477  0.292697  1
  O  O25  1  0.669615  0.700523  0.707303  1
  O  O26  1  0.058658  0.668235  0.028270  1
  O  O27  1  0.941342  0.331765  0.971730  1
  O  O28  1  0.533207  0.086862  0.823993  1
  O  O29  1  0.466793  0.913138  0.176007  1
  O  O30  1  0.217694  0.310540  0.120995  1
  O  O31  1  0.782306  0.689460  0.879005  1
  O  O32  1  0.312698  0.199598  0.117172  1
  O  O33  1  0.687302  0.800402  0.882828  1
  O  O34  1  0.669170  0.179226  0.443115  1
  O  O35  1  0.330830  0.820774  0.556885  1
  O  O36  1  0.681278  0.370894  0.245090  1
  O  O37  1  0.318722  0.629106  0.754910  1
  O  O38  1  0.766246  0.026967  0.128508  1
  O  O39  1  0.233754  0.973033  0.871492  1
  O  O40  1  0.177787  0.062847  0.554683  1
  O  O41  1  0.822213  0.937153  0.445317  1
  O  O42  1  0.153895  0.642585  0.113646  1
  O  O43  1  0.846105  0.357415  0.886354  1
  O  O44  1  0.237986  0.255485  0.787405  1
  O  O45  1  0.762014  0.744515  0.212595  1
  O  O46  1  0.381518  0.661337  0.280365  1
  O  O47  1  0.618482  0.338663  0.719635  1
  O  O48  1  0.764436  0.264308  0.218234  1
  O  O49  1  0.235564  0.735692  0.781766  1
  O  O50  1  0.019512  0.489763  0.809290  1
  O  O51  1  0.980488  0.510237  0.190710  1
  O  O52  1  0.035168  0.938191  0.196957  1
  O  O53  1  0.964832  0.061809  0.803043  1
  O  O54  1  0.541144  0.847753  0.100232  1
  O  O55  1  0.458856  0.152247  0.899768  1
  O  O56  1  0.532918  0.302946  0.033537  1
  O  O57  1  0.467082  0.697054  0.966463  1
  O  O58  1  0.324565  0.370371  0.538392  1
  O  O59  1  0.675435  0.629629  0.461608  1
  O  O60  1  0.098059  0.708431  0.359534  1
  O  O61  1  0.901941  0.291569  0.640466  1
  O  O62  1  0.094190  0.159707  0.339951  1
  O  O63  1  0.905810  0.840293  0.660049  1
