# generated using pymatgen
data_Sm3U(B4W)4
_symmetry_space_group_name_H-M   'P 1'
_cell_length_a   3.66471000
_cell_length_b   6.06447229
_cell_length_c   11.73620356
_cell_angle_alpha   90.03533582
_cell_angle_beta   90.00000000
_cell_angle_gamma   90.00000000
_symmetry_Int_Tables_number   1
_chemical_formula_structural   Sm3U(B4W)4
_chemical_formula_sum   'Sm3 U1 B16 W4'
_cell_volume   260.83158474
_cell_formula_units_Z   1
loop_
 _symmetry_equiv_pos_site_id
 _symmetry_equiv_pos_as_xyz
  1  'x, y, z'
loop_
 _atom_site_type_symbol
 _atom_site_label
 _atom_site_symmetry_multiplicity
 _atom_site_fract_x
 _atom_site_fract_y
 _atom_site_fract_z
 _atom_site_occupancy
  Sm  Sm0  1  0.000000  0.626373  0.650479  1
  Sm  Sm1  1  0.000000  0.373643  0.349963  1
  Sm  Sm2  1  0.000000  0.126476  0.849163  1
  U  U3  1  0.000000  0.874641  0.149630  1
  B  B4  1  0.500000  0.976142  0.691554  1
  B  B5  1  0.500000  0.019896  0.305361  1
  B  B6  1  0.500000  0.476611  0.809054  1
  B  B7  1  0.500000  0.530889  0.191742  1
  B  B8  1  0.500000  0.865099  0.970438  1
  B  B9  1  0.500000  0.132772  0.034451  1
  B  B10  1  0.500000  0.365170  0.531825  1
  B  B11  1  0.500000  0.635934  0.466964  1
  B  B12  1  0.500000  0.784707  0.814546  1
  B  B13  1  0.500000  0.205942  0.184731  1
  B  B14  1  0.500000  0.286114  0.685268  1
  B  B15  1  0.500000  0.715671  0.311846  1
  B  B16  1  0.500000  0.886509  0.545953  1
  B  B17  1  0.500000  0.112634  0.452818  1
  B  B18  1  0.500000  0.386976  0.954527  1
  B  B19  1  0.500000  0.616367  0.048738  1
  W  W20  1  0.000000  0.632090  0.917290  1
  W  W21  1  0.000000  0.368183  0.088025  1
  W  W22  1  0.000000  0.130161  0.583238  1
  W  W23  1  0.000000  0.870999  0.412396  1
