# generated using pymatgen
data_YTmCI
_symmetry_space_group_name_H-M   'P 1'
_cell_length_a   3.74885600
_cell_length_b   3.74885591
_cell_length_c   14.65579100
_cell_angle_alpha   90.00000000
_cell_angle_beta   90.00000000
_cell_angle_gamma   119.99998318
_symmetry_Int_Tables_number   1
_chemical_formula_structural   YTmCI
_chemical_formula_sum   'Y2 Tm2 C2 I2'
_cell_volume   178.37643296
_cell_formula_units_Z   2
loop_
 _symmetry_equiv_pos_site_id
 _symmetry_equiv_pos_as_xyz
  1  'x, y, z'
loop_
 _atom_site_type_symbol
 _atom_site_label
 _atom_site_symmetry_multiplicity
 _atom_site_fract_x
 _atom_site_fract_y
 _atom_site_fract_z
 _atom_site_occupancy
  Y  Y0  1  0.333333  0.666667  0.085546  1
  Y  Y1  1  0.666667  0.333333  0.585546  1
  Tm  Tm2  1  0.666667  0.333333  0.915981  1
  Tm  Tm3  1  0.333333  0.666667  0.415981  1
  C  C4  1  0.000000  0.000000  0.996706  1
  C  C5  1  0.000000  0.000000  0.496706  1
  I  I6  1  0.333333  0.666667  0.751767  1
  I  I7  1  0.666667  0.333333  0.251767  1
