# generated using pymatgen
data_CuIrPtS4
_symmetry_space_group_name_H-M   'P 1'
_cell_length_a   7.06462719
_cell_length_b   7.06462720
_cell_length_c   7.07177400
_cell_angle_alpha   59.96652987
_cell_angle_beta   59.96652981
_cell_angle_gamma   59.99606159
_symmetry_Int_Tables_number   1
_chemical_formula_structural   CuIrPtS4
_chemical_formula_sum   'Cu2 Ir2 Pt2 S8'
_cell_volume   249.43595921
_cell_formula_units_Z   2
loop_
 _symmetry_equiv_pos_site_id
 _symmetry_equiv_pos_as_xyz
  1  'x, y, z'
loop_
 _atom_site_type_symbol
 _atom_site_label
 _atom_site_symmetry_multiplicity
 _atom_site_fract_x
 _atom_site_fract_y
 _atom_site_fract_z
 _atom_site_occupancy
  Cu  Cu0  1  0.001409  0.001409  0.998591  1
  Cu  Cu1  1  0.248591  0.248591  0.251409  1
  Ir  Ir2  1  0.625000  0.625000  0.625000  1
  Ir  Ir3  1  0.625000  0.625000  0.125000  1
  Pt  Pt4  1  0.125000  0.625000  0.625000  1
  Pt  Pt5  1  0.625000  0.125000  0.625000  1
  S  S6  1  0.387373  0.387373  0.843274  1
  S  S7  1  0.387373  0.387373  0.381980  1
  S  S8  1  0.862627  0.862627  0.868020  1
  S  S9  1  0.862627  0.862627  0.406726  1
  S  S10  1  0.389868  0.842052  0.384040  1
  S  S11  1  0.842052  0.389868  0.384040  1
  S  S12  1  0.407948  0.860132  0.865960  1
  S  S13  1  0.860132  0.407948  0.865960  1
