# generated using pymatgen
data_Zn8Cu4Pt
_symmetry_space_group_name_H-M   'P 1'
_cell_length_a   7.70805672
_cell_length_b   7.70805687
_cell_length_c   7.80533478
_cell_angle_alpha   109.61409707
_cell_angle_beta   109.61410428
_cell_angle_gamma   108.67261972
_symmetry_Int_Tables_number   1
_chemical_formula_structural   Zn8Cu4Pt
_chemical_formula_sum   'Zn16 Cu8 Pt2'
_cell_volume   359.21025481
_cell_formula_units_Z   2
loop_
 _symmetry_equiv_pos_site_id
 _symmetry_equiv_pos_as_xyz
  1  'x, y, z'
loop_
 _atom_site_type_symbol
 _atom_site_label
 _atom_site_symmetry_multiplicity
 _atom_site_fract_x
 _atom_site_fract_y
 _atom_site_fract_z
 _atom_site_occupancy
  Zn  Zn0  1  0.224127  0.001574  0.000000  1
  Zn  Zn1  1  0.001574  0.224127  0.000000  1
  Zn  Zn2  1  0.002969  0.002969  0.222923  1
  Zn  Zn3  1  0.780046  0.780046  0.777077  1
  Zn  Zn4  1  0.350559  0.716491  0.000000  1
  Zn  Zn5  1  0.628961  0.283955  0.283161  1
  Zn  Zn6  1  0.345800  0.000794  0.716839  1
  Zn  Zn7  1  0.716491  0.350559  0.000000  1
  Zn  Zn8  1  0.000794  0.345800  0.716839  1
  Zn  Zn9  1  0.283955  0.628961  0.283161  1
  Zn  Zn10  1  0.280001  0.280001  0.628312  1
  Zn  Zn11  1  0.001219  0.722277  0.353201  1
  Zn  Zn12  1  0.722277  0.001219  0.353201  1
  Zn  Zn13  1  0.651689  0.651689  0.371688  1
  Zn  Zn14  1  0.369076  0.648018  0.646799  1
  Zn  Zn15  1  0.648018  0.369076  0.646799  1
  Cu  Cu16  1  0.001506  0.001506  0.656611  1
  Cu  Cu17  1  0.344895  0.344895  0.343389  1
  Cu  Cu18  1  0.995126  0.643645  0.638109  1
  Cu  Cu19  1  0.357017  0.005536  0.361891  1
  Cu  Cu20  1  0.352677  0.352677  0.000000  1
  Cu  Cu21  1  0.005536  0.357017  0.361891  1
  Cu  Cu22  1  0.643645  0.995126  0.638109  1
  Cu  Cu23  1  0.638037  0.638037  0.000000  1
  Pt  Pt24  1  0.653496  0.000513  0.000000  1
  Pt  Pt25  1  0.000513  0.653496  0.000000  1
