# generated using pymatgen
data_Hf18Cr2CoRe6Ni
_symmetry_space_group_name_H-M   'P 1'
_cell_length_a   8.57079400
_cell_length_b   8.57079458
_cell_length_c   8.35418500
_cell_angle_alpha   90.00000000
_cell_angle_beta   90.00000000
_cell_angle_gamma   119.99999778
_symmetry_Int_Tables_number   1
_chemical_formula_structural   Hf18Cr2CoRe6Ni
_chemical_formula_sum   'Hf18 Cr2 Co1 Re6 Ni1'
_cell_volume   531.46769680
_cell_formula_units_Z   1
loop_
 _symmetry_equiv_pos_site_id
 _symmetry_equiv_pos_as_xyz
  1  'x, y, z'
loop_
 _atom_site_type_symbol
 _atom_site_label
 _atom_site_symmetry_multiplicity
 _atom_site_fract_x
 _atom_site_fract_y
 _atom_site_fract_z
 _atom_site_occupancy
  Hf  Hf0  1  0.198398  0.801602  0.441956  1
  Hf  Hf1  1  0.198398  0.396795  0.441956  1
  Hf  Hf2  1  0.603205  0.801602  0.441956  1
  Hf  Hf3  1  0.803308  0.196692  0.556759  1
  Hf  Hf4  1  0.803308  0.606616  0.556759  1
  Hf  Hf5  1  0.393384  0.196692  0.556759  1
  Hf  Hf6  1  0.803308  0.196692  0.943241  1
  Hf  Hf7  1  0.803308  0.606616  0.943241  1
  Hf  Hf8  1  0.393384  0.196692  0.943241  1
  Hf  Hf9  1  0.198398  0.801602  0.058044  1
  Hf  Hf10  1  0.198398  0.396795  0.058044  1
  Hf  Hf11  1  0.603205  0.801602  0.058044  1
  Hf  Hf12  1  0.541373  0.458627  0.250000  1
  Hf  Hf13  1  0.541373  0.082747  0.250000  1
  Hf  Hf14  1  0.917253  0.458627  0.250000  1
  Hf  Hf15  1  0.458433  0.541567  0.750000  1
  Hf  Hf16  1  0.458433  0.916867  0.750000  1
  Hf  Hf17  1  0.083133  0.541567  0.750000  1
  Cr  Cr18  1  0.000000  0.000000  0.499957  1
  Cr  Cr19  1  0.000000  0.000000  0.000043  1
  Co  Co20  1  0.333333  0.666667  0.250000  1
  Re  Re21  1  0.891559  0.108441  0.250000  1
  Re  Re22  1  0.891559  0.783115  0.250000  1
  Re  Re23  1  0.216885  0.108441  0.250000  1
  Re  Re24  1  0.108568  0.891432  0.750000  1
  Re  Re25  1  0.108568  0.217138  0.750000  1
  Re  Re26  1  0.782862  0.891432  0.750000  1
  Ni  Ni27  1  0.666667  0.333333  0.750000  1
