# generated using pymatgen
data_Tb8Tm11Si16Mo
_symmetry_space_group_name_H-M   'P 1'
_cell_length_a   7.56930202
_cell_length_b   7.56930147
_cell_length_c   13.86125610
_cell_angle_alpha   89.70982078
_cell_angle_beta   90.29017774
_cell_angle_gamma   90.03610401
_symmetry_Int_Tables_number   1
_chemical_formula_structural   Tb8Tm11Si16Mo
_chemical_formula_sum   'Tb8 Tm11 Si16 Mo1'
_cell_volume   794.15084987
_cell_formula_units_Z   1
loop_
 _symmetry_equiv_pos_site_id
 _symmetry_equiv_pos_as_xyz
  1  'x, y, z'
loop_
 _atom_site_type_symbol
 _atom_site_label
 _atom_site_symmetry_multiplicity
 _atom_site_fract_x
 _atom_site_fract_y
 _atom_site_fract_z
 _atom_site_occupancy
  Tb  Tb0  1  0.000075  0.350593  0.205907  1
  Tb  Tb1  1  0.004329  0.645946  0.713442  1
  Tb  Tb2  1  0.144799  0.494561  0.459785  1
  Tb  Tb3  1  0.502559  0.860376  0.037820  1
  Tb  Tb4  1  0.860376  0.502559  0.962180  1
  Tb  Tb5  1  0.494561  0.144799  0.540215  1
  Tb  Tb6  1  0.350593  0.000075  0.794093  1
  Tb  Tb7  1  0.645946  0.004329  0.286558  1
  Tm  Tm8  1  0.819987  0.819987  0.500000  1
  Tm  Tm9  1  0.322452  0.680182  0.246257  1
  Tm  Tm10  1  0.680182  0.322452  0.753743  1
  Tm  Tm11  1  0.140760  0.006582  0.373206  1
  Tm  Tm12  1  0.861246  0.997673  0.880484  1
  Tm  Tm13  1  0.493227  0.643684  0.626706  1
  Tm  Tm14  1  0.352194  0.503363  0.876620  1
  Tm  Tm15  1  0.503363  0.352194  0.123380  1
  Tm  Tm16  1  0.643684  0.493227  0.373294  1
  Tm  Tm17  1  0.006582  0.140760  0.626794  1
  Tm  Tm18  1  0.997673  0.861246  0.119516  1
  Si  Si19  1  0.351785  0.294374  0.313349  1
  Si  Si20  1  0.647947  0.709490  0.816979  1
  Si  Si21  1  0.202395  0.850939  0.565228  1
  Si  Si22  1  0.152068  0.801599  0.936062  1
  Si  Si23  1  0.801599  0.152068  0.063938  1
  Si  Si24  1  0.850939  0.202395  0.434772  1
  Si  Si25  1  0.294374  0.351785  0.686651  1
  Si  Si26  1  0.709490  0.647947  0.183021  1
  Si  Si27  1  0.290116  0.060574  0.177782  1
  Si  Si28  1  0.702362  0.941420  0.690864  1
  Si  Si29  1  0.442426  0.794302  0.436074  1
  Si  Si30  1  0.204426  0.545016  0.061350  1
  Si  Si31  1  0.545016  0.204426  0.938650  1
  Si  Si32  1  0.794302  0.442426  0.563926  1
  Si  Si33  1  0.060574  0.290116  0.822218  1
  Si  Si34  1  0.941420  0.702362  0.309136  1
  Mo  Mo35  1  0.184173  0.184173  0.000000  1
