# generated using pymatgen
data_Y2Ho(InRh)3
_symmetry_space_group_name_H-M   'P 1'
_cell_length_a   7.54935797
_cell_length_b   7.57941221
_cell_length_c   3.90959400
_cell_angle_alpha   90.00000000
_cell_angle_beta   90.00000000
_cell_angle_gamma   120.13178426
_symmetry_Int_Tables_number   1
_chemical_formula_structural   Y2Ho(InRh)3
_chemical_formula_sum   'Y2 Ho1 In3 Rh3'
_cell_volume   193.47710674
_cell_formula_units_Z   1
loop_
 _symmetry_equiv_pos_site_id
 _symmetry_equiv_pos_as_xyz
  1  'x, y, z'
loop_
 _atom_site_type_symbol
 _atom_site_label
 _atom_site_symmetry_multiplicity
 _atom_site_fract_x
 _atom_site_fract_y
 _atom_site_fract_z
 _atom_site_occupancy
  Y  Y0  1  0.408265  0.407977  0.500000  1
  Y  Y1  1  0.591735  0.999712  0.500000  1
  Ho  Ho2  1  0.000000  0.592636  0.500000  1
  In  In3  1  0.000000  0.256765  0.000000  1
  In  In4  1  0.259058  0.001413  0.000000  1
  In  In5  1  0.740942  0.742355  0.000000  1
  Rh  Rh6  1  0.329068  0.665529  0.000000  1
  Rh  Rh7  1  0.000000  0.997153  0.500000  1
  Rh  Rh8  1  0.670932  0.336460  0.000000  1
