# generated using pymatgen
data_Tb11Pr5Cd4Ir3Pd
_symmetry_space_group_name_H-M   'P 1'
_cell_length_a   9.78864082
_cell_length_b   9.78591055
_cell_length_c   9.78591136
_cell_angle_alpha   60.17230554
_cell_angle_beta   60.14846974
_cell_angle_gamma   60.14846459
_symmetry_Int_Tables_number   1
_chemical_formula_structural   Tb11Pr5Cd4Ir3Pd
_chemical_formula_sum   'Tb11 Pr5 Cd4 Ir3 Pd1'
_cell_volume   665.19005846
_cell_formula_units_Z   1
loop_
 _symmetry_equiv_pos_site_id
 _symmetry_equiv_pos_as_xyz
  1  'x, y, z'
loop_
 _atom_site_type_symbol
 _atom_site_label
 _atom_site_symmetry_multiplicity
 _atom_site_fract_x
 _atom_site_fract_y
 _atom_site_fract_z
 _atom_site_occupancy
  Tb  Tb0  1  0.346764  0.346705  0.346705  1
  Tb  Tb1  1  0.352099  0.354159  0.951195  1
  Tb  Tb2  1  0.352099  0.951195  0.354159  1
  Tb  Tb3  1  0.949787  0.353133  0.353133  1
  Tb  Tb4  1  0.805685  0.188566  0.188566  1
  Tb  Tb5  1  0.185874  0.812362  0.812362  1
  Tb  Tb6  1  0.187754  0.805317  0.190375  1
  Tb  Tb7  1  0.812481  0.187091  0.811167  1
  Tb  Tb8  1  0.187754  0.190375  0.805317  1
  Tb  Tb9  1  0.812481  0.811167  0.187091  1
  Tb  Tb10  1  0.943459  0.557548  0.557548  1
  Pr  Pr11  1  0.560070  0.941192  0.941192  1
  Pr  Pr12  1  0.562859  0.939356  0.560247  1
  Pr  Pr13  1  0.940768  0.561081  0.937634  1
  Pr  Pr14  1  0.562859  0.560247  0.939356  1
  Pr  Pr15  1  0.940768  0.937634  0.561081  1
  Cd  Cd16  1  0.582440  0.579337  0.579337  1
  Cd  Cd17  1  0.578565  0.579140  0.262181  1
  Cd  Cd18  1  0.578565  0.262181  0.579140  1
  Cd  Cd19  1  0.259333  0.578885  0.578885  1
  Ir  Ir20  1  0.140067  0.144835  0.574238  1
  Ir  Ir21  1  0.140067  0.574238  0.144835  1
  Ir  Ir22  1  0.574352  0.141656  0.141656  1
  Pd  Pd23  1  0.143044  0.142596  0.142596  1
