# generated using pymatgen
data_Lu12Os3Pb2
_symmetry_space_group_name_H-M   'P 1'
_cell_length_a   8.34333881
_cell_length_b   8.34333993
_cell_length_c   8.34333928
_cell_angle_alpha   109.62440096
_cell_angle_beta   109.62440118
_cell_angle_gamma   109.16528766
_symmetry_Int_Tables_number   1
_chemical_formula_structural   Lu12Os3Pb2
_chemical_formula_sum   'Lu12 Os3 Pb2'
_cell_volume   447.08343194
_cell_formula_units_Z   1
loop_
 _symmetry_equiv_pos_site_id
 _symmetry_equiv_pos_as_xyz
  1  'x, y, z'
loop_
 _atom_site_type_symbol
 _atom_site_label
 _atom_site_symmetry_multiplicity
 _atom_site_fract_x
 _atom_site_fract_y
 _atom_site_fract_z
 _atom_site_occupancy
  Lu  Lu0  1  0.320179  0.320179  0.640386  1
  Lu  Lu1  1  0.679792  0.679792  0.359614  1
  Lu  Lu2  1  0.679792  0.320179  0.000000  1
  Lu  Lu3  1  0.320179  0.679792  0.000000  1
  Lu  Lu4  1  0.184103  0.423122  0.239019  1
  Lu  Lu5  1  0.815945  0.576898  0.760953  1
  Lu  Lu6  1  0.184103  0.945082  0.760981  1
  Lu  Lu7  1  0.945082  0.184103  0.760981  1
  Lu  Lu8  1  0.815945  0.054993  0.239047  1
  Lu  Lu9  1  0.054993  0.815945  0.239047  1
  Lu  Lu10  1  0.423122  0.184103  0.239019  1
  Lu  Lu11  1  0.576898  0.815945  0.760953  1
  Os  Os12  1  0.655851  0.655851  0.000000  1
  Os  Os13  1  0.344058  0.344058  0.000000  1
  Os  Os14  1  0.000049  0.000049  0.000000  1
  Pb  Pb15  1  0.999956  0.499956  0.500000  1
  Pb  Pb16  1  0.499956  0.999956  0.500000  1
