# generated using pymatgen
data_Ho2Al9NiIr2
_symmetry_space_group_name_H-M   'P 1'
_cell_length_a   7.50110410
_cell_length_b   7.50110465
_cell_length_c   9.36407667
_cell_angle_alpha   89.80184871
_cell_angle_beta   89.80184426
_cell_angle_gamma   119.19502493
_symmetry_Int_Tables_number   1
_chemical_formula_structural   Ho2Al9NiIr2
_chemical_formula_sum   'Ho4 Al18 Ni2 Ir4'
_cell_volume   459.94064280
_cell_formula_units_Z   2
loop_
 _symmetry_equiv_pos_site_id
 _symmetry_equiv_pos_as_xyz
  1  'x, y, z'
loop_
 _atom_site_type_symbol
 _atom_site_label
 _atom_site_symmetry_multiplicity
 _atom_site_fract_x
 _atom_site_fract_y
 _atom_site_fract_z
 _atom_site_occupancy
  Ho  Ho0  1  0.995212  0.675234  0.250560  1
  Ho  Ho1  1  0.004788  0.324766  0.749440  1
  Ho  Ho2  1  0.675234  0.995212  0.250560  1
  Ho  Ho3  1  0.324766  0.004788  0.749440  1
  Al  Al4  1  0.133575  0.133575  0.248590  1
  Al  Al5  1  0.866425  0.866425  0.751410  1
  Al  Al6  1  0.997594  0.338216  0.075014  1
  Al  Al7  1  0.002406  0.661784  0.924986  1
  Al  Al8  1  0.998446  0.662529  0.576165  1
  Al  Al9  1  0.337471  0.001554  0.423835  1
  Al  Al10  1  0.001554  0.337471  0.423835  1
  Al  Al11  1  0.662529  0.998446  0.576165  1
  Al  Al12  1  0.661784  0.002406  0.924986  1
  Al  Al13  1  0.338216  0.997594  0.075014  1
  Al  Al14  1  0.333410  0.333410  0.549970  1
  Al  Al15  1  0.666590  0.666590  0.450030  1
  Al  Al16  1  0.665124  0.665124  0.050746  1
  Al  Al17  1  0.334876  0.334876  0.949254  1
  Al  Al18  1  0.341798  0.553883  0.245792  1
  Al  Al19  1  0.658202  0.446117  0.754208  1
  Al  Al20  1  0.553883  0.341798  0.245792  1
  Al  Al21  1  0.446117  0.658202  0.754208  1
  Ni  Ni22  1  0.670625  0.329375  0.000000  1
  Ni  Ni23  1  0.329375  0.670625  0.000000  1
  Ir  Ir24  1  0.327821  0.672179  0.500000  1
  Ir  Ir25  1  0.672179  0.327821  0.500000  1
  Ir  Ir26  1  0.000000  0.000000  0.000000  1
  Ir  Ir27  1  0.000000  0.000000  0.500000  1
