# generated using pymatgen
data_Hf16Co4Pd3Pt
_symmetry_space_group_name_H-M   'P 1'
_cell_length_a   8.62660578
_cell_length_b   8.62660386
_cell_length_c   8.62657368
_cell_angle_alpha   60.14733994
_cell_angle_beta   60.14734718
_cell_angle_gamma   60.14741355
_symmetry_Int_Tables_number   1
_chemical_formula_structural   Hf16Co4Pd3Pt
_chemical_formula_sum   'Hf16 Co4 Pd3 Pt1'
_cell_volume   455.46019904
_cell_formula_units_Z   1
loop_
 _symmetry_equiv_pos_site_id
 _symmetry_equiv_pos_as_xyz
  1  'x, y, z'
loop_
 _atom_site_type_symbol
 _atom_site_label
 _atom_site_symmetry_multiplicity
 _atom_site_fract_x
 _atom_site_fract_y
 _atom_site_fract_z
 _atom_site_occupancy
  Hf  Hf0  1  0.068680  0.643536  0.643568  1
  Hf  Hf1  1  0.643535  0.068689  0.643563  1
  Hf  Hf2  1  0.643558  0.643553  0.068659  1
  Hf  Hf3  1  0.643651  0.643647  0.643676  1
  Hf  Hf4  1  0.811048  0.811047  0.188661  1
  Hf  Hf5  1  0.189931  0.189947  0.810344  1
  Hf  Hf6  1  0.811051  0.188682  0.811053  1
  Hf  Hf7  1  0.189958  0.810339  0.189927  1
  Hf  Hf8  1  0.188674  0.811050  0.811052  1
  Hf  Hf9  1  0.810341  0.189965  0.189917  1
  Hf  Hf10  1  0.438199  0.438192  0.062584  1
  Hf  Hf11  1  0.062594  0.062593  0.437524  1
  Hf  Hf12  1  0.438184  0.062590  0.438194  1
  Hf  Hf13  1  0.062587  0.437522  0.062587  1
  Hf  Hf14  1  0.062587  0.438184  0.438201  1
  Hf  Hf15  1  0.437523  0.062589  0.062591  1
  Co  Co16  1  0.433228  0.855640  0.855643  1
  Co  Co17  1  0.855644  0.433217  0.855645  1
  Co  Co18  1  0.855644  0.855640  0.433223  1
  Co  Co19  1  0.855768  0.855767  0.855769  1
  Pd  Pd20  1  0.766998  0.411327  0.411327  1
  Pd  Pd21  1  0.411328  0.766993  0.411328  1
  Pd  Pd22  1  0.411327  0.411326  0.766999  1
  Pt  Pt23  1  0.407968  0.407968  0.407969  1
