# generated using pymatgen
data_Lu13Sc7(Bi3Te)3
_symmetry_space_group_name_H-M   'P 1'
_cell_length_a   7.90396686
_cell_length_b   9.18726106
_cell_length_c   11.63075013
_cell_angle_alpha   89.92524938
_cell_angle_beta   90.08411154
_cell_angle_gamma   89.92252055
_symmetry_Int_Tables_number   1
_chemical_formula_structural   Lu13Sc7(Bi3Te)3
_chemical_formula_sum   'Lu13 Sc7 Bi9 Te3'
_cell_volume   844.57390355
_cell_formula_units_Z   1
loop_
 _symmetry_equiv_pos_site_id
 _symmetry_equiv_pos_as_xyz
  1  'x, y, z'
loop_
 _atom_site_type_symbol
 _atom_site_label
 _atom_site_symmetry_multiplicity
 _atom_site_fract_x
 _atom_site_fract_y
 _atom_site_fract_z
 _atom_site_occupancy
  Lu  Lu0  1  0.355979  0.249470  0.283970  1
  Lu  Lu1  1  0.644264  0.752288  0.716135  1
  Lu  Lu2  1  0.146482  0.750430  0.782736  1
  Lu  Lu3  1  0.854118  0.251070  0.218268  1
  Lu  Lu4  1  0.180736  0.249632  0.781111  1
  Lu  Lu5  1  0.824111  0.750770  0.216449  1
  Lu  Lu6  1  0.324660  0.752112  0.284401  1
  Lu  Lu7  1  0.676056  0.248733  0.715388  1
  Lu  Lu8  1  0.810891  0.568609  0.942169  1
  Lu  Lu9  1  0.688420  0.065370  0.442123  1
  Lu  Lu10  1  0.189596  0.436550  0.058418  1
  Lu  Lu11  1  0.687437  0.433063  0.442788  1
  Lu  Lu12  1  0.310245  0.565613  0.558022  1
  Sc  Sc13  1  0.018311  0.249415  0.510380  1
  Sc  Sc14  1  0.981964  0.751872  0.489548  1
  Sc  Sc15  1  0.479641  0.752193  0.010471  1
  Sc  Sc16  1  0.516609  0.248390  0.990631  1
  Sc  Sc17  1  0.191783  0.066440  0.058475  1
  Sc  Sc18  1  0.809901  0.928488  0.942035  1
  Sc  Sc19  1  0.310536  0.931502  0.557097  1
  Bi  Bi20  1  0.897759  0.241817  0.957538  1
  Bi  Bi21  1  0.070856  0.003950  0.328602  1
  Bi  Bi22  1  0.933238  0.995806  0.670999  1
  Bi  Bi23  1  0.431292  0.996292  0.829847  1
  Bi  Bi24  1  0.930367  0.503910  0.670402  1
  Bi  Bi25  1  0.568694  0.002899  0.169249  1
  Bi  Bi26  1  0.069278  0.498113  0.329172  1
  Bi  Bi27  1  0.568486  0.498456  0.171124  1
  Bi  Bi28  1  0.431834  0.503387  0.829628  1
  Te  Te29  1  0.392167  0.243908  0.542878  1
  Te  Te30  1  0.602523  0.751127  0.459347  1
  Te  Te31  1  0.101771  0.758324  0.040603  1
