# generated using pymatgen
data_Er2Lu2BBr6
_symmetry_space_group_name_H-M   'P 1'
_cell_length_a   3.89221300
_cell_length_b   12.98393900
_cell_length_c   13.45563200
_cell_angle_alpha   90.00000000
_cell_angle_beta   90.00000000
_cell_angle_gamma   90.00000000
_symmetry_Int_Tables_number   1
_chemical_formula_structural   Er2Lu2BBr6
_chemical_formula_sum   'Er4 Lu4 B2 Br12'
_cell_volume   679.99726564
_cell_formula_units_Z   2
loop_
 _symmetry_equiv_pos_site_id
 _symmetry_equiv_pos_as_xyz
  1  'x, y, z'
loop_
 _atom_site_type_symbol
 _atom_site_label
 _atom_site_symmetry_multiplicity
 _atom_site_fract_x
 _atom_site_fract_y
 _atom_site_fract_z
 _atom_site_occupancy
  Er  Er0  1  0.500000  0.122202  0.856392  1
  Er  Er1  1  0.500000  0.877798  0.143608  1
  Er  Er2  1  0.500000  0.622202  0.643608  1
  Er  Er3  1  0.500000  0.377798  0.356392  1
  Lu  Lu4  1  0.000000  0.099518  0.079010  1
  Lu  Lu5  1  0.000000  0.900482  0.920990  1
  Lu  Lu6  1  0.000000  0.599518  0.420990  1
  Lu  Lu7  1  0.000000  0.400482  0.579010  1
  B  B8  1  0.500000  0.000000  0.000000  1
  B  B9  1  0.500000  0.500000  0.500000  1
  Br  Br10  1  0.500000  0.269247  0.681043  1
  Br  Br11  1  0.500000  0.730753  0.318957  1
  Br  Br12  1  0.500000  0.769247  0.818957  1
  Br  Br13  1  0.500000  0.230753  0.181043  1
  Br  Br14  1  0.000000  0.261407  0.932000  1
  Br  Br15  1  0.000000  0.738593  0.068000  1
  Br  Br16  1  0.000000  0.481539  0.239126  1
  Br  Br17  1  0.000000  0.518461  0.760874  1
  Br  Br18  1  0.000000  0.981539  0.260874  1
  Br  Br19  1  0.000000  0.018461  0.739126  1
  Br  Br20  1  0.000000  0.238593  0.432000  1
  Br  Br21  1  0.000000  0.761407  0.568000  1
