# generated using pymatgen
data_TbCuRuO5
_symmetry_space_group_name_H-M   'P 1'
_cell_length_a   5.57531300
_cell_length_b   7.71244700
_cell_length_c   8.68314400
_cell_angle_alpha   90.00000000
_cell_angle_beta   90.00000000
_cell_angle_gamma   90.00000000
_symmetry_Int_Tables_number   1
_chemical_formula_structural   TbCuRuO5
_chemical_formula_sum   'Tb4 Cu4 Ru4 O20'
_cell_volume   373.36916608
_cell_formula_units_Z   4
loop_
 _symmetry_equiv_pos_site_id
 _symmetry_equiv_pos_as_xyz
  1  'x, y, z'
loop_
 _atom_site_type_symbol
 _atom_site_label
 _atom_site_symmetry_multiplicity
 _atom_site_fract_x
 _atom_site_fract_y
 _atom_site_fract_z
 _atom_site_occupancy
  Tb  Tb0  1  0.000000  0.356645  0.668958  1
  Tb  Tb1  1  0.000000  0.643355  0.331042  1
  Tb  Tb2  1  0.000000  0.856645  0.831042  1
  Tb  Tb3  1  0.000000  0.143355  0.168958  1
  Cu  Cu4  1  0.500000  0.067274  0.851510  1
  Cu  Cu5  1  0.500000  0.932726  0.148490  1
  Cu  Cu6  1  0.500000  0.567274  0.648490  1
  Cu  Cu7  1  0.500000  0.432726  0.351510  1
  Ru  Ru8  1  0.281564  0.500000  0.000000  1
  Ru  Ru9  1  0.718436  0.000000  0.500000  1
  Ru  Ru10  1  0.718436  0.500000  0.000000  1
  Ru  Ru11  1  0.281564  0.000000  0.500000  1
  O  O12  1  0.246028  0.902417  0.289551  1
  O  O13  1  0.246028  0.097583  0.710449  1
  O  O14  1  0.753972  0.402417  0.210449  1
  O  O15  1  0.753972  0.597583  0.789551  1
  O  O16  1  0.753972  0.097583  0.710449  1
  O  O17  1  0.753972  0.902417  0.289551  1
  O  O18  1  0.246028  0.597583  0.789551  1
  O  O19  1  0.246028  0.402417  0.210449  1
  O  O20  1  0.500000  0.326538  0.924699  1
  O  O21  1  0.500000  0.673462  0.075301  1
  O  O22  1  0.500000  0.826538  0.575301  1
  O  O23  1  0.500000  0.173462  0.424699  1
  O  O24  1  0.260109  0.000000  0.000000  1
  O  O25  1  0.739891  0.500000  0.500000  1
  O  O26  1  0.739891  0.000000  0.000000  1
  O  O27  1  0.260109  0.500000  0.500000  1
  O  O28  1  0.000000  0.160314  0.442808  1
  O  O29  1  0.000000  0.839686  0.557192  1
  O  O30  1  0.000000  0.660314  0.057192  1
  O  O31  1  0.000000  0.339686  0.942808  1
