# generated using pymatgen
data_Er2Th12Ir5Os
_symmetry_space_group_name_H-M   'P 1'
_cell_length_a   9.99954500
_cell_length_b   10.01351129
_cell_length_c   6.34026307
_cell_angle_alpha   90.24330895
_cell_angle_beta   90.00000000
_cell_angle_gamma   119.95386964
_symmetry_Int_Tables_number   1
_chemical_formula_structural   Er2Th12Ir5Os
_chemical_formula_sum   'Er2 Th12 Ir5 Os1'
_cell_volume   550.04853704
_cell_formula_units_Z   1
loop_
 _symmetry_equiv_pos_site_id
 _symmetry_equiv_pos_as_xyz
  1  'x, y, z'
loop_
 _atom_site_type_symbol
 _atom_site_label
 _atom_site_symmetry_multiplicity
 _atom_site_fract_x
 _atom_site_fract_y
 _atom_site_fract_z
 _atom_site_occupancy
  Er  Er0  1  0.459780  0.540015  0.297214  1
  Er  Er1  1  0.080234  0.540015  0.297214  1
  Th  Th2  1  0.916895  0.459860  0.800144  1
  Th  Th3  1  0.255401  0.130309  0.500407  1
  Th  Th4  1  0.541552  0.083104  0.793438  1
  Th  Th5  1  0.745444  0.870757  0.002351  1
  Th  Th6  1  0.666762  0.333524  0.301672  1
  Th  Th7  1  0.125313  0.870757  0.002351  1
  Th  Th8  1  0.456116  0.912235  0.290895  1
  Th  Th9  1  0.542966  0.459860  0.800144  1
  Th  Th10  1  0.874908  0.130309  0.500407  1
  Th  Th11  1  0.128932  0.257864  0.001752  1
  Th  Th12  1  0.870657  0.741314  0.497810  1
  Th  Th13  1  0.333098  0.666198  0.782319  1
  Ir  Ir14  1  0.812808  0.187881  0.054545  1
  Ir  Ir15  1  0.625525  0.815131  0.550127  1
  Ir  Ir16  1  0.375073  0.187881  0.054545  1
  Ir  Ir17  1  0.187137  0.374276  0.553624  1
  Ir  Ir18  1  0.189606  0.815131  0.550127  1
  Os  Os19  1  0.811792  0.623584  0.052919  1
