# generated using pymatgen
data_Tb8Ti2VSi16W9
_symmetry_space_group_name_H-M   'P 1'
_cell_length_a   6.90459174
_cell_length_b   6.90390944
_cell_length_c   12.84839286
_cell_angle_alpha   89.91409532
_cell_angle_beta   89.96532354
_cell_angle_gamma   89.83484303
_symmetry_Int_Tables_number   1
_chemical_formula_structural   Tb8Ti2VSi16W9
_chemical_formula_sum   'Tb8 Ti2 V1 Si16 W9'
_cell_volume   612.46253380
_cell_formula_units_Z   1
loop_
 _symmetry_equiv_pos_site_id
 _symmetry_equiv_pos_as_xyz
  1  'x, y, z'
loop_
 _atom_site_type_symbol
 _atom_site_label
 _atom_site_symmetry_multiplicity
 _atom_site_fract_x
 _atom_site_fract_y
 _atom_site_fract_z
 _atom_site_occupancy
  Tb  Tb0  1  0.337413  0.000796  0.467824  1
  Tb  Tb1  1  0.497338  0.836731  0.719173  1
  Tb  Tb2  1  0.498572  0.162457  0.217649  1
  Tb  Tb3  1  0.837575  0.497906  0.281231  1
  Tb  Tb4  1  0.162807  0.499174  0.782263  1
  Tb  Tb5  1  0.661256  0.998733  0.969099  1
  Tb  Tb6  1  0.002547  0.337535  0.530572  1
  Tb  Tb7  1  0.000414  0.661871  0.032222  1
  Ti  Ti8  1  0.832290  0.169944  0.751692  1
  Ti  Ti9  1  0.668658  0.669521  0.498550  1
  V  V10  1  0.169557  0.833606  0.247663  1
  Si  Si11  1  0.201031  0.127854  0.683849  1
  Si  Si12  1  0.374096  0.697563  0.934740  1
  Si  Si13  1  0.627109  0.298258  0.434240  1
  Si  Si14  1  0.698348  0.375032  0.065954  1
  Si  Si15  1  0.298655  0.628118  0.565679  1
  Si  Si16  1  0.800164  0.873710  0.185443  1
  Si  Si17  1  0.126919  0.197316  0.315218  1
  Si  Si18  1  0.873180  0.796993  0.815358  1
  Si  Si19  1  0.288339  0.962777  0.063305  1
  Si  Si20  1  0.535321  0.790860  0.312914  1
  Si  Si21  1  0.459846  0.209493  0.814499  1
  Si  Si22  1  0.791088  0.538188  0.685803  1
  Si  Si23  1  0.209982  0.464267  0.187088  1
  Si  Si24  1  0.709294  0.039327  0.563696  1
  Si  Si25  1  0.964480  0.289177  0.938062  1
  Si  Si26  1  0.041936  0.710226  0.434335  1
  W  W27  1  0.331489  0.332268  0.001324  1
  W  W28  1  0.158781  0.002433  0.873906  1
  W  W29  1  0.495219  0.667120  0.126008  1
  W  W30  1  0.504846  0.338895  0.624564  1
  W  W31  1  0.665876  0.494083  0.874919  1
  W  W32  1  0.339604  0.504372  0.375056  1
  W  W33  1  0.837800  0.993187  0.374578  1
  W  W34  1  0.003823  0.161071  0.126736  1
  W  W35  1  0.994347  0.839140  0.624789  1
