# generated using pymatgen
data_PrEr(PSe)2
_symmetry_space_group_name_H-M   'P 1'
_cell_length_a   5.56861500
_cell_length_b   5.66050700
_cell_length_c   17.40181500
_cell_angle_alpha   90.00000000
_cell_angle_beta   90.00000000
_cell_angle_gamma   90.00000000
_symmetry_Int_Tables_number   1
_chemical_formula_structural   PrEr(PSe)2
_chemical_formula_sum   'Pr4 Er4 P8 Se8'
_cell_volume   548.52581582
_cell_formula_units_Z   4
loop_
 _symmetry_equiv_pos_site_id
 _symmetry_equiv_pos_as_xyz
  1  'x, y, z'
loop_
 _atom_site_type_symbol
 _atom_site_label
 _atom_site_symmetry_multiplicity
 _atom_site_fract_x
 _atom_site_fract_y
 _atom_site_fract_z
 _atom_site_occupancy
  Pr  Pr0  1  0.250000  0.484844  0.370437  1
  Pr  Pr1  1  0.250000  0.984844  0.129563  1
  Pr  Pr2  1  0.750000  0.515156  0.629563  1
  Pr  Pr3  1  0.750000  0.015156  0.870437  1
  Er  Er4  1  0.250000  0.011479  0.642277  1
  Er  Er5  1  0.250000  0.511479  0.857723  1
  Er  Er6  1  0.750000  0.988521  0.357723  1
  Er  Er7  1  0.750000  0.488521  0.142277  1
  P  P8  1  0.045471  0.308458  0.995714  1
  P  P9  1  0.454529  0.808458  0.504286  1
  P  P10  1  0.545471  0.691542  0.004286  1
  P  P11  1  0.954529  0.191542  0.495714  1
  P  P12  1  0.954529  0.691542  0.004286  1
  P  P13  1  0.545471  0.191542  0.495714  1
  P  P14  1  0.454529  0.308458  0.995714  1
  P  P15  1  0.045471  0.808458  0.504286  1
  Se  Se16  1  0.250000  0.485319  0.188004  1
  Se  Se17  1  0.250000  0.985319  0.311996  1
  Se  Se18  1  0.750000  0.514681  0.811996  1
  Se  Se19  1  0.750000  0.014681  0.688004  1
  Se  Se20  1  0.250000  0.008525  0.813661  1
  Se  Se21  1  0.250000  0.508525  0.686339  1
  Se  Se22  1  0.750000  0.991475  0.186339  1
  Se  Se23  1  0.750000  0.491475  0.313661  1
