# generated using pymatgen
data_Nb10Al4As2C
_symmetry_space_group_name_H-M   'P 1'
_cell_length_a   7.76978115
_cell_length_b   7.77962370
_cell_length_c   5.33676608
_cell_angle_alpha   89.87717866
_cell_angle_beta   90.06149882
_cell_angle_gamma   120.04192408
_symmetry_Int_Tables_number   1
_chemical_formula_structural   Nb10Al4As2C
_chemical_formula_sum   'Nb10 Al4 As2 C1'
_cell_volume   279.24895267
_cell_formula_units_Z   1
loop_
 _symmetry_equiv_pos_site_id
 _symmetry_equiv_pos_as_xyz
  1  'x, y, z'
loop_
 _atom_site_type_symbol
 _atom_site_label
 _atom_site_symmetry_multiplicity
 _atom_site_fract_x
 _atom_site_fract_y
 _atom_site_fract_z
 _atom_site_occupancy
  Nb  Nb0  1  0.000000  0.762957  0.258936  1
  Nb  Nb1  1  0.236122  0.237244  0.259194  1
  Nb  Nb2  1  0.763878  0.001122  0.259194  1
  Nb  Nb3  1  0.000000  0.234130  0.742418  1
  Nb  Nb4  1  0.763882  0.765942  0.741734  1
  Nb  Nb5  1  0.236118  0.002060  0.741734  1
  Nb  Nb6  1  0.337898  0.667317  0.999851  1
  Nb  Nb7  1  0.662102  0.329418  0.999851  1
  Nb  Nb8  1  0.663585  0.330604  0.497046  1
  Nb  Nb9  1  0.336415  0.667019  0.497046  1
  Al  Al10  1  0.000000  0.404570  0.242591  1
  Al  Al11  1  0.603266  0.600881  0.243937  1
  Al  Al12  1  0.396734  0.997615  0.243937  1
  Al  Al13  1  0.000000  0.595964  0.756941  1
  As  As14  1  0.401973  0.402862  0.758780  1
  As  As15  1  0.598027  0.000888  0.758780  1
  C  C16  1  0.000000  0.999409  0.498029  1
