# generated using pymatgen
data_Er10Lu2In2Fe2Ru
_symmetry_space_group_name_H-M   'P 1'
_cell_length_a   8.28453093
_cell_length_b   8.27519395
_cell_length_c   8.27516802
_cell_angle_alpha   108.59494595
_cell_angle_beta   108.56731254
_cell_angle_gamma   111.21921136
_symmetry_Int_Tables_number   1
_chemical_formula_structural   Er10Lu2In2Fe2Ru
_chemical_formula_sum   'Er10 Lu2 In2 Fe2 Ru1'
_cell_volume   436.65807834
_cell_formula_units_Z   1
loop_
 _symmetry_equiv_pos_site_id
 _symmetry_equiv_pos_as_xyz
  1  'x, y, z'
loop_
 _atom_site_type_symbol
 _atom_site_label
 _atom_site_symmetry_multiplicity
 _atom_site_fract_x
 _atom_site_fract_y
 _atom_site_fract_z
 _atom_site_occupancy
  Er  Er0  1  0.308217  0.308585  0.615417  1
  Er  Er1  1  0.691783  0.691415  0.384583  1
  Er  Er2  1  0.691787  0.307197  0.000368  1
  Er  Er3  1  0.308213  0.692803  0.999632  1
  Er  Er4  1  0.193856  0.431129  0.238705  1
  Er  Er5  1  0.806144  0.568871  0.761295  1
  Er  Er6  1  0.193859  0.955155  0.762733  1
  Er  Er7  1  0.953995  0.192208  0.761790  1
  Er  Er8  1  0.806141  0.044845  0.237267  1
  Er  Er9  1  0.046005  0.807792  0.238210  1
  Lu  Lu10  1  0.429894  0.192260  0.237630  1
  Lu  Lu11  1  0.570106  0.807740  0.762370  1
  In  In12  1  0.000000  0.500000  0.500000  1
  In  In13  1  0.500000  0.000000  0.500000  1
  Fe  Fe14  1  0.385703  0.385377  0.000330  1
  Fe  Fe15  1  0.614297  0.614623  0.999670  1
  Ru  Ru16  1  0.000000  0.000000  0.000000  1
