# generated using pymatgen
data_Ba3TmTl(ReO6)2
_symmetry_space_group_name_H-M   'P 1'
_cell_length_a   10.10161701
_cell_length_b   10.10161727
_cell_length_c   10.10161816
_cell_angle_alpha   33.72558264
_cell_angle_beta   33.72558182
_cell_angle_gamma   33.72558256
_symmetry_Int_Tables_number   1
_chemical_formula_structural   Ba3TmTl(ReO6)2
_chemical_formula_sum   'Ba3 Tm1 Tl1 Re2 O12'
_cell_volume   283.11301350
_cell_formula_units_Z   1
loop_
 _symmetry_equiv_pos_site_id
 _symmetry_equiv_pos_as_xyz
  1  'x, y, z'
loop_
 _atom_site_type_symbol
 _atom_site_label
 _atom_site_symmetry_multiplicity
 _atom_site_fract_x
 _atom_site_fract_y
 _atom_site_fract_z
 _atom_site_occupancy
  Ba  Ba0  1  0.291437  0.291437  0.291437  1
  Ba  Ba1  1  0.865814  0.865814  0.865814  1
  Ba  Ba2  1  0.131088  0.131088  0.131088  1
  Tm  Tm3  1  0.002003  0.002003  0.002003  1
  Tl  Tl4  1  0.711940  0.711940  0.711940  1
  Re  Re5  1  0.579293  0.579293  0.579293  1
  Re  Re6  1  0.420962  0.420962  0.420962  1
  O  O7  1  0.224496  0.686197  0.224496  1
  O  O8  1  0.224496  0.224496  0.686197  1
  O  O9  1  0.686197  0.224496  0.224496  1
  O  O10  1  0.777045  0.306930  0.777045  1
  O  O11  1  0.777045  0.777045  0.306930  1
  O  O12  1  0.306930  0.777045  0.777045  1
  O  O13  1  0.389939  0.856071  0.389939  1
  O  O14  1  0.389939  0.389939  0.856071  1
  O  O15  1  0.856071  0.389939  0.389939  1
  O  O16  1  0.609479  0.146346  0.609479  1
  O  O17  1  0.609479  0.609479  0.146346  1
  O  O18  1  0.146346  0.609479  0.609479  1
