# generated using pymatgen
data_Nd4PaOs2
_symmetry_space_group_name_H-M   'P 1'
_cell_length_a   6.58984455
_cell_length_b   7.16768601
_cell_length_c   9.03100923
_cell_angle_alpha   98.39951608
_cell_angle_beta   111.39807316
_cell_angle_gamma   89.99999830
_symmetry_Int_Tables_number   1
_chemical_formula_structural   Nd4PaOs2
_chemical_formula_sum   'Nd8 Pa2 Os4'
_cell_volume   392.24739541
_cell_formula_units_Z   2
loop_
 _symmetry_equiv_pos_site_id
 _symmetry_equiv_pos_as_xyz
  1  'x, y, z'
loop_
 _atom_site_type_symbol
 _atom_site_label
 _atom_site_symmetry_multiplicity
 _atom_site_fract_x
 _atom_site_fract_y
 _atom_site_fract_z
 _atom_site_occupancy
  Nd  Nd0  1  0.971495  0.923378  0.181019  1
  Nd  Nd1  1  0.790476  0.576622  0.818981  1
  Nd  Nd2  1  0.028505  0.076622  0.818981  1
  Nd  Nd3  1  0.209524  0.423378  0.181019  1
  Nd  Nd4  1  0.648805  0.814162  0.433406  1
  Nd  Nd5  1  0.215399  0.685838  0.566594  1
  Nd  Nd6  1  0.351195  0.185838  0.566594  1
  Nd  Nd7  1  0.784601  0.314162  0.433406  1
  Pa  Pa8  1  0.422935  0.750000  0.000000  1
  Pa  Pa9  1  0.577065  0.250000  0.000000  1
  Os  Os10  1  0.773488  0.556290  0.191041  1
  Os  Os11  1  0.582447  0.943710  0.808959  1
  Os  Os12  1  0.226512  0.443710  0.808959  1
  Os  Os13  1  0.417553  0.056290  0.191041  1
