# generated using pymatgen
data_PrSnO
_symmetry_space_group_name_H-M   'P 1'
_cell_length_a   4.13071252
_cell_length_b   4.13071274
_cell_length_c   8.16739609
_cell_angle_alpha   89.80622027
_cell_angle_beta   89.80622291
_cell_angle_gamma   90.04043694
_symmetry_Int_Tables_number   1
_chemical_formula_structural   PrSnO
_chemical_formula_sum   'Pr2 Sn2 O2'
_cell_volume   139.35690834
_cell_formula_units_Z   2
loop_
 _symmetry_equiv_pos_site_id
 _symmetry_equiv_pos_as_xyz
  1  'x, y, z'
loop_
 _atom_site_type_symbol
 _atom_site_label
 _atom_site_symmetry_multiplicity
 _atom_site_fract_x
 _atom_site_fract_y
 _atom_site_fract_z
 _atom_site_occupancy
  Pr  Pr0  1  0.748270  0.748270  0.641773  1
  Pr  Pr1  1  0.251730  0.251730  0.358227  1
  Sn  Sn2  1  0.751082  0.751082  0.065121  1
  Sn  Sn3  1  0.248918  0.248918  0.934879  1
  O  O4  1  0.750404  0.249596  0.500000  1
  O  O5  1  0.249596  0.750404  0.500000  1
