# generated using pymatgen
data_TbEr11TcRu3
_symmetry_space_group_name_H-M   'P 1'
_cell_length_a   6.24677229
_cell_length_b   7.30095989
_cell_length_c   9.05582900
_cell_angle_alpha   90.00000000
_cell_angle_beta   90.00000000
_cell_angle_gamma   90.07657895
_symmetry_Int_Tables_number   1
_chemical_formula_structural   TbEr11TcRu3
_chemical_formula_sum   'Tb1 Er11 Tc1 Ru3'
_cell_volume   413.01275403
_cell_formula_units_Z   1
loop_
 _symmetry_equiv_pos_site_id
 _symmetry_equiv_pos_as_xyz
  1  'x, y, z'
loop_
 _atom_site_type_symbol
 _atom_site_label
 _atom_site_symmetry_multiplicity
 _atom_site_fract_x
 _atom_site_fract_y
 _atom_site_fract_z
 _atom_site_occupancy
  Tb  Tb0  1  0.626418  0.041928  0.250000  1
  Er  Er1  1  0.332264  0.675879  0.063976  1
  Er  Er2  1  0.166625  0.176767  0.436665  1
  Er  Er3  1  0.668567  0.324173  0.564319  1
  Er  Er4  1  0.834901  0.823553  0.936720  1
  Er  Er5  1  0.668567  0.324173  0.935681  1
  Er  Er6  1  0.834901  0.823553  0.563280  1
  Er  Er7  1  0.332264  0.675879  0.436024  1
  Er  Er8  1  0.166625  0.176767  0.063335  1
  Er  Er9  1  0.869086  0.540142  0.250000  1
  Er  Er10  1  0.134749  0.456837  0.750000  1
  Er  Er11  1  0.366204  0.957532  0.750000  1
  Tc  Tc12  1  0.038015  0.884819  0.250000  1
  Ru  Ru13  1  0.461192  0.385506  0.250000  1
  Ru  Ru14  1  0.960945  0.117069  0.750000  1
  Ru  Ru15  1  0.538678  0.615423  0.750000  1
