# generated using pymatgen
data_Sr2InSn3Pt4
_symmetry_space_group_name_H-M   'P 1'
_cell_length_a   4.82726863
_cell_length_b   4.69837000
_cell_length_c   10.52769732
_cell_angle_alpha   90.00000000
_cell_angle_beta   92.60462417
_cell_angle_gamma   90.00000000
_symmetry_Int_Tables_number   1
_chemical_formula_structural   Sr2InSn3Pt4
_chemical_formula_sum   'Sr2 In1 Sn3 Pt4'
_cell_volume   238.52459842
_cell_formula_units_Z   1
loop_
 _symmetry_equiv_pos_site_id
 _symmetry_equiv_pos_as_xyz
  1  'x, y, z'
loop_
 _atom_site_type_symbol
 _atom_site_label
 _atom_site_symmetry_multiplicity
 _atom_site_fract_x
 _atom_site_fract_y
 _atom_site_fract_z
 _atom_site_occupancy
  Sr  Sr0  1  0.766480  0.250001  0.254898  1
  Sr  Sr1  1  0.233480  0.750000  0.745101  1
  In  In2  1  0.754342  0.750000  0.002382  1
  Sn  Sn3  1  0.302933  0.750000  0.384257  1
  Sn  Sn4  1  0.696809  0.250001  0.616297  1
  Sn  Sn5  1  0.245698  0.250001  0.997908  1
  Pt  Pt6  1  0.267279  0.750000  0.129288  1
  Pt  Pt7  1  0.184938  0.250001  0.497005  1
  Pt  Pt8  1  0.815069  0.750000  0.502719  1
  Pt  Pt9  1  0.732970  0.250001  0.870145  1
