# generated using pymatgen
data_Li3Ce4MgPt4
_symmetry_space_group_name_H-M   'P 1'
_cell_length_a   4.05532300
_cell_length_b   7.26458169
_cell_length_c   8.66175768
_cell_angle_alpha   90.10235363
_cell_angle_beta   90.00000000
_cell_angle_gamma   90.00000000
_symmetry_Int_Tables_number   1
_chemical_formula_structural   Li3Ce4MgPt4
_chemical_formula_sum   'Li3 Ce4 Mg1 Pt4'
_cell_volume   255.17692489
_cell_formula_units_Z   1
loop_
 _symmetry_equiv_pos_site_id
 _symmetry_equiv_pos_as_xyz
  1  'x, y, z'
loop_
 _atom_site_type_symbol
 _atom_site_label
 _atom_site_symmetry_multiplicity
 _atom_site_fract_x
 _atom_site_fract_y
 _atom_site_fract_z
 _atom_site_occupancy
  Li  Li0  1  0.250000  0.626437  0.444113  1
  Li  Li1  1  0.250000  0.129426  0.058894  1
  Li  Li2  1  0.750000  0.377720  0.554568  1
  Ce  Ce3  1  0.750000  0.450035  0.186606  1
  Ce  Ce4  1  0.250000  0.051557  0.679460  1
  Ce  Ce5  1  0.750000  0.951072  0.317656  1
  Ce  Ce6  1  0.250000  0.541873  0.809589  1
  Mg  Mg7  1  0.750000  0.873249  0.943613  1
  Pt  Pt8  1  0.250000  0.740528  0.128055  1
  Pt  Pt9  1  0.250000  0.242294  0.374414  1
  Pt  Pt10  1  0.750000  0.759755  0.630681  1
  Pt  Pt11  1  0.750000  0.256054  0.872350  1
