# generated using pymatgen
data_Dy4Zr3PtF28
_symmetry_space_group_name_H-M   'P 1'
_cell_length_a   5.69310779
_cell_length_b   9.04240906
_cell_length_c   12.17732717
_cell_angle_alpha   62.46305615
_cell_angle_beta   89.94000688
_cell_angle_gamma   89.96546007
_symmetry_Int_Tables_number   1
_chemical_formula_structural   Dy4Zr3PtF28
_chemical_formula_sum   'Dy4 Zr3 Pt1 F28'
_cell_volume   555.86371275
_cell_formula_units_Z   1
loop_
 _symmetry_equiv_pos_site_id
 _symmetry_equiv_pos_as_xyz
  1  'x, y, z'
loop_
 _atom_site_type_symbol
 _atom_site_label
 _atom_site_symmetry_multiplicity
 _atom_site_fract_x
 _atom_site_fract_y
 _atom_site_fract_z
 _atom_site_occupancy
  Dy  Dy0  1  0.757607  0.817350  0.764836  1
  Dy  Dy1  1  0.257772  0.184212  0.731807  1
  Dy  Dy2  1  0.241383  0.183424  0.239237  1
  Dy  Dy3  1  0.743969  0.813387  0.267313  1
  Zr  Zr4  1  0.756360  0.273243  0.956667  1
  Zr  Zr5  1  0.256020  0.725256  0.544072  1
  Zr  Zr6  1  0.244559  0.724983  0.044949  1
  Pt  Pt7  1  0.739891  0.272550  0.455815  1
  F  F8  1  0.461070  0.709314  0.917938  1
  F  F9  1  0.938110  0.294779  0.579895  1
  F  F10  1  0.538072  0.289058  0.083175  1
  F  F11  1  0.040464  0.710505  0.417152  1
  F  F12  1  0.449619  0.279286  0.542890  1
  F  F13  1  0.945405  0.725699  0.950409  1
  F  F14  1  0.555792  0.720977  0.452279  1
  F  F15  1  0.054137  0.273398  0.051727  1
  F  F16  1  0.776625  0.526137  0.859617  1
  F  F17  1  0.269405  0.471927  0.639442  1
  F  F18  1  0.222157  0.472230  0.142890  1
  F  F19  1  0.727664  0.517746  0.358439  1
  F  F20  1  0.758455  0.020807  0.059609  1
  F  F21  1  0.259944  0.977857  0.443049  1
  F  F22  1  0.242365  0.977216  0.939613  1
  F  F23  1  0.743305  0.027197  0.549448  1
  F  F24  1  0.976914  0.733354  0.645996  1
  F  F25  1  0.480682  0.267449  0.851768  1
  F  F26  1  0.022121  0.272694  0.361937  1
  F  F27  1  0.522013  0.731500  0.147860  1
  F  F28  1  0.039380  0.748485  0.174295  1
  F  F29  1  0.546696  0.257079  0.326408  1
  F  F30  1  0.965347  0.251895  0.826602  1
  F  F31  1  0.464153  0.746986  0.673574  1
  F  F32  1  0.425488  0.972371  0.236284  1
  F  F33  1  0.924731  0.027535  0.267893  1
  F  F34  1  0.575607  0.029456  0.764289  1
  F  F35  1  0.076719  0.972658  0.730826  1
