# generated using pymatgen
data_NdTm3AgRh
_symmetry_space_group_name_H-M   'P 1'
_cell_length_a   9.51555890
_cell_length_b   9.51962415
_cell_length_c   9.51962487
_cell_angle_alpha   59.97174651
_cell_angle_beta   60.01413104
_cell_angle_gamma   60.01412986
_symmetry_Int_Tables_number   1
_chemical_formula_structural   NdTm3AgRh
_chemical_formula_sum   'Nd4 Tm12 Ag4 Rh4'
_cell_volume   609.75982530
_cell_formula_units_Z   4
loop_
 _symmetry_equiv_pos_site_id
 _symmetry_equiv_pos_as_xyz
  1  'x, y, z'
loop_
 _atom_site_type_symbol
 _atom_site_label
 _atom_site_symmetry_multiplicity
 _atom_site_fract_x
 _atom_site_fract_y
 _atom_site_fract_z
 _atom_site_occupancy
  Nd  Nd0  1  0.815223  0.184777  0.815223  1
  Nd  Nd1  1  0.184777  0.815223  0.184777  1
  Nd  Nd2  1  0.815223  0.815223  0.184777  1
  Nd  Nd3  1  0.184777  0.184777  0.815223  1
  Tm  Tm4  1  0.605085  0.600645  0.600645  1
  Tm  Tm5  1  0.600645  0.605085  0.193625  1
  Tm  Tm6  1  0.600645  0.193625  0.605085  1
  Tm  Tm7  1  0.193625  0.600645  0.600645  1
  Tm  Tm8  1  0.066218  0.433782  0.433782  1
  Tm  Tm9  1  0.433782  0.066218  0.066218  1
  Tm  Tm10  1  0.435757  0.064243  0.435757  1
  Tm  Tm11  1  0.064243  0.435757  0.064243  1
  Tm  Tm12  1  0.435757  0.435757  0.064243  1
  Tm  Tm13  1  0.064243  0.064243  0.435757  1
  Tm  Tm14  1  0.194963  0.805037  0.805037  1
  Tm  Tm15  1  0.805037  0.194963  0.194963  1
  Ag  Ag16  1  0.835948  0.827814  0.827814  1
  Ag  Ag17  1  0.827814  0.835948  0.508426  1
  Ag  Ag18  1  0.827814  0.508426  0.835948  1
  Ag  Ag19  1  0.508426  0.827814  0.827814  1
  Rh  Rh20  1  0.399806  0.390399  0.390399  1
  Rh  Rh21  1  0.390399  0.399806  0.819394  1
  Rh  Rh22  1  0.390399  0.819394  0.399806  1
  Rh  Rh23  1  0.819394  0.390399  0.390399  1
