# generated using pymatgen
data_Dy7Sn23(Ir2Ru)2
_symmetry_space_group_name_H-M   'P 1'
_cell_length_a   9.87001060
_cell_length_b   9.88408054
_cell_length_c   10.08806904
_cell_angle_alpha   90.00000334
_cell_angle_beta   90.07721385
_cell_angle_gamma   120.04716237
_symmetry_Int_Tables_number   1
_chemical_formula_structural   Dy7Sn23(Ir2Ru)2
_chemical_formula_sum   'Dy7 Sn23 Ir4 Ru2'
_cell_volume   851.89379663
_cell_formula_units_Z   1
loop_
 _symmetry_equiv_pos_site_id
 _symmetry_equiv_pos_as_xyz
  1  'x, y, z'
loop_
 _atom_site_type_symbol
 _atom_site_label
 _atom_site_symmetry_multiplicity
 _atom_site_fract_x
 _atom_site_fract_y
 _atom_site_fract_z
 _atom_site_occupancy
  Dy  Dy0  1  0.000000  0.000000  0.000000  1
  Dy  Dy1  1  0.481964  0.517529  0.306212  1
  Dy  Dy2  1  0.518036  0.482471  0.693788  1
  Dy  Dy3  1  0.481964  0.964435  0.306212  1
  Dy  Dy4  1  0.518036  0.035565  0.693788  1
  Dy  Dy5  1  0.035111  0.517556  0.306524  1
  Dy  Dy6  1  0.964889  0.482444  0.693476  1
  Sn  Sn7  1  0.352168  0.002028  0.001302  1
  Sn  Sn8  1  0.647832  0.997972  0.998698  1
  Sn  Sn9  1  0.000000  0.352403  0.000000  1
  Sn  Sn10  1  0.000000  0.647597  0.000000  1
  Sn  Sn11  1  0.647832  0.649859  0.998698  1
  Sn  Sn12  1  0.352168  0.350141  0.001302  1
  Sn  Sn13  1  0.336464  0.668232  0.824678  1
  Sn  Sn14  1  0.663536  0.331768  0.175322  1
  Sn  Sn15  1  0.000000  0.000000  0.500000  1
  Sn  Sn16  1  0.779521  0.221241  0.460069  1
  Sn  Sn17  1  0.220479  0.778759  0.539931  1
  Sn  Sn18  1  0.779521  0.558280  0.460069  1
  Sn  Sn19  1  0.220479  0.441720  0.539931  1
  Sn  Sn20  1  0.440828  0.220414  0.458499  1
  Sn  Sn21  1  0.559172  0.779586  0.541501  1
  Sn  Sn22  1  0.333689  0.666845  0.122337  1
  Sn  Sn23  1  0.666311  0.333155  0.877663  1
  Sn  Sn24  1  0.118783  0.883482  0.279548  1
  Sn  Sn25  1  0.881217  0.116518  0.720452  1
  Sn  Sn26  1  0.118783  0.235300  0.279548  1
  Sn  Sn27  1  0.881217  0.764700  0.720452  1
  Sn  Sn28  1  0.763547  0.881773  0.281215  1
  Sn  Sn29  1  0.236453  0.118227  0.718785  1
  Ir  Ir30  1  0.830261  0.169960  0.199710  1
  Ir  Ir31  1  0.169739  0.830040  0.800290  1
  Ir  Ir32  1  0.830261  0.660301  0.199710  1
  Ir  Ir33  1  0.169739  0.339699  0.800290  1
  Ru  Ru34  1  0.337630  0.168815  0.199871  1
  Ru  Ru35  1  0.662370  0.831185  0.800129  1
