# generated using pymatgen
data_Pr3Pb7
_symmetry_space_group_name_H-M   'P 1'
_cell_length_a   13.24767369
_cell_length_b   13.24767407
_cell_length_c   4.71750000
_cell_angle_alpha   90.00000000
_cell_angle_beta   90.00000000
_cell_angle_gamma   158.16658634
_symmetry_Int_Tables_number   1
_chemical_formula_structural   Pr3Pb7
_chemical_formula_sum   'Pr3 Pb7'
_cell_volume   307.91308156
_cell_formula_units_Z   1
loop_
 _symmetry_equiv_pos_site_id
 _symmetry_equiv_pos_as_xyz
  1  'x, y, z'
loop_
 _atom_site_type_symbol
 _atom_site_label
 _atom_site_symmetry_multiplicity
 _atom_site_fract_x
 _atom_site_fract_y
 _atom_site_fract_z
 _atom_site_occupancy
  Pr  Pr0  1  0.000000  0.000000  0.000000  1
  Pr  Pr1  1  0.813904  0.186095  0.000000  1
  Pr  Pr2  1  0.186095  0.813904  0.000000  1
  Pb  Pb3  1  0.597275  0.402725  0.000000  1
  Pb  Pb4  1  0.402725  0.597275  0.000000  1
  Pb  Pb5  1  0.903916  0.096083  0.499999  1
  Pb  Pb6  1  0.708439  0.291561  0.499999  1
  Pb  Pb7  1  0.500000  0.500000  0.499999  1
  Pb  Pb8  1  0.291561  0.708439  0.499999  1
  Pb  Pb9  1  0.096083  0.903916  0.499999  1
