# generated using pymatgen
data_Nd3Dy(BiO4)4
_symmetry_space_group_name_H-M   'P 1'
_cell_length_a   5.63108339
_cell_length_b   7.93439706
_cell_length_c   7.95174818
_cell_angle_alpha   82.73846005
_cell_angle_beta   90.06555961
_cell_angle_gamma   90.66506082
_symmetry_Int_Tables_number   1
_chemical_formula_structural   Nd3Dy(BiO4)4
_chemical_formula_sum   'Nd3 Dy1 Bi4 O16'
_cell_volume   352.40489183
_cell_formula_units_Z   1
loop_
 _symmetry_equiv_pos_site_id
 _symmetry_equiv_pos_as_xyz
  1  'x, y, z'
loop_
 _atom_site_type_symbol
 _atom_site_label
 _atom_site_symmetry_multiplicity
 _atom_site_fract_x
 _atom_site_fract_y
 _atom_site_fract_z
 _atom_site_occupancy
  Nd  Nd0  1  0.271135  0.861601  0.892051  1
  Nd  Nd1  1  0.233357  0.867255  0.387875  1
  Nd  Nd2  1  0.762423  0.134791  0.610973  1
  Dy  Dy3  1  0.724743  0.140808  0.112329  1
  Bi  Bi4  1  0.772308  0.661656  0.683302  1
  Bi  Bi5  1  0.729603  0.661140  0.183694  1
  Bi  Bi6  1  0.269528  0.337737  0.820120  1
  Bi  Bi7  1  0.225292  0.337451  0.314114  1
  O  O8  1  0.100692  0.578467  0.814928  1
  O  O9  1  0.605383  0.671191  0.928278  1
  O  O10  1  0.396537  0.580648  0.312774  1
  O  O11  1  0.507248  0.843391  0.617793  1
  O  O12  1  0.897394  0.666955  0.429445  1
  O  O13  1  0.005394  0.835869  0.119638  1
  O  O14  1  0.995983  0.889237  0.665159  1
  O  O15  1  0.491297  0.114033  0.840273  1
  O  O16  1  0.520795  0.892724  0.166209  1
  O  O17  1  0.998671  0.112407  0.324899  1
  O  O18  1  0.990218  0.164914  0.891562  1
  O  O19  1  0.109766  0.318498  0.573118  1
  O  O20  1  0.495541  0.158256  0.376735  1
  O  O21  1  0.594422  0.423188  0.680574  1
  O  O22  1  0.405064  0.328313  0.072769  1
  O  O23  1  0.897204  0.419467  0.181388  1
