# generated using pymatgen
data_Nd3Zr(PPt)4
_symmetry_space_group_name_H-M   'P 1'
_cell_length_a   4.14891800
_cell_length_b   4.14891803
_cell_length_c   15.92297000
_cell_angle_alpha   90.00000000
_cell_angle_beta   90.00000000
_cell_angle_gamma   119.99998380
_symmetry_Int_Tables_number   1
_chemical_formula_structural   Nd3Zr(PPt)4
_chemical_formula_sum   'Nd3 Zr1 P4 Pt4'
_cell_volume   237.36926532
_cell_formula_units_Z   1
loop_
 _symmetry_equiv_pos_site_id
 _symmetry_equiv_pos_as_xyz
  1  'x, y, z'
loop_
 _atom_site_type_symbol
 _atom_site_label
 _atom_site_symmetry_multiplicity
 _atom_site_fract_x
 _atom_site_fract_y
 _atom_site_fract_z
 _atom_site_occupancy
  Nd  Nd0  1  0.000000  0.000000  0.487224  1
  Nd  Nd1  1  0.000000  0.000000  0.012776  1
  Nd  Nd2  1  0.000000  0.000000  0.750000  1
  Zr  Zr3  1  0.000000  0.000000  0.250000  1
  P  P4  1  0.333333  0.666667  0.879057  1
  P  P5  1  0.666667  0.333333  0.126236  1
  P  P6  1  0.666667  0.333333  0.373764  1
  P  P7  1  0.333333  0.666667  0.620943  1
  Pt  Pt8  1  0.333333  0.666667  0.344167  1
  Pt  Pt9  1  0.666667  0.333333  0.618893  1
  Pt  Pt10  1  0.666667  0.333333  0.881107  1
  Pt  Pt11  1  0.333333  0.666667  0.155833  1
