# generated using pymatgen
data_Rb2Si6MoO15
_symmetry_space_group_name_H-M   'P 1'
_cell_length_a   7.10560762
_cell_length_b   7.41536575
_cell_length_c   7.77793917
_cell_angle_alpha   99.76935260
_cell_angle_beta   105.79744617
_cell_angle_gamma   111.90259473
_symmetry_Int_Tables_number   1
_chemical_formula_structural   Rb2Si6MoO15
_chemical_formula_sum   'Rb2 Si6 Mo1 O15'
_cell_volume   348.58735720
_cell_formula_units_Z   1
loop_
 _symmetry_equiv_pos_site_id
 _symmetry_equiv_pos_as_xyz
  1  'x, y, z'
loop_
 _atom_site_type_symbol
 _atom_site_label
 _atom_site_symmetry_multiplicity
 _atom_site_fract_x
 _atom_site_fract_y
 _atom_site_fract_z
 _atom_site_occupancy
  Rb  Rb0  1  0.294743  0.709147  0.817492  1
  Rb  Rb1  1  0.705257  0.290853  0.182508  1
  Si  Si2  1  0.704353  0.816920  0.264751  1
  Si  Si3  1  0.295647  0.183080  0.735249  1
  Si  Si4  1  0.150625  0.834757  0.366795  1
  Si  Si5  1  0.849375  0.165243  0.633205  1
  Si  Si6  1  0.325307  0.503424  0.314705  1
  Si  Si7  1  0.674693  0.496576  0.685295  1
  Mo  Mo8  1  0.000000  0.000000  0.000000  1
  O  O9  1  0.466627  0.614165  0.193449  1
  O  O10  1  0.533373  0.385835  0.806551  1
  O  O11  1  0.214395  0.645954  0.387277  1
  O  O12  1  0.785605  0.354046  0.612723  1
  O  O13  1  0.866641  0.718687  0.809114  1
  O  O14  1  0.133359  0.281313  0.190886  1
  O  O15  1  0.893029  0.743092  0.350636  1
  O  O16  1  0.106971  0.256908  0.649364  1
  O  O17  1  0.733903  0.905343  0.094409  1
  O  O18  1  0.500000  0.500000  0.500000  1
  O  O19  1  0.296837  0.015365  0.567592  1
  O  O20  1  0.703163  0.984635  0.432408  1
  O  O21  1  0.820623  0.091513  0.811844  1
  O  O22  1  0.179377  0.908487  0.188156  1
  O  O23  1  0.266097  0.094657  0.905591  1
