# generated using pymatgen
data_PrSm7PPd24
_symmetry_space_group_name_H-M   'P 1'
_cell_length_a   8.46597906
_cell_length_b   8.46597913
_cell_length_c   8.46597900
_cell_angle_alpha   89.99300213
_cell_angle_beta   89.99300213
_cell_angle_gamma   89.99300127
_symmetry_Int_Tables_number   1
_chemical_formula_structural   PrSm7PPd24
_chemical_formula_sum   'Pr1 Sm7 P1 Pd24'
_cell_volume   606.78042330
_cell_formula_units_Z   1
loop_
 _symmetry_equiv_pos_site_id
 _symmetry_equiv_pos_as_xyz
  1  'x, y, z'
loop_
 _atom_site_type_symbol
 _atom_site_label
 _atom_site_symmetry_multiplicity
 _atom_site_fract_x
 _atom_site_fract_y
 _atom_site_fract_z
 _atom_site_occupancy
  Pr  Pr0  1  0.254205  0.254205  0.254205  1
  Sm  Sm1  1  0.745580  0.745580  0.745580  1
  Sm  Sm2  1  0.745630  0.745630  0.254289  1
  Sm  Sm3  1  0.745630  0.254289  0.745630  1
  Sm  Sm4  1  0.254293  0.254293  0.745600  1
  Sm  Sm5  1  0.254293  0.745600  0.254293  1
  Sm  Sm6  1  0.254289  0.745630  0.745630  1
  Sm  Sm7  1  0.745600  0.254293  0.254293  1
  P  P8  1  0.000747  0.000747  0.000747  1
  Pd  Pd9  1  0.255873  0.501259  0.998142  1
  Pd  Pd10  1  0.744137  0.500419  0.999806  1
  Pd  Pd11  1  0.998142  0.255873  0.501259  1
  Pd  Pd12  1  0.501259  0.255873  0.998142  1
  Pd  Pd13  1  0.999806  0.744137  0.500419  1
  Pd  Pd14  1  0.500419  0.744137  0.999806  1
  Pd  Pd15  1  0.501259  0.998142  0.255873  1
  Pd  Pd16  1  0.255873  0.998142  0.501259  1
  Pd  Pd17  1  0.500419  0.999806  0.744137  1
  Pd  Pd18  1  0.744137  0.999806  0.500419  1
  Pd  Pd19  1  0.998142  0.501259  0.255873  1
  Pd  Pd20  1  0.999806  0.500419  0.744137  1
  Pd  Pd21  1  0.252604  0.501609  0.501609  1
  Pd  Pd22  1  0.747233  0.500174  0.500174  1
  Pd  Pd23  1  0.501609  0.252604  0.501609  1
  Pd  Pd24  1  0.500174  0.747233  0.500174  1
  Pd  Pd25  1  0.501609  0.501609  0.252604  1
  Pd  Pd26  1  0.500174  0.500174  0.747233  1
  Pd  Pd27  1  0.275562  0.997896  0.997896  1
  Pd  Pd28  1  0.725631  0.000038  0.000038  1
  Pd  Pd29  1  0.997896  0.275562  0.997896  1
  Pd  Pd30  1  0.000038  0.725631  0.000038  1
  Pd  Pd31  1  0.997896  0.997896  0.275562  1
  Pd  Pd32  1  0.000038  0.000038  0.725631  1
