# generated using pymatgen
data_Er6Sc4Si5Bi
_symmetry_space_group_name_H-M   'P 1'
_cell_length_a   8.32203200
_cell_length_b   8.34574486
_cell_length_c   6.03344100
_cell_angle_alpha   90.00000000
_cell_angle_beta   90.00000000
_cell_angle_gamma   119.90604667
_symmetry_Int_Tables_number   1
_chemical_formula_structural   Er6Sc4Si5Bi
_chemical_formula_sum   'Er6 Sc4 Si5 Bi1'
_cell_volume   363.24577477
_cell_formula_units_Z   1
loop_
 _symmetry_equiv_pos_site_id
 _symmetry_equiv_pos_as_xyz
  1  'x, y, z'
loop_
 _atom_site_type_symbol
 _atom_site_label
 _atom_site_symmetry_multiplicity
 _atom_site_fract_x
 _atom_site_fract_y
 _atom_site_fract_z
 _atom_site_occupancy
  Er  Er0  1  0.984260  0.741771  0.750000  1
  Er  Er1  1  0.998756  0.246608  0.250000  1
  Er  Er2  1  0.752148  0.753392  0.250000  1
  Er  Er3  1  0.767985  0.000000  0.750000  1
  Er  Er4  1  0.242489  0.258229  0.750000  1
  Er  Er5  1  0.240619  0.000000  0.250000  1
  Sc  Sc6  1  0.330679  0.654125  0.494367  1
  Sc  Sc7  1  0.676556  0.345875  0.005633  1
  Sc  Sc8  1  0.676556  0.345875  0.494367  1
  Sc  Sc9  1  0.330679  0.654125  0.005633  1
  Si  Si10  1  0.397290  0.395115  0.250000  1
  Si  Si11  1  0.002176  0.604885  0.250000  1
  Si  Si12  1  0.997936  0.398110  0.750000  1
  Si  Si13  1  0.599826  0.601890  0.750000  1
  Si  Si14  1  0.604290  0.000000  0.250000  1
  Bi  Bi15  1  0.397755  0.000000  0.750000  1
