# generated using pymatgen
data_YEr5(SnIr)6
_symmetry_space_group_name_H-M   'P 1'
_cell_length_a   7.46937559
_cell_length_b   7.46484154
_cell_length_c   7.90020200
_cell_angle_alpha   90.00000000
_cell_angle_beta   90.00000000
_cell_angle_gamma   120.01549626
_symmetry_Int_Tables_number   1
_chemical_formula_structural   YEr5(SnIr)6
_chemical_formula_sum   'Y1 Er5 Sn6 Ir6'
_cell_volume   381.42212585
_cell_formula_units_Z   1
loop_
 _symmetry_equiv_pos_site_id
 _symmetry_equiv_pos_as_xyz
  1  'x, y, z'
loop_
 _atom_site_type_symbol
 _atom_site_label
 _atom_site_symmetry_multiplicity
 _atom_site_fract_x
 _atom_site_fract_y
 _atom_site_fract_z
 _atom_site_occupancy
  Y  Y0  1  0.999156  0.404100  0.250000  1
  Er  Er1  1  0.405498  0.002674  0.250000  1
  Er  Er2  1  0.596827  0.596310  0.750000  1
  Er  Er3  1  0.594912  0.596068  0.250000  1
  Er  Er4  1  0.000970  0.403425  0.750000  1
  Er  Er5  1  0.402709  0.998262  0.750000  1
  Sn  Sn6  1  0.260356  0.259960  0.500894  1
  Sn  Sn7  1  0.260356  0.259960  0.999106  1
  Sn  Sn8  1  0.739644  0.999279  0.999147  1
  Sn  Sn9  1  0.000010  0.740892  0.500102  1
  Sn  Sn10  1  0.739644  0.999279  0.500853  1
  Sn  Sn11  1  0.000010  0.740892  0.999898  1
  Ir  Ir12  1  0.665956  0.333054  0.504063  1
  Ir  Ir13  1  0.665956  0.333054  0.995937  1
  Ir  Ir14  1  0.334032  0.667476  0.997983  1
  Ir  Ir15  1  0.334032  0.667476  0.502017  1
  Ir  Ir16  1  0.999992  0.999250  0.750000  1
  Ir  Ir17  1  0.999942  0.998589  0.250000  1
