# generated using pymatgen
data_HoTmAl2Ga7Ir3
_symmetry_space_group_name_H-M   'P 1'
_cell_length_a   7.55452801
_cell_length_b   7.55229687
_cell_length_c   9.48426500
_cell_angle_alpha   90.00000000
_cell_angle_beta   90.00000000
_cell_angle_gamma   119.78456621
_symmetry_Int_Tables_number   1
_chemical_formula_structural   HoTmAl2Ga7Ir3
_chemical_formula_sum   'Ho2 Tm2 Al4 Ga14 Ir6'
_cell_volume   469.63386208
_cell_formula_units_Z   2
loop_
 _symmetry_equiv_pos_site_id
 _symmetry_equiv_pos_as_xyz
  1  'x, y, z'
loop_
 _atom_site_type_symbol
 _atom_site_label
 _atom_site_symmetry_multiplicity
 _atom_site_fract_x
 _atom_site_fract_y
 _atom_site_fract_z
 _atom_site_occupancy
  Ho  Ho0  1  0.669259  0.000331  0.250000  1
  Ho  Ho1  1  0.330741  0.999669  0.750000  1
  Tm  Tm2  1  0.000589  0.669288  0.250000  1
  Tm  Tm3  1  0.999411  0.330712  0.750000  1
  Al  Al4  1  0.331804  0.331994  0.554203  1
  Al  Al5  1  0.668196  0.668006  0.445797  1
  Al  Al6  1  0.668196  0.668006  0.054203  1
  Al  Al7  1  0.331804  0.331994  0.945797  1
  Ga  Ga8  1  0.126434  0.126302  0.250000  1
  Ga  Ga9  1  0.873566  0.873698  0.750000  1
  Ga  Ga10  1  0.000141  0.335333  0.079545  1
  Ga  Ga11  1  0.999859  0.664667  0.920455  1
  Ga  Ga12  1  0.999859  0.664667  0.579545  1
  Ga  Ga13  1  0.334766  0.999898  0.420286  1
  Ga  Ga14  1  0.000141  0.335333  0.420455  1
  Ga  Ga15  1  0.665234  0.000102  0.579714  1
  Ga  Ga16  1  0.665234  0.000102  0.920286  1
  Ga  Ga17  1  0.334766  0.999898  0.079714  1
  Ga  Ga18  1  0.345646  0.549155  0.250000  1
  Ga  Ga19  1  0.654354  0.450845  0.750000  1
  Ga  Ga20  1  0.549399  0.345997  0.250000  1
  Ga  Ga21  1  0.450601  0.654003  0.750000  1
  Ir  Ir22  1  0.669760  0.330387  0.000007  1
  Ir  Ir23  1  0.330240  0.669613  0.999993  1
  Ir  Ir24  1  0.330240  0.669613  0.500007  1
  Ir  Ir25  1  0.669760  0.330387  0.499993  1
  Ir  Ir26  1  0.000000  0.000000  0.000000  1
  Ir  Ir27  1  0.000000  0.000000  0.500000  1
