# generated using pymatgen
data_Tm4Fe6MoP12Ir13
_symmetry_space_group_name_H-M   'P 1'
_cell_length_a   3.87031100
_cell_length_b   10.57285512
_cell_length_c   12.36031342
_cell_angle_alpha   90.46091613
_cell_angle_beta   90.00000000
_cell_angle_gamma   90.00000000
_symmetry_Int_Tables_number   1
_chemical_formula_structural   Tm4Fe6MoP12Ir13
_chemical_formula_sum   'Tm4 Fe6 Mo1 P12 Ir13'
_cell_volume   505.77059473
_cell_formula_units_Z   1
loop_
 _symmetry_equiv_pos_site_id
 _symmetry_equiv_pos_as_xyz
  1  'x, y, z'
loop_
 _atom_site_type_symbol
 _atom_site_label
 _atom_site_symmetry_multiplicity
 _atom_site_fract_x
 _atom_site_fract_y
 _atom_site_fract_z
 _atom_site_occupancy
  Tm  Tm0  1  0.250000  0.578250  0.715471  1
  Tm  Tm1  1  0.250000  0.921341  0.210648  1
  Tm  Tm2  1  0.750000  0.417363  0.290837  1
  Tm  Tm3  1  0.750000  0.082485  0.789864  1
  Fe  Fe4  1  0.750000  0.125606  0.301985  1
  Fe  Fe5  1  0.750000  0.379725  0.803988  1
  Fe  Fe6  1  0.250000  0.456490  0.937152  1
  Fe  Fe7  1  0.250000  0.042647  0.432578  1
  Fe  Fe8  1  0.750000  0.536778  0.065422  1
  Fe  Fe9  1  0.750000  0.956806  0.561440  1
  Mo  Mo10  1  0.250000  0.707326  0.985714  1
  P  P11  1  0.250000  0.430421  0.109182  1
  P  P12  1  0.250000  0.071001  0.604732  1
  P  P13  1  0.750000  0.562254  0.890881  1
  P  P14  1  0.750000  0.944495  0.385575  1
  P  P15  1  0.250000  0.271651  0.862686  1
  P  P16  1  0.250000  0.227791  0.362873  1
  P  P17  1  0.750000  0.732586  0.129691  1
  P  P18  1  0.750000  0.767714  0.632086  1
  P  P19  1  0.250000  0.594357  0.388398  1
  P  P20  1  0.250000  0.898781  0.888169  1
  P  P21  1  0.750000  0.402148  0.625410  1
  P  P22  1  0.750000  0.099232  0.122428  1
  Ir  Ir23  1  0.250000  0.781890  0.484938  1
  Ir  Ir24  1  0.750000  0.284006  0.011798  1
  Ir  Ir25  1  0.750000  0.219767  0.512121  1
  Ir  Ir26  1  0.250000  0.404447  0.477016  1
  Ir  Ir27  1  0.250000  0.094966  0.974103  1
  Ir  Ir28  1  0.750000  0.588923  0.522370  1
  Ir  Ir29  1  0.750000  0.909827  0.021446  1
  Ir  Ir30  1  0.250000  0.229835  0.175045  1
  Ir  Ir31  1  0.250000  0.271306  0.675972  1
  Ir  Ir32  1  0.750000  0.763649  0.822677  1
  Ir  Ir33  1  0.750000  0.741214  0.322925  1
  Ir  Ir34  1  0.250000  0.884894  0.698904  1
  Ir  Ir35  1  0.250000  0.618027  0.203479  1
