# generated using pymatgen
data_LiZr4Si8Os5
_symmetry_space_group_name_H-M   'P 1'
_cell_length_a   10.01632695
_cell_length_b   10.01632701
_cell_length_c   13.40216151
_cell_angle_alpha   54.11398200
_cell_angle_beta   54.11398303
_cell_angle_gamma   31.24897525
_symmetry_Int_Tables_number   1
_chemical_formula_structural   LiZr4Si8Os5
_chemical_formula_sum   'Li2 Zr8 Si16 Os10'
_cell_volume   553.43062857
_cell_formula_units_Z   2
loop_
 _symmetry_equiv_pos_site_id
 _symmetry_equiv_pos_as_xyz
  1  'x, y, z'
loop_
 _atom_site_type_symbol
 _atom_site_label
 _atom_site_symmetry_multiplicity
 _atom_site_fract_x
 _atom_site_fract_y
 _atom_site_fract_z
 _atom_site_occupancy
  Li  Li0  1  0.770365  0.477466  0.056772  1
  Li  Li1  1  0.522534  0.229635  0.443228  1
  Zr  Zr2  1  0.037084  0.292126  0.637007  1
  Zr  Zr3  1  0.707874  0.962916  0.862993  1
  Zr  Zr4  1  0.964119  0.708755  0.360255  1
  Zr  Zr5  1  0.291245  0.035881  0.139745  1
  Zr  Zr6  1  0.303540  0.549477  0.647298  1
  Zr  Zr7  1  0.450523  0.696460  0.852702  1
  Zr  Zr8  1  0.706985  0.446286  0.342018  1
  Zr  Zr9  1  0.553714  0.293015  0.157982  1
  Si  Si10  1  0.986199  0.242926  0.887702  1
  Si  Si11  1  0.757074  0.013801  0.612298  1
  Si  Si12  1  0.025199  0.751381  0.103628  1
  Si  Si13  1  0.248619  0.974801  0.396372  1
  Si  Si14  1  0.147065  0.386316  0.897582  1
  Si  Si15  1  0.613684  0.852935  0.602418  1
  Si  Si16  1  0.851772  0.619206  0.101322  1
  Si  Si17  1  0.380794  0.148228  0.398678  1
  Si  Si18  1  0.080962  0.574224  0.565841  1
  Si  Si19  1  0.425776  0.919038  0.934159  1
  Si  Si20  1  0.907978  0.434486  0.432425  1
  Si  Si21  1  0.565514  0.092022  0.067575  1
  Si  Si22  1  0.619525  0.380475  0.750000  1
  Si  Si23  1  0.375855  0.624145  0.250000  1
  Si  Si24  1  0.124081  0.875919  0.750000  1
  Si  Si25  1  0.871909  0.128091  0.250000  1
  Os  Os26  1  0.897309  0.143543  0.584079  1
  Os  Os27  1  0.856457  0.102691  0.915921  1
  Os  Os28  1  0.096389  0.859200  0.419969  1
  Os  Os29  1  0.140800  0.903611  0.080031  1
  Os  Os30  1  0.835395  0.638120  0.785441  1
  Os  Os31  1  0.361880  0.164605  0.714559  1
  Os  Os32  1  0.158321  0.369498  0.216748  1
  Os  Os33  1  0.630502  0.841679  0.283252  1
  Os  Os34  1  0.248037  0.515081  0.925232  1
  Os  Os35  1  0.484919  0.751963  0.574768  1
