# generated using pymatgen
data_Hf6Pd2CN
_symmetry_space_group_name_H-M   'P 1'
_cell_length_a   6.00688275
_cell_length_b   6.00688286
_cell_length_c   8.88277870
_cell_angle_alpha   90.14308847
_cell_angle_beta   89.85691145
_cell_angle_gamma   148.20845254
_symmetry_Int_Tables_number   1
_chemical_formula_structural   Hf6Pd2CN
_chemical_formula_sum   'Hf6 Pd2 C1 N1'
_cell_volume   168.85601354
_cell_formula_units_Z   1
loop_
 _symmetry_equiv_pos_site_id
 _symmetry_equiv_pos_as_xyz
  1  'x, y, z'
loop_
 _atom_site_type_symbol
 _atom_site_label
 _atom_site_symmetry_multiplicity
 _atom_site_fract_x
 _atom_site_fract_y
 _atom_site_fract_z
 _atom_site_occupancy
  Hf  Hf0  1  0.628518  0.371482  0.941628  1
  Hf  Hf1  1  0.372910  0.627090  0.446351  1
  Hf  Hf2  1  0.371482  0.628518  0.058372  1
  Hf  Hf3  1  0.627090  0.372910  0.553649  1
  Hf  Hf4  1  0.947702  0.052298  0.749803  1
  Hf  Hf5  1  0.052298  0.947702  0.250197  1
  Pd  Pd6  1  0.251844  0.748156  0.746683  1
  Pd  Pd7  1  0.748156  0.251844  0.253317  1
  C  C8  1  0.000000  0.000000  0.000000  1
  N  N9  1  0.000000  0.000000  0.500000  1
