# generated using pymatgen
data_Th10SnSb5C2
_symmetry_space_group_name_H-M   'P 1'
_cell_length_a   9.30174088
_cell_length_b   9.30174081
_cell_length_c   6.50673600
_cell_angle_alpha   90.00000000
_cell_angle_beta   90.00000000
_cell_angle_gamma   119.86964268
_symmetry_Int_Tables_number   1
_chemical_formula_structural   Th10SnSb5C2
_chemical_formula_sum   'Th10 Sn1 Sb5 C2'
_cell_volume   488.19268354
_cell_formula_units_Z   1
loop_
 _symmetry_equiv_pos_site_id
 _symmetry_equiv_pos_as_xyz
  1  'x, y, z'
loop_
 _atom_site_type_symbol
 _atom_site_label
 _atom_site_symmetry_multiplicity
 _atom_site_fract_x
 _atom_site_fract_y
 _atom_site_fract_z
 _atom_site_occupancy
  Th  Th0  1  0.667244  0.332959  0.499589  1
  Th  Th1  1  0.332959  0.667244  0.499589  1
  Th  Th2  1  0.332959  0.667244  0.000411  1
  Th  Th3  1  0.667244  0.332959  0.000411  1
  Th  Th4  1  0.774558  0.774558  0.250000  1
  Th  Th5  1  0.225287  0.000875  0.250000  1
  Th  Th6  1  0.000875  0.225287  0.250000  1
  Th  Th7  1  0.226630  0.226630  0.750000  1
  Th  Th8  1  0.774746  0.999530  0.750000  1
  Th  Th9  1  0.999530  0.774746  0.750000  1
  Sn  Sn10  1  0.399400  0.399400  0.250000  1
  Sb  Sb11  1  0.602096  0.000089  0.250000  1
  Sb  Sb12  1  0.000089  0.602096  0.250000  1
  Sb  Sb13  1  0.600823  0.600823  0.750000  1
  Sb  Sb14  1  0.398145  0.001134  0.750000  1
  Sb  Sb15  1  0.001134  0.398145  0.750000  1
  C  C16  1  0.998141  0.998141  0.500429  1
  C  C17  1  0.998141  0.998141  0.999571  1
