# generated using pymatgen
data_Pr6Sn5HgPd6
_symmetry_space_group_name_H-M   'P 1'
_cell_length_a   7.70544900
_cell_length_b   7.64854928
_cell_length_c   8.42208990
_cell_angle_alpha   89.96753334
_cell_angle_beta   90.00000000
_cell_angle_gamma   120.24639180
_symmetry_Int_Tables_number   1
_chemical_formula_structural   Pr6Sn5HgPd6
_chemical_formula_sum   'Pr6 Sn5 Hg1 Pd6'
_cell_volume   428.78916055
_cell_formula_units_Z   1
loop_
 _symmetry_equiv_pos_site_id
 _symmetry_equiv_pos_as_xyz
  1  'x, y, z'
loop_
 _atom_site_type_symbol
 _atom_site_label
 _atom_site_symmetry_multiplicity
 _atom_site_fract_x
 _atom_site_fract_y
 _atom_site_fract_z
 _atom_site_occupancy
  Pr  Pr0  1  0.415068  0.000753  0.246841  1
  Pr  Pr1  1  0.589582  0.590204  0.247982  1
  Pr  Pr2  1  0.996860  0.408639  0.248239  1
  Pr  Pr3  1  0.414315  0.999247  0.753159  1
  Pr  Pr4  1  0.588221  0.591361  0.751761  1
  Pr  Pr5  1  0.999378  0.409796  0.752018  1
  Sn  Sn6  1  0.257646  0.254935  0.499846  1
  Sn  Sn7  1  0.002711  0.745065  0.500154  1
  Sn  Sn8  1  0.997834  0.755616  0.999885  1
  Sn  Sn9  1  0.242218  0.244384  0.000115  1
  Sn  Sn10  1  0.749291  0.000000  0.500000  1
  Hg  Hg11  1  0.742120  0.000000  0.000000  1
  Pd  Pd12  1  0.319330  0.656716  0.001602  1
  Pd  Pd13  1  0.335395  0.666495  0.498086  1
  Pd  Pd14  1  0.662615  0.343284  0.998398  1
  Pd  Pd15  1  0.668900  0.333505  0.501914  1
  Pd  Pd16  1  0.009206  0.999893  0.257927  1
  Pd  Pd17  1  0.009313  0.000107  0.742073  1
