# generated using pymatgen
data_BaNdZn3GaO7
_symmetry_space_group_name_H-M   'P 1'
_cell_length_a   6.50610700
_cell_length_b   6.50608505
_cell_length_c   10.63432800
_cell_angle_alpha   89.99996589
_cell_angle_beta   89.99998633
_cell_angle_gamma   120.00012213
_symmetry_Int_Tables_number   1
_chemical_formula_structural   BaNdZn3GaO7
_chemical_formula_sum   'Ba2 Nd2 Zn6 Ga2 O14'
_cell_volume   389.83523179
_cell_formula_units_Z   2
loop_
 _symmetry_equiv_pos_site_id
 _symmetry_equiv_pos_as_xyz
  1  'x, y, z'
loop_
 _atom_site_type_symbol
 _atom_site_label
 _atom_site_symmetry_multiplicity
 _atom_site_fract_x
 _atom_site_fract_y
 _atom_site_fract_z
 _atom_site_occupancy
  Ba  Ba0  1  0.666682  0.333364  0.484901  1
  Ba  Ba1  1  0.333319  0.666637  0.984902  1
  Nd  Nd2  1  0.333339  0.666669  0.328152  1
  Nd  Nd3  1  0.666666  0.333333  0.828154  1
  Zn  Zn4  1  0.830069  0.169633  0.141284  1
  Zn  Zn5  1  0.339565  0.169922  0.141284  1
  Zn  Zn6  1  0.830361  0.660431  0.141285  1
  Zn  Zn7  1  0.169933  0.830367  0.641284  1
  Zn  Zn8  1  0.660435  0.830077  0.641284  1
  Zn  Zn9  1  0.169639  0.339567  0.641285  1
  Ga  Ga10  1  0.000000  0.999998  0.392490  1
  Ga  Ga11  1  0.000000  0.000002  0.892491  1
  O  O12  1  0.493558  0.987442  0.185136  1
  O  O13  1  0.493890  0.506431  0.185144  1
  O  O14  1  0.012543  0.506105  0.185144  1
  O  O15  1  0.999998  0.999999  0.213061  1
  O  O16  1  0.688621  0.843460  0.451038  1
  O  O17  1  0.156514  0.845135  0.451038  1
  O  O18  1  0.154851  0.311375  0.451039  1
  O  O19  1  0.506444  0.012559  0.685136  1
  O  O20  1  0.987456  0.493894  0.685142  1
  O  O21  1  0.506110  0.493568  0.685144  1
  O  O22  1  0.000001  0.000001  0.713062  1
  O  O23  1  0.843485  0.154865  0.951039  1
  O  O24  1  0.311380  0.156541  0.951039  1
  O  O25  1  0.845150  0.688624  0.951040  1
