# generated using pymatgen
data_Yb6Cu2Ru
_symmetry_space_group_name_H-M   'P 1'
_cell_length_a   7.75817800
_cell_length_b   7.75817780
_cell_length_c   4.24126600
_cell_angle_alpha   90.00000000
_cell_angle_beta   90.00000000
_cell_angle_gamma   120.00000087
_symmetry_Int_Tables_number   1
_chemical_formula_structural   Yb6Cu2Ru
_chemical_formula_sum   'Yb6 Cu2 Ru1'
_cell_volume   221.07804058
_cell_formula_units_Z   1
loop_
 _symmetry_equiv_pos_site_id
 _symmetry_equiv_pos_as_xyz
  1  'x, y, z'
loop_
 _atom_site_type_symbol
 _atom_site_label
 _atom_site_symmetry_multiplicity
 _atom_site_fract_x
 _atom_site_fract_y
 _atom_site_fract_z
 _atom_site_occupancy
  Yb  Yb0  1  0.751910  0.000000  0.000000  1
  Yb  Yb1  1  0.248091  0.248090  0.000000  1
  Yb  Yb2  1  0.000000  0.751910  0.000000  1
  Yb  Yb3  1  0.401773  0.000000  0.500001  1
  Yb  Yb4  1  0.000000  0.401773  0.500001  1
  Yb  Yb5  1  0.598227  0.598227  0.500001  1
  Cu  Cu6  1  0.666667  0.333333  0.000000  1
  Cu  Cu7  1  0.333333  0.666666  0.000000  1
  Ru  Ru8  1  0.000000  0.000000  0.500001  1
