# generated using pymatgen
data_LiPu4Si3
_symmetry_space_group_name_H-M   'P 1'
_cell_length_a   8.39074979
_cell_length_b   8.39075082
_cell_length_c   8.39075010
_cell_angle_alpha   95.64854068
_cell_angle_beta   95.64853161
_cell_angle_gamma   143.43177522
_symmetry_Int_Tables_number   1
_chemical_formula_structural   LiPu4Si3
_chemical_formula_sum   'Li2 Pu8 Si6'
_cell_volume   334.18634169
_cell_formula_units_Z   2
loop_
 _symmetry_equiv_pos_site_id
 _symmetry_equiv_pos_as_xyz
  1  'x, y, z'
loop_
 _atom_site_type_symbol
 _atom_site_label
 _atom_site_symmetry_multiplicity
 _atom_site_fract_x
 _atom_site_fract_y
 _atom_site_fract_z
 _atom_site_occupancy
  Li  Li0  1  0.749999  0.249999  0.500000  1
  Li  Li1  1  0.249999  0.749999  0.500000  1
  Pu  Pu2  1  0.226261  0.082443  0.308703  1
  Pu  Pu3  1  0.773740  0.917556  0.691297  1
  Pu  Pu4  1  0.273740  0.582444  0.856183  1
  Pu  Pu5  1  0.726261  0.417557  0.143818  1
  Pu  Pu6  1  0.417556  0.273740  0.691297  1
  Pu  Pu7  1  0.582443  0.726261  0.308703  1
  Pu  Pu8  1  0.917556  0.226261  0.143816  1
  Pu  Pu9  1  0.082443  0.773740  0.856183  1
  Si  Si10  1  0.249999  0.249999  0.000000  1
  Si  Si11  1  0.750000  0.750000  0.000000  1
  Si  Si12  1  0.654931  0.154931  0.809863  1
  Si  Si13  1  0.345069  0.845069  0.190137  1
  Si  Si14  1  0.845069  0.654932  0.500000  1
  Si  Si15  1  0.154931  0.345069  0.500000  1
