# generated using pymatgen
data_Rb4Mn9CoO20
_symmetry_space_group_name_H-M   'P 1'
_cell_length_a   7.90196797
_cell_length_b   5.16529842
_cell_length_c   12.98721500
_cell_angle_alpha   86.73828040
_cell_angle_beta   83.46505847
_cell_angle_gamma   69.60016950
_symmetry_Int_Tables_number   1
_chemical_formula_structural   Rb4Mn9CoO20
_chemical_formula_sum   'Rb4 Mn9 Co1 O20'
_cell_volume   493.52841002
_cell_formula_units_Z   1
loop_
 _symmetry_equiv_pos_site_id
 _symmetry_equiv_pos_as_xyz
  1  'x, y, z'
loop_
 _atom_site_type_symbol
 _atom_site_label
 _atom_site_symmetry_multiplicity
 _atom_site_fract_x
 _atom_site_fract_y
 _atom_site_fract_z
 _atom_site_occupancy
  Rb  Rb0  1  0.054108  0.716362  0.500634  1
  Rb  Rb1  1  0.550376  0.473467  0.496486  1
  Rb  Rb2  1  0.549685  0.209211  0.002542  1
  Rb  Rb3  1  0.056258  0.988312  0.999219  1
  Mn  Mn4  1  0.049458  0.351373  0.749485  1
  Mn  Mn5  1  0.344202  0.448260  0.254327  1
  Mn  Mn6  1  0.255685  0.751233  0.746025  1
  Mn  Mn7  1  0.451379  0.154309  0.745138  1
  Mn  Mn8  1  0.544272  0.850091  0.250650  1
  Mn  Mn9  1  0.755445  0.248794  0.244810  1
  Mn  Mn10  1  0.646088  0.550574  0.755083  1
  Mn  Mn11  1  0.952941  0.649965  0.245818  1
  Mn  Mn12  1  0.848048  0.949821  0.754933  1
  Co  Co13  1  0.147162  0.045792  0.253080  1
  O  O14  1  0.055061  0.017785  0.675053  1
  O  O15  1  0.131992  0.375869  0.326099  1
  O  O16  1  0.166181  0.714294  0.176966  1
  O  O17  1  0.042320  0.685178  0.825501  1
  O  O18  1  0.240210  0.083923  0.819274  1
  O  O19  1  0.353756  0.116995  0.179650  1
  O  O20  1  0.280768  0.439126  0.666378  1
  O  O21  1  0.314721  0.763478  0.334028  1
  O  O22  1  0.544153  0.179153  0.323171  1
  O  O23  1  0.431695  0.519993  0.831572  1
  O  O24  1  0.555803  0.516048  0.175295  1
  O  O25  1  0.469566  0.791111  0.668936  1
  O  O26  1  0.669512  0.221996  0.677750  1
  O  O27  1  0.743593  0.580376  0.319987  1
  O  O28  1  0.786464  0.931195  0.164741  1
  O  O29  1  0.636553  0.875501  0.826855  1
  O  O30  1  0.966680  0.322789  0.172967  1
  O  O31  1  0.815837  0.267488  0.835944  1
  O  O32  1  0.856366  0.620618  0.678851  1
  O  O33  1  0.932861  0.981550  0.322472  1
