# generated using pymatgen
data_Gd8Si15Rh
_symmetry_space_group_name_H-M   'P 1'
_cell_length_a   8.01547100
_cell_length_b   8.01547167
_cell_length_c   8.23553400
_cell_angle_alpha   90.00000000
_cell_angle_beta   90.00000000
_cell_angle_gamma   120.00000134
_symmetry_Int_Tables_number   1
_chemical_formula_structural   Gd8Si15Rh
_chemical_formula_sum   'Gd8 Si15 Rh1'
_cell_volume   458.22683731
_cell_formula_units_Z   1
loop_
 _symmetry_equiv_pos_site_id
 _symmetry_equiv_pos_as_xyz
  1  'x, y, z'
loop_
 _atom_site_type_symbol
 _atom_site_label
 _atom_site_symmetry_multiplicity
 _atom_site_fract_x
 _atom_site_fract_y
 _atom_site_fract_z
 _atom_site_occupancy
  Gd  Gd0  1  0.000000  0.000000  0.748892  1
  Gd  Gd1  1  0.000000  0.000000  0.251229  1
  Gd  Gd2  1  0.500477  0.499523  0.745619  1
  Gd  Gd3  1  0.500477  0.000957  0.745619  1
  Gd  Gd4  1  0.999043  0.499523  0.745619  1
  Gd  Gd5  1  0.500744  0.499256  0.254321  1
  Gd  Gd6  1  0.998514  0.499256  0.254321  1
  Gd  Gd7  1  0.500744  0.001486  0.254321  1
  Si  Si8  1  0.666667  0.333333  0.999654  1
  Si  Si9  1  0.666667  0.333333  0.500468  1
  Si  Si10  1  0.333333  0.666667  0.499508  1
  Si  Si11  1  0.836819  0.163181  0.999933  1
  Si  Si12  1  0.836819  0.673639  0.999933  1
  Si  Si13  1  0.326361  0.163181  0.999933  1
  Si  Si14  1  0.832446  0.167554  0.500010  1
  Si  Si15  1  0.832446  0.664891  0.500010  1
  Si  Si16  1  0.335109  0.167554  0.500010  1
  Si  Si17  1  0.166010  0.833990  0.499987  1
  Si  Si18  1  0.667980  0.833990  0.499987  1
  Si  Si19  1  0.166010  0.332020  0.499987  1
  Si  Si20  1  0.169919  0.830081  0.000151  1
  Si  Si21  1  0.660164  0.830081  0.000151  1
  Si  Si22  1  0.169919  0.339836  0.000151  1
  Rh  Rh23  1  0.333333  0.666667  0.000180  1
