# generated using pymatgen
data_Y3CoGe2(PRh2)4
_symmetry_space_group_name_H-M   'P 1'
_cell_length_a   3.90714800
_cell_length_b   11.33507900
_cell_length_c   12.89482700
_cell_angle_alpha   90.00000000
_cell_angle_beta   90.00000000
_cell_angle_gamma   90.00000000
_symmetry_Int_Tables_number   1
_chemical_formula_structural   Y3CoGe2(PRh2)4
_chemical_formula_sum   'Y6 Co2 Ge4 P8 Rh16'
_cell_volume   571.08392211
_cell_formula_units_Z   2
loop_
 _symmetry_equiv_pos_site_id
 _symmetry_equiv_pos_as_xyz
  1  'x, y, z'
loop_
 _atom_site_type_symbol
 _atom_site_label
 _atom_site_symmetry_multiplicity
 _atom_site_fract_x
 _atom_site_fract_y
 _atom_site_fract_z
 _atom_site_occupancy
  Y  Y0  1  0.000000  0.500000  0.526381  1
  Y  Y1  1  0.500000  0.000000  0.473619  1
  Y  Y2  1  0.500000  0.813858  0.204581  1
  Y  Y3  1  0.500000  0.186142  0.204581  1
  Y  Y4  1  0.000000  0.686142  0.795419  1
  Y  Y5  1  0.000000  0.313858  0.795419  1
  Co  Co6  1  0.000000  0.500000  0.994240  1
  Co  Co7  1  0.500000  0.000000  0.005760  1
  Ge  Ge8  1  0.500000  0.500000  0.880361  1
  Ge  Ge9  1  0.000000  0.000000  0.119639  1
  Ge  Ge10  1  0.500000  0.500000  0.348330  1
  Ge  Ge11  1  0.000000  0.000000  0.651670  1
  P  P12  1  0.500000  0.311519  0.619730  1
  P  P13  1  0.500000  0.688481  0.619730  1
  P  P14  1  0.000000  0.188481  0.380270  1
  P  P15  1  0.000000  0.811519  0.380270  1
  P  P16  1  0.500000  0.850822  0.896562  1
  P  P17  1  0.500000  0.149178  0.896562  1
  P  P18  1  0.000000  0.649178  0.103438  1
  P  P19  1  0.000000  0.350822  0.103438  1
  Rh  Rh20  1  0.500000  0.500000  0.156081  1
  Rh  Rh21  1  0.000000  0.000000  0.843919  1
  Rh  Rh22  1  0.500000  0.500000  0.692475  1
  Rh  Rh23  1  0.000000  0.000000  0.307525  1
  Rh  Rh24  1  0.500000  0.332323  0.995407  1
  Rh  Rh25  1  0.500000  0.667677  0.995407  1
  Rh  Rh26  1  0.000000  0.167677  0.004593  1
  Rh  Rh27  1  0.000000  0.832323  0.004593  1
  Rh  Rh28  1  0.500000  0.289472  0.431058  1
  Rh  Rh29  1  0.500000  0.710528  0.431058  1
  Rh  Rh30  1  0.000000  0.210528  0.568942  1
  Rh  Rh31  1  0.000000  0.789472  0.568942  1
  Rh  Rh32  1  0.500000  0.870516  0.715405  1
  Rh  Rh33  1  0.500000  0.129484  0.715405  1
  Rh  Rh34  1  0.000000  0.629484  0.284595  1
  Rh  Rh35  1  0.000000  0.370516  0.284595  1
