# generated using pymatgen
data_Sr5Nd(Sn4Bi)2
_symmetry_space_group_name_H-M   'P 1'
_cell_length_a   9.02200768
_cell_length_b   9.02200829
_cell_length_c   9.02200878
_cell_angle_alpha   120.33495191
_cell_angle_beta   120.33495216
_cell_angle_gamma   89.42081738
_symmetry_Int_Tables_number   1
_chemical_formula_structural   Sr5Nd(Sn4Bi)2
_chemical_formula_sum   'Sr5 Nd1 Sn8 Bi2'
_cell_volume   516.61413549
_cell_formula_units_Z   1
loop_
 _symmetry_equiv_pos_site_id
 _symmetry_equiv_pos_as_xyz
  1  'x, y, z'
loop_
 _atom_site_type_symbol
 _atom_site_label
 _atom_site_symmetry_multiplicity
 _atom_site_fract_x
 _atom_site_fract_y
 _atom_site_fract_z
 _atom_site_occupancy
  Sr  Sr0  1  0.750000  0.750000  0.000000  1
  Sr  Sr1  1  0.162059  0.662059  0.824120  1
  Sr  Sr2  1  0.837941  0.337941  0.175880  1
  Sr  Sr3  1  0.662059  0.837941  0.500000  1
  Sr  Sr4  1  0.337941  0.162059  0.500000  1
  Nd  Nd5  1  0.250000  0.250000  0.000000  1
  Sn  Sn6  1  0.832408  0.329508  0.787044  1
  Sn  Sn7  1  0.170492  0.667592  0.212956  1
  Sn  Sn8  1  0.542464  0.045364  0.212956  1
  Sn  Sn9  1  0.329508  0.542464  0.497100  1
  Sn  Sn10  1  0.957536  0.170492  0.502900  1
  Sn  Sn11  1  0.454636  0.957536  0.787044  1
  Sn  Sn12  1  0.667592  0.454636  0.497100  1
  Sn  Sn13  1  0.045364  0.832408  0.502900  1
  Bi  Bi14  1  0.003907  0.003907  0.000000  1
  Bi  Bi15  1  0.496093  0.496093  0.000000  1
