# generated using pymatgen
data_CsNi9As5
_symmetry_space_group_name_H-M   'P 1'
_cell_length_a   6.77533600
_cell_length_b   6.77533592
_cell_length_c   11.50143700
_cell_angle_alpha   90.00000000
_cell_angle_beta   90.00000000
_cell_angle_gamma   120.00000040
_symmetry_Int_Tables_number   1
_chemical_formula_structural   CsNi9As5
_chemical_formula_sum   'Cs2 Ni18 As10'
_cell_volume   457.24019833
_cell_formula_units_Z   2
loop_
 _symmetry_equiv_pos_site_id
 _symmetry_equiv_pos_as_xyz
  1  'x, y, z'
loop_
 _atom_site_type_symbol
 _atom_site_label
 _atom_site_symmetry_multiplicity
 _atom_site_fract_x
 _atom_site_fract_y
 _atom_site_fract_z
 _atom_site_occupancy
  Cs  Cs0  1  0.000000  0.000000  0.000000  1
  Cs  Cs1  1  0.000000  0.000000  0.500000  1
  Ni  Ni2  1  0.536147  0.463853  0.107584  1
  Ni  Ni3  1  0.072293  0.536147  0.607584  1
  Ni  Ni4  1  0.463853  0.927707  0.607584  1
  Ni  Ni5  1  0.536147  0.072293  0.107584  1
  Ni  Ni6  1  0.927707  0.463853  0.107584  1
  Ni  Ni7  1  0.072293  0.536147  0.892416  1
  Ni  Ni8  1  0.463853  0.927707  0.892416  1
  Ni  Ni9  1  0.463853  0.536147  0.607584  1
  Ni  Ni10  1  0.463853  0.536147  0.892416  1
  Ni  Ni11  1  0.536147  0.463853  0.392416  1
  Ni  Ni12  1  0.927707  0.463853  0.392416  1
  Ni  Ni13  1  0.536147  0.072293  0.392416  1
  Ni  Ni14  1  0.209516  0.790484  0.250000  1
  Ni  Ni15  1  0.419032  0.209516  0.750000  1
  Ni  Ni16  1  0.790484  0.580968  0.750000  1
  Ni  Ni17  1  0.209516  0.419032  0.250000  1
  Ni  Ni18  1  0.580968  0.790484  0.250000  1
  Ni  Ni19  1  0.790484  0.209516  0.750000  1
  As  As20  1  0.825380  0.174620  0.250000  1
  As  As21  1  0.650758  0.825380  0.750000  1
  As  As22  1  0.174620  0.349242  0.750000  1
  As  As23  1  0.825380  0.650758  0.250000  1
  As  As24  1  0.349242  0.174620  0.250000  1
  As  As25  1  0.174620  0.825380  0.750000  1
  As  As26  1  0.333333  0.666667  0.060832  1
  As  As27  1  0.666667  0.333333  0.560832  1
  As  As28  1  0.666667  0.333333  0.939168  1
  As  As29  1  0.333333  0.666667  0.439168  1
