# generated using pymatgen
data_Tb12Mn7Nb(ReN4)12
_symmetry_space_group_name_H-M   'P 1'
_cell_length_a   10.95814412
_cell_length_b   10.95814368
_cell_length_c   10.95814400
_cell_angle_alpha   109.57406326
_cell_angle_beta   109.57406799
_cell_angle_gamma   109.57407196
_symmetry_Int_Tables_number   1
_chemical_formula_structural   Tb12Mn7Nb(ReN4)12
_chemical_formula_sum   'Tb12 Mn7 Nb1 Re12 N48'
_cell_volume   1009.07700806
_cell_formula_units_Z   1
loop_
 _symmetry_equiv_pos_site_id
 _symmetry_equiv_pos_as_xyz
  1  'x, y, z'
loop_
 _atom_site_type_symbol
 _atom_site_label
 _atom_site_symmetry_multiplicity
 _atom_site_fract_x
 _atom_site_fract_y
 _atom_site_fract_z
 _atom_site_occupancy
  Tb  Tb0  1  0.374854  0.750604  0.124446  1
  Tb  Tb1  1  0.246922  0.373824  0.121511  1
  Tb  Tb2  1  0.373824  0.121511  0.246922  1
  Tb  Tb3  1  0.875554  0.625146  0.249396  1
  Tb  Tb4  1  0.750604  0.124446  0.374854  1
  Tb  Tb5  1  0.121511  0.246922  0.373824  1
  Tb  Tb6  1  0.878489  0.753078  0.626177  1
  Tb  Tb7  1  0.249396  0.875554  0.625146  1
  Tb  Tb8  1  0.124446  0.374854  0.750604  1
  Tb  Tb9  1  0.626177  0.878489  0.753078  1
  Tb  Tb10  1  0.625146  0.249396  0.875554  1
  Tb  Tb11  1  0.753078  0.626177  0.878489  1
  Mn  Mn12  1  0.000000  0.000000  0.000000  1
  Mn  Mn13  1  0.500000  0.000000  0.000000  1
  Mn  Mn14  1  0.000000  0.500000  0.000000  1
  Mn  Mn15  1  0.500000  0.500000  0.000000  1
  Mn  Mn16  1  0.000000  0.000000  0.500000  1
  Mn  Mn17  1  0.500000  0.000000  0.500000  1
  Mn  Mn18  1  0.000000  0.500000  0.500000  1
  Nb  Nb19  1  0.500000  0.500000  0.500000  1
  Re  Re20  1  0.875626  0.249948  0.124559  1
  Re  Re21  1  0.750051  0.875441  0.124374  1
  Re  Re22  1  0.626356  0.373310  0.246714  1
  Re  Re23  1  0.124559  0.875626  0.249948  1
  Re  Re24  1  0.246714  0.626356  0.373310  1
  Re  Re25  1  0.626690  0.753286  0.373645  1
  Re  Re26  1  0.373310  0.246714  0.626356  1
  Re  Re27  1  0.753286  0.373645  0.626690  1
  Re  Re28  1  0.875441  0.124374  0.750051  1
  Re  Re29  1  0.373645  0.626690  0.753286  1
  Re  Re30  1  0.249948  0.124559  0.875626  1
  Re  Re31  1  0.124374  0.750051  0.875441  1
  N  N32  1  0.317296  0.903014  0.020503  1
  N  N33  1  0.202717  0.116967  0.019899  1
  N  N34  1  0.884171  0.402569  0.085741  1
  N  N35  1  0.703719  0.684307  0.085769  1
  N  N36  1  0.620320  0.412558  0.096122  1
  N  N37  1  0.979496  0.682704  0.096986  1
  N  N38  1  0.019899  0.202717  0.116967  1
  N  N39  1  0.597430  0.914258  0.115829  1
  N  N40  1  0.201345  0.588079  0.182356  1
  N  N41  1  0.480768  0.598367  0.184320  1
  N  N42  1  0.116967  0.019899  0.202717  1
  N  N43  1  0.588079  0.182356  0.201345  1
  N  N44  1  0.315693  0.914231  0.296281  1
  N  N45  1  0.479206  0.379993  0.292586  1
  N  N46  1  0.914231  0.296281  0.315693  1
  N  N47  1  0.903014  0.020503  0.317296  1
  N  N48  1  0.292586  0.479206  0.379993  1
  N  N49  1  0.587442  0.903878  0.379680  1
  N  N50  1  0.815680  0.519233  0.401634  1
  N  N51  1  0.085741  0.884171  0.402569  1
  N  N52  1  0.096122  0.620320  0.412558  1
  N  N53  1  0.817643  0.798654  0.411921  1
  N  N54  1  0.598367  0.184320  0.480768  1
  N  N55  1  0.379993  0.292586  0.479206  1
  N  N56  1  0.620006  0.707414  0.520794  1
  N  N57  1  0.401634  0.815680  0.519233  1
  N  N58  1  0.182356  0.201345  0.588079  1
  N  N59  1  0.903878  0.379680  0.587442  1
  N  N60  1  0.914258  0.115829  0.597430  1
  N  N61  1  0.184320  0.480768  0.598367  1
  N  N62  1  0.412558  0.096122  0.620320  1
  N  N63  1  0.707414  0.520794  0.620006  1
  N  N64  1  0.085769  0.703719  0.684307  1
  N  N65  1  0.096986  0.979496  0.682704  1
  N  N66  1  0.520794  0.620006  0.707414  1
  N  N67  1  0.684307  0.085769  0.703719  1
  N  N68  1  0.883034  0.980102  0.797284  1
  N  N69  1  0.411921  0.817643  0.798654  1
  N  N70  1  0.519233  0.401634  0.815680  1
  N  N71  1  0.798654  0.411921  0.817643  1
  N  N72  1  0.402569  0.085741  0.884171  1
  N  N73  1  0.980102  0.797284  0.883034  1
  N  N74  1  0.020503  0.317296  0.903014  1
  N  N75  1  0.379680  0.587442  0.903878  1
  N  N76  1  0.296281  0.315693  0.914231  1
  N  N77  1  0.115829  0.597430  0.914258  1
  N  N78  1  0.682704  0.096986  0.979496  1
  N  N79  1  0.797284  0.883034  0.980102  1
