# generated using pymatgen
data_Ba12PPb3I8
_symmetry_space_group_name_H-M   'P 1'
_cell_length_a   16.80323391
_cell_length_b   16.02587757
_cell_length_c   8.71893529
_cell_angle_alpha   79.58905303
_cell_angle_beta   69.72434630
_cell_angle_gamma   31.27813934
_symmetry_Int_Tables_number   1
_chemical_formula_structural   Ba12PPb3I8
_chemical_formula_sum   'Ba12 P1 Pb3 I8'
_cell_volume   1110.87457428
_cell_formula_units_Z   1
loop_
 _symmetry_equiv_pos_site_id
 _symmetry_equiv_pos_as_xyz
  1  'x, y, z'
loop_
 _atom_site_type_symbol
 _atom_site_label
 _atom_site_symmetry_multiplicity
 _atom_site_fract_x
 _atom_site_fract_y
 _atom_site_fract_z
 _atom_site_occupancy
  Ba  Ba0  1  0.375661  0.939051  0.601498  1
  Ba  Ba1  1  0.586516  0.091067  0.391544  1
  Ba  Ba2  1  0.303152  0.870847  0.147872  1
  Ba  Ba3  1  0.939051  0.375661  0.083792  1
  Ba  Ba4  1  0.475554  0.023694  0.027423  1
  Ba  Ba5  1  0.870847  0.303152  0.678129  1
  Ba  Ba6  1  0.091067  0.586516  0.930874  1
  Ba  Ba7  1  0.663530  0.160496  0.855539  1
  Ba  Ba8  1  0.791107  0.219374  0.210620  1
  Ba  Ba9  1  0.219374  0.791107  0.778900  1
  Ba  Ba10  1  0.160496  0.663530  0.320434  1
  Ba  Ba11  1  0.023694  0.475554  0.473329  1
  P  P12  1  0.084072  0.084072  0.915928  1
  Pb  Pb13  1  0.918984  0.918984  0.081016  1
  Pb  Pb14  1  0.164174  0.164174  0.335826  1
  Pb  Pb15  1  0.333841  0.333841  0.166159  1
  I  I16  1  0.668757  0.668757  0.831243  1
  I  I17  1  0.745155  0.745155  0.254845  1
  I  I18  1  0.250588  0.250588  0.749412  1
  I  I19  1  0.579663  0.579663  0.420337  1
  I  I20  1  0.998554  0.998554  0.501446  1
  I  I21  1  0.828276  0.828276  0.671724  1
  I  I22  1  0.423645  0.423645  0.576355  1
  I  I23  1  0.504242  0.504242  0.995758  1
