# generated using pymatgen
data_Ca4Si2AsPd27
_symmetry_space_group_name_H-M   'P 1'
_cell_length_a   8.89987884
_cell_length_b   8.89987884
_cell_length_c   7.16146353
_cell_angle_alpha   90.56474547
_cell_angle_beta   90.56474547
_cell_angle_gamma   88.46196984
_symmetry_Int_Tables_number   1
_chemical_formula_structural   Ca4Si2AsPd27
_chemical_formula_sum   'Ca4 Si2 As1 Pd27'
_cell_volume   566.98606924
_cell_formula_units_Z   1
loop_
 _symmetry_equiv_pos_site_id
 _symmetry_equiv_pos_as_xyz
  1  'x, y, z'
loop_
 _atom_site_type_symbol
 _atom_site_label
 _atom_site_symmetry_multiplicity
 _atom_site_fract_x
 _atom_site_fract_y
 _atom_site_fract_z
 _atom_site_occupancy
  Ca  Ca0  1  0.510045  0.010045  0.935756  1
  Ca  Ca1  1  0.989955  0.489955  0.064244  1
  Ca  Ca2  1  0.002216  0.997784  0.500000  1
  Ca  Ca3  1  0.497784  0.502216  0.500000  1
  Si  Si4  1  0.507306  0.007306  0.444111  1
  Si  Si5  1  0.992694  0.492694  0.555889  1
  As  As6  1  0.250000  0.750000  0.000000  1
  Pd  Pd7  1  0.341115  0.841115  0.596920  1
  Pd  Pd8  1  0.334860  0.169016  0.619605  1
  Pd  Pd9  1  0.669016  0.834860  0.619605  1
  Pd  Pd10  1  0.668770  0.168770  0.618625  1
  Pd  Pd11  1  0.158885  0.658885  0.403080  1
  Pd  Pd12  1  0.165140  0.330984  0.380395  1
  Pd  Pd13  1  0.830984  0.665140  0.380395  1
  Pd  Pd14  1  0.831230  0.331230  0.381375  1
  Pd  Pd15  1  0.502602  0.774334  0.253733  1
  Pd  Pd16  1  0.497612  0.235154  0.255434  1
  Pd  Pd17  1  0.274334  0.002602  0.253733  1
  Pd  Pd18  1  0.735154  0.997612  0.255434  1
  Pd  Pd19  1  0.997398  0.725666  0.746267  1
  Pd  Pd20  1  0.002388  0.264846  0.744566  1
  Pd  Pd21  1  0.225666  0.497398  0.746267  1
  Pd  Pd22  1  0.764846  0.502388  0.744566  1
  Pd  Pd23  1  0.497219  0.354784  0.855935  1
  Pd  Pd24  1  0.486539  0.665080  0.859811  1
  Pd  Pd25  1  0.854784  0.997219  0.855935  1
  Pd  Pd26  1  0.165080  0.986539  0.859811  1
  Pd  Pd27  1  0.002781  0.145216  0.144065  1
  Pd  Pd28  1  0.013461  0.834920  0.140189  1
  Pd  Pd29  1  0.645216  0.502781  0.144065  1
  Pd  Pd30  1  0.334920  0.513461  0.140189  1
  Pd  Pd31  1  0.250000  0.250000  0.000000  1
  Pd  Pd32  1  0.750000  0.750000  0.000000  1
  Pd  Pd33  1  0.750000  0.250000  0.000000  1
