# generated using pymatgen
data_La3NdY2IrI10
_symmetry_space_group_name_H-M   'P 1'
_cell_length_a   7.96684061
_cell_length_b   10.13864809
_cell_length_c   9.96318141
_cell_angle_alpha   107.41281797
_cell_angle_beta   95.37717837
_cell_angle_gamma   105.03307926
_symmetry_Int_Tables_number   1
_chemical_formula_structural   La3NdY2IrI10
_chemical_formula_sum   'La3 Nd1 Y2 Ir1 I10'
_cell_volume   728.66688411
_cell_formula_units_Z   1
loop_
 _symmetry_equiv_pos_site_id
 _symmetry_equiv_pos_as_xyz
  1  'x, y, z'
loop_
 _atom_site_type_symbol
 _atom_site_label
 _atom_site_symmetry_multiplicity
 _atom_site_fract_x
 _atom_site_fract_y
 _atom_site_fract_z
 _atom_site_occupancy
  La  La0  1  0.116479  0.041849  0.761988  1
  La  La1  1  0.881758  0.958773  0.237389  1
  La  La2  1  0.969438  0.294658  0.091888  1
  Nd  Nd3  1  0.031156  0.711442  0.909458  1
  Y  Y4  1  0.346415  0.122495  0.163351  1
  Y  Y5  1  0.653521  0.874982  0.836370  1
  Ir  Ir6  1  0.999843  0.001001  0.000083  1
  I  I7  1  0.360986  0.440650  0.270168  1
  I  I8  1  0.647211  0.558645  0.732323  1
  I  I9  1  0.263111  0.085800  0.452682  1
  I  I10  1  0.734554  0.912042  0.546898  1
  I  I11  1  0.086794  0.373162  0.815822  1
  I  I12  1  0.915248  0.630913  0.180221  1
  I  I13  1  0.450255  0.822882  0.087677  1
  I  I14  1  0.546684  0.173416  0.910355  1
  I  I15  1  0.756118  0.251911  0.346316  1
  I  I16  1  0.240426  0.745379  0.657010  1
