# generated using pymatgen
data_CuAgIO6
_symmetry_space_group_name_H-M   'P 1'
_cell_length_a   5.15192900
_cell_length_b   5.15192841
_cell_length_c   4.90653500
_cell_angle_alpha   90.00000000
_cell_angle_beta   90.00000000
_cell_angle_gamma   119.99999737
_symmetry_Int_Tables_number   1
_chemical_formula_structural   CuAgIO6
_chemical_formula_sum   'Cu1 Ag1 I1 O6'
_cell_volume   112.78341309
_cell_formula_units_Z   1
loop_
 _symmetry_equiv_pos_site_id
 _symmetry_equiv_pos_as_xyz
  1  'x, y, z'
loop_
 _atom_site_type_symbol
 _atom_site_label
 _atom_site_symmetry_multiplicity
 _atom_site_fract_x
 _atom_site_fract_y
 _atom_site_fract_z
 _atom_site_occupancy
  Cu  Cu0  1  0.333333  0.666667  0.500000  1
  Ag  Ag1  1  0.000000  0.000000  0.000000  1
  I  I2  1  0.666667  0.333333  0.500000  1
  O  O3  1  0.371993  0.008825  0.717886  1
  O  O4  1  0.991175  0.363168  0.717886  1
  O  O5  1  0.636832  0.628007  0.717886  1
  O  O6  1  0.991175  0.628007  0.282114  1
  O  O7  1  0.636832  0.008825  0.282114  1
  O  O8  1  0.371993  0.363168  0.282114  1
