# generated using pymatgen
data_Er2ThAs4Pd7
_symmetry_space_group_name_H-M   'P 1'
_cell_length_a   8.14264207
_cell_length_b   8.14264231
_cell_length_c   9.70032946
_cell_angle_alpha   55.56579331
_cell_angle_beta   55.56579233
_cell_angle_gamma   29.36070558
_symmetry_Int_Tables_number   1
_chemical_formula_structural   Er2ThAs4Pd7
_chemical_formula_sum   'Er2 Th1 As4 Pd7'
_cell_volume   255.85855312
_cell_formula_units_Z   1
loop_
 _symmetry_equiv_pos_site_id
 _symmetry_equiv_pos_as_xyz
  1  'x, y, z'
loop_
 _atom_site_type_symbol
 _atom_site_label
 _atom_site_symmetry_multiplicity
 _atom_site_fract_x
 _atom_site_fract_y
 _atom_site_fract_z
 _atom_site_occupancy
  Er  Er0  1  0.824086  0.824086  0.168280  1
  Er  Er1  1  0.175914  0.175914  0.831720  1
  Th  Th2  1  0.500000  0.500000  0.500000  1
  As  As3  1  0.392196  0.392196  0.320286  1
  As  As4  1  0.607804  0.607804  0.679714  1
  As  As5  1  0.838433  0.838433  0.753621  1
  As  As6  1  0.161567  0.161567  0.246379  1
  Pd  Pd7  1  0.666412  0.666412  0.071464  1
  Pd  Pd8  1  0.012069  0.012069  0.205996  1
  Pd  Pd9  1  0.987931  0.987931  0.794004  1
  Pd  Pd10  1  0.500000  0.500000  0.000000  1
  Pd  Pd11  1  0.193057  0.193057  0.475170  1
  Pd  Pd12  1  0.806943  0.806943  0.524830  1
  Pd  Pd13  1  0.333588  0.333588  0.928536  1
