# generated using pymatgen
data_Er8ReOs(RuC4)2
_symmetry_space_group_name_H-M   'P 1'
_cell_length_a   5.05548000
_cell_length_b   6.46128316
_cell_length_c   9.72287116
_cell_angle_alpha   89.93308747
_cell_angle_beta   90.00000000
_cell_angle_gamma   90.00000000
_symmetry_Int_Tables_number   1
_chemical_formula_structural   Er8ReOs(RuC4)2
_chemical_formula_sum   'Er8 Re1 Os1 Ru2 C8'
_cell_volume   317.59627889
_cell_formula_units_Z   1
loop_
 _symmetry_equiv_pos_site_id
 _symmetry_equiv_pos_as_xyz
  1  'x, y, z'
loop_
 _atom_site_type_symbol
 _atom_site_label
 _atom_site_symmetry_multiplicity
 _atom_site_fract_x
 _atom_site_fract_y
 _atom_site_fract_z
 _atom_site_occupancy
  Er  Er0  1  0.750000  0.529962  0.784821  1
  Er  Er1  1  0.250000  0.969154  0.283241  1
  Er  Er2  1  0.750000  0.674455  0.444666  1
  Er  Er3  1  0.250000  0.822762  0.943931  1
  Er  Er4  1  0.750000  0.180753  0.056509  1
  Er  Er5  1  0.250000  0.326774  0.555246  1
  Er  Er6  1  0.250000  0.468875  0.218161  1
  Er  Er7  1  0.750000  0.031772  0.715064  1
  Re  Re8  1  0.750000  0.719049  0.132368  1
  Os  Os9  1  0.250000  0.281660  0.866048  1
  Ru  Ru10  1  0.250000  0.782191  0.633789  1
  Ru  Ru11  1  0.750000  0.218722  0.368416  1
  C  C12  1  0.250000  0.671410  0.445253  1
  C  C13  1  0.250000  0.545883  0.759137  1
  C  C14  1  0.750000  0.452611  0.239446  1
  C  C15  1  0.750000  0.824549  0.944342  1
  C  C16  1  0.250000  0.047764  0.743146  1
  C  C17  1  0.250000  0.173210  0.054028  1
  C  C18  1  0.750000  0.326153  0.555281  1
  C  C19  1  0.750000  0.952292  0.257105  1
