# generated using pymatgen
data_Ni2Ag2(MoO4)3
_symmetry_space_group_name_H-M   'P 1'
_cell_length_a   7.05712566
_cell_length_b   8.78386872
_cell_length_c   10.41731930
_cell_angle_alpha   107.82699498
_cell_angle_beta   104.78177614
_cell_angle_gamma   103.59881091
_symmetry_Int_Tables_number   1
_chemical_formula_structural   Ni2Ag2(MoO4)3
_chemical_formula_sum   'Ni4 Ag4 Mo6 O24'
_cell_volume   558.93231068
_cell_formula_units_Z   2
loop_
 _symmetry_equiv_pos_site_id
 _symmetry_equiv_pos_as_xyz
  1  'x, y, z'
loop_
 _atom_site_type_symbol
 _atom_site_label
 _atom_site_symmetry_multiplicity
 _atom_site_fract_x
 _atom_site_fract_y
 _atom_site_fract_z
 _atom_site_occupancy
  Ni  Ni0  1  0.875032  0.462753  0.101117  1
  Ni  Ni1  1  0.124647  0.537760  0.897641  1
  Ni  Ni2  1  0.465107  0.304298  0.483082  1
  Ni  Ni3  1  0.537732  0.696497  0.518533  1
  Ag  Ag4  1  0.840833  0.856551  0.358332  1
  Ag  Ag5  1  0.164776  0.151737  0.649809  1
  Ag  Ag6  1  0.482329  0.996864  0.990089  1
  Ag  Ag7  1  0.988835  0.025025  0.065693  1
  Mo  Mo8  1  0.284565  0.834939  0.239043  1
  Mo  Mo9  1  0.714187  0.164037  0.761245  1
  Mo  Mo10  1  0.914205  0.253828  0.365180  1
  Mo  Mo11  1  0.092988  0.748760  0.635485  1
  Mo  Mo12  1  0.618537  0.592058  0.833412  1
  Mo  Mo13  1  0.377732  0.405858  0.165821  1
  O  O14  1  0.332240  0.056790  0.325202  1
  O  O15  1  0.661875  0.943185  0.672740  1
  O  O16  1  0.028797  0.722893  0.229987  1
  O  O17  1  0.968458  0.276904  0.768855  1
  O  O18  1  0.170558  0.475589  0.080088  1
  O  O19  1  0.830196  0.527756  0.921335  1
  O  O20  1  0.744269  0.304111  0.459254  1
  O  O21  1  0.252018  0.685211  0.535674  1
  O  O22  1  0.611691  0.491661  0.139346  1
  O  O23  1  0.383133  0.498510  0.855745  1
  O  O24  1  0.284075  0.790358  0.056189  1
  O  O25  1  0.720704  0.209024  0.946039  1
  O  O26  1  0.941677  0.374665  0.257160  1
  O  O27  1  0.062050  0.629570  0.744533  1
  O  O28  1  0.293827  0.179991  0.076633  1
  O  O29  1  0.688039  0.815445  0.923230  1
  O  O30  1  0.838099  0.725077  0.514936  1
  O  O31  1  0.167175  0.282996  0.488926  1
  O  O32  1  0.798800  0.032386  0.239054  1
  O  O33  1  0.227333  0.968339  0.756419  1
  O  O34  1  0.478255  0.774381  0.344751  1
  O  O35  1  0.523122  0.228803  0.657110  1
  O  O36  1  0.424527  0.447340  0.355239  1
  O  O37  1  0.579078  0.553452  0.644973  1
