# generated using pymatgen
data_Tb9Ce(Ga2Ru3)2
_symmetry_space_group_name_H-M   'P 1'
_cell_length_a   8.43699965
_cell_length_b   8.43699976
_cell_length_c   8.31877600
_cell_angle_alpha   110.21283862
_cell_angle_beta   109.23369485
_cell_angle_gamma   109.54378952
_symmetry_Int_Tables_number   1
_chemical_formula_structural   Tb9Ce(Ga2Ru3)2
_chemical_formula_sum   'Tb9 Ce1 Ga4 Ru6'
_cell_volume   452.54218703
_cell_formula_units_Z   1
loop_
 _symmetry_equiv_pos_site_id
 _symmetry_equiv_pos_as_xyz
  1  'x, y, z'
loop_
 _atom_site_type_symbol
 _atom_site_label
 _atom_site_symmetry_multiplicity
 _atom_site_fract_x
 _atom_site_fract_y
 _atom_site_fract_z
 _atom_site_occupancy
  Tb  Tb0  1  0.778815  0.784952  0.783083  1
  Tb  Tb1  1  0.315328  0.565328  0.750000  1
  Tb  Tb2  1  0.754234  0.317045  0.566688  1
  Tb  Tb3  1  0.567440  0.748232  0.315012  1
  Tb  Tb4  1  0.718351  0.500004  0.997748  1
  Tb  Tb5  1  0.002258  0.720602  0.502252  1
  Tb  Tb6  1  0.501868  0.995732  0.716917  1
  Tb  Tb7  1  0.250357  0.187546  0.933312  1
  Tb  Tb8  1  0.933219  0.252427  0.184988  1
  Ce  Ce9  1  0.195870  0.945870  0.250000  1
  Ga  Ga10  1  0.414808  0.415122  0.409732  1
  Ga  Ga11  1  0.091456  0.498184  0.004958  1
  Ga  Ga12  1  0.993225  0.086498  0.495042  1
  Ga  Ga13  1  0.505389  0.005076  0.090268  1
  Ru  Ru14  1  0.873590  0.123590  0.750000  1
  Ru  Ru15  1  0.739353  0.868625  0.116322  1
  Ru  Ru16  1  0.127960  0.764407  0.907973  1
  Ru  Ru17  1  0.252303  0.623032  0.383678  1
  Ru  Ru18  1  0.356433  0.219987  0.592027  1
  Ru  Ru19  1  0.627741  0.377741  0.250000  1
