# generated using pymatgen
data_La4ZnCd2CuPd2
_symmetry_space_group_name_H-M   'P 1'
_cell_length_a   7.98366553
_cell_length_b   8.00782719
_cell_length_c   3.96300300
_cell_angle_alpha   90.00000000
_cell_angle_beta   90.00000000
_cell_angle_gamma   89.44296404
_symmetry_Int_Tables_number   1
_chemical_formula_structural   La4ZnCd2CuPd2
_chemical_formula_sum   'La4 Zn1 Cd2 Cu1 Pd2'
_cell_volume   253.34999654
_cell_formula_units_Z   1
loop_
 _symmetry_equiv_pos_site_id
 _symmetry_equiv_pos_as_xyz
  1  'x, y, z'
loop_
 _atom_site_type_symbol
 _atom_site_label
 _atom_site_symmetry_multiplicity
 _atom_site_fract_x
 _atom_site_fract_y
 _atom_site_fract_z
 _atom_site_occupancy
  La  La0  1  0.677130  0.180067  0.500000  1
  La  La1  1  0.333567  0.835812  0.500000  1
  La  La2  1  0.171203  0.312169  0.500000  1
  La  La3  1  0.813966  0.668681  0.500000  1
  Zn  Zn4  1  0.121199  0.620968  0.000000  1
  Cd  Cd5  1  0.998420  0.992915  0.000000  1
  Cd  Cd6  1  0.494559  0.500740  0.000000  1
  Cu  Cu7  1  0.625115  0.882814  0.000000  1
  Pd  Pd8  1  0.881750  0.382736  0.000000  1
  Pd  Pd9  1  0.383091  0.123098  0.000000  1
