# generated using pymatgen
data_ScZn2Rh3O8
_symmetry_space_group_name_H-M   'P 1'
_cell_length_a   6.23658335
_cell_length_b   6.23658287
_cell_length_c   6.01908448
_cell_angle_alpha   58.79729522
_cell_angle_beta   58.79730467
_cell_angle_gamma   60.00000837
_symmetry_Int_Tables_number   1
_chemical_formula_structural   ScZn2Rh3O8
_chemical_formula_sum   'Sc1 Zn2 Rh3 O8'
_cell_volume   162.46879243
_cell_formula_units_Z   1
loop_
 _symmetry_equiv_pos_site_id
 _symmetry_equiv_pos_as_xyz
  1  'x, y, z'
loop_
 _atom_site_type_symbol
 _atom_site_label
 _atom_site_symmetry_multiplicity
 _atom_site_fract_x
 _atom_site_fract_y
 _atom_site_fract_z
 _atom_site_occupancy
  Sc  Sc0  1  0.125000  0.125000  0.625000  1
  Zn  Zn1  1  0.507547  0.507547  0.477358  1
  Zn  Zn2  1  0.742453  0.742453  0.772642  1
  Rh  Rh3  1  0.625000  0.125000  0.125000  1
  Rh  Rh4  1  0.125000  0.125000  0.125000  1
  Rh  Rh5  1  0.125000  0.625000  0.125000  1
  O  O6  1  0.370173  0.370173  0.360657  1
  O  O7  1  0.351005  0.879827  0.889343  1
  O  O8  1  0.885909  0.885909  0.342273  1
  O  O9  1  0.879827  0.351005  0.889343  1
  O  O10  1  0.364091  0.364091  0.907727  1
  O  O11  1  0.370173  0.898995  0.360657  1
  O  O12  1  0.879827  0.879827  0.889343  1
  O  O13  1  0.898995  0.370173  0.360657  1
