# generated using pymatgen
data_YbPr16(TmGa4)3
_symmetry_space_group_name_H-M   'P 1'
_cell_length_a   7.84038400
_cell_length_b   7.84038400
_cell_length_c   14.75790100
_cell_angle_alpha   90.00000000
_cell_angle_beta   90.00000000
_cell_angle_gamma   90.00000000
_symmetry_Int_Tables_number   1
_chemical_formula_structural   YbPr16(TmGa4)3
_chemical_formula_sum   'Yb1 Pr16 Tm3 Ga12'
_cell_volume   907.19210097
_cell_formula_units_Z   1
loop_
 _symmetry_equiv_pos_site_id
 _symmetry_equiv_pos_as_xyz
  1  'x, y, z'
loop_
 _atom_site_type_symbol
 _atom_site_label
 _atom_site_symmetry_multiplicity
 _atom_site_fract_x
 _atom_site_fract_y
 _atom_site_fract_z
 _atom_site_occupancy
  Yb  Yb0  1  0.000000  0.500000  0.728361  1
  Pr  Pr1  1  0.816178  0.837902  0.603341  1
  Pr  Pr2  1  0.183160  0.838984  0.103645  1
  Pr  Pr3  1  0.160835  0.815720  0.395819  1
  Pr  Pr4  1  0.839165  0.184280  0.395819  1
  Pr  Pr5  1  0.684280  0.660835  0.395819  1
  Pr  Pr6  1  0.662098  0.316178  0.603341  1
  Pr  Pr7  1  0.337902  0.683822  0.603341  1
  Pr  Pr8  1  0.661016  0.683160  0.103645  1
  Pr  Pr9  1  0.682689  0.338362  0.897293  1
  Pr  Pr10  1  0.838362  0.817311  0.897293  1
  Pr  Pr11  1  0.315720  0.339165  0.395819  1
  Pr  Pr12  1  0.183822  0.162098  0.603341  1
  Pr  Pr13  1  0.816840  0.161016  0.103645  1
  Pr  Pr14  1  0.317311  0.661638  0.897293  1
  Pr  Pr15  1  0.338984  0.316840  0.103645  1
  Pr  Pr16  1  0.161638  0.182689  0.897293  1
  Tm  Tm17  1  0.000000  0.500000  0.224659  1
  Tm  Tm18  1  0.500000  0.000000  0.276629  1
  Tm  Tm19  1  0.500000  0.000000  0.775454  1
  Ga  Ga20  1  0.622060  0.378748  0.249653  1
  Ga  Ga21  1  0.123831  0.884414  0.750012  1
  Ga  Ga22  1  0.384414  0.376169  0.750012  1
  Ga  Ga23  1  0.377940  0.621252  0.249653  1
  Ga  Ga24  1  0.878748  0.877940  0.249653  1
  Ga  Ga25  1  0.615586  0.623831  0.750012  1
  Ga  Ga26  1  0.000000  0.500000  0.508724  1
  Ga  Ga27  1  0.876169  0.115586  0.750012  1
  Ga  Ga28  1  0.500000  0.000000  0.486876  1
  Ga  Ga29  1  0.500000  0.000000  0.987073  1
  Ga  Ga30  1  0.121252  0.122060  0.249653  1
  Ga  Ga31  1  0.000000  0.500000  0.013176  1
