# generated using pymatgen
data_Y2Er10Tc3Pt
_symmetry_space_group_name_H-M   'P 1'
_cell_length_a   6.28495007
_cell_length_b   7.34846838
_cell_length_c   9.11441200
_cell_angle_alpha   90.00000000
_cell_angle_beta   90.00000000
_cell_angle_gamma   90.06673079
_symmetry_Int_Tables_number   1
_chemical_formula_structural   Y2Er10Tc3Pt
_chemical_formula_sum   'Y2 Er10 Tc3 Pt1'
_cell_volume   420.94661668
_cell_formula_units_Z   1
loop_
 _symmetry_equiv_pos_site_id
 _symmetry_equiv_pos_as_xyz
  1  'x, y, z'
loop_
 _atom_site_type_symbol
 _atom_site_label
 _atom_site_symmetry_multiplicity
 _atom_site_fract_x
 _atom_site_fract_y
 _atom_site_fract_z
 _atom_site_occupancy
  Y  Y0  1  0.126906  0.457192  0.750000  1
  Y  Y1  1  0.372638  0.964961  0.750000  1
  Er  Er2  1  0.328323  0.676718  0.067383  1
  Er  Er3  1  0.165970  0.177376  0.435989  1
  Er  Er4  1  0.668100  0.318476  0.558015  1
  Er  Er5  1  0.836263  0.826680  0.941170  1
  Er  Er6  1  0.668100  0.318476  0.941985  1
  Er  Er7  1  0.836263  0.826680  0.558830  1
  Er  Er8  1  0.328323  0.676718  0.432617  1
  Er  Er9  1  0.165970  0.177376  0.064011  1
  Er  Er10  1  0.873251  0.541932  0.250000  1
  Er  Er11  1  0.623871  0.038452  0.250000  1
  Tc  Tc12  1  0.037785  0.886408  0.250000  1
  Tc  Tc13  1  0.463972  0.388046  0.250000  1
  Tc  Tc14  1  0.954650  0.112853  0.750000  1
  Pt  Pt15  1  0.549616  0.611658  0.750000  1
