# generated using pymatgen
data_Hf9TiRe3B
_symmetry_space_group_name_H-M   'P 1'
_cell_length_a   8.50158100
_cell_length_b   8.50158065
_cell_length_c   8.46849800
_cell_angle_alpha   90.00000000
_cell_angle_beta   90.00000000
_cell_angle_gamma   119.99999748
_symmetry_Int_Tables_number   1
_chemical_formula_structural   Hf9TiRe3B
_chemical_formula_sum   'Hf18 Ti2 Re6 B2'
_cell_volume   530.07388436
_cell_formula_units_Z   2
loop_
 _symmetry_equiv_pos_site_id
 _symmetry_equiv_pos_as_xyz
  1  'x, y, z'
loop_
 _atom_site_type_symbol
 _atom_site_label
 _atom_site_symmetry_multiplicity
 _atom_site_fract_x
 _atom_site_fract_y
 _atom_site_fract_z
 _atom_site_occupancy
  Hf  Hf0  1  0.202112  0.797888  0.444213  1
  Hf  Hf1  1  0.202112  0.404224  0.444213  1
  Hf  Hf2  1  0.595776  0.797888  0.444213  1
  Hf  Hf3  1  0.797888  0.202112  0.555787  1
  Hf  Hf4  1  0.797888  0.595776  0.555787  1
  Hf  Hf5  1  0.404224  0.202112  0.555787  1
  Hf  Hf6  1  0.797888  0.202112  0.944213  1
  Hf  Hf7  1  0.797888  0.595776  0.944213  1
  Hf  Hf8  1  0.404224  0.202112  0.944213  1
  Hf  Hf9  1  0.202112  0.797888  0.055787  1
  Hf  Hf10  1  0.202112  0.404224  0.055787  1
  Hf  Hf11  1  0.595776  0.797888  0.055787  1
  Hf  Hf12  1  0.541093  0.458907  0.250000  1
  Hf  Hf13  1  0.541093  0.082186  0.250000  1
  Hf  Hf14  1  0.917814  0.458907  0.250000  1
  Hf  Hf15  1  0.458907  0.541093  0.750000  1
  Hf  Hf16  1  0.458907  0.917814  0.750000  1
  Hf  Hf17  1  0.082186  0.541093  0.750000  1
  Ti  Ti18  1  0.000000  0.000000  0.500000  1
  Ti  Ti19  1  0.000000  0.000000  0.000000  1
  Re  Re20  1  0.886985  0.113015  0.250000  1
  Re  Re21  1  0.886985  0.773971  0.250000  1
  Re  Re22  1  0.226029  0.113015  0.250000  1
  Re  Re23  1  0.113015  0.886985  0.750000  1
  Re  Re24  1  0.113015  0.226029  0.750000  1
  Re  Re25  1  0.773971  0.886985  0.750000  1
  B  B26  1  0.333333  0.666667  0.250000  1
  B  B27  1  0.666667  0.333333  0.750000  1
