# generated using pymatgen
data_NdMgScCu9
_symmetry_space_group_name_H-M   'P 1'
_cell_length_a   5.05487500
_cell_length_b   5.05487374
_cell_length_c   16.16659200
_cell_angle_alpha   90.00000000
_cell_angle_beta   90.00000000
_cell_angle_gamma   120.00000168
_symmetry_Int_Tables_number   1
_chemical_formula_structural   NdMgScCu9
_chemical_formula_sum   'Nd2 Mg2 Sc2 Cu18'
_cell_volume   357.74192164
_cell_formula_units_Z   2
loop_
 _symmetry_equiv_pos_site_id
 _symmetry_equiv_pos_as_xyz
  1  'x, y, z'
loop_
 _atom_site_type_symbol
 _atom_site_label
 _atom_site_symmetry_multiplicity
 _atom_site_fract_x
 _atom_site_fract_y
 _atom_site_fract_z
 _atom_site_occupancy
  Nd  Nd0  1  0.666667  0.333333  0.241847  1
  Nd  Nd1  1  0.333333  0.666667  0.741847  1
  Mg  Mg2  1  0.666667  0.333333  0.032938  1
  Mg  Mg3  1  0.333333  0.666667  0.532938  1
  Sc  Sc4  1  0.666667  0.333333  0.470599  1
  Sc  Sc5  1  0.333333  0.666667  0.970599  1
  Cu  Cu6  1  0.333333  0.666667  0.250622  1
  Cu  Cu7  1  0.666667  0.333333  0.750622  1
  Cu  Cu8  1  0.168798  0.831202  0.378335  1
  Cu  Cu9  1  0.168798  0.337597  0.378335  1
  Cu  Cu10  1  0.000000  0.000000  0.752135  1
  Cu  Cu11  1  0.000000  0.000000  0.252135  1
  Cu  Cu12  1  0.000000  0.000000  0.000642  1
  Cu  Cu13  1  0.000000  0.000000  0.500642  1
  Cu  Cu14  1  0.167509  0.335017  0.122071  1
  Cu  Cu15  1  0.832491  0.167509  0.622071  1
  Cu  Cu16  1  0.335017  0.167509  0.622071  1
  Cu  Cu17  1  0.664983  0.832491  0.122071  1
  Cu  Cu18  1  0.167509  0.832491  0.122071  1
  Cu  Cu19  1  0.831202  0.662403  0.878335  1
  Cu  Cu20  1  0.831202  0.168798  0.878335  1
  Cu  Cu21  1  0.832491  0.664983  0.622071  1
  Cu  Cu22  1  0.337597  0.168798  0.878335  1
  Cu  Cu23  1  0.662403  0.831202  0.378335  1
