# generated using pymatgen
data_Ba6YHo(BO3)6
_symmetry_space_group_name_H-M   'P 1'
_cell_length_a   8.20358779
_cell_length_b   8.20358768
_cell_length_c   8.20358872
_cell_angle_alpha   105.58322047
_cell_angle_beta   105.58321978
_cell_angle_gamma   105.58322583
_symmetry_Int_Tables_number   1
_chemical_formula_structural   Ba6YHo(BO3)6
_chemical_formula_sum   'Ba6 Y1 Ho1 B6 O18'
_cell_volume   476.44239808
_cell_formula_units_Z   1
loop_
 _symmetry_equiv_pos_site_id
 _symmetry_equiv_pos_as_xyz
  1  'x, y, z'
loop_
 _atom_site_type_symbol
 _atom_site_label
 _atom_site_symmetry_multiplicity
 _atom_site_fract_x
 _atom_site_fract_y
 _atom_site_fract_z
 _atom_site_occupancy
  Ba  Ba0  1  0.651138  0.263635  0.159870  1
  Ba  Ba1  1  0.159870  0.651138  0.263634  1
  Ba  Ba2  1  0.736365  0.840130  0.348862  1
  Ba  Ba3  1  0.263635  0.159870  0.651138  1
  Ba  Ba4  1  0.840130  0.348862  0.736365  1
  Ba  Ba5  1  0.348862  0.736365  0.840130  1
  Y  Y6  1  0.000000  0.000000  0.000000  1
  Ho  Ho7  1  0.500000  0.500000  0.500000  1
  B  B8  1  0.292763  0.374135  0.043487  1
  B  B9  1  0.374135  0.043488  0.292763  1
  B  B10  1  0.043488  0.292763  0.374135  1
  B  B11  1  0.956512  0.707237  0.625865  1
  B  B12  1  0.625865  0.956512  0.707237  1
  B  B13  1  0.707237  0.625865  0.956512  1
  O  O14  1  0.739521  0.812588  0.012747  1
  O  O15  1  0.802181  0.556088  0.067800  1
  O  O16  1  0.987253  0.260479  0.187412  1
  O  O17  1  0.443911  0.932199  0.197819  1
  O  O18  1  0.428561  0.490455  0.212625  1
  O  O19  1  0.187412  0.987253  0.260479  1
  O  O20  1  0.490455  0.212625  0.428560  1
  O  O21  1  0.932199  0.197820  0.443911  1
  O  O22  1  0.212625  0.428561  0.490455  1
  O  O23  1  0.787375  0.571439  0.509545  1
  O  O24  1  0.067801  0.802180  0.556089  1
  O  O25  1  0.509545  0.787375  0.571440  1
  O  O26  1  0.812588  0.012747  0.739521  1
  O  O27  1  0.571439  0.509545  0.787375  1
  O  O28  1  0.556089  0.067801  0.802181  1
  O  O29  1  0.012747  0.739521  0.812588  1
  O  O30  1  0.197819  0.443912  0.932200  1
  O  O31  1  0.260479  0.187412  0.987253  1
