# generated using pymatgen
data_PrNp3O10
_symmetry_space_group_name_H-M   'P 1'
_cell_length_a   5.76235006
_cell_length_b   5.76235066
_cell_length_c   8.16244173
_cell_angle_alpha   69.30655089
_cell_angle_beta   69.30654709
_cell_angle_gamma   70.82455500
_symmetry_Int_Tables_number   1
_chemical_formula_structural   PrNp3O10
_chemical_formula_sum   'Pr1 Np3 O10'
_cell_volume   230.67999933
_cell_formula_units_Z   1
loop_
 _symmetry_equiv_pos_site_id
 _symmetry_equiv_pos_as_xyz
  1  'x, y, z'
loop_
 _atom_site_type_symbol
 _atom_site_label
 _atom_site_symmetry_multiplicity
 _atom_site_fract_x
 _atom_site_fract_y
 _atom_site_fract_z
 _atom_site_occupancy
  Pr  Pr0  1  0.954567  0.045433  0.250000  1
  Np  Np1  1  0.501923  0.505946  0.996178  1
  Np  Np2  1  0.494054  0.498077  0.503822  1
  Np  Np3  1  0.037819  0.962181  0.750000  1
  O  O4  1  0.395627  0.604373  0.750000  1
  O  O5  1  0.256253  0.196951  0.635366  1
  O  O6  1  0.711006  0.738346  0.384680  1
  O  O7  1  0.261654  0.288994  0.115320  1
  O  O8  1  0.591310  0.408690  0.250000  1
  O  O9  1  0.803049  0.743747  0.864634  1
  O  O10  1  0.218664  0.814818  0.021641  1
  O  O11  1  0.794053  0.205162  0.546110  1
  O  O12  1  0.794838  0.205947  0.953890  1
  O  O13  1  0.185182  0.781336  0.478359  1
