# generated using pymatgen
data_Pr16CdTc(HgPt)3
_symmetry_space_group_name_H-M   'P 1'
_cell_length_a   10.09366315
_cell_length_b   10.11895266
_cell_length_c   10.11895234
_cell_angle_alpha   59.31250538
_cell_angle_beta   59.32206586
_cell_angle_gamma   59.32206238
_symmetry_Int_Tables_number   1
_chemical_formula_structural   Pr16CdTc(HgPt)3
_chemical_formula_sum   'Pr16 Cd1 Tc1 Hg3 Pt3'
_cell_volume   719.47771393
_cell_formula_units_Z   1
loop_
 _symmetry_equiv_pos_site_id
 _symmetry_equiv_pos_as_xyz
  1  'x, y, z'
loop_
 _atom_site_type_symbol
 _atom_site_label
 _atom_site_symmetry_multiplicity
 _atom_site_fract_x
 _atom_site_fract_y
 _atom_site_fract_z
 _atom_site_occupancy
  Pr  Pr0  1  0.352735  0.352305  0.352305  1
  Pr  Pr1  1  0.348224  0.347845  0.952424  1
  Pr  Pr2  1  0.348224  0.952424  0.347845  1
  Pr  Pr3  1  0.949891  0.348825  0.348825  1
  Pr  Pr4  1  0.815522  0.189157  0.189157  1
  Pr  Pr5  1  0.188395  0.807110  0.807110  1
  Pr  Pr6  1  0.188005  0.815980  0.189049  1
  Pr  Pr7  1  0.805532  0.190195  0.805807  1
  Pr  Pr8  1  0.188005  0.189049  0.815980  1
  Pr  Pr9  1  0.805532  0.805807  0.190195  1
  Pr  Pr10  1  0.936292  0.563996  0.563996  1
  Pr  Pr11  1  0.555067  0.938971  0.938971  1
  Pr  Pr12  1  0.563075  0.937637  0.563868  1
  Pr  Pr13  1  0.938432  0.555721  0.938686  1
  Pr  Pr14  1  0.563075  0.563868  0.937637  1
  Pr  Pr15  1  0.938432  0.938686  0.555721  1
  Cd  Cd16  1  0.260592  0.579541  0.579541  1
  Tc  Tc17  1  0.141949  0.142332  0.142332  1
  Hg  Hg18  1  0.582225  0.584669  0.584669  1
  Hg  Hg19  1  0.583042  0.585694  0.245459  1
  Hg  Hg20  1  0.583042  0.245459  0.585694  1
  Pt  Pt21  1  0.145466  0.145713  0.573410  1
  Pt  Pt22  1  0.145466  0.573410  0.145713  1
  Pt  Pt23  1  0.573775  0.145602  0.145602  1
