# generated using pymatgen
data_Hf9ZnRe3W
_symmetry_space_group_name_H-M   'P 1'
_cell_length_a   8.67097500
_cell_length_b   8.67097507
_cell_length_c   8.58627800
_cell_angle_alpha   90.00000000
_cell_angle_beta   90.00000000
_cell_angle_gamma   119.99999590
_symmetry_Int_Tables_number   1
_chemical_formula_structural   Hf9ZnRe3W
_chemical_formula_sum   'Hf18 Zn2 Re6 W2'
_cell_volume   559.07679537
_cell_formula_units_Z   2
loop_
 _symmetry_equiv_pos_site_id
 _symmetry_equiv_pos_as_xyz
  1  'x, y, z'
loop_
 _atom_site_type_symbol
 _atom_site_label
 _atom_site_symmetry_multiplicity
 _atom_site_fract_x
 _atom_site_fract_y
 _atom_site_fract_z
 _atom_site_occupancy
  Hf  Hf0  1  0.195524  0.804476  0.452479  1
  Hf  Hf1  1  0.195524  0.391047  0.452479  1
  Hf  Hf2  1  0.608953  0.804476  0.452479  1
  Hf  Hf3  1  0.804476  0.195524  0.547521  1
  Hf  Hf4  1  0.804476  0.608953  0.547521  1
  Hf  Hf5  1  0.391047  0.195524  0.547521  1
  Hf  Hf6  1  0.804476  0.195524  0.952479  1
  Hf  Hf7  1  0.804476  0.608953  0.952479  1
  Hf  Hf8  1  0.391047  0.195524  0.952479  1
  Hf  Hf9  1  0.195524  0.804476  0.047521  1
  Hf  Hf10  1  0.195524  0.391047  0.047521  1
  Hf  Hf11  1  0.608953  0.804476  0.047521  1
  Hf  Hf12  1  0.539874  0.460126  0.250000  1
  Hf  Hf13  1  0.539874  0.079748  0.250000  1
  Hf  Hf14  1  0.920252  0.460126  0.250000  1
  Hf  Hf15  1  0.460126  0.539874  0.750000  1
  Hf  Hf16  1  0.460126  0.920252  0.750000  1
  Hf  Hf17  1  0.079748  0.539874  0.750000  1
  Zn  Zn18  1  0.333333  0.666667  0.250000  1
  Zn  Zn19  1  0.666667  0.333333  0.750000  1
  Re  Re20  1  0.889215  0.110785  0.250000  1
  Re  Re21  1  0.889215  0.778430  0.250000  1
  Re  Re22  1  0.221570  0.110785  0.250000  1
  Re  Re23  1  0.110785  0.889215  0.750000  1
  Re  Re24  1  0.110785  0.221570  0.750000  1
  Re  Re25  1  0.778430  0.889215  0.750000  1
  W  W26  1  0.000000  0.000000  0.500000  1
  W  W27  1  0.000000  0.000000  0.000000  1
