# generated using pymatgen
data_Th3AlIn2Ru3
_symmetry_space_group_name_H-M   'P 1'
_cell_length_a   7.57816400
_cell_length_b   7.48869664
_cell_length_c   4.06329400
_cell_angle_alpha   90.00000000
_cell_angle_beta   90.00000000
_cell_angle_gamma   120.39599637
_symmetry_Int_Tables_number   1
_chemical_formula_structural   Th3AlIn2Ru3
_chemical_formula_sum   'Th3 Al1 In2 Ru3'
_cell_volume   198.89885096
_cell_formula_units_Z   1
loop_
 _symmetry_equiv_pos_site_id
 _symmetry_equiv_pos_as_xyz
  1  'x, y, z'
loop_
 _atom_site_type_symbol
 _atom_site_label
 _atom_site_symmetry_multiplicity
 _atom_site_fract_x
 _atom_site_fract_y
 _atom_site_fract_z
 _atom_site_occupancy
  Th  Th0  1  0.996243  0.406044  0.500000  1
  Th  Th1  1  0.590199  0.593956  0.500000  1
  Th  Th2  1  0.435409  0.000000  0.500000  1
  Al  Al3  1  0.753906  0.000000  0.000000  1
  In  In4  1  0.004909  0.759618  0.000000  1
  In  In5  1  0.245292  0.240382  0.000000  1
  Ru  Ru6  1  0.346684  0.678646  0.000000  1
  Ru  Ru7  1  0.668039  0.321354  0.000000  1
  Ru  Ru8  1  0.959318  0.000000  0.500000  1
