# generated using pymatgen
data_La12Ru3AuBr12
_symmetry_space_group_name_H-M   'P 1'
_cell_length_a   10.71589416
_cell_length_b   10.71589428
_cell_length_c   10.54865300
_cell_angle_alpha   109.15537340
_cell_angle_beta   109.15537362
_cell_angle_gamma   109.78520957
_symmetry_Int_Tables_number   1
_chemical_formula_structural   La12Ru3AuBr12
_chemical_formula_sum   'La12 Ru3 Au1 Br12'
_cell_volume   936.07362627
_cell_formula_units_Z   1
loop_
 _symmetry_equiv_pos_site_id
 _symmetry_equiv_pos_as_xyz
  1  'x, y, z'
loop_
 _atom_site_type_symbol
 _atom_site_label
 _atom_site_symmetry_multiplicity
 _atom_site_fract_x
 _atom_site_fract_y
 _atom_site_fract_z
 _atom_site_occupancy
  La  La0  1  0.257711  0.731846  0.227053  1
  La  La1  1  0.474135  0.731846  0.004793  1
  La  La2  1  0.234129  0.468256  0.484129  1
  La  La3  1  0.015081  0.030162  0.265081  1
  La  La4  1  0.234129  0.265871  0.750000  1
  La  La5  1  0.015081  0.484919  0.750000  1
  La  La6  1  0.474135  0.242289  0.469341  1
  La  La7  1  0.257711  0.025865  0.030659  1
  La  La8  1  0.768154  0.242289  0.272947  1
  La  La9  1  0.768154  0.025865  0.495207  1
  La  La10  1  0.469838  0.484919  0.234919  1
  La  La11  1  0.031744  0.265871  0.015871  1
  Ru  Ru12  1  0.251006  0.502011  0.001006  1
  Ru  Ru13  1  0.997989  0.248994  0.498994  1
  Ru  Ru14  1  0.251006  0.248994  0.250000  1
  Au  Au15  1  0.500000  0.000000  0.250000  1
  Br  Br16  1  0.248236  0.995615  0.502615  1
  Br  Br17  1  0.512691  0.506345  0.756345  1
  Br  Br18  1  0.248236  0.752622  0.745621  1
  Br  Br19  1  0.993203  0.746602  0.996602  1
  Br  Br20  1  0.993655  0.506345  0.250000  1
  Br  Br21  1  0.747378  0.995615  0.992998  1
  Br  Br22  1  0.753398  0.746602  0.250000  1
  Br  Br23  1  0.504385  0.752622  0.507002  1
  Br  Br24  1  0.504385  0.251764  0.997385  1
  Br  Br25  1  0.753398  0.506797  0.503398  1
  Br  Br26  1  0.747378  0.251764  0.754379  1
  Br  Br27  1  0.993655  0.987309  0.743655  1
