# generated using pymatgen
data_Y4As6Ir5Rh2
_symmetry_space_group_name_H-M   'P 1'
_cell_length_a   7.31460284
_cell_length_b   7.31460275
_cell_length_c   7.31460257
_cell_angle_alpha   109.57664464
_cell_angle_beta   109.26056775
_cell_angle_gamma   109.57665162
_symmetry_Int_Tables_number   1
_chemical_formula_structural   Y4As6Ir5Rh2
_chemical_formula_sum   'Y4 As6 Ir5 Rh2'
_cell_volume   301.26310931
_cell_formula_units_Z   1
loop_
 _symmetry_equiv_pos_site_id
 _symmetry_equiv_pos_as_xyz
  1  'x, y, z'
loop_
 _atom_site_type_symbol
 _atom_site_label
 _atom_site_symmetry_multiplicity
 _atom_site_fract_x
 _atom_site_fract_y
 _atom_site_fract_z
 _atom_site_occupancy
  Y  Y0  1  0.500373  0.500000  0.499627  1
  Y  Y1  1  0.999627  0.500000  0.000373  1
  Y  Y2  1  0.500373  0.000745  0.000373  1
  Y  Y3  1  0.999627  0.999255  0.499627  1
  As  As4  1  0.679828  0.000000  0.679828  1
  As  As5  1  0.680032  0.680046  0.999986  1
  As  As6  1  0.319941  0.319954  0.999986  1
  As  As7  1  0.000014  0.680046  0.680059  1
  As  As8  1  0.000014  0.319954  0.319968  1
  As  As9  1  0.320172  0.000000  0.320172  1
  Ir  Ir10  1  0.499030  0.749389  0.248419  1
  Ir  Ir11  1  0.751581  0.250611  0.500970  1
  Ir  Ir12  1  0.250359  0.749389  0.500970  1
  Ir  Ir13  1  0.250000  0.500000  0.750000  1
  Ir  Ir14  1  0.499030  0.250611  0.749641  1
  Rh  Rh15  1  0.000000  0.000000  0.000000  1
  Rh  Rh16  1  0.750000  0.500000  0.250000  1
