# generated using pymatgen
data_Er4Al18PdRh5
_symmetry_space_group_name_H-M   'P 1'
_cell_length_a   7.55696135
_cell_length_b   7.55696165
_cell_length_c   9.43736351
_cell_angle_alpha   89.96740120
_cell_angle_beta   89.96739680
_cell_angle_gamma   119.50367009
_symmetry_Int_Tables_number   1
_chemical_formula_structural   Er4Al18PdRh5
_chemical_formula_sum   'Er4 Al18 Pd1 Rh5'
_cell_volume   469.05725936
_cell_formula_units_Z   1
loop_
 _symmetry_equiv_pos_site_id
 _symmetry_equiv_pos_as_xyz
  1  'x, y, z'
loop_
 _atom_site_type_symbol
 _atom_site_label
 _atom_site_symmetry_multiplicity
 _atom_site_fract_x
 _atom_site_fract_y
 _atom_site_fract_z
 _atom_site_occupancy
  Er  Er0  1  0.994298  0.670368  0.750578  1
  Er  Er1  1  0.004375  0.328818  0.249648  1
  Er  Er2  1  0.671182  0.995625  0.750352  1
  Er  Er3  1  0.329632  0.005702  0.249422  1
  Al  Al4  1  0.127207  0.126212  0.750594  1
  Al  Al5  1  0.873788  0.872793  0.249406  1
  Al  Al6  1  0.004395  0.335624  0.577550  1
  Al  Al7  1  0.002769  0.668164  0.422762  1
  Al  Al8  1  0.000827  0.664923  0.075387  1
  Al  Al9  1  0.335077  0.999173  0.924613  1
  Al  Al10  1  0.000029  0.334965  0.923791  1
  Al  Al11  1  0.665035  0.999971  0.076209  1
  Al  Al12  1  0.664376  0.995605  0.422450  1
  Al  Al13  1  0.331836  0.997231  0.577238  1
  Al  Al14  1  0.331932  0.332027  0.050286  1
  Al  Al15  1  0.667973  0.668068  0.949714  1
  Al  Al16  1  0.666979  0.669772  0.554374  1
  Al  Al17  1  0.330228  0.333021  0.445626  1
  Al  Al18  1  0.340757  0.551377  0.750725  1
  Al  Al19  1  0.659625  0.452052  0.246835  1
  Al  Al20  1  0.547948  0.340375  0.753165  1
  Al  Al21  1  0.448623  0.659243  0.249275  1
  Pd  Pd22  1  0.672672  0.327328  0.500000  1
  Rh  Rh23  1  0.328054  0.671946  0.500000  1
  Rh  Rh24  1  0.328032  0.671968  0.000000  1
  Rh  Rh25  1  0.672321  0.327679  0.000000  1
  Rh  Rh26  1  0.999953  0.000047  0.500000  1
  Rh  Rh27  1  0.000075  0.999925  0.000000  1
