# generated using pymatgen
data_K2Mn3(SeO3)4
_symmetry_space_group_name_H-M   'P 1'
_cell_length_a   5.72707819
_cell_length_b   7.29549867
_cell_length_c   9.00568681
_cell_angle_alpha   91.48564120
_cell_angle_beta   108.53875716
_cell_angle_gamma   89.92420947
_symmetry_Int_Tables_number   1
_chemical_formula_structural   K2Mn3(SeO3)4
_chemical_formula_sum   'K2 Mn3 Se4 O12'
_cell_volume   356.61985927
_cell_formula_units_Z   1
loop_
 _symmetry_equiv_pos_site_id
 _symmetry_equiv_pos_as_xyz
  1  'x, y, z'
loop_
 _atom_site_type_symbol
 _atom_site_label
 _atom_site_symmetry_multiplicity
 _atom_site_fract_x
 _atom_site_fract_y
 _atom_site_fract_z
 _atom_site_occupancy
  K  K0  1  0.174835  0.618849  0.351246  1
  K  K1  1  0.825239  0.381250  0.648833  1
  Mn  Mn2  1  0.999852  0.999777  0.999973  1
  Mn  Mn3  1  0.603544  0.313488  0.206042  1
  Mn  Mn4  1  0.396491  0.686578  0.793930  1
  Se  Se5  1  0.564599  0.806745  0.132458  1
  Se  Se6  1  0.204396  0.137696  0.407780  1
  Se  Se7  1  0.795623  0.862305  0.592118  1
  Se  Se8  1  0.435332  0.193291  0.867574  1
  O  O9  1  0.727394  0.220024  0.006259  1
  O  O10  1  0.280267  0.220298  0.005339  1
  O  O11  1  0.613267  0.604986  0.231355  1
  O  O12  1  0.126212  0.981309  0.253353  1
  O  O13  1  0.952924  0.281570  0.374376  1
  O  O14  1  0.422300  0.280518  0.373621  1
  O  O15  1  0.577858  0.719435  0.626391  1
  O  O16  1  0.047191  0.718537  0.625594  1
  O  O17  1  0.873770  0.018731  0.746560  1
  O  O18  1  0.386603  0.395138  0.768770  1
  O  O19  1  0.719708  0.779712  0.994681  1
  O  O20  1  0.272597  0.779763  0.993751  1
