# generated using pymatgen
data_Ac19TbSi15Cl
_symmetry_space_group_name_H-M   'P 1'
_cell_length_a   8.35760702
_cell_length_b   8.28662120
_cell_length_c   16.06417800
_cell_angle_alpha   89.52986714
_cell_angle_beta   89.16194395
_cell_angle_gamma   90.73416167
_symmetry_Int_Tables_number   1
_chemical_formula_structural   Ac19TbSi15Cl
_chemical_formula_sum   'Ac19 Tb1 Si15 Cl1'
_cell_volume   1112.29638685
_cell_formula_units_Z   1
loop_
 _symmetry_equiv_pos_site_id
 _symmetry_equiv_pos_as_xyz
  1  'x, y, z'
loop_
 _atom_site_type_symbol
 _atom_site_label
 _atom_site_symmetry_multiplicity
 _atom_site_fract_x
 _atom_site_fract_y
 _atom_site_fract_z
 _atom_site_occupancy
  Ac  Ac0  1  0.182875  0.804013  0.248499  1
  Ac  Ac1  1  0.786029  0.188658  0.755973  1
  Ac  Ac2  1  0.686978  0.687946  0.497187  1
  Ac  Ac3  1  0.379509  0.005032  0.443596  1
  Ac  Ac4  1  0.497793  0.860997  0.701245  1
  Ac  Ac5  1  0.513313  0.125307  0.196174  1
  Ac  Ac6  1  0.873847  0.479480  0.296309  1
  Ac  Ac7  1  0.126424  0.521489  0.803067  1
  Ac  Ac8  1  0.634591  0.983893  0.956941  1
  Ac  Ac9  1  0.998993  0.381018  0.545624  1
  Ac  Ac10  1  0.992829  0.622814  0.049849  1
  Ac  Ac11  1  0.142498  0.988181  0.875244  1
  Ac  Ac12  1  0.522970  0.628086  0.124772  1
  Ac  Ac13  1  0.467731  0.361746  0.632301  1
  Ac  Ac14  1  0.637060  0.529803  0.878027  1
  Ac  Ac15  1  0.368827  0.470518  0.374003  1
  Ac  Ac16  1  0.872698  0.023714  0.376939  1
  Ac  Ac17  1  0.982164  0.125260  0.121199  1
  Ac  Ac18  1  0.026686  0.873546  0.621021  1
  Tb  Tb19  1  0.316024  0.309548  0.998076  1
  Si  Si20  1  0.331303  0.697605  0.955000  1
  Si  Si21  1  0.661215  0.300286  0.458167  1
  Si  Si22  1  0.703232  0.332966  0.045595  1
  Si  Si23  1  0.301299  0.662043  0.547482  1
  Si  Si24  1  0.800426  0.830993  0.205779  1
  Si  Si25  1  0.169310  0.196082  0.289900  1
  Si  Si26  1  0.846446  0.804106  0.793425  1
  Si  Si27  1  0.293799  0.927542  0.057280  1
  Si  Si28  1  0.577437  0.788219  0.307290  1
  Si  Si29  1  0.444643  0.214752  0.831793  1
  Si  Si30  1  0.796954  0.579750  0.688824  1
  Si  Si31  1  0.213483  0.416293  0.183942  1
  Si  Si32  1  0.704187  0.077381  0.561433  1
  Si  Si33  1  0.932876  0.294665  0.940829  1
  Si  Si34  1  0.077156  0.706233  0.441107  1
  Cl  Cl35  1  0.136392  0.200037  0.696115  1
