# generated using pymatgen
data_Zr5Co16(P4W)3
_symmetry_space_group_name_H-M   'P 1'
_cell_length_a   11.90688800
_cell_length_b   11.90688794
_cell_length_c   3.66738400
_cell_angle_alpha   90.00000000
_cell_angle_beta   90.00000000
_cell_angle_gamma   119.99999460
_symmetry_Int_Tables_number   1
_chemical_formula_structural   Zr5Co16(P4W)3
_chemical_formula_sum   'Zr5 Co16 P12 W3'
_cell_volume   450.28095265
_cell_formula_units_Z   1
loop_
 _symmetry_equiv_pos_site_id
 _symmetry_equiv_pos_as_xyz
  1  'x, y, z'
loop_
 _atom_site_type_symbol
 _atom_site_label
 _atom_site_symmetry_multiplicity
 _atom_site_fract_x
 _atom_site_fract_y
 _atom_site_fract_z
 _atom_site_occupancy
  Zr  Zr0  1  0.666667  0.333333  0.000000  1
  Zr  Zr1  1  0.333333  0.666667  0.000000  1
  Zr  Zr2  1  0.820325  0.820325  0.500000  1
  Zr  Zr3  1  0.179675  0.000000  0.500000  1
  Zr  Zr4  1  0.000000  0.179675  0.500000  1
  Co  Co5  1  0.195294  0.374481  0.000000  1
  Co  Co6  1  0.179187  0.804706  0.000000  1
  Co  Co7  1  0.820813  0.625519  0.000000  1
  Co  Co8  1  0.804706  0.179187  0.000000  1
  Co  Co9  1  0.374481  0.195294  0.000000  1
  Co  Co10  1  0.128624  0.484788  0.500000  1
  Co  Co11  1  0.356164  0.871376  0.500000  1
  Co  Co12  1  0.515212  0.643836  0.500000  1
  Co  Co13  1  0.643836  0.515212  0.500000  1
  Co  Co14  1  0.871376  0.356164  0.500000  1
  Co  Co15  1  0.484788  0.128624  0.500000  1
  Co  Co16  1  0.000000  0.000000  0.000000  1
  Co  Co17  1  0.719853  0.000000  0.500000  1
  Co  Co18  1  0.000000  0.719853  0.500000  1
  Co  Co19  1  0.625519  0.820813  0.000000  1
  Co  Co20  1  0.280147  0.280147  0.500000  1
  P  P21  1  0.644272  0.644272  0.000000  1
  P  P22  1  0.355728  0.000000  0.000000  1
  P  P23  1  0.000000  0.355728  0.000000  1
  P  P24  1  0.480659  0.313051  0.500000  1
  P  P25  1  0.686949  0.167608  0.500000  1
  P  P26  1  0.832392  0.519341  0.500000  1
  P  P27  1  0.519341  0.832392  0.500000  1
  P  P28  1  0.167608  0.686949  0.500000  1
  P  P29  1  0.823839  0.000000  0.000000  1
  P  P30  1  0.000000  0.823839  0.000000  1
  P  P31  1  0.313051  0.480659  0.500000  1
  P  P32  1  0.176161  0.176161  0.000000  1
  W  W33  1  0.448298  0.448298  0.000000  1
  W  W34  1  0.551702  0.000000  0.000000  1
  W  W35  1  0.000000  0.551702  0.000000  1
