# generated using pymatgen
data_Lu6Co17ReP12
_symmetry_space_group_name_H-M   'P 1'
_cell_length_a   3.66502600
_cell_length_b   10.45060500
_cell_length_c   12.10573200
_cell_angle_alpha   90.00000000
_cell_angle_beta   90.00000000
_cell_angle_gamma   90.00000000
_symmetry_Int_Tables_number   1
_chemical_formula_structural   Lu6Co17ReP12
_chemical_formula_sum   'Lu6 Co17 Re1 P12'
_cell_volume   463.67058796
_cell_formula_units_Z   1
loop_
 _symmetry_equiv_pos_site_id
 _symmetry_equiv_pos_as_xyz
  1  'x, y, z'
loop_
 _atom_site_type_symbol
 _atom_site_label
 _atom_site_symmetry_multiplicity
 _atom_site_fract_x
 _atom_site_fract_y
 _atom_site_fract_z
 _atom_site_occupancy
  Lu  Lu0  1  0.000000  0.500000  0.525355  1
  Lu  Lu1  1  0.500000  0.000000  0.476643  1
  Lu  Lu2  1  0.500000  0.818515  0.207171  1
  Lu  Lu3  1  0.500000  0.181485  0.207171  1
  Lu  Lu4  1  0.000000  0.681948  0.795111  1
  Lu  Lu5  1  0.000000  0.318052  0.795111  1
  Co  Co6  1  0.000000  0.000000  0.838836  1
  Co  Co7  1  0.500000  0.500000  0.701989  1
  Co  Co8  1  0.000000  0.000000  0.297041  1
  Co  Co9  1  0.000000  0.500000  0.987832  1
  Co  Co10  1  0.500000  0.000000  0.014852  1
  Co  Co11  1  0.500000  0.332249  0.990314  1
  Co  Co12  1  0.500000  0.667751  0.990314  1
  Co  Co13  1  0.000000  0.166665  0.006244  1
  Co  Co14  1  0.000000  0.833335  0.006244  1
  Co  Co15  1  0.500000  0.296804  0.431336  1
  Co  Co16  1  0.500000  0.703196  0.431336  1
  Co  Co17  1  0.000000  0.202570  0.568671  1
  Co  Co18  1  0.000000  0.797430  0.568671  1
  Co  Co19  1  0.500000  0.877860  0.708100  1
  Co  Co20  1  0.500000  0.122140  0.708100  1
  Co  Co21  1  0.000000  0.621949  0.292078  1
  Co  Co22  1  0.000000  0.378051  0.292078  1
  Re  Re23  1  0.500000  0.500000  0.157707  1
  P  P24  1  0.500000  0.500000  0.879285  1
  P  P25  1  0.000000  0.000000  0.118711  1
  P  P26  1  0.500000  0.500000  0.352098  1
  P  P27  1  0.000000  0.000000  0.653388  1
  P  P28  1  0.500000  0.312827  0.617321  1
  P  P29  1  0.500000  0.687173  0.617321  1
  P  P30  1  0.000000  0.186822  0.383601  1
  P  P31  1  0.000000  0.813178  0.383601  1
  P  P32  1  0.500000  0.848868  0.890399  1
  P  P33  1  0.500000  0.151132  0.890399  1
  P  P34  1  0.000000  0.657230  0.107787  1
  P  P35  1  0.000000  0.342770  0.107787  1
