# generated using pymatgen
data_Ac6Zn3Si8Sn
_symmetry_space_group_name_H-M   'P 1'
_cell_length_a   4.54017388
_cell_length_b   4.43114726
_cell_length_c   22.24100769
_cell_angle_alpha   84.28290803
_cell_angle_beta   95.85825280
_cell_angle_gamma   90.00000303
_symmetry_Int_Tables_number   1
_chemical_formula_structural   Ac6Zn3Si8Sn
_chemical_formula_sum   'Ac6 Zn3 Si8 Sn1'
_cell_volume   442.87435375
_cell_formula_units_Z   1
loop_
 _symmetry_equiv_pos_site_id
 _symmetry_equiv_pos_as_xyz
  1  'x, y, z'
loop_
 _atom_site_type_symbol
 _atom_site_label
 _atom_site_symmetry_multiplicity
 _atom_site_fract_x
 _atom_site_fract_y
 _atom_site_fract_z
 _atom_site_occupancy
  Ac  Ac0  1  0.375971  0.874029  0.251941  1
  Ac  Ac1  1  0.039875  0.210125  0.579750  1
  Ac  Ac2  1  0.703332  0.546668  0.906667  1
  Ac  Ac3  1  0.295397  0.454603  0.090793  1
  Ac  Ac4  1  0.960281  0.789719  0.420560  1
  Ac  Ac5  1  0.624415  0.125585  0.748830  1
  Zn  Zn6  1  0.904863  0.345137  0.309725  1
  Zn  Zn7  1  0.569032  0.680968  0.638062  1
  Zn  Zn8  1  0.232818  0.017182  0.965638  1
  Si  Si9  1  0.432221  0.317779  0.364443  1
  Si  Si10  1  0.096394  0.653606  0.692786  1
  Si  Si11  1  0.849542  0.400458  0.199085  1
  Si  Si12  1  0.513618  0.736382  0.527236  1
  Si  Si13  1  0.177898  0.072102  0.855794  1
  Si  Si14  1  0.823557  0.926443  0.147117  1
  Si  Si15  1  0.486427  0.263573  0.472857  1
  Si  Si16  1  0.150608  0.599392  0.801215  1
  Sn  Sn17  1  0.763751  0.986249  0.027504  1
