# generated using pymatgen
data_AcBr29
_symmetry_space_group_name_H-M   'P 1'
_cell_length_a   11.28788698
_cell_length_b   13.55551778
_cell_length_c   16.29957300
_cell_angle_alpha   46.82660510
_cell_angle_beta   56.29537028
_cell_angle_gamma   62.84874957
_symmetry_Int_Tables_number   1
_chemical_formula_structural   AcBr29
_chemical_formula_sum   'Ac1 Br29'
_cell_volume   1501.01028284
_cell_formula_units_Z   1
loop_
 _symmetry_equiv_pos_site_id
 _symmetry_equiv_pos_as_xyz
  1  'x, y, z'
loop_
 _atom_site_type_symbol
 _atom_site_label
 _atom_site_symmetry_multiplicity
 _atom_site_fract_x
 _atom_site_fract_y
 _atom_site_fract_z
 _atom_site_occupancy
  Ac  Ac0  1  0.000000  0.000000  0.000000  1
  Br  Br1  1  0.500000  0.000000  0.000000  1
  Br  Br2  1  0.121989  0.147910  0.197588  1
  Br  Br3  1  0.688615  0.503705  0.334335  1
  Br  Br4  1  0.311385  0.496295  0.665665  1
  Br  Br5  1  0.506162  0.123830  0.255230  1
  Br  Br6  1  0.878011  0.852090  0.802412  1
  Br  Br7  1  0.320708  0.399271  0.393291  1
  Br  Br8  1  0.679292  0.600729  0.606709  1
  Br  Br9  1  0.493838  0.876170  0.744770  1
  Br  Br10  1  0.353769  0.053315  0.796483  1
  Br  Br11  1  0.622829  0.810654  0.967338  1
  Br  Br12  1  0.805727  0.267839  0.986179  1
  Br  Br13  1  0.072675  0.887456  0.206862  1
  Br  Br14  1  0.248328  0.559643  0.211886  1
  Br  Br15  1  0.927325  0.112544  0.793138  1
  Br  Br16  1  0.854078  0.159534  0.319494  1
  Br  Br17  1  0.194273  0.732161  0.013821  1
  Br  Br18  1  0.878105  0.736926  0.410549  1
  Br  Br19  1  0.377171  0.189346  0.032662  1
  Br  Br20  1  0.646231  0.946685  0.203517  1
  Br  Br21  1  0.579080  0.310724  0.514973  1
  Br  Br22  1  0.697475  0.995910  0.539204  1
  Br  Br23  1  0.804529  0.789285  0.133500  1
  Br  Br24  1  0.195471  0.210715  0.866500  1
  Br  Br25  1  0.302525  0.004090  0.460796  1
  Br  Br26  1  0.420920  0.689276  0.485027  1
  Br  Br27  1  0.121895  0.263074  0.589451  1
  Br  Br28  1  0.145922  0.840466  0.680506  1
  Br  Br29  1  0.751672  0.440357  0.788114  1
