# generated using pymatgen
data_MnV5Si2
_symmetry_space_group_name_H-M   'P 1'
_cell_length_a   4.65352100
_cell_length_b   4.65352100
_cell_length_c   4.66897100
_cell_angle_alpha   90.00000000
_cell_angle_beta   90.00000000
_cell_angle_gamma   90.00000000
_symmetry_Int_Tables_number   1
_chemical_formula_structural   MnV5Si2
_chemical_formula_sum   'Mn1 V5 Si2'
_cell_volume   101.10777019
_cell_formula_units_Z   1
loop_
 _symmetry_equiv_pos_site_id
 _symmetry_equiv_pos_as_xyz
  1  'x, y, z'
loop_
 _atom_site_type_symbol
 _atom_site_label
 _atom_site_symmetry_multiplicity
 _atom_site_fract_x
 _atom_site_fract_y
 _atom_site_fract_z
 _atom_site_occupancy
  Mn  Mn0  1  0.000000  0.500000  0.750000  1
  V  V1  1  0.500000  0.249414  0.999721  1
  V  V2  1  0.749414  0.000000  0.500279  1
  V  V3  1  0.000000  0.500000  0.250000  1
  V  V4  1  0.500000  0.750586  0.999721  1
  V  V5  1  0.250586  0.000000  0.500279  1
  Si  Si6  1  0.500000  0.500000  0.499425  1
  Si  Si7  1  0.000000  0.000000  0.000575  1
