# generated using pymatgen
data_Cs6TbNpCl12
_symmetry_space_group_name_H-M   'P 1'
_cell_length_a   9.58994400
_cell_length_b   9.58872345
_cell_length_c   7.95256000
_cell_angle_alpha   90.00000000
_cell_angle_beta   90.00000000
_cell_angle_gamma   89.67165386
_symmetry_Int_Tables_number   1
_chemical_formula_structural   Cs6TbNpCl12
_chemical_formula_sum   'Cs6 Tb1 Np1 Cl12'
_cell_volume   731.26819905
_cell_formula_units_Z   1
loop_
 _symmetry_equiv_pos_site_id
 _symmetry_equiv_pos_as_xyz
  1  'x, y, z'
loop_
 _atom_site_type_symbol
 _atom_site_label
 _atom_site_symmetry_multiplicity
 _atom_site_fract_x
 _atom_site_fract_y
 _atom_site_fract_z
 _atom_site_occupancy
  Cs  Cs0  1  0.000000  0.000000  0.500000  1
  Cs  Cs1  1  0.000000  0.000000  0.000000  1
  Cs  Cs2  1  0.233391  0.584677  0.500000  1
  Cs  Cs3  1  0.766609  0.415323  0.500000  1
  Cs  Cs4  1  0.415309  0.237320  0.000000  1
  Cs  Cs5  1  0.584691  0.762680  0.000000  1
  Tb  Tb6  1  0.000000  0.500000  0.000000  1
  Np  Np7  1  0.500000  0.000000  0.500000  1
  Cl  Cl8  1  0.695612  0.059640  0.742844  1
  Cl  Cl9  1  0.304388  0.940360  0.742844  1
  Cl  Cl10  1  0.942857  0.690010  0.237630  1
  Cl  Cl11  1  0.057143  0.309990  0.237630  1
  Cl  Cl12  1  0.304388  0.940360  0.257156  1
  Cl  Cl13  1  0.695612  0.059640  0.257156  1
  Cl  Cl14  1  0.057143  0.309990  0.762370  1
  Cl  Cl15  1  0.942857  0.690010  0.762370  1
  Cl  Cl16  1  0.568702  0.723388  0.500000  1
  Cl  Cl17  1  0.431298  0.276612  0.500000  1
  Cl  Cl18  1  0.268142  0.568642  0.000000  1
  Cl  Cl19  1  0.731858  0.431358  0.000000  1
