# generated using pymatgen
data_CsAsO3
_symmetry_space_group_name_H-M   'P 1'
_cell_length_a   13.40144600
_cell_length_b   8.24762400
_cell_length_c   13.35785243
_cell_angle_alpha   65.05057461
_cell_angle_beta   90.00000000
_cell_angle_gamma   90.00000000
_symmetry_Int_Tables_number   1
_chemical_formula_structural   CsAsO3
_chemical_formula_sum   'Cs12 As12 O36'
_cell_volume   1338.66349285
_cell_formula_units_Z   12
loop_
 _symmetry_equiv_pos_site_id
 _symmetry_equiv_pos_as_xyz
  1  'x, y, z'
loop_
 _atom_site_type_symbol
 _atom_site_label
 _atom_site_symmetry_multiplicity
 _atom_site_fract_x
 _atom_site_fract_y
 _atom_site_fract_z
 _atom_site_occupancy
  Cs  Cs0  1  0.759379  0.693488  0.404297  1
  Cs  Cs1  1  0.581542  0.226096  0.625119  1
  Cs  Cs2  1  0.361842  0.915087  0.920121  1
  Cs  Cs3  1  0.918458  0.226096  0.125119  1
  Cs  Cs4  1  0.638158  0.084913  0.079879  1
  Cs  Cs5  1  0.138158  0.915087  0.420121  1
  Cs  Cs6  1  0.081542  0.773904  0.874881  1
  Cs  Cs7  1  0.240621  0.306512  0.595703  1
  Cs  Cs8  1  0.259379  0.306512  0.095703  1
  Cs  Cs9  1  0.418458  0.773904  0.374881  1
  Cs  Cs10  1  0.740621  0.693488  0.904297  1
  Cs  Cs11  1  0.861842  0.084913  0.579879  1
  As  As12  1  0.556088  0.603550  0.165265  1
  As  As13  1  0.430700  0.283096  0.344841  1
  As  As14  1  0.443912  0.396450  0.834735  1
  As  As15  1  0.329767  0.748529  0.677923  1
  As  As16  1  0.943912  0.603550  0.665265  1
  As  As17  1  0.056088  0.396450  0.334735  1
  As  As18  1  0.930700  0.716904  0.155159  1
  As  As19  1  0.569300  0.716904  0.655159  1
  As  As20  1  0.829767  0.251471  0.822077  1
  As  As21  1  0.069300  0.283096  0.844841  1
  As  As22  1  0.170233  0.748529  0.177923  1
  As  As23  1  0.670233  0.251471  0.322077  1
  O  O24  1  0.576613  0.709668  0.245801  1
  O  O25  1  0.762445  0.104268  0.795125  1
  O  O26  1  0.340713  0.151831  0.334020  1
  O  O27  1  0.792128  0.322950  0.915698  1
  O  O28  1  0.450999  0.275554  0.970979  1
  O  O29  1  0.659287  0.848169  0.665980  1
  O  O30  1  0.950999  0.724446  0.529021  1
  O  O31  1  0.737555  0.104268  0.295125  1
  O  O32  1  0.292128  0.677050  0.584302  1
  O  O33  1  0.237555  0.895732  0.204875  1
  O  O34  1  0.150481  0.565514  0.312925  1
  O  O35  1  0.549001  0.724446  0.029021  1
  O  O36  1  0.074102  0.362174  0.940925  1
  O  O37  1  0.349519  0.565514  0.812925  1
  O  O38  1  0.650481  0.434486  0.187075  1
  O  O39  1  0.423387  0.290332  0.754199  1
  O  O40  1  0.707872  0.322950  0.415698  1
  O  O41  1  0.923387  0.709668  0.745801  1
  O  O42  1  0.555180  0.534102  0.792049  1
  O  O43  1  0.954499  0.158303  0.855223  1
  O  O44  1  0.574102  0.637826  0.559075  1
  O  O45  1  0.055180  0.465898  0.707951  1
  O  O46  1  0.545501  0.158303  0.355223  1
  O  O47  1  0.849519  0.434486  0.687075  1
  O  O48  1  0.045501  0.841697  0.144777  1
  O  O49  1  0.925898  0.637826  0.059075  1
  O  O50  1  0.944820  0.534102  0.292049  1
  O  O51  1  0.444820  0.465898  0.207951  1
  O  O52  1  0.049001  0.275554  0.470979  1
  O  O53  1  0.840713  0.848169  0.165980  1
  O  O54  1  0.076613  0.290332  0.254199  1
  O  O55  1  0.262445  0.895732  0.704875  1
  O  O56  1  0.159287  0.151831  0.834020  1
  O  O57  1  0.425898  0.362174  0.440925  1
  O  O58  1  0.454499  0.841697  0.644777  1
  O  O59  1  0.207872  0.677050  0.084302  1
