# generated using pymatgen
data_CsLa(NbCl3)6
_symmetry_space_group_name_H-M   'P 1'
_cell_length_a   10.41423739
_cell_length_b   10.41423776
_cell_length_c   10.41423675
_cell_angle_alpha   55.09707247
_cell_angle_beta   55.09707502
_cell_angle_gamma   55.09707920
_symmetry_Int_Tables_number   1
_chemical_formula_structural   CsLa(NbCl3)6
_chemical_formula_sum   'Cs1 La1 Nb6 Cl18'
_cell_volume   707.59711805
_cell_formula_units_Z   1
loop_
 _symmetry_equiv_pos_site_id
 _symmetry_equiv_pos_as_xyz
  1  'x, y, z'
loop_
 _atom_site_type_symbol
 _atom_site_label
 _atom_site_symmetry_multiplicity
 _atom_site_fract_x
 _atom_site_fract_y
 _atom_site_fract_z
 _atom_site_occupancy
  Cs  Cs0  1  0.222546  0.222546  0.222546  1
  La  La1  1  0.497764  0.497764  0.497764  1
  Nb  Nb2  1  0.801580  0.146907  0.915945  1
  Nb  Nb3  1  0.915945  0.801580  0.146907  1
  Nb  Nb4  1  0.146907  0.915945  0.801580  1
  Nb  Nb5  1  0.200021  0.853555  0.082606  1
  Nb  Nb6  1  0.082606  0.200021  0.853555  1
  Nb  Nb7  1  0.853555  0.082606  0.200021  1
  Cl  Cl8  1  0.862720  0.407273  0.730930  1
  Cl  Cl9  1  0.730930  0.862720  0.407273  1
  Cl  Cl10  1  0.407273  0.730930  0.862720  1
  Cl  Cl11  1  0.136377  0.593107  0.271446  1
  Cl  Cl12  1  0.271446  0.136377  0.593107  1
  Cl  Cl13  1  0.593107  0.271446  0.136377  1
  Cl  Cl14  1  0.536982  0.337287  0.811310  1
  Cl  Cl15  1  0.811310  0.536982  0.337287  1
  Cl  Cl16  1  0.337287  0.811310  0.536982  1
  Cl  Cl17  1  0.461626  0.665477  0.188194  1
  Cl  Cl18  1  0.188194  0.461626  0.665477  1
  Cl  Cl19  1  0.665477  0.188194  0.461626  1
  Cl  Cl20  1  0.668356  0.937255  0.072278  1
  Cl  Cl21  1  0.072278  0.668356  0.937255  1
  Cl  Cl22  1  0.937255  0.072278  0.668356  1
  Cl  Cl23  1  0.334903  0.061816  0.922877  1
  Cl  Cl24  1  0.922877  0.334903  0.061816  1
  Cl  Cl25  1  0.061816  0.922877  0.334903  1
