# generated using pymatgen
data_Lu8Ta7Si16W5
_symmetry_space_group_name_H-M   'P 1'
_cell_length_a   6.69553507
_cell_length_b   6.93648346
_cell_length_c   13.16831744
_cell_angle_alpha   89.95893866
_cell_angle_beta   90.01399658
_cell_angle_gamma   89.96182953
_symmetry_Int_Tables_number   1
_chemical_formula_structural   Lu8Ta7Si16W5
_chemical_formula_sum   'Lu8 Ta7 Si16 W5'
_cell_volume   611.58202212
_cell_formula_units_Z   1
loop_
 _symmetry_equiv_pos_site_id
 _symmetry_equiv_pos_as_xyz
  1  'x, y, z'
loop_
 _atom_site_type_symbol
 _atom_site_label
 _atom_site_symmetry_multiplicity
 _atom_site_fract_x
 _atom_site_fract_y
 _atom_site_fract_z
 _atom_site_occupancy
  Lu  Lu0  1  0.498988  0.671948  0.592606  1
  Lu  Lu1  1  0.998931  0.827853  0.906280  1
  Lu  Lu2  1  0.500229  0.327204  0.093508  1
  Lu  Lu3  1  0.000371  0.172940  0.407747  1
  Lu  Lu4  1  0.501458  0.326967  0.406871  1
  Lu  Lu5  1  0.000144  0.172620  0.093195  1
  Lu  Lu6  1  0.498844  0.671993  0.906492  1
  Lu  Lu7  1  0.999209  0.826941  0.592982  1
  Ta  Ta8  1  0.665887  0.167900  0.625300  1
  Ta  Ta9  1  0.166599  0.332022  0.873209  1
  Ta  Ta10  1  0.333293  0.831174  0.126204  1
  Ta  Ta11  1  0.834467  0.666211  0.374953  1
  Ta  Ta12  1  0.331776  0.831671  0.375843  1
  Ta  Ta13  1  0.832977  0.668095  0.125895  1
  Ta  Ta14  1  0.666965  0.168873  0.873165  1
  Si  Si15  1  0.666630  0.960714  0.457850  1
  Si  Si16  1  0.166815  0.538447  0.041616  1
  Si  Si17  1  0.333449  0.038192  0.957686  1
  Si  Si18  1  0.837227  0.460851  0.543645  1
  Si  Si19  1  0.331330  0.042164  0.543576  1
  Si  Si20  1  0.833092  0.462014  0.957985  1
  Si  Si21  1  0.666570  0.961996  0.041484  1
  Si  Si22  1  0.167504  0.537768  0.459978  1
  Si  Si23  1  0.464735  0.383115  0.748706  1
  Si  Si24  1  0.969191  0.118492  0.747762  1
  Si  Si25  1  0.533415  0.616409  0.250790  1
  Si  Si26  1  0.033066  0.883651  0.250670  1
  Si  Si27  1  0.703339  0.860635  0.749478  1
  Si  Si28  1  0.202024  0.638611  0.749643  1
  Si  Si29  1  0.296420  0.139158  0.250346  1
  Si  Si30  1  0.797013  0.360026  0.250021  1
  W  W31  1  0.168261  0.334666  0.625410  1
  W  W32  1  0.839789  0.493090  0.749316  1
  W  W33  1  0.340570  0.006605  0.749019  1
  W  W34  1  0.159834  0.506394  0.250566  1
  W  W35  1  0.659584  0.992588  0.250205  1
