# generated using pymatgen
data_Ho3Tm5(HgIr)2
_symmetry_space_group_name_H-M   'P 1'
_cell_length_a   9.52080431
_cell_length_b   9.52063477
_cell_length_c   9.51965162
_cell_angle_alpha   59.88016266
_cell_angle_beta   59.88165246
_cell_angle_gamma   59.89839166
_symmetry_Int_Tables_number   1
_chemical_formula_structural   Ho3Tm5(HgIr)2
_chemical_formula_sum   'Ho6 Tm10 Hg4 Ir4'
_cell_volume   608.59458381
_cell_formula_units_Z   2
loop_
 _symmetry_equiv_pos_site_id
 _symmetry_equiv_pos_as_xyz
  1  'x, y, z'
loop_
 _atom_site_type_symbol
 _atom_site_label
 _atom_site_symmetry_multiplicity
 _atom_site_fract_x
 _atom_site_fract_y
 _atom_site_fract_z
 _atom_site_occupancy
  Ho  Ho0  1  0.190253  0.810612  0.810664  1
  Ho  Ho1  1  0.810216  0.188950  0.188976  1
  Ho  Ho2  1  0.810647  0.190257  0.810677  1
  Ho  Ho3  1  0.188948  0.810224  0.188981  1
  Ho  Ho4  1  0.810608  0.810612  0.190311  1
  Ho  Ho5  1  0.189001  0.189021  0.810171  1
  Tm  Tm6  1  0.600244  0.600237  0.600316  1
  Tm  Tm7  1  0.601536  0.601543  0.198776  1
  Tm  Tm8  1  0.601617  0.198749  0.601543  1
  Tm  Tm9  1  0.198752  0.601624  0.601516  1
  Tm  Tm10  1  0.059714  0.439697  0.439694  1
  Tm  Tm11  1  0.437318  0.060160  0.060132  1
  Tm  Tm12  1  0.439731  0.059686  0.439711  1
  Tm  Tm13  1  0.060133  0.437328  0.060130  1
  Tm  Tm14  1  0.439686  0.439690  0.059716  1
  Tm  Tm15  1  0.060139  0.060147  0.437293  1
  Hg  Hg16  1  0.833154  0.833151  0.833069  1
  Hg  Hg17  1  0.834297  0.834271  0.496223  1
  Hg  Hg18  1  0.834312  0.496118  0.834354  1
  Hg  Hg19  1  0.496109  0.834285  0.834367  1
  Ir  Ir20  1  0.392552  0.392548  0.392542  1
  Ir  Ir21  1  0.393167  0.393191  0.824613  1
  Ir  Ir22  1  0.393125  0.824751  0.393124  1
  Ir  Ir23  1  0.824742  0.393148  0.393103  1
