# generated using pymatgen
data_Yb2HoTm(Al8Pt3)3
_symmetry_space_group_name_H-M   'P 1'
_cell_length_a   7.52365202
_cell_length_b   7.54629862
_cell_length_c   13.22472848
_cell_angle_alpha   84.64038936
_cell_angle_beta   79.13187202
_cell_angle_gamma   59.85397313
_symmetry_Int_Tables_number   1
_chemical_formula_structural   Yb2HoTm(Al8Pt3)3
_chemical_formula_sum   'Yb2 Ho1 Tm1 Al24 Pt9'
_cell_volume   637.64408633
_cell_formula_units_Z   1
loop_
 _symmetry_equiv_pos_site_id
 _symmetry_equiv_pos_as_xyz
  1  'x, y, z'
loop_
 _atom_site_type_symbol
 _atom_site_label
 _atom_site_symmetry_multiplicity
 _atom_site_fract_x
 _atom_site_fract_y
 _atom_site_fract_z
 _atom_site_occupancy
  Yb  Yb0  1  0.605751  0.831166  0.192657  1
  Yb  Yb1  1  0.733835  0.499529  0.807490  1
  Ho  Ho2  1  0.394976  0.167965  0.807621  1
  Tm  Tm3  1  0.266773  0.500544  0.192928  1
  Al  Al4  1  0.684197  0.833726  0.945710  1
  Al  Al5  1  0.315816  0.166564  0.055649  1
  Al  Al6  1  0.147500  0.831418  0.560825  1
  Al  Al7  1  0.852422  0.168837  0.439062  1
  Al  Al8  1  0.480293  0.165864  0.558602  1
  Al  Al9  1  0.520089  0.834022  0.441075  1
  Al  Al10  1  0.217709  0.164725  0.328838  1
  Al  Al11  1  0.782473  0.834371  0.670993  1
  Al  Al12  1  0.436809  0.507321  0.670618  1
  Al  Al13  1  0.563491  0.493303  0.328832  1
  Al  Al14  1  0.108973  0.160452  0.669014  1
  Al  Al15  1  0.890213  0.839761  0.330642  1
  Al  Al16  1  0.352425  0.499747  0.945185  1
  Al  Al17  1  0.647479  0.500125  0.054578  1
  Al  Al18  1  0.015510  0.167797  0.954323  1
  Al  Al19  1  0.984742  0.831846  0.046202  1
  Al  Al20  1  0.186161  0.500080  0.441223  1
  Al  Al21  1  0.814064  0.500123  0.558649  1
  Al  Al22  1  0.731559  0.167884  0.183150  1
  Al  Al23  1  0.264900  0.837919  0.816953  1
  Al  Al24  1  0.064046  0.629608  0.815729  1
  Al  Al25  1  0.941047  0.368138  0.184188  1
  Al  Al26  1  0.853505  0.040172  0.816207  1
  Al  Al27  1  0.143485  0.956942  0.183638  1
  Pt  Pt28  1  0.120472  0.491627  0.638130  1
  Pt  Pt29  1  0.880246  0.508037  0.361628  1
  Pt  Pt30  1  0.657481  0.171289  0.999651  1
  Pt  Pt31  1  0.342351  0.828829  0.000407  1
  Pt  Pt32  1  0.537422  0.167413  0.361615  1
  Pt  Pt33  1  0.461792  0.833288  0.638016  1
  Pt  Pt34  1  0.779521  0.174374  0.636769  1
  Pt  Pt35  1  0.220145  0.825314  0.363083  1
  Pt  Pt36  1  0.000331  0.499879  0.000120  1
