# generated using pymatgen
data_Tb3CoP6Ir7Ru
_symmetry_space_group_name_H-M   'P 1'
_cell_length_a   3.91105500
_cell_length_b   11.14276800
_cell_length_c   12.76937100
_cell_angle_alpha   90.00000000
_cell_angle_beta   90.00000000
_cell_angle_gamma   90.00000000
_symmetry_Int_Tables_number   1
_chemical_formula_structural   Tb3CoP6Ir7Ru
_chemical_formula_sum   'Tb6 Co2 P12 Ir14 Ru2'
_cell_volume   556.48891364
_cell_formula_units_Z   2
loop_
 _symmetry_equiv_pos_site_id
 _symmetry_equiv_pos_as_xyz
  1  'x, y, z'
loop_
 _atom_site_type_symbol
 _atom_site_label
 _atom_site_symmetry_multiplicity
 _atom_site_fract_x
 _atom_site_fract_y
 _atom_site_fract_z
 _atom_site_occupancy
  Tb  Tb0  1  0.000000  0.500000  0.520466  1
  Tb  Tb1  1  0.500000  0.000000  0.479534  1
  Tb  Tb2  1  0.500000  0.816205  0.201426  1
  Tb  Tb3  1  0.500000  0.183795  0.201426  1
  Tb  Tb4  1  0.000000  0.683795  0.798574  1
  Tb  Tb5  1  0.000000  0.316205  0.798574  1
  Co  Co6  1  0.000000  0.500000  0.987068  1
  Co  Co7  1  0.500000  0.000000  0.012932  1
  P  P8  1  0.500000  0.500000  0.881910  1
  P  P9  1  0.000000  0.000000  0.118090  1
  P  P10  1  0.500000  0.500000  0.350497  1
  P  P11  1  0.000000  0.000000  0.649503  1
  P  P12  1  0.500000  0.315438  0.619398  1
  P  P13  1  0.500000  0.684562  0.619398  1
  P  P14  1  0.000000  0.184562  0.380602  1
  P  P15  1  0.000000  0.815438  0.380602  1
  P  P16  1  0.500000  0.851097  0.894946  1
  P  P17  1  0.500000  0.148903  0.894946  1
  P  P18  1  0.000000  0.648903  0.105054  1
  P  P19  1  0.000000  0.351097  0.105054  1
  Ir  Ir20  1  0.500000  0.500000  0.703199  1
  Ir  Ir21  1  0.000000  0.000000  0.296801  1
  Ir  Ir22  1  0.500000  0.336541  0.991016  1
  Ir  Ir23  1  0.500000  0.663459  0.991016  1
  Ir  Ir24  1  0.000000  0.163459  0.008984  1
  Ir  Ir25  1  0.000000  0.836541  0.008984  1
  Ir  Ir26  1  0.500000  0.292319  0.429036  1
  Ir  Ir27  1  0.500000  0.707681  0.429036  1
  Ir  Ir28  1  0.000000  0.207681  0.570964  1
  Ir  Ir29  1  0.000000  0.792319  0.570964  1
  Ir  Ir30  1  0.500000  0.872594  0.713910  1
  Ir  Ir31  1  0.500000  0.127406  0.713910  1
  Ir  Ir32  1  0.000000  0.627406  0.286090  1
  Ir  Ir33  1  0.000000  0.372594  0.286090  1
  Ru  Ru34  1  0.500000  0.500000  0.167874  1
  Ru  Ru35  1  0.000000  0.000000  0.832126  1
