# generated using pymatgen
data_La6IrPd7
_symmetry_space_group_name_H-M   'P 1'
_cell_length_a   8.25480699
_cell_length_b   8.25480621
_cell_length_c   8.25480710
_cell_angle_alpha   114.43162440
_cell_angle_beta   114.43162415
_cell_angle_gamma   114.43162163
_symmetry_Int_Tables_number   1
_chemical_formula_structural   La6IrPd7
_chemical_formula_sum   'La6 Ir1 Pd7'
_cell_volume   330.52452612
_cell_formula_units_Z   1
loop_
 _symmetry_equiv_pos_site_id
 _symmetry_equiv_pos_as_xyz
  1  'x, y, z'
loop_
 _atom_site_type_symbol
 _atom_site_label
 _atom_site_symmetry_multiplicity
 _atom_site_fract_x
 _atom_site_fract_y
 _atom_site_fract_z
 _atom_site_occupancy
  La  La0  1  0.972601  0.604680  0.726809  1
  La  La1  1  0.726809  0.972601  0.604680  1
  La  La2  1  0.604680  0.726809  0.972601  1
  La  La3  1  0.027399  0.395320  0.273191  1
  La  La4  1  0.273191  0.027399  0.395320  1
  La  La5  1  0.395320  0.273191  0.027399  1
  Ir  Ir6  1  0.000000  0.000000  0.000000  1
  Pd  Pd7  1  0.500000  0.500000  0.500000  1
  Pd  Pd8  1  0.942551  0.776363  0.443607  1
  Pd  Pd9  1  0.443607  0.942551  0.776363  1
  Pd  Pd10  1  0.776363  0.443607  0.942551  1
  Pd  Pd11  1  0.057449  0.223637  0.556393  1
  Pd  Pd12  1  0.556393  0.057449  0.223637  1
  Pd  Pd13  1  0.223637  0.556393  0.057449  1
