# generated using pymatgen
data_Yb10TlRh5
_symmetry_space_group_name_H-M   'P 1'
_cell_length_a   8.74884417
_cell_length_b   8.74884445
_cell_length_c   8.74884396
_cell_angle_alpha   129.39933281
_cell_angle_beta   129.39933634
_cell_angle_gamma   74.36887520
_symmetry_Int_Tables_number   1
_chemical_formula_structural   Yb10TlRh5
_chemical_formula_sum   'Yb10 Tl1 Rh5'
_cell_volume   389.76039940
_cell_formula_units_Z   1
loop_
 _symmetry_equiv_pos_site_id
 _symmetry_equiv_pos_as_xyz
  1  'x, y, z'
loop_
 _atom_site_type_symbol
 _atom_site_label
 _atom_site_symmetry_multiplicity
 _atom_site_fract_x
 _atom_site_fract_y
 _atom_site_fract_z
 _atom_site_occupancy
  Yb  Yb0  1  0.517678  0.048928  0.838813  1
  Yb  Yb1  1  0.289886  0.451072  0.468751  1
  Yb  Yb2  1  0.451072  0.982322  0.161187  1
  Yb  Yb3  1  0.048928  0.210114  0.531249  1
  Yb  Yb4  1  0.210114  0.678865  0.161187  1
  Yb  Yb5  1  0.678865  0.517678  0.468751  1
  Yb  Yb6  1  0.510024  0.510024  0.000000  1
  Yb  Yb7  1  0.982322  0.821135  0.531249  1
  Yb  Yb8  1  0.821135  0.289886  0.838813  1
  Yb  Yb9  1  0.989976  0.989976  0.000000  1
  Tl  Tl10  1  0.750000  0.750000  0.000000  1
  Rh  Rh11  1  0.628380  0.871620  0.500000  1
  Rh  Rh12  1  0.250000  0.250000  0.000000  1
  Rh  Rh13  1  0.371620  0.128380  0.500000  1
  Rh  Rh14  1  0.128380  0.628380  0.756759  1
  Rh  Rh15  1  0.871620  0.371620  0.243241  1
