# generated using pymatgen
data_Ta3MnSi3RuW
_symmetry_space_group_name_H-M   'P 1'
_cell_length_a   7.45241667
_cell_length_b   7.45313264
_cell_length_c   7.45313267
_cell_angle_alpha   126.65170032
_cell_angle_beta   124.30250931
_cell_angle_gamma   80.76567941
_symmetry_Int_Tables_number   1
_chemical_formula_structural   Ta3MnSi3RuW
_chemical_formula_sum   'Ta6 Mn2 Si6 Ru2 W2'
_cell_volume   264.51383268
_cell_formula_units_Z   2
loop_
 _symmetry_equiv_pos_site_id
 _symmetry_equiv_pos_as_xyz
  1  'x, y, z'
loop_
 _atom_site_type_symbol
 _atom_site_label
 _atom_site_symmetry_multiplicity
 _atom_site_fract_x
 _atom_site_fract_y
 _atom_site_fract_z
 _atom_site_occupancy
  Ta  Ta0  1  0.943562  0.906763  0.462413  1
  Ta  Ta1  1  0.056438  0.518851  0.963202  1
  Ta  Ta2  1  0.535841  0.512820  0.472995  1
  Ta  Ta3  1  0.464159  0.937153  0.976978  1
  Ta  Ta4  1  0.749588  0.086195  0.839737  1
  Ta  Ta5  1  0.250412  0.090150  0.336607  1
  Mn  Mn6  1  0.909981  0.248243  0.411753  1
  Mn  Mn7  1  0.090019  0.501772  0.338261  1
  Si  Si8  1  0.729650  0.446110  0.234116  1
  Si  Si9  1  0.270350  0.504466  0.716461  1
  Si  Si10  1  0.678072  0.181875  0.515036  1
  Si  Si11  1  0.321928  0.836964  0.503802  1
  Si  Si12  1  0.163798  0.184124  0.010070  1
  Si  Si13  1  0.836202  0.846273  0.020325  1
  Ru  Ru14  1  0.339936  0.252897  0.844840  1
  Ru  Ru15  1  0.660064  0.504905  0.912960  1
  W  W16  1  0.500000  0.749402  0.249402  1
  W  W17  1  0.000000  0.748840  0.748840  1
