# generated using pymatgen
data_Dy8Mg2Sc10Si15Sb
_symmetry_space_group_name_H-M   'P 1'
_cell_length_a   7.08804864
_cell_length_b   7.40888474
_cell_length_c   14.05749826
_cell_angle_alpha   90.02467486
_cell_angle_beta   89.03982828
_cell_angle_gamma   89.95456571
_symmetry_Int_Tables_number   1
_chemical_formula_structural   Dy8Mg2Sc10Si15Sb
_chemical_formula_sum   'Dy8 Mg2 Sc10 Si15 Sb1'
_cell_volume   738.11902761
_cell_formula_units_Z   1
loop_
 _symmetry_equiv_pos_site_id
 _symmetry_equiv_pos_as_xyz
  1  'x, y, z'
loop_
 _atom_site_type_symbol
 _atom_site_label
 _atom_site_symmetry_multiplicity
 _atom_site_fract_x
 _atom_site_fract_y
 _atom_site_fract_z
 _atom_site_occupancy
  Dy  Dy0  1  0.010183  0.179269  0.097521  1
  Dy  Dy1  1  0.989895  0.821912  0.903273  1
  Dy  Dy2  1  0.488193  0.674527  0.903498  1
  Dy  Dy3  1  0.994501  0.826137  0.597645  1
  Dy  Dy4  1  0.512305  0.325389  0.097366  1
  Dy  Dy5  1  0.000099  0.174525  0.399410  1
  Dy  Dy6  1  0.514497  0.321541  0.398868  1
  Dy  Dy7  1  0.502634  0.682282  0.600205  1
  Mg  Mg8  1  0.164090  0.504280  0.755679  1
  Mg  Mg9  1  0.835457  0.496124  0.249358  1
  Sc  Sc10  1  0.336178  0.003240  0.251587  1
  Sc  Sc11  1  0.665033  0.996826  0.750257  1
  Sc  Sc12  1  0.342040  0.164474  0.628877  1
  Sc  Sc13  1  0.664607  0.823869  0.373876  1
  Sc  Sc14  1  0.151377  0.683693  0.369853  1
  Sc  Sc15  1  0.669305  0.820015  0.124074  1
  Sc  Sc16  1  0.834784  0.322272  0.625955  1
  Sc  Sc17  1  0.328942  0.178496  0.875906  1
  Sc  Sc18  1  0.835130  0.321121  0.875385  1
  Sc  Sc19  1  0.165519  0.678115  0.124779  1
  Si  Si20  1  0.035993  0.104323  0.751356  1
  Si  Si21  1  0.963236  0.896985  0.246143  1
  Si  Si22  1  0.455776  0.618953  0.248726  1
  Si  Si23  1  0.542994  0.381334  0.752222  1
  Si  Si24  1  0.292942  0.878811  0.752242  1
  Si  Si25  1  0.706409  0.117712  0.247474  1
  Si  Si26  1  0.218640  0.374001  0.249137  1
  Si  Si27  1  0.783285  0.626391  0.751368  1
  Si  Si28  1  0.813799  0.544297  0.464853  1
  Si  Si29  1  0.332027  0.965910  0.459439  1
  Si  Si30  1  0.841097  0.538229  0.034101  1
  Si  Si31  1  0.668592  0.036003  0.539001  1
  Si  Si32  1  0.158547  0.461609  0.966177  1
  Si  Si33  1  0.655243  0.032770  0.960105  1
  Si  Si34  1  0.344235  0.967562  0.040440  1
  Sb  Sb35  1  0.182415  0.457007  0.533839  1
