# generated using pymatgen
data_Tm3LuB12MoRu
_symmetry_space_group_name_H-M   'P 1'
_cell_length_a   3.61077300
_cell_length_b   9.12570618
_cell_length_c   11.50423606
_cell_angle_alpha   89.76142964
_cell_angle_beta   90.00000000
_cell_angle_gamma   90.00000000
_symmetry_Int_Tables_number   1
_chemical_formula_structural   Tm3LuB12MoRu
_chemical_formula_sum   'Tm6 Lu2 B24 Mo2 Ru2'
_cell_volume   379.07111076
_cell_formula_units_Z   2
loop_
 _symmetry_equiv_pos_site_id
 _symmetry_equiv_pos_as_xyz
  1  'x, y, z'
loop_
 _atom_site_type_symbol
 _atom_site_label
 _atom_site_symmetry_multiplicity
 _atom_site_fract_x
 _atom_site_fract_y
 _atom_site_fract_z
 _atom_site_occupancy
  Tm  Tm0  1  0.000000  0.321879  0.414490  1
  Tm  Tm1  1  0.000000  0.678121  0.585510  1
  Tm  Tm2  1  0.000000  0.821299  0.085763  1
  Tm  Tm3  1  0.000000  0.178701  0.914237  1
  Tm  Tm4  1  0.000000  0.944683  0.371003  1
  Tm  Tm5  1  0.000000  0.055317  0.628997  1
  Lu  Lu6  1  0.000000  0.442015  0.128079  1
  Lu  Lu7  1  0.000000  0.557985  0.871921  1
  B  B8  1  0.500000  0.551583  0.434316  1
  B  B9  1  0.500000  0.448417  0.565684  1
  B  B10  1  0.500000  0.054070  0.066370  1
  B  B11  1  0.500000  0.945930  0.933630  1
  B  B12  1  0.500000  0.750952  0.421149  1
  B  B13  1  0.500000  0.249048  0.578851  1
  B  B14  1  0.500000  0.249547  0.080534  1
  B  B15  1  0.500000  0.750453  0.919466  1
  B  B16  1  0.500000  0.795349  0.263326  1
  B  B17  1  0.500000  0.204651  0.736674  1
  B  B18  1  0.500000  0.291284  0.233839  1
  B  B19  1  0.500000  0.708716  0.766161  1
  B  B20  1  0.500000  0.630944  0.181642  1
  B  B21  1  0.500000  0.369056  0.818358  1
  B  B22  1  0.500000  0.130640  0.313864  1
  B  B23  1  0.500000  0.869360  0.686136  1
  B  B24  1  0.500000  0.982982  0.211361  1
  B  B25  1  0.500000  0.017018  0.788639  1
  B  B26  1  0.500000  0.477497  0.286649  1
  B  B27  1  0.500000  0.522503  0.713351  1
  B  B28  1  0.500000  0.601685  0.027545  1
  B  B29  1  0.500000  0.398315  0.972455  1
  B  B30  1  0.500000  0.102824  0.470769  1
  B  B31  1  0.500000  0.897176  0.529231  1
  Mo  Mo32  1  0.000000  0.638930  0.318432  1
  Mo  Mo33  1  0.000000  0.361070  0.681568  1
  Ru  Ru34  1  0.000000  0.138783  0.177953  1
  Ru  Ru35  1  0.000000  0.861217  0.822047  1
