# generated using pymatgen
data_Tb8Re3RuC8
_symmetry_space_group_name_H-M   'P 1'
_cell_length_a   5.14968800
_cell_length_b   6.58162619
_cell_length_c   9.89269730
_cell_angle_alpha   90.09355677
_cell_angle_beta   90.00000000
_cell_angle_gamma   90.00000000
_symmetry_Int_Tables_number   1
_chemical_formula_structural   Tb8Re3RuC8
_chemical_formula_sum   'Tb8 Re3 Ru1 C8'
_cell_volume   335.29592230
_cell_formula_units_Z   1
loop_
 _symmetry_equiv_pos_site_id
 _symmetry_equiv_pos_as_xyz
  1  'x, y, z'
loop_
 _atom_site_type_symbol
 _atom_site_label
 _atom_site_symmetry_multiplicity
 _atom_site_fract_x
 _atom_site_fract_y
 _atom_site_fract_z
 _atom_site_occupancy
  Tb  Tb0  1  0.750000  0.822502  0.053953  1
  Tb  Tb1  1  0.250000  0.681649  0.555461  1
  Tb  Tb2  1  0.750000  0.317726  0.444117  1
  Tb  Tb3  1  0.250000  0.181707  0.944163  1
  Tb  Tb4  1  0.750000  0.469561  0.784347  1
  Tb  Tb5  1  0.250000  0.031342  0.284768  1
  Tb  Tb6  1  0.750000  0.970369  0.716662  1
  Tb  Tb7  1  0.250000  0.529672  0.213935  1
  Re  Re8  1  0.250000  0.222993  0.634499  1
  Re  Re9  1  0.750000  0.777489  0.363968  1
  Re  Re10  1  0.250000  0.723235  0.865185  1
  Ru  Ru11  1  0.750000  0.276841  0.135656  1
  C  C12  1  0.750000  0.175929  0.952374  1
  C  C13  1  0.250000  0.820818  0.050022  1
  C  C14  1  0.750000  0.677792  0.548204  1
  C  C15  1  0.250000  0.321136  0.450287  1
  C  C16  1  0.750000  0.042019  0.259403  1
  C  C17  1  0.250000  0.456827  0.758888  1
  C  C18  1  0.750000  0.543976  0.243168  1
  C  C19  1  0.250000  0.956414  0.740938  1
