# generated using pymatgen
data_Y3Mg4URh8
_symmetry_space_group_name_H-M   'P 1'
_cell_length_a   6.32849485
_cell_length_b   6.32765305
_cell_length_c   7.08943479
_cell_angle_alpha   90.01629069
_cell_angle_beta   89.94611650
_cell_angle_gamma   90.14175893
_symmetry_Int_Tables_number   1
_chemical_formula_structural   Y3Mg4URh8
_chemical_formula_sum   'Y3 Mg4 U1 Rh8'
_cell_volume   283.89200556
_cell_formula_units_Z   1
loop_
 _symmetry_equiv_pos_site_id
 _symmetry_equiv_pos_as_xyz
  1  'x, y, z'
loop_
 _atom_site_type_symbol
 _atom_site_label
 _atom_site_symmetry_multiplicity
 _atom_site_fract_x
 _atom_site_fract_y
 _atom_site_fract_z
 _atom_site_occupancy
  Y  Y0  1  0.249860  0.749938  0.000047  1
  Y  Y1  1  0.750041  0.249855  0.500039  1
  Y  Y2  1  0.250079  0.749964  0.500033  1
  Mg  Mg3  1  0.250103  0.249695  0.999934  1
  Mg  Mg4  1  0.750206  0.749675  0.499466  1
  Mg  Mg5  1  0.250145  0.249876  0.500564  1
  Mg  Mg6  1  0.749666  0.750655  0.999706  1
  U  U7  1  0.750042  0.250270  0.000062  1
  Rh  Rh8  1  0.509089  0.009142  0.239687  1
  Rh  Rh9  1  0.508863  0.491071  0.239755  1
  Rh  Rh10  1  0.991203  0.008974  0.239805  1
  Rh  Rh11  1  0.990995  0.490915  0.239643  1
  Rh  Rh12  1  0.991133  0.008925  0.760233  1
  Rh  Rh13  1  0.990770  0.490938  0.760473  1
  Rh  Rh14  1  0.508994  0.009057  0.760281  1
  Rh  Rh15  1  0.508814  0.491048  0.760273  1
