# generated using pymatgen
data_Er4Sc2B4Ir9Rh
_symmetry_space_group_name_H-M   'P 1'
_cell_length_a   9.73728413
_cell_length_b   9.73728413
_cell_length_c   3.17502800
_cell_angle_alpha   90.00000000
_cell_angle_beta   90.00000000
_cell_angle_gamma   90.25511404
_symmetry_Int_Tables_number   1
_chemical_formula_structural   Er4Sc2B4Ir9Rh
_chemical_formula_sum   'Er4 Sc2 B4 Ir9 Rh1'
_cell_volume   301.03635032
_cell_formula_units_Z   1
loop_
 _symmetry_equiv_pos_site_id
 _symmetry_equiv_pos_as_xyz
  1  'x, y, z'
loop_
 _atom_site_type_symbol
 _atom_site_label
 _atom_site_symmetry_multiplicity
 _atom_site_fract_x
 _atom_site_fract_y
 _atom_site_fract_z
 _atom_site_occupancy
  Er  Er0  1  0.824731  0.324731  0.000000  1
  Er  Er1  1  0.323768  0.176232  0.000000  1
  Er  Er2  1  0.676232  0.823768  0.000000  1
  Er  Er3  1  0.175269  0.675269  0.000000  1
  Sc  Sc4  1  0.000000  0.000000  0.000000  1
  Sc  Sc5  1  0.500000  0.500000  0.000000  1
  B  B6  1  0.620145  0.120145  0.000000  1
  B  B7  1  0.121123  0.378877  0.000000  1
  B  B8  1  0.878877  0.621123  0.000000  1
  B  B9  1  0.379855  0.879855  0.000000  1
  Ir  Ir10  1  0.069195  0.225480  0.500000  1
  Ir  Ir11  1  0.224461  0.929357  0.500000  1
  Ir  Ir12  1  0.775539  0.070643  0.500000  1
  Ir  Ir13  1  0.930805  0.774520  0.500000  1
  Ir  Ir14  1  0.429357  0.724461  0.500000  1
  Ir  Ir15  1  0.570643  0.275539  0.500000  1
  Ir  Ir16  1  0.725480  0.569195  0.500000  1
  Ir  Ir17  1  0.274520  0.430805  0.500000  1
  Ir  Ir18  1  0.500000  0.000000  0.500000  1
  Rh  Rh19  1  0.000000  0.500000  0.500000  1
