# generated using pymatgen
data_GdErLuTaO7
_symmetry_space_group_name_H-M   'P 1'
_cell_length_a   6.43104695
_cell_length_b   6.43104529
_cell_length_c   7.47541666
_cell_angle_alpha   90.04092681
_cell_angle_beta   90.04092570
_cell_angle_gamma   108.86635274
_symmetry_Int_Tables_number   1
_chemical_formula_structural   GdErLuTaO7
_chemical_formula_sum   'Gd2 Er2 Lu2 Ta2 O14'
_cell_volume   292.56063047
_cell_formula_units_Z   2
loop_
 _symmetry_equiv_pos_site_id
 _symmetry_equiv_pos_as_xyz
  1  'x, y, z'
loop_
 _atom_site_type_symbol
 _atom_site_label
 _atom_site_symmetry_multiplicity
 _atom_site_fract_x
 _atom_site_fract_y
 _atom_site_fract_z
 _atom_site_occupancy
  Gd  Gd0  1  0.521908  0.522615  0.501032  1
  Gd  Gd1  1  0.477385  0.478092  0.998968  1
  Er  Er2  1  0.465838  0.999255  0.255324  1
  Er  Er3  1  0.000745  0.534162  0.244676  1
  Lu  Lu4  1  0.998102  0.466484  0.744921  1
  Lu  Lu5  1  0.533516  0.001898  0.755079  1
  Ta  Ta6  1  0.002707  0.002356  0.501049  1
  Ta  Ta7  1  0.997644  0.997293  0.998951  1
  O  O8  1  0.069345  0.930655  0.250000  1
  O  O9  1  0.058049  0.315798  0.461110  1
  O  O10  1  0.077537  0.327516  0.026449  1
  O  O11  1  0.358900  0.641100  0.250000  1
  O  O12  1  0.364270  0.635730  0.750000  1
  O  O13  1  0.327243  0.075928  0.968973  1
  O  O14  1  0.316135  0.058573  0.542887  1
  O  O15  1  0.684202  0.941951  0.038890  1
  O  O16  1  0.672484  0.922463  0.473551  1
  O  O17  1  0.632924  0.367076  0.250000  1
  O  O18  1  0.645097  0.354903  0.750000  1
  O  O19  1  0.924072  0.672757  0.531027  1
  O  O20  1  0.941427  0.683865  0.957113  1
  O  O21  1  0.930471  0.069529  0.750000  1
