# generated using pymatgen
data_Eu3Y(ZnRh)4
_symmetry_space_group_name_H-M   'P 1'
_cell_length_a   4.20183300
_cell_length_b   7.07654779
_cell_length_c   8.07848468
_cell_angle_alpha   90.32888208
_cell_angle_beta   90.00000000
_cell_angle_gamma   90.00000000
_symmetry_Int_Tables_number   1
_chemical_formula_structural   Eu3Y(ZnRh)4
_chemical_formula_sum   'Eu3 Y1 Zn4 Rh4'
_cell_volume   240.20551950
_cell_formula_units_Z   1
loop_
 _symmetry_equiv_pos_site_id
 _symmetry_equiv_pos_as_xyz
  1  'x, y, z'
loop_
 _atom_site_type_symbol
 _atom_site_label
 _atom_site_symmetry_multiplicity
 _atom_site_fract_x
 _atom_site_fract_y
 _atom_site_fract_z
 _atom_site_occupancy
  Eu  Eu0  1  0.250000  0.528378  0.184715  1
  Eu  Eu1  1  0.750000  0.472033  0.816544  1
  Eu  Eu2  1  0.750000  0.973209  0.682616  1
  Y  Y3  1  0.250000  0.029409  0.315319  1
  Zn  Zn4  1  0.250000  0.646178  0.563721  1
  Zn  Zn5  1  0.750000  0.354302  0.433820  1
  Zn  Zn6  1  0.750000  0.855817  0.065870  1
  Zn  Zn7  1  0.250000  0.141515  0.937512  1
  Rh  Rh8  1  0.250000  0.773028  0.879973  1
  Rh  Rh9  1  0.750000  0.219637  0.126911  1
  Rh  Rh10  1  0.750000  0.735829  0.378632  1
  Rh  Rh11  1  0.250000  0.270667  0.614367  1
