# generated using pymatgen
data_Hf4FePb2
_symmetry_space_group_name_H-M   'P 1'
_cell_length_a   8.21997032
_cell_length_b   8.21996815
_cell_length_c   8.21997155
_cell_angle_alpha   96.12754512
_cell_angle_beta   96.12748754
_cell_angle_gamma   141.86121091
_symmetry_Int_Tables_number   1
_chemical_formula_structural   Hf4FePb2
_chemical_formula_sum   'Hf8 Fe2 Pb4'
_cell_volume   324.17860295
_cell_formula_units_Z   2
loop_
 _symmetry_equiv_pos_site_id
 _symmetry_equiv_pos_as_xyz
  1  'x, y, z'
loop_
 _atom_site_type_symbol
 _atom_site_label
 _atom_site_symmetry_multiplicity
 _atom_site_fract_x
 _atom_site_fract_y
 _atom_site_fract_z
 _atom_site_occupancy
  Hf  Hf0  1  0.579385  0.690578  0.269962  1
  Hf  Hf1  1  0.920616  0.190578  0.111193  1
  Hf  Hf2  1  0.309423  0.579385  0.888808  1
  Hf  Hf3  1  0.809423  0.920615  0.730038  1
  Hf  Hf4  1  0.690577  0.420615  0.111192  1
  Hf  Hf5  1  0.079384  0.809422  0.888807  1
  Hf  Hf6  1  0.420615  0.309422  0.730038  1
  Hf  Hf7  1  0.190577  0.079385  0.269962  1
  Fe  Fe8  1  0.750000  0.750000  0.000000  1
  Fe  Fe9  1  0.250000  0.250000  0.000000  1
  Pb  Pb10  1  0.364449  0.864449  0.228899  1
  Pb  Pb11  1  0.135552  0.364449  0.500000  1
  Pb  Pb12  1  0.635551  0.135551  0.771101  1
  Pb  Pb13  1  0.864448  0.635551  0.500000  1
