# generated using pymatgen
data_Ba4SmTh3F24
_symmetry_space_group_name_H-M   'P 1'
_cell_length_a   7.71582596
_cell_length_b   8.88894819
_cell_length_c   9.06909400
_cell_angle_alpha   102.47606463
_cell_angle_beta   95.09979182
_cell_angle_gamma   114.80553182
_symmetry_Int_Tables_number   1
_chemical_formula_structural   Ba4SmTh3F24
_chemical_formula_sum   'Ba4 Sm1 Th3 F24'
_cell_volume   539.86018561
_cell_formula_units_Z   1
loop_
 _symmetry_equiv_pos_site_id
 _symmetry_equiv_pos_as_xyz
  1  'x, y, z'
loop_
 _atom_site_type_symbol
 _atom_site_label
 _atom_site_symmetry_multiplicity
 _atom_site_fract_x
 _atom_site_fract_y
 _atom_site_fract_z
 _atom_site_occupancy
  Ba  Ba0  1  0.268997  0.769783  0.536635  1
  Ba  Ba1  1  0.293170  0.299647  0.766484  1
  Ba  Ba2  1  0.707283  0.253994  0.463818  1
  Ba  Ba3  1  0.704551  0.687587  0.233237  1
  Sm  Sm4  1  0.841925  0.738335  0.738912  1
  Th  Th5  1  0.759508  0.208599  0.928138  1
  Th  Th6  1  0.182008  0.268097  0.280858  1
  Th  Th7  1  0.240650  0.778230  0.072248  1
  F  F8  1  0.091983  0.958380  0.686366  1
  F  F9  1  0.418208  0.630570  0.994567  1
  F  F10  1  0.918629  0.040691  0.317180  1
  F  F11  1  0.242161  0.045370  0.149923  1
  F  F12  1  0.769607  0.950667  0.860894  1
  F  F13  1  0.079475  0.756262  0.275500  1
  F  F14  1  0.878880  0.607089  0.504017  1
  F  F15  1  0.138008  0.714677  0.803106  1
  F  F16  1  0.498523  0.631562  0.644509  1
  F  F17  1  0.323285  0.198949  0.477004  1
  F  F18  1  0.099324  0.236627  0.013859  1
  F  F19  1  0.296486  0.556286  0.276490  1
  F  F20  1  0.681709  0.452064  0.724529  1
  F  F21  1  0.584594  0.357190  0.995560  1
  F  F22  1  0.862715  0.273956  0.198544  1
  F  F23  1  0.519588  0.095225  0.705400  1
  F  F24  1  0.495270  0.991676  0.994742  1
  F  F25  1  0.914842  0.760171  0.997425  1
  F  F26  1  0.914991  0.241628  0.723222  1
  F  F27  1  0.484587  0.906815  0.294788  1
  F  F28  1  0.514691  0.387805  0.299967  1
  F  F29  1  0.000652  0.493941  0.000882  1
  F  F30  1  0.114894  0.403664  0.500645  1
  F  F31  1  0.658806  0.804461  0.540552  1
