# generated using pymatgen
data_Li2IrRhS8
_symmetry_space_group_name_H-M   'P 1'
_cell_length_a   5.77450883
_cell_length_b   5.89912287
_cell_length_c   5.74747275
_cell_angle_alpha   90.08868349
_cell_angle_beta   90.01155153
_cell_angle_gamma   88.83863422
_symmetry_Int_Tables_number   1
_chemical_formula_structural   Li2IrRhS8
_chemical_formula_sum   'Li2 Ir1 Rh1 S8'
_cell_volume   195.74454254
_cell_formula_units_Z   1
loop_
 _symmetry_equiv_pos_site_id
 _symmetry_equiv_pos_as_xyz
  1  'x, y, z'
loop_
 _atom_site_type_symbol
 _atom_site_label
 _atom_site_symmetry_multiplicity
 _atom_site_fract_x
 _atom_site_fract_y
 _atom_site_fract_z
 _atom_site_occupancy
  Li  Li0  1  0.000000  0.500000  0.500000  1
  Li  Li1  1  0.500000  0.500000  0.000000  1
  Ir  Ir2  1  0.500000  0.000000  0.500000  1
  Rh  Rh3  1  0.000000  0.000000  0.000000  1
  S  S4  1  0.386790  0.096130  0.887169  1
  S  S5  1  0.114996  0.903408  0.389248  1
  S  S6  1  0.899301  0.389550  0.095679  1
  S  S7  1  0.601466  0.611755  0.596443  1
  S  S8  1  0.398534  0.388245  0.403557  1
  S  S9  1  0.100699  0.610450  0.904321  1
  S  S10  1  0.885004  0.096592  0.610752  1
  S  S11  1  0.613210  0.903870  0.112831  1
