# generated using pymatgen
data_Ho8GePd23Au
_symmetry_space_group_name_H-M   'P 1'
_cell_length_a   8.32551300
_cell_length_b   8.37152000
_cell_length_c   8.37175500
_cell_angle_alpha   90.00000000
_cell_angle_beta   90.00000000
_cell_angle_gamma   90.00000000
_symmetry_Int_Tables_number   1
_chemical_formula_structural   Ho8GePd23Au
_chemical_formula_sum   'Ho8 Ge1 Pd23 Au1'
_cell_volume   583.48787078
_cell_formula_units_Z   1
loop_
 _symmetry_equiv_pos_site_id
 _symmetry_equiv_pos_as_xyz
  1  'x, y, z'
loop_
 _atom_site_type_symbol
 _atom_site_label
 _atom_site_symmetry_multiplicity
 _atom_site_fract_x
 _atom_site_fract_y
 _atom_site_fract_z
 _atom_site_occupancy
  Ho  Ho0  1  0.253798  0.250523  0.257913  1
  Ho  Ho1  1  0.746048  0.746332  0.745431  1
  Ho  Ho2  1  0.746048  0.746332  0.254569  1
  Ho  Ho3  1  0.746048  0.253668  0.745431  1
  Ho  Ho4  1  0.253798  0.250523  0.742087  1
  Ho  Ho5  1  0.253798  0.749477  0.257913  1
  Ho  Ho6  1  0.253798  0.749477  0.742087  1
  Ho  Ho7  1  0.746048  0.253668  0.254569  1
  Ge  Ge8  1  0.000088  0.000000  0.000000  1
  Pd  Pd9  1  0.740743  0.500000  0.000000  1
  Pd  Pd10  1  0.999926  0.258975  0.500000  1
  Pd  Pd11  1  0.499903  0.258180  0.000000  1
  Pd  Pd12  1  0.999926  0.741025  0.500000  1
  Pd  Pd13  1  0.499903  0.741820  0.000000  1
  Pd  Pd14  1  0.500172  0.000000  0.259240  1
  Pd  Pd15  1  0.259127  0.000000  0.500000  1
  Pd  Pd16  1  0.500172  0.000000  0.740760  1
  Pd  Pd17  1  0.740754  0.000000  0.500000  1
  Pd  Pd18  1  0.000207  0.500000  0.259817  1
  Pd  Pd19  1  0.000207  0.500000  0.740183  1
  Pd  Pd20  1  0.252699  0.500000  0.500000  1
  Pd  Pd21  1  0.747177  0.500000  0.500000  1
  Pd  Pd22  1  0.500196  0.252806  0.500000  1
  Pd  Pd23  1  0.500196  0.747194  0.500000  1
  Pd  Pd24  1  0.499833  0.500000  0.253990  1
  Pd  Pd25  1  0.499833  0.500000  0.746010  1
  Pd  Pd26  1  0.288516  0.000000  0.000000  1
  Pd  Pd27  1  0.711244  0.000000  0.000000  1
  Pd  Pd28  1  0.999815  0.287338  0.000000  1
  Pd  Pd29  1  0.999815  0.712662  0.000000  1
  Pd  Pd30  1  0.999664  0.000000  0.288118  1
  Pd  Pd31  1  0.999664  0.000000  0.711882  1
  Au  Au32  1  0.260837  0.500000  0.000000  1
