# generated using pymatgen
data_Y3Cd2CuHgAu2
_symmetry_space_group_name_H-M   'P 1'
_cell_length_a   7.85015300
_cell_length_b   7.80022404
_cell_length_c   3.80957400
_cell_angle_alpha   90.00000000
_cell_angle_beta   90.00000000
_cell_angle_gamma   120.21197331
_symmetry_Int_Tables_number   1
_chemical_formula_structural   Y3Cd2CuHgAu2
_chemical_formula_sum   'Y3 Cd2 Cu1 Hg1 Au2'
_cell_volume   201.58612169
_cell_formula_units_Z   1
loop_
 _symmetry_equiv_pos_site_id
 _symmetry_equiv_pos_as_xyz
  1  'x, y, z'
loop_
 _atom_site_type_symbol
 _atom_site_label
 _atom_site_symmetry_multiplicity
 _atom_site_fract_x
 _atom_site_fract_y
 _atom_site_fract_z
 _atom_site_occupancy
  Y  Y0  1  0.587178  0.000000  0.000000  1
  Y  Y1  1  0.006431  0.602217  0.000000  1
  Y  Y2  1  0.404214  0.397783  0.000000  1
  Cd  Cd3  1  0.995599  0.247595  0.500000  1
  Cd  Cd4  1  0.748003  0.752405  0.500000  1
  Cu  Cu5  1  0.997615  0.000000  0.000000  1
  Hg  Hg6  1  0.253068  0.000000  0.500000  1
  Au  Au7  1  0.333620  0.659351  0.500000  1
  Au  Au8  1  0.674270  0.340649  0.500000  1
