# generated using pymatgen
data_Hf2ZrGaP2Ru3
_symmetry_space_group_name_H-M   'P 1'
_cell_length_a   6.53673949
_cell_length_b   6.54661484
_cell_length_c   3.82655200
_cell_angle_alpha   90.00000000
_cell_angle_beta   90.00000000
_cell_angle_gamma   120.04998367
_symmetry_Int_Tables_number   1
_chemical_formula_structural   Hf2ZrGaP2Ru3
_chemical_formula_sum   'Hf2 Zr1 Ga1 P2 Ru3'
_cell_volume   141.74157618
_cell_formula_units_Z   1
loop_
 _symmetry_equiv_pos_site_id
 _symmetry_equiv_pos_as_xyz
  1  'x, y, z'
loop_
 _atom_site_type_symbol
 _atom_site_label
 _atom_site_symmetry_multiplicity
 _atom_site_fract_x
 _atom_site_fract_y
 _atom_site_fract_z
 _atom_site_occupancy
  Hf  Hf0  1  0.426784  0.426405  0.500000  1
  Hf  Hf1  1  0.573216  0.999620  0.500000  1
  Zr  Zr2  1  0.000000  0.573874  0.500000  1
  Ga  Ga3  1  0.000000  0.000701  0.500000  1
  P  P4  1  0.664768  0.331789  0.000000  1
  P  P5  1  0.335232  0.667022  0.000000  1
  Ru  Ru6  1  0.254006  0.001843  0.000000  1
  Ru  Ru7  1  0.745994  0.747837  0.000000  1
  Ru  Ru8  1  0.000000  0.250910  0.000000  1
