# generated using pymatgen
data_RbZn2Au3
_symmetry_space_group_name_H-M   'P 1'
_cell_length_a   5.71411600
_cell_length_b   7.04020500
_cell_length_c   13.65414600
_cell_angle_alpha   90.00000000
_cell_angle_beta   90.00000000
_cell_angle_gamma   90.00000000
_symmetry_Int_Tables_number   1
_chemical_formula_structural   RbZn2Au3
_chemical_formula_sum   'Rb4 Zn8 Au12'
_cell_volume   549.28646822
_cell_formula_units_Z   4
loop_
 _symmetry_equiv_pos_site_id
 _symmetry_equiv_pos_as_xyz
  1  'x, y, z'
loop_
 _atom_site_type_symbol
 _atom_site_label
 _atom_site_symmetry_multiplicity
 _atom_site_fract_x
 _atom_site_fract_y
 _atom_site_fract_z
 _atom_site_occupancy
  Rb  Rb0  1  0.250000  0.102102  0.075475  1
  Rb  Rb1  1  0.250000  0.397898  0.575475  1
  Rb  Rb2  1  0.750000  0.897898  0.924525  1
  Rb  Rb3  1  0.750000  0.602102  0.424525  1
  Zn  Zn4  1  0.001073  0.896660  0.651533  1
  Zn  Zn5  1  0.498927  0.603340  0.151533  1
  Zn  Zn6  1  0.501073  0.103340  0.348467  1
  Zn  Zn7  1  0.998927  0.396660  0.848467  1
  Zn  Zn8  1  0.998927  0.103340  0.348467  1
  Zn  Zn9  1  0.501073  0.396660  0.848467  1
  Zn  Zn10  1  0.498927  0.896660  0.651533  1
  Zn  Zn11  1  0.001073  0.603340  0.151533  1
  Au  Au12  1  0.250000  0.107499  0.784500  1
  Au  Au13  1  0.250000  0.392501  0.284500  1
  Au  Au14  1  0.750000  0.892501  0.215500  1
  Au  Au15  1  0.750000  0.607499  0.715500  1
  Au  Au16  1  0.250000  0.701558  0.787638  1
  Au  Au17  1  0.250000  0.798442  0.287638  1
  Au  Au18  1  0.750000  0.298442  0.212362  1
  Au  Au19  1  0.750000  0.201558  0.712362  1
  Au  Au20  1  0.250000  0.574149  0.990050  1
  Au  Au21  1  0.250000  0.925851  0.490050  1
  Au  Au22  1  0.750000  0.425851  0.009950  1
  Au  Au23  1  0.750000  0.074149  0.509950  1
