# generated using pymatgen
data_Dy18Y2Zn3Cd3Ru2
_symmetry_space_group_name_H-M   'P 1'
_cell_length_a   9.54518901
_cell_length_b   9.54518892
_cell_length_c   9.71576500
_cell_angle_alpha   90.00000000
_cell_angle_beta   90.00000000
_cell_angle_gamma   120.00381866
_symmetry_Int_Tables_number   1
_chemical_formula_structural   Dy18Y2Zn3Cd3Ru2
_chemical_formula_sum   'Dy18 Y2 Zn3 Cd3 Ru2'
_cell_volume   766.58440795
_cell_formula_units_Z   1
loop_
 _symmetry_equiv_pos_site_id
 _symmetry_equiv_pos_as_xyz
  1  'x, y, z'
loop_
 _atom_site_type_symbol
 _atom_site_label
 _atom_site_symmetry_multiplicity
 _atom_site_fract_x
 _atom_site_fract_y
 _atom_site_fract_z
 _atom_site_occupancy
  Dy  Dy0  1  0.999994  0.000006  0.474626  1
  Dy  Dy1  1  0.999994  0.000006  0.025374  1
  Dy  Dy2  1  0.208273  0.791727  0.438319  1
  Dy  Dy3  1  0.208325  0.416576  0.438363  1
  Dy  Dy4  1  0.583424  0.791675  0.438363  1
  Dy  Dy5  1  0.790754  0.209246  0.557415  1
  Dy  Dy6  1  0.790707  0.581515  0.557443  1
  Dy  Dy7  1  0.418485  0.209293  0.557443  1
  Dy  Dy8  1  0.790754  0.209246  0.942585  1
  Dy  Dy9  1  0.790707  0.581515  0.942557  1
  Dy  Dy10  1  0.418485  0.209293  0.942557  1
  Dy  Dy11  1  0.208273  0.791727  0.061681  1
  Dy  Dy12  1  0.208325  0.416576  0.061637  1
  Dy  Dy13  1  0.583424  0.791675  0.061637  1
  Dy  Dy14  1  0.541566  0.458434  0.250000  1
  Dy  Dy15  1  0.541571  0.083133  0.250000  1
  Dy  Dy16  1  0.916867  0.458429  0.250000  1
  Dy  Dy17  1  0.458927  0.541073  0.750000  1
  Y  Y18  1  0.458855  0.917721  0.750000  1
  Y  Y19  1  0.082279  0.541145  0.750000  1
  Zn  Zn20  1  0.878350  0.121650  0.250000  1
  Zn  Zn21  1  0.878344  0.756691  0.250000  1
  Zn  Zn22  1  0.243309  0.121656  0.250000  1
  Cd  Cd23  1  0.110482  0.889518  0.750000  1
  Cd  Cd24  1  0.110529  0.220991  0.750000  1
  Cd  Cd25  1  0.779009  0.889471  0.750000  1
  Ru  Ru26  1  0.333340  0.666660  0.250000  1
  Ru  Ru27  1  0.666646  0.333354  0.750000  1
