# generated using pymatgen
data_Li29ZnSi7Pb
_symmetry_space_group_name_H-M   'P 1'
_cell_length_a   9.23891894
_cell_length_b   9.25487493
_cell_length_c   9.22512671
_cell_angle_alpha   108.81292119
_cell_angle_beta   110.18049124
_cell_angle_gamma   109.79658486
_symmetry_Int_Tables_number   1
_chemical_formula_structural   Li29ZnSi7Pb
_chemical_formula_sum   'Li29 Zn1 Si7 Pb1'
_cell_volume   604.30945270
_cell_formula_units_Z   1
loop_
 _symmetry_equiv_pos_site_id
 _symmetry_equiv_pos_as_xyz
  1  'x, y, z'
loop_
 _atom_site_type_symbol
 _atom_site_label
 _atom_site_symmetry_multiplicity
 _atom_site_fract_x
 _atom_site_fract_y
 _atom_site_fract_z
 _atom_site_occupancy
  Li  Li0  1  0.120170  0.747111  0.873265  1
  Li  Li1  1  0.731739  0.356547  0.819448  1
  Li  Li2  1  0.622840  0.765909  0.587308  1
  Li  Li3  1  0.033008  0.915404  0.692648  1
  Li  Li4  1  0.086896  0.274060  0.115036  1
  Li  Li5  1  0.917711  0.694092  0.034600  1
  Li  Li6  1  0.273222  0.115867  0.084969  1
  Li  Li7  1  0.195047  0.417837  0.533382  1
  Li  Li8  1  0.778228  0.583681  0.620652  1
  Li  Li9  1  0.692794  0.026177  0.919898  1
  Li  Li10  1  0.529884  0.194253  0.404959  1
  Li  Li11  1  0.622807  0.379265  0.247154  1
  Li  Li12  1  0.469552  0.167033  0.890275  1
  Li  Li13  1  0.885867  0.128266  0.756689  1
  Li  Li14  1  0.968650  0.378187  0.659302  1
  Li  Li15  1  0.412715  0.532133  0.189777  1
  Li  Li16  1  0.118635  0.087247  0.277445  1
  Li  Li17  1  0.300268  0.833036  0.207458  1
  Li  Li18  1  0.755496  0.873881  0.125461  1
  Li  Li19  1  0.883277  0.470162  0.160190  1
  Li  Li20  1  0.584993  0.619665  0.777352  1
  Li  Li21  1  0.382703  0.657162  0.965064  1
  Li  Li22  1  0.805675  0.725848  0.340185  1
  Li  Li23  1  0.661344  0.960733  0.369750  1
  Li  Li24  1  0.143708  0.877903  0.463238  1
  Li  Li25  1  0.224687  0.311214  0.841650  1
  Li  Li26  1  0.372139  0.257986  0.629802  1
  Li  Li27  1  0.843205  0.223093  0.308171  1
  Li  Li28  1  0.246560  0.616573  0.373768  1
  Zn  Zn29  1  0.326374  0.809465  0.732625  1
  Si  Si30  1  0.586252  0.505015  0.005601  1
  Si  Si31  1  0.495868  0.995565  0.071080  1
  Si  Si32  1  0.002908  0.087675  0.501888  1
  Si  Si33  1  0.006125  0.586841  0.506776  1
  Si  Si34  1  0.083540  0.498553  0.999731  1
  Si  Si35  1  0.416332  0.411590  0.412927  1
  Si  Si36  1  0.917708  0.914716  0.916382  1
  Pb  Pb37  1  0.501075  0.000253  0.584090  1
