# generated using pymatgen
data_DyHoFeB6
_symmetry_space_group_name_H-M   'P 1'
_cell_length_a   3.55302000
_cell_length_b   9.07999600
_cell_length_c   11.44077800
_cell_angle_alpha   90.00000000
_cell_angle_beta   90.00000000
_cell_angle_gamma   90.00000000
_symmetry_Int_Tables_number   1
_chemical_formula_structural   DyHoFeB6
_chemical_formula_sum   'Dy4 Ho4 Fe4 B24'
_cell_volume   369.09559989
_cell_formula_units_Z   4
loop_
 _symmetry_equiv_pos_site_id
 _symmetry_equiv_pos_as_xyz
  1  'x, y, z'
loop_
 _atom_site_type_symbol
 _atom_site_label
 _atom_site_symmetry_multiplicity
 _atom_site_fract_x
 _atom_site_fract_y
 _atom_site_fract_z
 _atom_site_occupancy
  Dy  Dy0  1  0.000000  0.824110  0.085380  1
  Dy  Dy1  1  0.000000  0.175890  0.914620  1
  Dy  Dy2  1  0.000000  0.324110  0.414620  1
  Dy  Dy3  1  0.000000  0.675890  0.585380  1
  Ho  Ho4  1  0.000000  0.443067  0.129680  1
  Ho  Ho5  1  0.000000  0.556933  0.870320  1
  Ho  Ho6  1  0.000000  0.943067  0.370320  1
  Ho  Ho7  1  0.000000  0.056933  0.629680  1
  Fe  Fe8  1  0.000000  0.138597  0.179516  1
  Fe  Fe9  1  0.000000  0.861403  0.820484  1
  Fe  Fe10  1  0.000000  0.638597  0.320484  1
  Fe  Fe11  1  0.000000  0.361403  0.679516  1
  B  B12  1  0.500000  0.054563  0.068211  1
  B  B13  1  0.500000  0.945437  0.931789  1
  B  B14  1  0.500000  0.554563  0.431789  1
  B  B15  1  0.500000  0.445437  0.568211  1
  B  B16  1  0.500000  0.246675  0.081729  1
  B  B17  1  0.500000  0.753325  0.918271  1
  B  B18  1  0.500000  0.746675  0.418271  1
  B  B19  1  0.500000  0.253325  0.581729  1
  B  B20  1  0.500000  0.289020  0.233737  1
  B  B21  1  0.500000  0.710980  0.766263  1
  B  B22  1  0.500000  0.789020  0.266263  1
  B  B23  1  0.500000  0.210980  0.733737  1
  B  B24  1  0.500000  0.132168  0.314218  1
  B  B25  1  0.500000  0.867832  0.685782  1
  B  B26  1  0.500000  0.632168  0.185782  1
  B  B27  1  0.500000  0.367832  0.814218  1
  B  B28  1  0.500000  0.486352  0.288308  1
  B  B29  1  0.500000  0.513648  0.711692  1
  B  B30  1  0.500000  0.986352  0.211692  1
  B  B31  1  0.500000  0.013648  0.788308  1
  B  B32  1  0.500000  0.108553  0.470258  1
  B  B33  1  0.500000  0.891447  0.529742  1
  B  B34  1  0.500000  0.608553  0.029742  1
  B  B35  1  0.500000  0.391447  0.970258  1
