# generated using pymatgen
data_Cs4Na2NdTlSb4
_symmetry_space_group_name_H-M   'P 1'
_cell_length_a   10.43825239
_cell_length_b   10.43825165
_cell_length_c   10.43825055
_cell_angle_alpha   137.02008863
_cell_angle_beta   61.53044489
_cell_angle_gamma   138.16759816
_symmetry_Int_Tables_number   1
_chemical_formula_structural   Cs4Na2NdTlSb4
_chemical_formula_sum   'Cs4 Na2 Nd1 Tl1 Sb4'
_cell_volume   511.24151219
_cell_formula_units_Z   1
loop_
 _symmetry_equiv_pos_site_id
 _symmetry_equiv_pos_as_xyz
  1  'x, y, z'
loop_
 _atom_site_type_symbol
 _atom_site_label
 _atom_site_symmetry_multiplicity
 _atom_site_fract_x
 _atom_site_fract_y
 _atom_site_fract_z
 _atom_site_occupancy
  Cs  Cs0  1  0.833362  0.240589  0.056902  1
  Cs  Cs1  1  0.666638  0.723540  0.407228  1
  Cs  Cs2  1  0.316313  0.259411  0.592772  1
  Cs  Cs3  1  0.183687  0.776460  0.943098  1
  Na  Na4  1  0.249999  0.249999  0.000000  1
  Na  Na5  1  0.749999  0.749999  0.000000  1
  Nd  Nd6  1  0.749999  0.249999  0.500000  1
  Tl  Tl7  1  0.249999  0.749999  0.500000  1
  Sb  Sb8  1  0.397194  0.764604  0.173382  1
  Sb  Sb9  1  0.102806  0.276188  0.367411  1
  Sb  Sb10  1  0.908777  0.735396  0.632589  1
  Sb  Sb11  1  0.591223  0.223812  0.826619  1
