# generated using pymatgen
data_Mn4Cu3SnPd8
_symmetry_space_group_name_H-M   'P 1'
_cell_length_a   6.79368603
_cell_length_b   6.79368660
_cell_length_c   6.79368550
_cell_angle_alpha   106.13806678
_cell_angle_beta   106.13807541
_cell_angle_gamma   116.36538911
_symmetry_Int_Tables_number   1
_chemical_formula_structural   Mn4Cu3SnPd8
_chemical_formula_sum   'Mn4 Cu3 Sn1 Pd8'
_cell_volume   238.72481144
_cell_formula_units_Z   1
loop_
 _symmetry_equiv_pos_site_id
 _symmetry_equiv_pos_as_xyz
  1  'x, y, z'
loop_
 _atom_site_type_symbol
 _atom_site_label
 _atom_site_symmetry_multiplicity
 _atom_site_fract_x
 _atom_site_fract_y
 _atom_site_fract_z
 _atom_site_occupancy
  Mn  Mn0  1  0.258790  0.258790  0.517582  1
  Mn  Mn1  1  0.741210  0.741210  0.482418  1
  Mn  Mn2  1  0.258790  0.741210  0.000000  1
  Mn  Mn3  1  0.741210  0.258790  0.000000  1
  Cu  Cu4  1  0.500000  0.000000  0.500000  1
  Cu  Cu5  1  0.000000  0.500000  0.500000  1
  Cu  Cu6  1  0.500000  0.500000  0.000000  1
  Sn  Sn7  1  0.000000  0.000000  0.000000  1
  Pd  Pd8  1  0.502538  0.248618  0.253918  1
  Pd  Pd9  1  0.497462  0.751382  0.746082  1
  Pd  Pd10  1  0.994700  0.248618  0.746082  1
  Pd  Pd11  1  0.248618  0.994700  0.746082  1
  Pd  Pd12  1  0.005300  0.751382  0.253918  1
  Pd  Pd13  1  0.751382  0.005300  0.253918  1
  Pd  Pd14  1  0.248618  0.502538  0.253918  1
  Pd  Pd15  1  0.751382  0.497462  0.746082  1
