# generated using pymatgen
data_HfZr2Ti2Ge3
_symmetry_space_group_name_H-M   'P 1'
_cell_length_a   7.90282381
_cell_length_b   7.88125248
_cell_length_c   5.38101700
_cell_angle_alpha   90.00000000
_cell_angle_beta   90.00000000
_cell_angle_gamma   119.90974221
_symmetry_Int_Tables_number   1
_chemical_formula_structural   HfZr2Ti2Ge3
_chemical_formula_sum   'Hf2 Zr4 Ti4 Ge6'
_cell_volume   290.51382694
_cell_formula_units_Z   2
loop_
 _symmetry_equiv_pos_site_id
 _symmetry_equiv_pos_as_xyz
  1  'x, y, z'
loop_
 _atom_site_type_symbol
 _atom_site_label
 _atom_site_symmetry_multiplicity
 _atom_site_fract_x
 _atom_site_fract_y
 _atom_site_fract_z
 _atom_site_occupancy
  Hf  Hf0  1  0.748729  0.748854  0.250000  1
  Hf  Hf1  1  0.251271  0.000124  0.250000  1
  Zr  Zr2  1  0.000000  0.751179  0.750000  1
  Zr  Zr3  1  0.251569  0.250761  0.750000  1
  Zr  Zr4  1  0.000000  0.248666  0.250000  1
  Zr  Zr5  1  0.748431  0.999192  0.750000  1
  Ti  Ti6  1  0.333553  0.666834  0.499639  1
  Ti  Ti7  1  0.333553  0.666834  0.000361  1
  Ti  Ti8  1  0.666447  0.333280  0.499639  1
  Ti  Ti9  1  0.666447  0.333280  0.000361  1
  Ge  Ge10  1  0.603447  0.603494  0.750000  1
  Ge  Ge11  1  0.396553  0.000047  0.750000  1
  Ge  Ge12  1  0.000000  0.604779  0.250000  1
  Ge  Ge13  1  0.602402  0.999189  0.250000  1
  Ge  Ge14  1  0.000000  0.396697  0.750000  1
  Ge  Ge15  1  0.397598  0.396787  0.250000  1
