# generated using pymatgen
data_Be3FeCo5Si3
_symmetry_space_group_name_H-M   'P 1'
_cell_length_a   3.78118900
_cell_length_b   5.37709300
_cell_length_c   11.34989100
_cell_angle_alpha   90.00000000
_cell_angle_beta   89.99952029
_cell_angle_gamma   90.00000000
_symmetry_Int_Tables_number   1
_chemical_formula_structural   Be3FeCo5Si3
_chemical_formula_sum   'Be6 Fe2 Co10 Si6'
_cell_volume   230.76376948
_cell_formula_units_Z   2
loop_
 _symmetry_equiv_pos_site_id
 _symmetry_equiv_pos_as_xyz
  1  'x, y, z'
loop_
 _atom_site_type_symbol
 _atom_site_label
 _atom_site_symmetry_multiplicity
 _atom_site_fract_x
 _atom_site_fract_y
 _atom_site_fract_z
 _atom_site_occupancy
  Be  Be0  1  0.000000  0.000000  0.000000  1
  Be  Be1  1  0.499636  0.500001  0.164107  1
  Be  Be2  1  0.999671  0.000000  0.332521  1
  Be  Be3  1  0.499999  0.500001  0.500000  1
  Be  Be4  1  0.000329  0.000000  0.667479  1
  Be  Be5  1  0.500364  0.500001  0.835893  1
  Fe  Fe6  1  0.499999  0.251563  0.000000  1
  Fe  Fe7  1  0.499999  0.748437  0.000000  1
  Co  Co8  1  0.999742  0.249675  0.169946  1
  Co  Co9  1  0.999742  0.750324  0.169946  1
  Co  Co10  1  0.499747  0.249279  0.334278  1
  Co  Co11  1  0.499747  0.750721  0.334278  1
  Co  Co12  1  0.000000  0.250279  0.500000  1
  Co  Co13  1  0.000000  0.749720  0.500000  1
  Co  Co14  1  0.500253  0.249279  0.665722  1
  Co  Co15  1  0.500253  0.750721  0.665722  1
  Co  Co16  1  0.000258  0.249675  0.830054  1
  Co  Co17  1  0.000258  0.750324  0.830054  1
  Si  Si18  1  0.000000  0.500001  0.000000  1
  Si  Si19  1  0.499718  0.000000  0.162915  1
  Si  Si20  1  0.999723  0.500001  0.332996  1
  Si  Si21  1  0.499999  0.000000  0.500000  1
  Si  Si22  1  0.000277  0.500001  0.667004  1
  Si  Si23  1  0.500282  0.000000  0.837085  1
