# generated using pymatgen
data_Hf8InCu4Ni4Hg3
_symmetry_space_group_name_H-M   'P 1'
_cell_length_a   7.20434239
_cell_length_b   7.18108368
_cell_length_c   6.68994200
_cell_angle_alpha   90.00000000
_cell_angle_beta   90.00000000
_cell_angle_gamma   89.09859401
_symmetry_Int_Tables_number   1
_chemical_formula_structural   Hf8InCu4Ni4Hg3
_chemical_formula_sum   'Hf8 In1 Cu4 Ni4 Hg3'
_cell_volume   346.06122111
_cell_formula_units_Z   1
loop_
 _symmetry_equiv_pos_site_id
 _symmetry_equiv_pos_as_xyz
  1  'x, y, z'
loop_
 _atom_site_type_symbol
 _atom_site_label
 _atom_site_symmetry_multiplicity
 _atom_site_fract_x
 _atom_site_fract_y
 _atom_site_fract_z
 _atom_site_occupancy
  Hf  Hf0  1  0.195058  0.807612  0.500926  1
  Hf  Hf1  1  0.326670  0.325377  0.999355  1
  Hf  Hf2  1  0.648778  0.650222  0.500566  1
  Hf  Hf3  1  0.804942  0.192388  0.500926  1
  Hf  Hf4  1  0.161998  0.840512  0.999856  1
  Hf  Hf5  1  0.351222  0.349778  0.500566  1
  Hf  Hf6  1  0.673330  0.674623  0.999355  1
  Hf  Hf7  1  0.838002  0.159488  0.999856  1
  In  In8  1  0.500000  0.000000  0.250169  1
  Cu  Cu9  1  0.121992  0.125234  0.285397  1
  Cu  Cu10  1  0.878250  0.874559  0.713746  1
  Cu  Cu11  1  0.878008  0.874766  0.285397  1
  Cu  Cu12  1  0.121750  0.125441  0.713746  1
  Ni  Ni13  1  0.375964  0.626230  0.219147  1
  Ni  Ni14  1  0.626090  0.376441  0.781576  1
  Ni  Ni15  1  0.373910  0.623559  0.781576  1
  Ni  Ni16  1  0.624036  0.373770  0.219147  1
  Hg  Hg17  1  0.500000  0.000000  0.748729  1
  Hg  Hg18  1  0.000000  0.500000  0.252768  1
  Hg  Hg19  1  0.000000  0.500000  0.747195  1
