# generated using pymatgen
data_Er6Zn18AsPd5
_symmetry_space_group_name_H-M   'P 1'
_cell_length_a   9.05003525
_cell_length_b   9.07492421
_cell_length_c   9.05003601
_cell_angle_alpha   59.90898411
_cell_angle_beta   59.85759230
_cell_angle_gamma   59.90899066
_symmetry_Int_Tables_number   1
_chemical_formula_structural   Er6Zn18AsPd5
_chemical_formula_sum   'Er6 Zn18 As1 Pd5'
_cell_volume   524.27780703
_cell_formula_units_Z   1
loop_
 _symmetry_equiv_pos_site_id
 _symmetry_equiv_pos_as_xyz
  1  'x, y, z'
loop_
 _atom_site_type_symbol
 _atom_site_label
 _atom_site_symmetry_multiplicity
 _atom_site_fract_x
 _atom_site_fract_y
 _atom_site_fract_z
 _atom_site_occupancy
  Er  Er0  1  0.718123  0.280381  0.281877  1
  Er  Er1  1  0.718350  0.281650  0.718350  1
  Er  Er2  1  0.718123  0.719619  0.281877  1
  Er  Er3  1  0.281877  0.719619  0.718123  1
  Er  Er4  1  0.281650  0.718350  0.281650  1
  Er  Er5  1  0.281877  0.280381  0.718123  1
  Zn  Zn6  1  0.624605  0.125179  0.125039  1
  Zn  Zn7  1  0.125737  0.624873  0.125737  1
  Zn  Zn8  1  0.125039  0.125179  0.624605  1
  Zn  Zn9  1  0.125737  0.123654  0.125737  1
  Zn  Zn10  1  0.375395  0.874821  0.874961  1
  Zn  Zn11  1  0.874263  0.375127  0.874263  1
  Zn  Zn12  1  0.874961  0.874821  0.375395  1
  Zn  Zn13  1  0.874263  0.876346  0.874263  1
  Zn  Zn14  1  0.000000  0.500000  0.000000  1
  Zn  Zn15  1  0.000000  0.000000  0.000000  1
  Zn  Zn16  1  0.006301  0.331326  0.331044  1
  Zn  Zn17  1  0.330588  0.008008  0.330588  1
  Zn  Zn18  1  0.331044  0.331326  0.006301  1
  Zn  Zn19  1  0.330588  0.330814  0.330588  1
  Zn  Zn20  1  0.993699  0.668674  0.668956  1
  Zn  Zn21  1  0.669412  0.991992  0.669412  1
  Zn  Zn22  1  0.668956  0.668674  0.993699  1
  Zn  Zn23  1  0.669412  0.669186  0.669412  1
  As  As24  1  0.500000  0.500000  0.500000  1
  Pd  Pd25  1  0.500000  0.000000  0.000000  1
  Pd  Pd26  1  0.500000  0.000000  0.500000  1
  Pd  Pd27  1  0.500000  0.500000  0.000000  1
  Pd  Pd28  1  0.000000  0.500000  0.500000  1
  Pd  Pd29  1  0.000000  0.000000  0.500000  1
