# generated using pymatgen
data_Tb3Pr6YPb6
_symmetry_space_group_name_H-M   'P 1'
_cell_length_a   9.31773500
_cell_length_b   9.31773543
_cell_length_c   6.83570100
_cell_angle_alpha   90.00000000
_cell_angle_beta   90.00000000
_cell_angle_gamma   119.99999493
_symmetry_Int_Tables_number   1
_chemical_formula_structural   Tb3Pr6YPb6
_chemical_formula_sum   'Tb3 Pr6 Y1 Pb6'
_cell_volume   513.96606047
_cell_formula_units_Z   1
loop_
 _symmetry_equiv_pos_site_id
 _symmetry_equiv_pos_as_xyz
  1  'x, y, z'
loop_
 _atom_site_type_symbol
 _atom_site_label
 _atom_site_symmetry_multiplicity
 _atom_site_fract_x
 _atom_site_fract_y
 _atom_site_fract_z
 _atom_site_occupancy
  Tb  Tb0  1  0.333333  0.666667  0.000000  1
  Tb  Tb1  1  0.333333  0.666667  0.500000  1
  Tb  Tb2  1  0.666667  0.333333  0.500000  1
  Pr  Pr3  1  0.758258  0.759186  0.750187  1
  Pr  Pr4  1  0.240814  0.999072  0.750187  1
  Pr  Pr5  1  0.000928  0.241742  0.750187  1
  Pr  Pr6  1  0.240814  0.241742  0.249813  1
  Pr  Pr7  1  0.758258  0.999072  0.249813  1
  Pr  Pr8  1  0.000928  0.759186  0.249813  1
  Y  Y9  1  0.666667  0.333333  0.000000  1
  Pb  Pb10  1  0.397918  0.396735  0.751774  1
  Pb  Pb11  1  0.603265  0.001182  0.751774  1
  Pb  Pb12  1  0.998818  0.602082  0.751774  1
  Pb  Pb13  1  0.603265  0.602082  0.248226  1
  Pb  Pb14  1  0.397918  0.001182  0.248226  1
  Pb  Pb15  1  0.998818  0.396735  0.248226  1
