# generated using pymatgen
data_Ho6Al24IrRu4Pt3
_symmetry_space_group_name_H-M   'P 1'
_cell_length_a   8.83544254
_cell_length_b   8.81890825
_cell_length_c   9.48527131
_cell_angle_alpha   90.20337370
_cell_angle_beta   90.12612803
_cell_angle_gamma   119.80531513
_symmetry_Int_Tables_number   1
_chemical_formula_structural   Ho6Al24IrRu4Pt3
_chemical_formula_sum   'Ho6 Al24 Ir1 Ru4 Pt3'
_cell_volume   641.30540176
_cell_formula_units_Z   1
loop_
 _symmetry_equiv_pos_site_id
 _symmetry_equiv_pos_as_xyz
  1  'x, y, z'
loop_
 _atom_site_type_symbol
 _atom_site_label
 _atom_site_symmetry_multiplicity
 _atom_site_fract_x
 _atom_site_fract_y
 _atom_site_fract_z
 _atom_site_occupancy
  Ho  Ho0  1  0.189177  0.384250  0.251233  1
  Ho  Ho1  1  0.810823  0.615750  0.748767  1
  Ho  Ho2  1  0.616325  0.810221  0.250327  1
  Ho  Ho3  1  0.383675  0.189779  0.749673  1
  Ho  Ho4  1  0.191244  0.806858  0.250336  1
  Ho  Ho5  1  0.808756  0.193142  0.749664  1
  Al  Al6  1  0.327818  0.663745  0.029804  1
  Al  Al7  1  0.672182  0.336255  0.970196  1
  Al  Al8  1  0.666938  0.329453  0.527656  1
  Al  Al9  1  0.333062  0.670547  0.472344  1
  Al  Al10  1  0.159853  0.324904  0.576519  1
  Al  Al11  1  0.840147  0.675096  0.423481  1
  Al  Al12  1  0.675729  0.842575  0.576516  1
  Al  Al13  1  0.841893  0.675123  0.077214  1
  Al  Al14  1  0.324271  0.157425  0.423484  1
  Al  Al15  1  0.158107  0.324877  0.922786  1
  Al  Al16  1  0.165128  0.838408  0.576233  1
  Al  Al17  1  0.323299  0.162082  0.078127  1
  Al  Al18  1  0.834872  0.161592  0.423767  1
  Al  Al19  1  0.676701  0.837918  0.921873  1
  Al  Al20  1  0.841610  0.167441  0.077552  1
  Al  Al21  1  0.158390  0.832559  0.922448  1
  Al  Al22  1  0.561757  0.124516  0.253826  1
  Al  Al23  1  0.438243  0.875484  0.746174  1
  Al  Al24  1  0.877197  0.439242  0.247860  1
  Al  Al25  1  0.122803  0.560758  0.752140  1
  Al  Al26  1  0.563590  0.436771  0.249815  1
  Al  Al27  1  0.436410  0.563229  0.750185  1
  Al  Al28  1  0.997928  0.000695  0.250160  1
  Al  Al29  1  0.002072  0.999305  0.749840  1
  Ir  Ir30  1  0.000000  0.500000  0.500000  1
  Ru  Ru31  1  0.000000  0.500000  0.000000  1
  Ru  Ru32  1  0.500000  0.000000  0.500000  1
  Ru  Ru33  1  0.000000  0.000000  0.000000  1
  Ru  Ru34  1  0.000000  0.000000  0.500000  1
  Pt  Pt35  1  0.500000  0.000000  0.000000  1
  Pt  Pt36  1  0.500000  0.500000  0.000000  1
  Pt  Pt37  1  0.500000  0.500000  0.500000  1
