# generated using pymatgen
data_TmTh3Al13Ga5Ir6
_symmetry_space_group_name_H-M   'P 1'
_cell_length_a   7.62201620
_cell_length_b   7.62902997
_cell_length_c   9.55472300
_cell_angle_alpha   90.00000000
_cell_angle_beta   90.00000000
_cell_angle_gamma   119.52941153
_symmetry_Int_Tables_number   1
_chemical_formula_structural   TmTh3Al13Ga5Ir6
_chemical_formula_sum   'Tm1 Th3 Al13 Ga5 Ir6'
_cell_volume   483.42361228
_cell_formula_units_Z   1
loop_
 _symmetry_equiv_pos_site_id
 _symmetry_equiv_pos_as_xyz
  1  'x, y, z'
loop_
 _atom_site_type_symbol
 _atom_site_label
 _atom_site_symmetry_multiplicity
 _atom_site_fract_x
 _atom_site_fract_y
 _atom_site_fract_z
 _atom_site_occupancy
  Tm  Tm0  1  0.329014  0.007161  0.750000  1
  Th  Th1  1  0.994526  0.670817  0.250000  1
  Th  Th2  1  0.000799  0.326893  0.750000  1
  Th  Th3  1  0.669780  0.994819  0.250000  1
  Al  Al4  1  0.006136  0.335797  0.073425  1
  Al  Al5  1  0.001336  0.670174  0.922998  1
  Al  Al6  1  0.001336  0.670174  0.577002  1
  Al  Al7  1  0.335071  0.004072  0.433098  1
  Al  Al8  1  0.006136  0.335797  0.426575  1
  Al  Al9  1  0.658517  0.995054  0.576754  1
  Al  Al10  1  0.658517  0.995054  0.923246  1
  Al  Al11  1  0.335071  0.004072  0.066902  1
  Al  Al12  1  0.336155  0.332861  0.557035  1
  Al  Al13  1  0.663521  0.663441  0.453763  1
  Al  Al14  1  0.663521  0.663441  0.046237  1
  Al  Al15  1  0.336155  0.332861  0.942965  1
  Al  Al16  1  0.451900  0.662518  0.750000  1
  Ga  Ga17  1  0.137126  0.133974  0.250000  1
  Ga  Ga18  1  0.869552  0.866465  0.750000  1
  Ga  Ga19  1  0.343126  0.544009  0.250000  1
  Ga  Ga20  1  0.654783  0.450227  0.750000  1
  Ga  Ga21  1  0.543525  0.339666  0.250000  1
  Ir  Ir22  1  0.673999  0.328469  0.000116  1
  Ir  Ir23  1  0.328619  0.670717  0.997337  1
  Ir  Ir24  1  0.328619  0.670717  0.502663  1
  Ir  Ir25  1  0.673999  0.328469  0.499884  1
  Ir  Ir26  1  0.999581  0.001141  0.000162  1
  Ir  Ir27  1  0.999581  0.001141  0.499838  1
