# generated using pymatgen
data_DyErSc3Ga4
_symmetry_space_group_name_H-M   'P 1'
_cell_length_a   7.25692604
_cell_length_b   7.56330503
_cell_length_c   14.43635004
_cell_angle_alpha   90.00022839
_cell_angle_beta   90.00826479
_cell_angle_gamma   90.00946398
_symmetry_Int_Tables_number   1
_chemical_formula_structural   DyErSc3Ga4
_chemical_formula_sum   'Dy4 Er4 Sc12 Ga16'
_cell_volume   792.35847279
_cell_formula_units_Z   4
loop_
 _symmetry_equiv_pos_site_id
 _symmetry_equiv_pos_as_xyz
  1  'x, y, z'
loop_
 _atom_site_type_symbol
 _atom_site_label
 _atom_site_symmetry_multiplicity
 _atom_site_fract_x
 _atom_site_fract_y
 _atom_site_fract_z
 _atom_site_occupancy
  Dy  Dy0  1  0.010555  0.180264  0.094312  1
  Dy  Dy1  1  0.989437  0.819851  0.905670  1
  Dy  Dy2  1  0.489392  0.680100  0.905816  1
  Dy  Dy3  1  0.989413  0.819858  0.594244  1
  Er  Er4  1  0.510549  0.319675  0.094406  1
  Er  Er5  1  0.010513  0.180517  0.405586  1
  Er  Er6  1  0.510601  0.319622  0.405742  1
  Er  Er7  1  0.489448  0.680287  0.594341  1
  Sc  Sc8  1  0.162401  0.502961  0.749928  1
  Sc  Sc9  1  0.837570  0.496723  0.250067  1
  Sc  Sc10  1  0.337838  0.003267  0.250060  1
  Sc  Sc11  1  0.662130  0.997034  0.749930  1
  Sc  Sc12  1  0.330113  0.172938  0.624647  1
  Sc  Sc13  1  0.669999  0.827152  0.375278  1
  Sc  Sc14  1  0.170156  0.672860  0.375261  1
  Sc  Sc15  1  0.669928  0.827110  0.124808  1
  Sc  Sc16  1  0.829917  0.327087  0.624626  1
  Sc  Sc17  1  0.330145  0.172910  0.875288  1
  Sc  Sc18  1  0.829978  0.327047  0.875264  1
  Sc  Sc19  1  0.170123  0.672842  0.124791  1
  Ga  Ga20  1  0.030602  0.116011  0.749994  1
  Ga  Ga21  1  0.969393  0.884149  0.250056  1
  Ga  Ga22  1  0.469432  0.615703  0.249997  1
  Ga  Ga23  1  0.530580  0.384104  0.749944  1
  Ga  Ga24  1  0.283545  0.870297  0.749880  1
  Ga  Ga25  1  0.716496  0.129904  0.250096  1
  Ga  Ga26  1  0.216842  0.370190  0.250107  1
  Ga  Ga27  1  0.783181  0.629584  0.749891  1
  Ga  Ga28  1  0.163111  0.465194  0.540359  1
  Ga  Ga29  1  0.836922  0.534298  0.459487  1
  Ga  Ga30  1  0.337175  0.965489  0.459520  1
  Ga  Ga31  1  0.836969  0.534593  0.040477  1
  Ga  Ga32  1  0.662654  0.034684  0.540345  1
  Ga  Ga33  1  0.162850  0.465207  0.959646  1
  Ga  Ga34  1  0.662610  0.034988  0.959680  1
  Ga  Ga35  1  0.337434  0.965501  0.040458  1
