# generated using pymatgen
data_Na2TaNb7Tl6(P2O17)2
_symmetry_space_group_name_H-M   'P 1'
_cell_length_a   11.93337000
_cell_length_b   11.93336973
_cell_length_c   7.47781500
_cell_angle_alpha   90.00000000
_cell_angle_beta   90.00000000
_cell_angle_gamma   130.05342638
_symmetry_Int_Tables_number   1
_chemical_formula_structural   Na2TaNb7Tl6(P2O17)2
_chemical_formula_sum   'Na2 Ta1 Nb7 Tl6 P4 O34'
_cell_volume   815.10725403
_cell_formula_units_Z   1
loop_
 _symmetry_equiv_pos_site_id
 _symmetry_equiv_pos_as_xyz
  1  'x, y, z'
loop_
 _atom_site_type_symbol
 _atom_site_label
 _atom_site_symmetry_multiplicity
 _atom_site_fract_x
 _atom_site_fract_y
 _atom_site_fract_z
 _atom_site_occupancy
  Na  Na0  1  0.632327  0.632276  0.999895  1
  Na  Na1  1  0.632327  0.632276  0.500105  1
  Ta  Ta2  1  0.148035  0.675597  0.750000  1
  Nb  Nb3  1  0.038599  0.347862  0.500193  1
  Nb  Nb4  1  0.038599  0.347862  0.999807  1
  Nb  Nb5  1  0.001548  0.002072  0.499785  1
  Nb  Nb6  1  0.345909  0.038214  0.999482  1
  Nb  Nb7  1  0.001548  0.002072  0.000215  1
  Nb  Nb8  1  0.345909  0.038214  0.500518  1
  Nb  Nb9  1  0.673942  0.147063  0.250000  1
  Tl  Tl10  1  0.964763  0.687825  0.250000  1
  Tl  Tl11  1  0.318038  0.712910  0.250000  1
  Tl  Tl12  1  0.713157  0.317975  0.750000  1
  Tl  Tl13  1  0.310160  0.366782  0.250000  1
  Tl  Tl14  1  0.366727  0.310546  0.750000  1
  Tl  Tl15  1  0.688293  0.965266  0.750000  1
  P  P16  1  0.580819  0.351262  0.250000  1
  P  P17  1  0.862933  0.687041  0.750000  1
  P  P18  1  0.351232  0.581105  0.750000  1
  P  P19  1  0.686781  0.861946  0.250000  1
  O  O20  1  0.416745  0.116165  0.750000  1
  O  O21  1  0.513478  0.654783  0.750000  1
  O  O22  1  0.776747  0.899368  0.424098  1
  O  O23  1  0.191006  0.060285  0.958300  1
  O  O24  1  0.529094  0.073579  0.062054  1
  O  O25  1  0.191006  0.060285  0.541700  1
  O  O26  1  0.944076  0.000409  0.750000  1
  O  O27  1  0.484711  0.272079  0.079432  1
  O  O28  1  0.529094  0.073579  0.437946  1
  O  O29  1  0.776747  0.899368  0.075902  1
  O  O30  1  0.991471  0.284567  0.750000  1
  O  O31  1  0.116555  0.416758  0.250000  1
  O  O32  1  0.073526  0.529781  0.937481  1
  O  O33  1  0.840108  0.235759  0.068199  1
  O  O34  1  0.000725  0.944266  0.250000  1
  O  O35  1  0.272823  0.485155  0.579405  1
  O  O36  1  0.550159  0.700198  0.250000  1
  O  O37  1  0.060611  0.190844  0.458437  1
  O  O38  1  0.899892  0.776526  0.575870  1
  O  O39  1  0.899892  0.776526  0.924130  1
  O  O40  1  0.639209  0.957440  0.250000  1
  O  O41  1  0.334199  0.702801  0.750000  1
  O  O42  1  0.701384  0.549817  0.750000  1
  O  O43  1  0.284855  0.990767  0.250000  1
  O  O44  1  0.235432  0.839193  0.930537  1
  O  O45  1  0.060611  0.190844  0.041563  1
  O  O46  1  0.653346  0.513181  0.250000  1
  O  O47  1  0.484711  0.272079  0.420568  1
  O  O48  1  0.235432  0.839193  0.569463  1
  O  O49  1  0.840108  0.235759  0.431801  1
  O  O50  1  0.073526  0.529781  0.562519  1
  O  O51  1  0.959667  0.640377  0.750000  1
  O  O52  1  0.272823  0.485155  0.920595  1
  O  O53  1  0.703570  0.336149  0.250000  1
