# generated using pymatgen
data_Er15Th(NiAg)4
_symmetry_space_group_name_H-M   'P 1'
_cell_length_a   9.37269027
_cell_length_b   9.37269018
_cell_length_c   9.37269100
_cell_angle_alpha   60.19585323
_cell_angle_beta   60.19585388
_cell_angle_gamma   60.19585327
_symmetry_Int_Tables_number   1
_chemical_formula_structural   Er15Th(NiAg)4
_chemical_formula_sum   'Er15 Th1 Ni4 Ag4'
_cell_volume   584.78961838
_cell_formula_units_Z   1
loop_
 _symmetry_equiv_pos_site_id
 _symmetry_equiv_pos_as_xyz
  1  'x, y, z'
loop_
 _atom_site_type_symbol
 _atom_site_label
 _atom_site_symmetry_multiplicity
 _atom_site_fract_x
 _atom_site_fract_y
 _atom_site_fract_z
 _atom_site_occupancy
  Er  Er0  1  0.351768  0.351768  0.943383  1
  Er  Er1  1  0.351768  0.943383  0.351768  1
  Er  Er2  1  0.943383  0.351768  0.351768  1
  Er  Er3  1  0.812836  0.187668  0.187668  1
  Er  Er4  1  0.191670  0.810607  0.810607  1
  Er  Er5  1  0.187668  0.812836  0.187668  1
  Er  Er6  1  0.810607  0.191670  0.810607  1
  Er  Er7  1  0.187668  0.187668  0.812836  1
  Er  Er8  1  0.810607  0.810607  0.191670  1
  Er  Er9  1  0.934926  0.566075  0.566075  1
  Er  Er10  1  0.565411  0.937134  0.937134  1
  Er  Er11  1  0.566075  0.934926  0.566075  1
  Er  Er12  1  0.937134  0.565411  0.937134  1
  Er  Er13  1  0.566075  0.566075  0.934926  1
  Er  Er14  1  0.937134  0.937134  0.565411  1
  Th  Th15  1  0.347681  0.347681  0.347681  1
  Ni  Ni16  1  0.143639  0.143639  0.143639  1
  Ni  Ni17  1  0.140971  0.140971  0.570926  1
  Ni  Ni18  1  0.140971  0.570926  0.140971  1
  Ni  Ni19  1  0.570926  0.140971  0.140971  1
  Ag  Ag20  1  0.582331  0.582331  0.582331  1
  Ag  Ag21  1  0.583508  0.583508  0.251737  1
  Ag  Ag22  1  0.583508  0.251737  0.583508  1
  Ag  Ag23  1  0.251737  0.583508  0.583508  1
