# generated using pymatgen
data_Yb7CeAs6
_symmetry_space_group_name_H-M   'P 1'
_cell_length_a   7.65838758
_cell_length_b   7.71242261
_cell_length_c   7.71242264
_cell_angle_alpha   109.61271528
_cell_angle_beta   109.32935695
_cell_angle_gamma   109.32935119
_symmetry_Int_Tables_number   1
_chemical_formula_structural   Yb7CeAs6
_chemical_formula_sum   'Yb7 Ce1 As6'
_cell_volume   351.28083999
_cell_formula_units_Z   1
loop_
 _symmetry_equiv_pos_site_id
 _symmetry_equiv_pos_as_xyz
  1  'x, y, z'
loop_
 _atom_site_type_symbol
 _atom_site_label
 _atom_site_symmetry_multiplicity
 _atom_site_fract_x
 _atom_site_fract_y
 _atom_site_fract_z
 _atom_site_occupancy
  Yb  Yb0  1  0.499170  0.999829  0.642142  1
  Yb  Yb1  1  0.364625  0.360415  0.368369  1
  Yb  Yb2  1  0.996256  0.131631  0.492046  1
  Yb  Yb3  1  0.857028  0.857858  0.857687  1
  Yb  Yb4  1  0.999341  0.642313  0.500171  1
  Yb  Yb5  1  0.640009  0.500000  0.000000  1
  Yb  Yb6  1  0.504210  0.007954  0.139585  1
  Ce  Ce7  1  0.143539  0.500000  0.000000  1
  As  As8  1  0.881446  0.254862  0.123240  1
  As  As9  1  0.126585  0.868379  0.245138  1
  As  As10  1  0.369198  0.623387  0.754624  1
  As  As11  1  0.245812  0.131237  0.876613  1
  As  As12  1  0.758206  0.376760  0.631621  1
  As  As13  1  0.614575  0.745376  0.368763  1
