# generated using pymatgen
data_Ba5CrHN4
_symmetry_space_group_name_H-M   'P 1'
_cell_length_a   7.95851658
_cell_length_b   7.95851627
_cell_length_c   9.68467956
_cell_angle_alpha   76.95493531
_cell_angle_beta   76.95493706
_cell_angle_gamma   95.90026248
_symmetry_Int_Tables_number   1
_chemical_formula_structural   Ba5CrHN4
_chemical_formula_sum   'Ba10 Cr2 H2 N8'
_cell_volume   574.46622427
_cell_formula_units_Z   2
loop_
 _symmetry_equiv_pos_site_id
 _symmetry_equiv_pos_as_xyz
  1  'x, y, z'
loop_
 _atom_site_type_symbol
 _atom_site_label
 _atom_site_symmetry_multiplicity
 _atom_site_fract_x
 _atom_site_fract_y
 _atom_site_fract_z
 _atom_site_occupancy
  Ba  Ba0  1  0.379540  0.379540  0.376690  1
  Ba  Ba1  1  0.620460  0.620460  0.623310  1
  Ba  Ba2  1  0.661678  0.661678  0.006234  1
  Ba  Ba3  1  0.338322  0.338322  0.993766  1
  Ba  Ba4  1  0.941465  0.941465  0.192363  1
  Ba  Ba5  1  0.058535  0.058535  0.807637  1
  Ba  Ba6  1  0.573745  0.074494  0.762483  1
  Ba  Ba7  1  0.925506  0.426255  0.237517  1
  Ba  Ba8  1  0.426255  0.925506  0.237517  1
  Ba  Ba9  1  0.074494  0.573745  0.762483  1
  Cr  Cr10  1  0.755144  0.244856  0.000000  1
  Cr  Cr11  1  0.244856  0.755144  0.000000  1
  H  H12  1  0.656935  0.656935  0.305909  1
  H  H13  1  0.343065  0.343065  0.694091  1
  N  N14  1  0.714807  0.020762  0.998844  1
  N  N15  1  0.979238  0.285193  0.001156  1
  N  N16  1  0.285193  0.979238  0.001156  1
  N  N17  1  0.020762  0.714807  0.998844  1
  N  N18  1  0.381688  0.716494  0.843413  1
  N  N19  1  0.283506  0.618312  0.156586  1
  N  N20  1  0.618312  0.283506  0.156586  1
  N  N21  1  0.716494  0.381688  0.843413  1
