# generated using pymatgen
data_LaNb8GeS16
_symmetry_space_group_name_H-M   'P 1'
_cell_length_a   6.67125700
_cell_length_b   6.67125858
_cell_length_c   13.97806100
_cell_angle_alpha   90.00000000
_cell_angle_beta   90.00000000
_cell_angle_gamma   120.00000702
_symmetry_Int_Tables_number   1
_chemical_formula_structural   LaNb8GeS16
_chemical_formula_sum   'La1 Nb8 Ge1 S16'
_cell_volume   538.75706518
_cell_formula_units_Z   1
loop_
 _symmetry_equiv_pos_site_id
 _symmetry_equiv_pos_as_xyz
  1  'x, y, z'
loop_
 _atom_site_type_symbol
 _atom_site_label
 _atom_site_symmetry_multiplicity
 _atom_site_fract_x
 _atom_site_fract_y
 _atom_site_fract_z
 _atom_site_occupancy
  La  La0  1  0.000000  0.000000  0.500000  1
  Nb  Nb1  1  0.000000  0.000000  0.239085  1
  Nb  Nb2  1  0.000000  0.000000  0.760915  1
  Nb  Nb3  1  0.504558  0.009116  0.237100  1
  Nb  Nb4  1  0.990884  0.495442  0.237100  1
  Nb  Nb5  1  0.504558  0.495442  0.237100  1
  Nb  Nb6  1  0.495442  0.990884  0.762900  1
  Nb  Nb7  1  0.009116  0.504558  0.762900  1
  Nb  Nb8  1  0.495442  0.504558  0.762900  1
  Ge  Ge9  1  0.000000  0.000000  0.000000  1
  S  S10  1  0.333333  0.666667  0.876427  1
  S  S11  1  0.666667  0.333333  0.123573  1
  S  S12  1  0.666667  0.333333  0.352766  1
  S  S13  1  0.333333  0.666667  0.647234  1
  S  S14  1  0.168892  0.831108  0.349992  1
  S  S15  1  0.168892  0.337782  0.349992  1
  S  S16  1  0.662218  0.831108  0.349992  1
  S  S17  1  0.831108  0.168892  0.650008  1
  S  S18  1  0.831108  0.662218  0.650008  1
  S  S19  1  0.337782  0.168892  0.650008  1
  S  S20  1  0.832094  0.167906  0.873678  1
  S  S21  1  0.832094  0.664190  0.873678  1
  S  S22  1  0.335810  0.167906  0.873678  1
  S  S23  1  0.167906  0.832094  0.126322  1
  S  S24  1  0.167906  0.335810  0.126322  1
  S  S25  1  0.664190  0.832094  0.126322  1
