# generated using pymatgen
data_V2Ni2PdSe8
_symmetry_space_group_name_H-M   'P 1'
_cell_length_a   3.43050000
_cell_length_b   10.52405100
_cell_length_c   14.95628900
_cell_angle_alpha   90.00000000
_cell_angle_beta   90.00000000
_cell_angle_gamma   90.00000000
_symmetry_Int_Tables_number   1
_chemical_formula_structural   V2Ni2PdSe8
_chemical_formula_sum   'V4 Ni4 Pd2 Se16'
_cell_volume   539.96326672
_cell_formula_units_Z   2
loop_
 _symmetry_equiv_pos_site_id
 _symmetry_equiv_pos_as_xyz
  1  'x, y, z'
loop_
 _atom_site_type_symbol
 _atom_site_label
 _atom_site_symmetry_multiplicity
 _atom_site_fract_x
 _atom_site_fract_y
 _atom_site_fract_z
 _atom_site_occupancy
  V  V0  1  0.500000  0.795049  0.872409  1
  V  V1  1  0.500000  0.204951  0.127591  1
  V  V2  1  0.500000  0.295049  0.627591  1
  V  V3  1  0.500000  0.704951  0.372409  1
  Ni  Ni4  1  0.000000  0.628768  0.773711  1
  Ni  Ni5  1  0.000000  0.371232  0.226289  1
  Ni  Ni6  1  0.000000  0.128768  0.726289  1
  Ni  Ni7  1  0.000000  0.871232  0.273711  1
  Pd  Pd8  1  0.000000  0.000000  0.000000  1
  Pd  Pd9  1  0.000000  0.500000  0.500000  1
  Se  Se10  1  0.000000  0.766389  0.993295  1
  Se  Se11  1  0.000000  0.233611  0.006705  1
  Se  Se12  1  0.000000  0.266389  0.506705  1
  Se  Se13  1  0.000000  0.733611  0.493295  1
  Se  Se14  1  0.000000  0.963077  0.837599  1
  Se  Se15  1  0.000000  0.036923  0.162401  1
  Se  Se16  1  0.000000  0.463077  0.662401  1
  Se  Se17  1  0.000000  0.536923  0.337599  1
  Se  Se18  1  0.500000  0.753258  0.711651  1
  Se  Se19  1  0.500000  0.246742  0.288349  1
  Se  Se20  1  0.500000  0.253258  0.788349  1
  Se  Se21  1  0.500000  0.746742  0.211651  1
  Se  Se22  1  0.500000  0.561155  0.869629  1
  Se  Se23  1  0.500000  0.438845  0.130371  1
  Se  Se24  1  0.500000  0.061155  0.630371  1
  Se  Se25  1  0.500000  0.938845  0.369629  1
