# generated using pymatgen
data_Nd5SmEr4(In2Pd)4
_symmetry_space_group_name_H-M   'P 1'
_cell_length_a   3.70401700
_cell_length_b   8.30429084
_cell_length_c   18.40332521
_cell_angle_alpha   89.96771670
_cell_angle_beta   90.00000000
_cell_angle_gamma   90.00000000
_symmetry_Int_Tables_number   1
_chemical_formula_structural   Nd5SmEr4(In2Pd)4
_chemical_formula_sum   'Nd5 Sm1 Er4 In8 Pd4'
_cell_volume   566.07210503
_cell_formula_units_Z   1
loop_
 _symmetry_equiv_pos_site_id
 _symmetry_equiv_pos_as_xyz
  1  'x, y, z'
loop_
 _atom_site_type_symbol
 _atom_site_label
 _atom_site_symmetry_multiplicity
 _atom_site_fract_x
 _atom_site_fract_y
 _atom_site_fract_z
 _atom_site_occupancy
  Nd  Nd0  1  0.000000  0.502288  0.498476  1
  Nd  Nd1  1  0.000000  0.997296  0.999817  1
  Nd  Nd2  1  0.000000  0.735596  0.285821  1
  Nd  Nd3  1  0.000000  0.266415  0.713236  1
  Nd  Nd4  1  0.000000  0.765421  0.787026  1
  Sm  Sm5  1  0.000000  0.234240  0.214222  1
  Er  Er6  1  0.000000  0.615993  0.087410  1
  Er  Er7  1  0.000000  0.379284  0.916020  1
  Er  Er8  1  0.000000  0.882299  0.584912  1
  Er  Er9  1  0.000000  0.121012  0.413131  1
  In  In10  1  0.500000  0.690949  0.939493  1
  In  In11  1  0.500000  0.300415  0.064763  1
  In  In12  1  0.500000  0.810364  0.437416  1
  In  In13  1  0.500000  0.195097  0.560801  1
  In  In14  1  0.500000  0.593186  0.652619  1
  In  In15  1  0.500000  0.407642  0.346059  1
  In  In16  1  0.500000  0.912990  0.152660  1
  In  In17  1  0.500000  0.092022  0.847186  1
  Pd  Pd18  1  0.500000  0.516548  0.193853  1
  Pd  Pd19  1  0.500000  0.475006  0.807821  1
  Pd  Pd20  1  0.500000  0.976332  0.692743  1
  Pd  Pd21  1  0.500000  0.029607  0.304516  1
