# generated using pymatgen
data_Lu4TiAl(B2Ir5)2
_symmetry_space_group_name_H-M   'P 1'
_cell_length_a   9.51715100
_cell_length_b   9.51715100
_cell_length_c   3.15759300
_cell_angle_alpha   90.00000000
_cell_angle_beta   90.00000000
_cell_angle_gamma   90.00000000
_symmetry_Int_Tables_number   1
_chemical_formula_structural   Lu4TiAl(B2Ir5)2
_chemical_formula_sum   'Lu4 Ti1 Al1 B4 Ir10'
_cell_volume   286.00265875
_cell_formula_units_Z   1
loop_
 _symmetry_equiv_pos_site_id
 _symmetry_equiv_pos_as_xyz
  1  'x, y, z'
loop_
 _atom_site_type_symbol
 _atom_site_label
 _atom_site_symmetry_multiplicity
 _atom_site_fract_x
 _atom_site_fract_y
 _atom_site_fract_z
 _atom_site_occupancy
  Lu  Lu0  1  0.674844  0.177970  0.000000  1
  Lu  Lu1  1  0.325156  0.822030  0.000000  1
  Lu  Lu2  1  0.177970  0.325156  0.000000  1
  Lu  Lu3  1  0.822030  0.674844  0.000000  1
  Ti  Ti4  1  0.000000  0.000000  0.000000  1
  Al  Al5  1  0.500000  0.500000  0.000000  1
  B  B6  1  0.123836  0.618797  0.000000  1
  B  B7  1  0.876164  0.381203  0.000000  1
  B  B8  1  0.618797  0.876164  0.000000  1
  B  B9  1  0.381203  0.123836  0.000000  1
  Ir  Ir10  1  0.218355  0.069661  0.500000  1
  Ir  Ir11  1  0.781645  0.930339  0.500000  1
  Ir  Ir12  1  0.069661  0.781645  0.500000  1
  Ir  Ir13  1  0.717776  0.430450  0.500000  1
  Ir  Ir14  1  0.930339  0.218355  0.500000  1
  Ir  Ir15  1  0.282224  0.569550  0.500000  1
  Ir  Ir16  1  0.569550  0.717776  0.500000  1
  Ir  Ir17  1  0.430450  0.282224  0.500000  1
  Ir  Ir18  1  0.500000  0.000000  0.500000  1
  Ir  Ir19  1  0.000000  0.500000  0.500000  1
