# generated using pymatgen
data_Hf4Zr12PdPt7N4
_symmetry_space_group_name_H-M   'P 1'
_cell_length_a   8.85390242
_cell_length_b   8.85390188
_cell_length_c   8.85390228
_cell_angle_alpha   59.97638432
_cell_angle_beta   59.97638347
_cell_angle_gamma   59.97638292
_symmetry_Int_Tables_number   1
_chemical_formula_structural   Hf4Zr12PdPt7N4
_chemical_formula_sum   'Hf4 Zr12 Pd1 Pt7 N4'
_cell_volume   490.51978102
_cell_formula_units_Z   1
loop_
 _symmetry_equiv_pos_site_id
 _symmetry_equiv_pos_as_xyz
  1  'x, y, z'
loop_
 _atom_site_type_symbol
 _atom_site_label
 _atom_site_symmetry_multiplicity
 _atom_site_fract_x
 _atom_site_fract_y
 _atom_site_fract_z
 _atom_site_occupancy
  Hf  Hf0  1  0.126088  0.624721  0.624721  1
  Hf  Hf1  1  0.624721  0.126088  0.624721  1
  Hf  Hf2  1  0.624721  0.624721  0.126088  1
  Hf  Hf3  1  0.625066  0.625066  0.625066  1
  Zr  Zr4  1  0.817827  0.817827  0.182579  1
  Zr  Zr5  1  0.182467  0.182467  0.817573  1
  Zr  Zr6  1  0.817827  0.182579  0.817827  1
  Zr  Zr7  1  0.182467  0.817573  0.182467  1
  Zr  Zr8  1  0.182579  0.817827  0.817827  1
  Zr  Zr9  1  0.817573  0.182467  0.182467  1
  Zr  Zr10  1  0.432814  0.432814  0.067592  1
  Zr  Zr11  1  0.068232  0.068232  0.431776  1
  Zr  Zr12  1  0.432814  0.067592  0.432814  1
  Zr  Zr13  1  0.068232  0.431776  0.068232  1
  Zr  Zr14  1  0.067592  0.432814  0.432814  1
  Zr  Zr15  1  0.431776  0.068232  0.068232  1
  Pd  Pd16  1  0.839057  0.839057  0.839057  1
  Pt  Pt17  1  0.776796  0.407629  0.407629  1
  Pt  Pt18  1  0.407629  0.776796  0.407629  1
  Pt  Pt19  1  0.407629  0.407629  0.776796  1
  Pt  Pt20  1  0.408094  0.408094  0.408094  1
  Pt  Pt21  1  0.474160  0.842221  0.842221  1
  Pt  Pt22  1  0.842221  0.474160  0.842221  1
  Pt  Pt23  1  0.842221  0.842221  0.474160  1
  N  N24  1  0.624913  0.124892  0.124892  1
  N  N25  1  0.124892  0.624913  0.124892  1
  N  N26  1  0.124892  0.124892  0.624913  1
  N  N27  1  0.124701  0.124701  0.124701  1
