# generated using pymatgen
data_LiCr4GaO8
_symmetry_space_group_name_H-M   'P 1'
_cell_length_a   5.94992434
_cell_length_b   5.94992373
_cell_length_c   5.94993000
_cell_angle_alpha   59.99996514
_cell_angle_beta   59.99996856
_cell_angle_gamma   59.99990501
_symmetry_Int_Tables_number   1
_chemical_formula_structural   LiCr4GaO8
_chemical_formula_sum   'Li1 Cr4 Ga1 O8'
_cell_volume   148.94268251
_cell_formula_units_Z   1
loop_
 _symmetry_equiv_pos_site_id
 _symmetry_equiv_pos_as_xyz
  1  'x, y, z'
loop_
 _atom_site_type_symbol
 _atom_site_label
 _atom_site_symmetry_multiplicity
 _atom_site_fract_x
 _atom_site_fract_y
 _atom_site_fract_z
 _atom_site_occupancy
  Li  Li0  1  0.750002  0.750000  0.749999  1
  Cr  Cr1  1  0.634003  0.122000  0.121999  1
  Cr  Cr2  1  0.122000  0.634007  0.121997  1
  Cr  Cr3  1  0.121998  0.121997  0.634013  1
  Cr  Cr4  1  0.121998  0.121997  0.121993  1
  Ga  Ga5  1  0.500000  0.500000  0.500000  1
  O  O6  1  0.338935  0.887023  0.887021  1
  O  O7  1  0.887026  0.338936  0.887019  1
  O  O8  1  0.887023  0.887021  0.338936  1
  O  O9  1  0.887023  0.887021  0.887020  1
  O  O10  1  0.893547  0.368817  0.368818  1
  O  O11  1  0.368815  0.893546  0.368819  1
  O  O12  1  0.368816  0.368819  0.893545  1
  O  O13  1  0.368816  0.368819  0.368820  1
