# generated using pymatgen
data_DyY3Er2Ta2O14
_symmetry_space_group_name_H-M   'P 1'
_cell_length_a   6.48506401
_cell_length_b   6.49022927
_cell_length_c   7.46101301
_cell_angle_alpha   89.96408469
_cell_angle_beta   89.95406629
_cell_angle_gamma   108.56261001
_symmetry_Int_Tables_number   1
_chemical_formula_structural   DyY3Er2Ta2O14
_chemical_formula_sum   'Dy1 Y3 Er2 Ta2 O14'
_cell_volume   297.69345036
_cell_formula_units_Z   1
loop_
 _symmetry_equiv_pos_site_id
 _symmetry_equiv_pos_as_xyz
  1  'x, y, z'
loop_
 _atom_site_type_symbol
 _atom_site_label
 _atom_site_symmetry_multiplicity
 _atom_site_fract_x
 _atom_site_fract_y
 _atom_site_fract_z
 _atom_site_occupancy
  Dy  Dy0  1  0.535211  0.000104  0.758463  1
  Y  Y1  1  0.465418  0.463833  0.000859  1
  Y  Y2  1  0.535714  0.535269  0.498651  1
  Y  Y3  1  0.000159  0.465888  0.741641  1
  Er  Er4  1  0.000592  0.535519  0.241266  1
  Er  Er5  1  0.464773  0.999445  0.258873  1
  Ta  Ta6  1  0.002307  0.002641  0.498636  1
  Ta  Ta7  1  0.997401  0.997815  0.001384  1
  O  O8  1  0.932043  0.066624  0.750024  1
  O  O9  1  0.639159  0.360069  0.749597  1
  O  O10  1  0.308744  0.050888  0.542978  1
  O  O11  1  0.946237  0.690497  0.958810  1
  O  O12  1  0.630269  0.369326  0.250040  1
  O  O13  1  0.917805  0.671542  0.521986  1
  O  O14  1  0.328433  0.081187  0.976659  1
  O  O15  1  0.081336  0.328020  0.026847  1
  O  O16  1  0.671983  0.919362  0.473356  1
  O  O17  1  0.370999  0.629431  0.750085  1
  O  O18  1  0.692822  0.952845  0.047376  1
  O  O19  1  0.049089  0.307489  0.452629  1
  O  O20  1  0.358360  0.642188  0.249867  1
  O  O21  1  0.071146  0.930017  0.249974  1
