# generated using pymatgen
data_Er2Tm14Cd4Co3Ni
_symmetry_space_group_name_H-M   'P 1'
_cell_length_a   9.39721183
_cell_length_b   9.37542219
_cell_length_c   9.37645300
_cell_angle_alpha   59.99636641
_cell_angle_beta   60.07305116
_cell_angle_gamma   60.09171297
_symmetry_Int_Tables_number   1
_chemical_formula_structural   Er2Tm14Cd4Co3Ni
_chemical_formula_sum   'Er2 Tm14 Cd4 Co3 Ni1'
_cell_volume   584.84545375
_cell_formula_units_Z   1
loop_
 _symmetry_equiv_pos_site_id
 _symmetry_equiv_pos_as_xyz
  1  'x, y, z'
loop_
 _atom_site_type_symbol
 _atom_site_label
 _atom_site_symmetry_multiplicity
 _atom_site_fract_x
 _atom_site_fract_y
 _atom_site_fract_z
 _atom_site_occupancy
  Er  Er0  1  0.344153  0.347929  0.348180  1
  Er  Er1  1  0.344153  0.347929  0.959738  1
  Tm  Tm2  1  0.343992  0.960140  0.347934  1
  Tm  Tm3  1  0.961256  0.346165  0.346290  1
  Tm  Tm4  1  0.816103  0.187966  0.187736  1
  Tm  Tm5  1  0.187449  0.812595  0.812401  1
  Tm  Tm6  1  0.187449  0.812595  0.187555  1
  Tm  Tm7  1  0.816103  0.187966  0.808195  1
  Tm  Tm8  1  0.187355  0.187540  0.812553  1
  Tm  Tm9  1  0.816011  0.808181  0.187903  1
  Tm  Tm10  1  0.937148  0.562361  0.562317  1
  Tm  Tm11  1  0.561428  0.937140  0.937337  1
  Tm  Tm12  1  0.561428  0.937140  0.564096  1
  Tm  Tm13  1  0.937148  0.562361  0.938173  1
  Tm  Tm14  1  0.561466  0.564189  0.937173  1
  Tm  Tm15  1  0.937157  0.937920  0.562461  1
  Cd  Cd16  1  0.580980  0.580909  0.580757  1
  Cd  Cd17  1  0.580980  0.580909  0.257355  1
  Cd  Cd18  1  0.580857  0.257538  0.580803  1
  Cd  Cd19  1  0.256418  0.581278  0.581153  1
  Co  Co20  1  0.141194  0.141256  0.141496  1
  Co  Co21  1  0.141194  0.141256  0.576054  1
  Co  Co22  1  0.141208  0.575981  0.141406  1
  Ni  Ni23  1  0.577371  0.140757  0.140937  1
