# generated using pymatgen
data_Nd7As12Pd17
_symmetry_space_group_name_H-M   'P 1'
_cell_length_a   12.78449231
_cell_length_b   12.78449225
_cell_length_c   13.99568518
_cell_angle_alpha   68.56425541
_cell_angle_beta   68.56425514
_cell_angle_gamma   18.83947259
_symmetry_Int_Tables_number   1
_chemical_formula_structural   Nd7As12Pd17
_chemical_formula_sum   'Nd7 As12 Pd17'
_cell_volume   686.11876265
_cell_formula_units_Z   1
loop_
 _symmetry_equiv_pos_site_id
 _symmetry_equiv_pos_as_xyz
  1  'x, y, z'
loop_
 _atom_site_type_symbol
 _atom_site_label
 _atom_site_symmetry_multiplicity
 _atom_site_fract_x
 _atom_site_fract_y
 _atom_site_fract_z
 _atom_site_occupancy
  Nd  Nd0  1  0.500000  0.500000  0.500000  1
  Nd  Nd1  1  0.367070  0.367070  0.000770  1
  Nd  Nd2  1  0.632930  0.632930  0.999230  1
  Nd  Nd3  1  0.233504  0.233504  0.312605  1
  Nd  Nd4  1  0.766496  0.766496  0.687395  1
  Nd  Nd5  1  0.419053  0.419053  0.259799  1
  Nd  Nd6  1  0.580947  0.580947  0.740201  1
  As  As7  1  0.062000  0.062000  0.924775  1
  As  As8  1  0.938000  0.938000  0.075225  1
  As  As9  1  0.884861  0.884861  0.829293  1
  As  As10  1  0.115139  0.115139  0.170707  1
  As  As11  1  0.189422  0.189422  0.619884  1
  As  As12  1  0.810578  0.810578  0.380116  1
  As  As13  1  0.365714  0.365714  0.579373  1
  As  As14  1  0.634286  0.634286  0.420627  1
  As  As15  1  0.011863  0.011863  0.668315  1
  As  As16  1  0.988137  0.988137  0.331685  1
  As  As17  1  0.233434  0.233434  0.882923  1
  As  As18  1  0.766566  0.766566  0.117077  1
  Pd  Pd19  1  0.838492  0.838492  0.193456  1
  Pd  Pd20  1  0.161508  0.161508  0.806544  1
  Pd  Pd21  1  0.024970  0.024970  0.127441  1
  Pd  Pd22  1  0.975030  0.975030  0.872559  1
  Pd  Pd23  1  0.887676  0.887676  0.459350  1
  Pd  Pd24  1  0.112324  0.112324  0.540650  1
  Pd  Pd25  1  0.500000  0.500000  0.000000  1
  Pd  Pd26  1  0.547999  0.547999  0.253336  1
  Pd  Pd27  1  0.452001  0.452001  0.746664  1
  Pd  Pd28  1  0.295226  0.295226  0.490432  1
  Pd  Pd29  1  0.704774  0.704774  0.509568  1
  Pd  Pd30  1  0.663767  0.663767  0.225302  1
  Pd  Pd31  1  0.336233  0.336233  0.774698  1
  Pd  Pd32  1  0.909612  0.909612  0.638333  1
  Pd  Pd33  1  0.090388  0.090388  0.361667  1
  Pd  Pd34  1  0.219996  0.219996  0.071599  1
  Pd  Pd35  1  0.780004  0.780004  0.928401  1
