# generated using pymatgen
data_Na4Ac7Tb9Pb16
_symmetry_space_group_name_H-M   'P 1'
_cell_length_a   8.46169873
_cell_length_b   8.54214831
_cell_length_c   16.20195900
_cell_angle_alpha   90.15008541
_cell_angle_beta   90.28642935
_cell_angle_gamma   89.70716405
_symmetry_Int_Tables_number   1
_chemical_formula_structural   Na4Ac7Tb9Pb16
_chemical_formula_sum   'Na4 Ac7 Tb9 Pb16'
_cell_volume   1171.06131515
_cell_formula_units_Z   1
loop_
 _symmetry_equiv_pos_site_id
 _symmetry_equiv_pos_as_xyz
  1  'x, y, z'
loop_
 _atom_site_type_symbol
 _atom_site_label
 _atom_site_symmetry_multiplicity
 _atom_site_fract_x
 _atom_site_fract_y
 _atom_site_fract_z
 _atom_site_occupancy
  Na  Na0  1  0.183682  0.498619  0.752242  1
  Na  Na1  1  0.682297  0.000232  0.751950  1
  Na  Na2  1  0.815251  0.499837  0.248576  1
  Na  Na3  1  0.317154  0.000156  0.248897  1
  Ac  Ac4  1  0.002043  0.178217  0.598991  1
  Ac  Ac5  1  0.499628  0.679379  0.402803  1
  Ac  Ac6  1  0.002484  0.819426  0.093280  1
  Ac  Ac7  1  0.498659  0.675757  0.094425  1
  Ac  Ac8  1  0.998424  0.823033  0.402973  1
  Ac  Ac9  1  0.499509  0.321653  0.597954  1
  Ac  Ac10  1  0.001716  0.180958  0.903168  1
  Tb  Tb11  1  0.352088  0.829717  0.876322  1
  Tb  Tb12  1  0.847719  0.670073  0.627065  1
  Tb  Tb13  1  0.651893  0.170106  0.375690  1
  Tb  Tb14  1  0.145730  0.330921  0.122837  1
  Tb  Tb15  1  0.647117  0.172407  0.122484  1
  Tb  Tb16  1  0.150098  0.329092  0.375638  1
  Tb  Tb17  1  0.349304  0.831060  0.626575  1
  Tb  Tb18  1  0.851285  0.669532  0.876075  1
  Tb  Tb19  1  0.500276  0.318546  0.902948  1
  Pb  Pb20  1  0.321826  0.050751  0.035474  1
  Pb  Pb21  1  0.821435  0.456681  0.462584  1
  Pb  Pb22  1  0.680484  0.955910  0.539418  1
  Pb  Pb23  1  0.195811  0.537352  0.958434  1
  Pb  Pb24  1  0.679671  0.961575  0.959581  1
  Pb  Pb25  1  0.177665  0.545351  0.539417  1
  Pb  Pb26  1  0.320388  0.043789  0.462361  1
  Pb  Pb27  1  0.809562  0.451815  0.033618  1
  Pb  Pb28  1  0.545128  0.622507  0.753263  1
  Pb  Pb29  1  0.049408  0.876111  0.751951  1
  Pb  Pb30  1  0.449837  0.372298  0.250075  1
  Pb  Pb31  1  0.951942  0.126044  0.248128  1
  Pb  Pb32  1  0.316728  0.129681  0.754634  1
  Pb  Pb33  1  0.802238  0.370680  0.752374  1
  Pb  Pb34  1  0.691712  0.875933  0.248116  1
  Pb  Pb35  1  0.189812  0.624800  0.249670  1
