# generated using pymatgen
data_Cs2KAsSe3
_symmetry_space_group_name_H-M   'P 1'
_cell_length_a   10.41681900
_cell_length_b   10.41681900
_cell_length_c   10.41681900
_cell_angle_alpha   90.00000000
_cell_angle_beta   90.00000000
_cell_angle_gamma   90.00000000
_symmetry_Int_Tables_number   1
_chemical_formula_structural   Cs2KAsSe3
_chemical_formula_sum   'Cs8 K4 As4 Se12'
_cell_volume   1130.33025970
_cell_formula_units_Z   4
loop_
 _symmetry_equiv_pos_site_id
 _symmetry_equiv_pos_as_xyz
  1  'x, y, z'
loop_
 _atom_site_type_symbol
 _atom_site_label
 _atom_site_symmetry_multiplicity
 _atom_site_fract_x
 _atom_site_fract_y
 _atom_site_fract_z
 _atom_site_occupancy
  Cs  Cs0  1  0.293380  0.293380  0.293380  1
  Cs  Cs1  1  0.206620  0.706620  0.793380  1
  Cs  Cs2  1  0.793380  0.206620  0.706620  1
  Cs  Cs3  1  0.706620  0.793380  0.206620  1
  Cs  Cs4  1  0.575287  0.575287  0.575287  1
  Cs  Cs5  1  0.924713  0.424713  0.075287  1
  Cs  Cs6  1  0.075287  0.924713  0.424713  1
  Cs  Cs7  1  0.424713  0.075287  0.924713  1
  K  K8  1  0.818944  0.818944  0.818944  1
  K  K9  1  0.681056  0.181056  0.318944  1
  K  K10  1  0.318944  0.681056  0.181056  1
  K  K11  1  0.181056  0.318944  0.681056  1
  As  As12  1  0.024971  0.024971  0.024971  1
  As  As13  1  0.475029  0.975029  0.524971  1
  As  As14  1  0.524971  0.475029  0.975029  1
  As  As15  1  0.975029  0.524971  0.475029  1
  Se  Se16  1  0.201140  0.582910  0.470324  1
  Se  Se17  1  0.470324  0.201140  0.582910  1
  Se  Se18  1  0.582910  0.470324  0.201140  1
  Se  Se19  1  0.917090  0.529676  0.701140  1
  Se  Se20  1  0.970324  0.298860  0.417090  1
  Se  Se21  1  0.417090  0.970324  0.298860  1
  Se  Se22  1  0.029676  0.798860  0.082910  1
  Se  Se23  1  0.529676  0.701140  0.917090  1
  Se  Se24  1  0.082910  0.029676  0.798860  1
  Se  Se25  1  0.701140  0.917090  0.529676  1
  Se  Se26  1  0.798860  0.082910  0.029676  1
  Se  Se27  1  0.298860  0.417090  0.970324  1
