# generated using pymatgen
data_Ho4Sn6Ir2Rh5
_symmetry_space_group_name_H-M   'P 1'
_cell_length_a   7.59622855
_cell_length_b   7.59785542
_cell_length_c   7.59622800
_cell_angle_alpha   109.46582221
_cell_angle_beta   109.47334671
_cell_angle_gamma   109.46582358
_symmetry_Int_Tables_number   1
_chemical_formula_structural   Ho4Sn6Ir2Rh5
_chemical_formula_sum   'Ho4 Sn6 Ir2 Rh5'
_cell_volume   337.52939790
_cell_formula_units_Z   1
loop_
 _symmetry_equiv_pos_site_id
 _symmetry_equiv_pos_as_xyz
  1  'x, y, z'
loop_
 _atom_site_type_symbol
 _atom_site_label
 _atom_site_symmetry_multiplicity
 _atom_site_fract_x
 _atom_site_fract_y
 _atom_site_fract_z
 _atom_site_occupancy
  Ho  Ho0  1  0.999312  0.998624  0.499312  1
  Ho  Ho1  1  0.001886  0.501269  0.001886  1
  Ho  Ho2  1  0.499312  0.998624  0.999312  1
  Ho  Ho3  1  0.499383  0.501269  0.499383  1
  Sn  Sn4  1  0.685182  0.684650  0.999468  1
  Sn  Sn5  1  0.314426  0.001016  0.314426  1
  Sn  Sn6  1  0.999612  0.314420  0.314809  1
  Sn  Sn7  1  0.314809  0.314420  0.999612  1
  Sn  Sn8  1  0.686590  0.001016  0.686590  1
  Sn  Sn9  1  0.999468  0.684650  0.685182  1
  Ir  Ir10  1  0.250056  0.750001  0.499945  1
  Ir  Ir11  1  0.499945  0.750001  0.250056  1
  Rh  Rh12  1  0.749923  0.249794  0.499871  1
  Rh  Rh13  1  0.750130  0.500261  0.250130  1
  Rh  Rh14  1  0.499871  0.249794  0.749923  1
  Rh  Rh15  1  0.250130  0.500261  0.750130  1
  Rh  Rh16  1  0.999965  0.999929  0.999965  1
