# generated using pymatgen
data_SmUPa2(Al3Ir)6
_symmetry_space_group_name_H-M   'P 1'
_cell_length_a   7.61317520
_cell_length_b   7.62272559
_cell_length_c   9.40683300
_cell_angle_alpha   90.00000000
_cell_angle_beta   90.00000000
_cell_angle_gamma   119.72803399
_symmetry_Int_Tables_number   1
_chemical_formula_structural   SmUPa2(Al3Ir)6
_chemical_formula_sum   'Sm1 U1 Pa2 Al18 Ir6'
_cell_volume   474.06059013
_cell_formula_units_Z   1
loop_
 _symmetry_equiv_pos_site_id
 _symmetry_equiv_pos_as_xyz
  1  'x, y, z'
loop_
 _atom_site_type_symbol
 _atom_site_label
 _atom_site_symmetry_multiplicity
 _atom_site_fract_x
 _atom_site_fract_y
 _atom_site_fract_z
 _atom_site_occupancy
  Sm  Sm0  1  0.668491  0.993690  0.750000  1
  U  U1  1  0.329294  0.005322  0.250000  1
  Pa  Pa2  1  0.998713  0.672489  0.750000  1
  Pa  Pa3  1  0.001028  0.328990  0.250000  1
  Al  Al4  1  0.130339  0.127435  0.750000  1
  Al  Al5  1  0.871078  0.870654  0.250000  1
  Al  Al6  1  0.001028  0.333066  0.576112  1
  Al  Al7  1  0.999934  0.667853  0.423966  1
  Al  Al8  1  0.999934  0.667853  0.076034  1
  Al  Al9  1  0.336859  0.003593  0.927271  1
  Al  Al10  1  0.001028  0.333066  0.923888  1
  Al  Al11  1  0.662897  0.995694  0.075288  1
  Al  Al12  1  0.662897  0.995694  0.424712  1
  Al  Al13  1  0.336859  0.003593  0.572729  1
  Al  Al14  1  0.334368  0.334471  0.053501  1
  Al  Al15  1  0.665158  0.665754  0.947933  1
  Al  Al16  1  0.665158  0.665754  0.552067  1
  Al  Al17  1  0.334368  0.334471  0.446499  1
  Al  Al18  1  0.340220  0.546496  0.750000  1
  Al  Al19  1  0.659027  0.453139  0.250000  1
  Al  Al20  1  0.550345  0.342370  0.750000  1
  Al  Al21  1  0.452223  0.659330  0.250000  1
  Ir  Ir22  1  0.674946  0.329394  0.497949  1
  Ir  Ir23  1  0.324725  0.669419  0.500202  1
  Ir  Ir24  1  0.324725  0.669419  0.999798  1
  Ir  Ir25  1  0.674946  0.329394  0.002051  1
  Ir  Ir26  1  0.999705  0.000796  0.499560  1
  Ir  Ir27  1  0.999705  0.000796  0.000440  1
