# generated using pymatgen
data_Ho4InCo
_symmetry_space_group_name_H-M   'P 1'
_cell_length_a   9.51205315
_cell_length_b   9.51205290
_cell_length_c   9.51205300
_cell_angle_alpha   60.00000313
_cell_angle_beta   60.00000399
_cell_angle_gamma   60.00000381
_symmetry_Int_Tables_number   1
_chemical_formula_structural   Ho4InCo
_chemical_formula_sum   'Ho16 In4 Co4'
_cell_volume   608.56619555
_cell_formula_units_Z   4
loop_
 _symmetry_equiv_pos_site_id
 _symmetry_equiv_pos_as_xyz
  1  'x, y, z'
loop_
 _atom_site_type_symbol
 _atom_site_label
 _atom_site_symmetry_multiplicity
 _atom_site_fract_x
 _atom_site_fract_y
 _atom_site_fract_z
 _atom_site_occupancy
  Ho  Ho0  1  0.939248  0.939248  0.560752  1
  Ho  Ho1  1  0.811233  0.188767  0.188767  1
  Ho  Ho2  1  0.939248  0.560752  0.560752  1
  Ho  Ho3  1  0.939248  0.560752  0.939248  1
  Ho  Ho4  1  0.811233  0.811233  0.188767  1
  Ho  Ho5  1  0.346421  0.346421  0.346421  1
  Ho  Ho6  1  0.560752  0.939248  0.939248  1
  Ho  Ho7  1  0.560752  0.939248  0.560752  1
  Ho  Ho8  1  0.188767  0.811233  0.811233  1
  Ho  Ho9  1  0.188767  0.188767  0.811233  1
  Ho  Ho10  1  0.346421  0.346421  0.960739  1
  Ho  Ho11  1  0.346421  0.960739  0.346421  1
  Ho  Ho12  1  0.811233  0.188767  0.811233  1
  Ho  Ho13  1  0.560752  0.560752  0.939248  1
  Ho  Ho14  1  0.188767  0.811233  0.188767  1
  Ho  Ho15  1  0.960739  0.346421  0.346421  1
  In  In16  1  0.582637  0.582637  0.252091  1
  In  In17  1  0.252091  0.582637  0.582637  1
  In  In18  1  0.582637  0.582637  0.582637  1
  In  In19  1  0.582637  0.252091  0.582637  1
  Co  Co20  1  0.578339  0.140554  0.140554  1
  Co  Co21  1  0.140554  0.140554  0.140554  1
  Co  Co22  1  0.140554  0.578339  0.140554  1
  Co  Co23  1  0.140554  0.140554  0.578339  1
