# generated using pymatgen
data_Ta3Mn2SiC
_symmetry_space_group_name_H-M   'P 1'
_cell_length_a   8.06342981
_cell_length_b   8.06342895
_cell_length_c   8.06342800
_cell_angle_alpha   59.99999569
_cell_angle_beta   59.99999921
_cell_angle_gamma   60.00000069
_symmetry_Int_Tables_number   1
_chemical_formula_structural   Ta3Mn2SiC
_chemical_formula_sum   'Ta12 Mn8 Si4 C4'
_cell_volume   370.71851209
_cell_formula_units_Z   4
loop_
 _symmetry_equiv_pos_site_id
 _symmetry_equiv_pos_as_xyz
  1  'x, y, z'
loop_
 _atom_site_type_symbol
 _atom_site_label
 _atom_site_symmetry_multiplicity
 _atom_site_fract_x
 _atom_site_fract_y
 _atom_site_fract_z
 _atom_site_occupancy
  Ta  Ta0  1  0.552724  0.552724  0.947276  1
  Ta  Ta1  1  0.947276  0.947276  0.552724  1
  Ta  Ta2  1  0.697276  0.697276  0.302724  1
  Ta  Ta3  1  0.302724  0.697276  0.697276  1
  Ta  Ta4  1  0.697276  0.302724  0.302724  1
  Ta  Ta5  1  0.302724  0.302724  0.697276  1
  Ta  Ta6  1  0.552724  0.947276  0.552724  1
  Ta  Ta7  1  0.302724  0.697276  0.302724  1
  Ta  Ta8  1  0.947276  0.552724  0.947276  1
  Ta  Ta9  1  0.947276  0.552724  0.552724  1
  Ta  Ta10  1  0.697276  0.302724  0.697276  1
  Ta  Ta11  1  0.552724  0.947276  0.947276  1
  Mn  Mn12  1  0.235909  0.921364  0.921364  1
  Mn  Mn13  1  0.921364  0.235909  0.921364  1
  Mn  Mn14  1  0.328636  0.328636  0.328636  1
  Mn  Mn15  1  0.328636  0.014091  0.328636  1
  Mn  Mn16  1  0.328636  0.328636  0.014091  1
  Mn  Mn17  1  0.014091  0.328636  0.328636  1
  Mn  Mn18  1  0.921364  0.921364  0.921364  1
  Mn  Mn19  1  0.921364  0.921364  0.235909  1
  Si  Si20  1  0.125000  0.125000  0.625000  1
  Si  Si21  1  0.125000  0.625000  0.125000  1
  Si  Si22  1  0.625000  0.125000  0.125000  1
  Si  Si23  1  0.125000  0.125000  0.125000  1
  C  C24  1  0.625000  0.625000  0.125000  1
  C  C25  1  0.125000  0.625000  0.625000  1
  C  C26  1  0.625000  0.125000  0.625000  1
  C  C27  1  0.625000  0.625000  0.625000  1
