# generated using pymatgen
data_SrCdSiIrPt
_symmetry_space_group_name_H-M   'P 1'
_cell_length_a   4.17812600
_cell_length_b   4.17812600
_cell_length_c   11.69502800
_cell_angle_alpha   90.00000000
_cell_angle_beta   90.00000000
_cell_angle_gamma   90.00000000
_symmetry_Int_Tables_number   1
_chemical_formula_structural   SrCdSiIrPt
_chemical_formula_sum   'Sr2 Cd2 Si2 Ir2 Pt2'
_cell_volume   204.15702651
_cell_formula_units_Z   2
loop_
 _symmetry_equiv_pos_site_id
 _symmetry_equiv_pos_as_xyz
  1  'x, y, z'
loop_
 _atom_site_type_symbol
 _atom_site_label
 _atom_site_symmetry_multiplicity
 _atom_site_fract_x
 _atom_site_fract_y
 _atom_site_fract_z
 _atom_site_occupancy
  Sr  Sr0  1  0.000000  0.500000  0.234933  1
  Sr  Sr1  1  0.500000  0.000000  0.765067  1
  Cd  Cd2  1  0.000000  0.000000  0.500000  1
  Cd  Cd3  1  0.500000  0.500000  0.500000  1
  Si  Si4  1  0.000000  0.500000  0.892480  1
  Si  Si5  1  0.500000  0.000000  0.107520  1
  Ir  Ir6  1  0.000000  0.000000  0.000000  1
  Ir  Ir7  1  0.500000  0.500000  0.000000  1
  Pt  Pt8  1  0.000000  0.500000  0.682089  1
  Pt  Pt9  1  0.500000  0.000000  0.317911  1
