# generated using pymatgen
data_Dy6Er4(BiPb)3
_symmetry_space_group_name_H-M   'P 1'
_cell_length_a   9.09759900
_cell_length_b   9.09759802
_cell_length_c   6.45738700
_cell_angle_alpha   90.00000000
_cell_angle_beta   90.00000000
_cell_angle_gamma   119.99999994
_symmetry_Int_Tables_number   1
_chemical_formula_structural   Dy6Er4(BiPb)3
_chemical_formula_sum   'Dy6 Er4 Bi3 Pb3'
_cell_volume   462.85075936
_cell_formula_units_Z   1
loop_
 _symmetry_equiv_pos_site_id
 _symmetry_equiv_pos_as_xyz
  1  'x, y, z'
loop_
 _atom_site_type_symbol
 _atom_site_label
 _atom_site_symmetry_multiplicity
 _atom_site_fract_x
 _atom_site_fract_y
 _atom_site_fract_z
 _atom_site_occupancy
  Dy  Dy0  1  0.761061  0.761061  0.750000  1
  Dy  Dy1  1  0.238939  0.000000  0.750000  1
  Dy  Dy2  1  0.000000  0.238939  0.750000  1
  Dy  Dy3  1  0.239206  0.239206  0.250000  1
  Dy  Dy4  1  0.760794  0.000000  0.250000  1
  Dy  Dy5  1  0.000000  0.760794  0.250000  1
  Er  Er6  1  0.666667  0.333333  0.002771  1
  Er  Er7  1  0.333333  0.666667  0.002771  1
  Er  Er8  1  0.333333  0.666667  0.497229  1
  Er  Er9  1  0.666667  0.333333  0.497229  1
  Bi  Bi10  1  0.393985  0.393985  0.750000  1
  Bi  Bi11  1  0.606015  0.000000  0.750000  1
  Bi  Bi12  1  0.000000  0.606015  0.750000  1
  Pb  Pb13  1  0.605959  0.605959  0.250000  1
  Pb  Pb14  1  0.394041  0.000000  0.250000  1
  Pb  Pb15  1  0.000000  0.394041  0.250000  1
