# generated using pymatgen
data_Tb5ErRh18
_symmetry_space_group_name_H-M   'P 1'
_cell_length_a   5.27315000
_cell_length_b   5.27314962
_cell_length_c   17.62049300
_cell_angle_alpha   90.00000000
_cell_angle_beta   90.00000000
_cell_angle_gamma   119.99998982
_symmetry_Int_Tables_number   1
_chemical_formula_structural   Tb5ErRh18
_chemical_formula_sum   'Tb5 Er1 Rh18'
_cell_volume   424.31555353
_cell_formula_units_Z   1
loop_
 _symmetry_equiv_pos_site_id
 _symmetry_equiv_pos_as_xyz
  1  'x, y, z'
loop_
 _atom_site_type_symbol
 _atom_site_label
 _atom_site_symmetry_multiplicity
 _atom_site_fract_x
 _atom_site_fract_y
 _atom_site_fract_z
 _atom_site_occupancy
  Tb  Tb0  1  0.333333  0.666666  0.041441  1
  Tb  Tb1  1  0.333333  0.666666  0.249905  1
  Tb  Tb2  1  0.333333  0.666666  0.458087  1
  Tb  Tb3  1  0.666667  0.333334  0.541937  1
  Tb  Tb4  1  0.666667  0.333334  0.750298  1
  Er  Er5  1  0.666667  0.333334  0.957707  1
  Rh  Rh6  1  0.000000  0.000000  0.999887  1
  Rh  Rh7  1  0.334537  0.167269  0.125624  1
  Rh  Rh8  1  0.832730  0.167269  0.125624  1
  Rh  Rh9  1  0.832731  0.665463  0.125624  1
  Rh  Rh10  1  0.000000  0.000000  0.249739  1
  Rh  Rh11  1  0.666667  0.333334  0.249892  1
  Rh  Rh12  1  0.334314  0.167157  0.373966  1
  Rh  Rh13  1  0.832842  0.167157  0.373966  1
  Rh  Rh14  1  0.832843  0.665686  0.373966  1
  Rh  Rh15  1  0.000000  0.000000  0.500040  1
  Rh  Rh16  1  0.167194  0.334386  0.626057  1
  Rh  Rh17  1  0.167195  0.832806  0.626057  1
  Rh  Rh18  1  0.665614  0.832806  0.626057  1
  Rh  Rh19  1  0.000000  0.000000  0.750228  1
  Rh  Rh20  1  0.333333  0.666666  0.750211  1
  Rh  Rh21  1  0.167233  0.334464  0.874562  1
  Rh  Rh22  1  0.167234  0.832767  0.874562  1
  Rh  Rh23  1  0.665536  0.832767  0.874562  1
