# generated using pymatgen
data_TcPbBr6
_symmetry_space_group_name_H-M   'P 1'
_cell_length_a   7.27419831
_cell_length_b   7.29047100
_cell_length_c   7.85214775
_cell_angle_alpha   89.61974140
_cell_angle_beta   116.77015318
_cell_angle_gamma   119.95710161
_symmetry_Int_Tables_number   1
_chemical_formula_structural   TcPbBr6
_chemical_formula_sum   'Tc1 Pb1 Br6'
_cell_volume   309.02515771
_cell_formula_units_Z   1
loop_
 _symmetry_equiv_pos_site_id
 _symmetry_equiv_pos_as_xyz
  1  'x, y, z'
loop_
 _atom_site_type_symbol
 _atom_site_label
 _atom_site_symmetry_multiplicity
 _atom_site_fract_x
 _atom_site_fract_y
 _atom_site_fract_z
 _atom_site_occupancy
  Tc  Tc0  1  0.577278  0.288643  0.866464  1
  Pb  Pb1  1  0.241891  0.622487  0.862638  1
  Br  Br2  1  0.449627  0.075505  0.095026  1
  Br  Br3  1  0.144771  0.202993  0.650148  1
  Br  Br4  1  0.708479  0.505612  0.643644  1
  Br  Br5  1  0.453437  0.944806  0.648105  1
  Br  Br6  1  0.714725  0.638833  0.089396  1
  Br  Br7  1  0.008793  0.370620  0.093080  1
