# generated using pymatgen
data_Np5Co19GeP11
_symmetry_space_group_name_H-M   'P 1'
_cell_length_a   12.01191500
_cell_length_b   12.03577473
_cell_length_c   3.68463500
_cell_angle_alpha   90.00000000
_cell_angle_beta   90.00000000
_cell_angle_gamma   119.93444708
_symmetry_Int_Tables_number   1
_chemical_formula_structural   Np5Co19GeP11
_chemical_formula_sum   'Np5 Co19 Ge1 P11'
_cell_volume   461.63412172
_cell_formula_units_Z   1
loop_
 _symmetry_equiv_pos_site_id
 _symmetry_equiv_pos_as_xyz
  1  'x, y, z'
loop_
 _atom_site_type_symbol
 _atom_site_label
 _atom_site_symmetry_multiplicity
 _atom_site_fract_x
 _atom_site_fract_y
 _atom_site_fract_z
 _atom_site_occupancy
  Np  Np0  1  0.334706  0.668071  0.000000  1
  Np  Np1  1  0.666637  0.331929  0.000000  1
  Np  Np2  1  0.175366  0.000000  0.500000  1
  Np  Np3  1  0.000279  0.184844  0.500000  1
  Np  Np4  1  0.815435  0.815156  0.500000  1
  Co  Co5  1  0.200897  0.381290  0.000000  1
  Co  Co6  1  0.623881  0.821405  0.000000  1
  Co  Co7  1  0.170905  0.790525  0.000000  1
  Co  Co8  1  0.819608  0.618710  0.000000  1
  Co  Co9  1  0.802476  0.178595  0.000000  1
  Co  Co10  1  0.380380  0.209475  0.000000  1
  Co  Co11  1  0.558274  0.000000  0.000000  1
  Co  Co12  1  0.995879  0.546015  0.000000  1
  Co  Co13  1  0.449865  0.453985  0.000000  1
  Co  Co14  1  0.123441  0.480112  0.500000  1
  Co  Co15  1  0.520520  0.645147  0.500000  1
  Co  Co16  1  0.355081  0.867999  0.500000  1
  Co  Co17  1  0.643329  0.519888  0.500000  1
  Co  Co18  1  0.875374  0.354853  0.500000  1
  Co  Co19  1  0.487082  0.132001  0.500000  1
  Co  Co20  1  0.714897  0.000000  0.500000  1
  Co  Co21  1  0.996581  0.708292  0.500000  1
  Co  Co22  1  0.288289  0.291708  0.500000  1
  Co  Co23  1  0.001768  0.000000  0.000000  1
  Ge  Ge24  1  0.363256  0.000000  0.000000  1
  P  P25  1  0.000577  0.365611  0.000000  1
  P  P26  1  0.634966  0.634389  0.000000  1
  P  P27  1  0.316339  0.483790  0.500000  1
  P  P28  1  0.520846  0.836195  0.500000  1
  P  P29  1  0.164154  0.682154  0.500000  1
  P  P30  1  0.832549  0.516210  0.500000  1
  P  P31  1  0.684651  0.163805  0.500000  1
  P  P32  1  0.482001  0.317846  0.500000  1
  P  P33  1  0.816255  0.000000  0.000000  1
  P  P34  1  0.997455  0.811452  0.000000  1
  P  P35  1  0.186003  0.188548  0.000000  1
