# generated using pymatgen
data_Ho2Tm4TlNi2
_symmetry_space_group_name_H-M   'P 1'
_cell_length_a   8.42519239
_cell_length_b   8.42519363
_cell_length_c   8.42519100
_cell_angle_alpha   106.24216135
_cell_angle_beta   109.65009902
_cell_angle_gamma   112.58335714
_symmetry_Int_Tables_number   1
_chemical_formula_structural   Ho2Tm4TlNi2
_chemical_formula_sum   'Ho4 Tm8 Tl2 Ni4'
_cell_volume   458.97254006
_cell_formula_units_Z   2
loop_
 _symmetry_equiv_pos_site_id
 _symmetry_equiv_pos_as_xyz
  1  'x, y, z'
loop_
 _atom_site_type_symbol
 _atom_site_label
 _atom_site_symmetry_multiplicity
 _atom_site_fract_x
 _atom_site_fract_y
 _atom_site_fract_z
 _atom_site_occupancy
  Ho  Ho0  1  0.706183  0.266975  0.973157  1
  Ho  Ho1  1  0.293817  0.733025  0.026843  1
  Ho  Ho2  1  0.706183  0.733025  0.439209  1
  Ho  Ho3  1  0.293817  0.266975  0.560791  1
  Tm  Tm4  1  0.809232  0.136606  0.327374  1
  Tm  Tm5  1  0.809232  0.481860  0.672626  1
  Tm  Tm6  1  0.190768  0.863394  0.672626  1
  Tm  Tm7  1  0.190768  0.518140  0.327374  1
  Tm  Tm8  1  0.612891  0.794576  0.818315  1
  Tm  Tm9  1  0.976262  0.794576  0.181685  1
  Tm  Tm10  1  0.023738  0.205424  0.818315  1
  Tm  Tm11  1  0.387109  0.205424  0.181685  1
  Tl  Tl12  1  0.500000  0.500000  0.000000  1
  Tl  Tl13  1  0.500000  0.000000  0.500000  1
  Ni  Ni14  1  0.854042  0.500000  0.354042  1
  Ni  Ni15  1  0.145958  0.500000  0.645958  1
  Ni  Ni16  1  0.000000  0.124576  0.124576  1
  Ni  Ni17  1  0.000000  0.875424  0.875424  1
