# generated using pymatgen
data_Yb2HoSc(Ga2Ag)4
_symmetry_space_group_name_H-M   'P 1'
_cell_length_a   4.30241200
_cell_length_b   6.93956204
_cell_length_c   10.32400972
_cell_angle_alpha   90.39606864
_cell_angle_beta   90.00000000
_cell_angle_gamma   90.00000000
_symmetry_Int_Tables_number   1
_chemical_formula_structural   Yb2HoSc(Ga2Ag)4
_chemical_formula_sum   'Yb2 Ho1 Sc1 Ga8 Ag4'
_cell_volume   308.23509626
_cell_formula_units_Z   1
loop_
 _symmetry_equiv_pos_site_id
 _symmetry_equiv_pos_as_xyz
  1  'x, y, z'
loop_
 _atom_site_type_symbol
 _atom_site_label
 _atom_site_symmetry_multiplicity
 _atom_site_fract_x
 _atom_site_fract_y
 _atom_site_fract_z
 _atom_site_occupancy
  Yb  Yb0  1  0.750000  0.225229  0.172772  1
  Yb  Yb1  1  0.750000  0.725307  0.325887  1
  Ho  Ho2  1  0.250000  0.278602  0.674643  1
  Sc  Sc3  1  0.250000  0.779462  0.830180  1
  Ga  Ga4  1  0.250000  0.707783  0.539913  1
  Ga  Ga5  1  0.750000  0.299745  0.466983  1
  Ga  Ga6  1  0.750000  0.794243  0.029285  1
  Ga  Ga7  1  0.250000  0.196206  0.964459  1
  Ga  Ga8  1  0.250000  0.926932  0.148286  1
  Ga  Ga9  1  0.750000  0.064412  0.842303  1
  Ga  Ga10  1  0.750000  0.579374  0.659585  1
  Ga  Ga11  1  0.250000  0.429639  0.351700  1
  Ag  Ag12  1  0.250000  0.540102  0.097068  1
  Ag  Ag13  1  0.750000  0.454443  0.899966  1
  Ag  Ag14  1  0.750000  0.957382  0.597267  1
  Ag  Ag15  1  0.250000  0.041139  0.399705  1
