# generated using pymatgen
data_Tm5Ga2Bi
_symmetry_space_group_name_H-M   'P 1'
_cell_length_a   8.61894789
_cell_length_b   8.61894799
_cell_length_c   8.61894810
_cell_angle_alpha   124.86221889
_cell_angle_beta   124.86222037
_cell_angle_gamma   81.76636697
_symmetry_Int_Tables_number   1
_chemical_formula_structural   Tm5Ga2Bi
_chemical_formula_sum   'Tm10 Ga4 Bi2'
_cell_volume   414.74887440
_cell_formula_units_Z   2
loop_
 _symmetry_equiv_pos_site_id
 _symmetry_equiv_pos_as_xyz
  1  'x, y, z'
loop_
 _atom_site_type_symbol
 _atom_site_label
 _atom_site_symmetry_multiplicity
 _atom_site_fract_x
 _atom_site_fract_y
 _atom_site_fract_z
 _atom_site_occupancy
  Tm  Tm0  1  0.000000  0.000000  0.000000  1
  Tm  Tm1  1  0.500000  0.500000  0.000000  1
  Tm  Tm2  1  0.793635  0.293635  0.805859  1
  Tm  Tm3  1  0.206365  0.706365  0.194141  1
  Tm  Tm4  1  0.487776  0.987776  0.194141  1
  Tm  Tm5  1  0.293635  0.487776  0.500000  1
  Tm  Tm6  1  0.012224  0.206365  0.500000  1
  Tm  Tm7  1  0.512224  0.012224  0.805859  1
  Tm  Tm8  1  0.706365  0.512224  0.500000  1
  Tm  Tm9  1  0.987776  0.793635  0.500000  1
  Ga  Ga10  1  0.146160  0.646160  0.792320  1
  Ga  Ga11  1  0.853840  0.353840  0.207680  1
  Ga  Ga12  1  0.646160  0.853840  0.500000  1
  Ga  Ga13  1  0.353840  0.146160  0.500000  1
  Bi  Bi14  1  0.250000  0.250000  0.000000  1
  Bi  Bi15  1  0.750000  0.750000  0.000000  1
