# generated using pymatgen
data_Dy3Lu(MnAl3)2
_symmetry_space_group_name_H-M   'P 1'
_cell_length_a   9.39446321
_cell_length_b   9.39446295
_cell_length_c   9.39446323
_cell_angle_alpha   34.35375608
_cell_angle_beta   34.35376047
_cell_angle_gamma   34.35375652
_symmetry_Int_Tables_number   1
_chemical_formula_structural   Dy3Lu(MnAl3)2
_chemical_formula_sum   'Dy3 Lu1 Mn2 Al6'
_cell_volume   235.48067031
_cell_formula_units_Z   1
loop_
 _symmetry_equiv_pos_site_id
 _symmetry_equiv_pos_as_xyz
  1  'x, y, z'
loop_
 _atom_site_type_symbol
 _atom_site_label
 _atom_site_symmetry_multiplicity
 _atom_site_fract_x
 _atom_site_fract_y
 _atom_site_fract_z
 _atom_site_occupancy
  Dy  Dy0  1  0.313335  0.313335  0.313335  1
  Dy  Dy1  1  0.686835  0.686835  0.686835  1
  Dy  Dy2  1  0.186522  0.186522  0.186522  1
  Lu  Lu3  1  0.813598  0.813598  0.813598  1
  Mn  Mn4  1  0.499901  0.499901  0.499901  1
  Mn  Mn5  1  0.999998  0.999998  0.999998  1
  Al  Al6  1  0.250010  0.250010  0.750389  1
  Al  Al7  1  0.750006  0.750006  0.249391  1
  Al  Al8  1  0.250010  0.750389  0.250010  1
  Al  Al9  1  0.750006  0.249391  0.750006  1
  Al  Al10  1  0.750389  0.250010  0.250010  1
  Al  Al11  1  0.249391  0.750006  0.750006  1
