# generated using pymatgen
data_Sm2Mn2Br
_symmetry_space_group_name_H-M   'P 1'
_cell_length_a   3.86090900
_cell_length_b   3.86090851
_cell_length_c   17.52307000
_cell_angle_alpha   90.00000000
_cell_angle_beta   90.00000000
_cell_angle_gamma   119.99999562
_symmetry_Int_Tables_number   1
_chemical_formula_structural   Sm2Mn2Br
_chemical_formula_sum   'Sm4 Mn4 Br2'
_cell_volume   226.21423116
_cell_formula_units_Z   2
loop_
 _symmetry_equiv_pos_site_id
 _symmetry_equiv_pos_as_xyz
  1  'x, y, z'
loop_
 _atom_site_type_symbol
 _atom_site_label
 _atom_site_symmetry_multiplicity
 _atom_site_fract_x
 _atom_site_fract_y
 _atom_site_fract_z
 _atom_site_occupancy
  Sm  Sm0  1  0.000000  0.000000  0.115289  1
  Sm  Sm1  1  0.000000  0.000000  0.384711  1
  Sm  Sm2  1  0.000000  0.000000  0.884711  1
  Sm  Sm3  1  0.000000  0.000000  0.615289  1
  Mn  Mn4  1  0.333333  0.666667  0.010452  1
  Mn  Mn5  1  0.666667  0.333333  0.989548  1
  Mn  Mn6  1  0.333333  0.666667  0.489548  1
  Mn  Mn7  1  0.666667  0.333333  0.510452  1
  Br  Br8  1  0.333333  0.666667  0.750000  1
  Br  Br9  1  0.666667  0.333333  0.250000  1
