# generated using pymatgen
data_Tb4Al22Si2Pt9
_symmetry_space_group_name_H-M   'P 1'
_cell_length_a   7.52401664
_cell_length_b   7.52277196
_cell_length_c   13.02765800
_cell_angle_alpha   84.42732689
_cell_angle_beta   101.06253231
_cell_angle_gamma   119.96408221
_symmetry_Int_Tables_number   1
_chemical_formula_structural   Tb4Al22Si2Pt9
_chemical_formula_sum   'Tb4 Al22 Si2 Pt9'
_cell_volume   626.95357660
_cell_formula_units_Z   1
loop_
 _symmetry_equiv_pos_site_id
 _symmetry_equiv_pos_as_xyz
  1  'x, y, z'
loop_
 _atom_site_type_symbol
 _atom_site_label
 _atom_site_symmetry_multiplicity
 _atom_site_fract_x
 _atom_site_fract_y
 _atom_site_fract_z
 _atom_site_occupancy
  Tb  Tb0  1  0.736757  0.998409  0.191427  1
  Tb  Tb1  1  0.263243  0.001591  0.808573  1
  Tb  Tb2  1  0.061728  0.672906  0.191459  1
  Tb  Tb3  1  0.938272  0.327094  0.808541  1
  Al  Al4  1  0.981151  0.665264  0.943180  1
  Al  Al5  1  0.018849  0.334736  0.056820  1
  Al  Al6  1  0.400250  0.669494  0.815904  1
  Al  Al7  1  0.599750  0.330506  0.184096  1
  Al  Al8  1  0.882939  0.662901  0.670350  1
  Al  Al9  1  0.117061  0.337099  0.329650  1
  Al  Al10  1  0.608114  0.460536  0.815575  1
  Al  Al11  1  0.391886  0.539464  0.184425  1
  Al  Al12  1  0.230649  0.341013  0.669290  1
  Al  Al13  1  0.769351  0.658987  0.330710  1
  Al  Al14  1  0.853041  0.333039  0.559952  1
  Al  Al15  1  0.186052  0.000076  0.558235  1
  Al  Al16  1  0.813948  0.999924  0.441765  1
  Al  Al17  1  0.353444  0.999724  0.056994  1
  Al  Al18  1  0.646556  0.000276  0.943006  1
  Al  Al19  1  0.553909  0.993963  0.670507  1
  Al  Al20  1  0.446091  0.006037  0.329493  1
  Al  Al21  1  0.520633  0.666803  0.562552  1
  Al  Al22  1  0.479367  0.333197  0.437448  1
  Al  Al23  1  0.681603  0.665227  0.049462  1
  Al  Al24  1  0.318397  0.334773  0.950538  1
  Al  Al25  1  0.146959  0.666961  0.440048  1
  Si  Si26  1  0.805211  0.866063  0.816583  1
  Si  Si27  1  0.194789  0.133937  0.183417  1
  Pt  Pt28  1  0.328862  0.671383  0.000045  1
  Pt  Pt29  1  0.545364  0.325266  0.637473  1
  Pt  Pt30  1  0.454636  0.674734  0.362527  1
  Pt  Pt31  1  0.886757  0.005133  0.642391  1
  Pt  Pt32  1  0.113243  0.994867  0.357609  1
  Pt  Pt33  1  0.671138  0.328617  0.999955  1
  Pt  Pt34  1  0.204956  0.667797  0.638524  1
  Pt  Pt35  1  0.795044  0.332203  0.361476  1
  Pt  Pt36  1  0.000000  0.000000  0.000000  1
