# generated using pymatgen
data_La12InCo4Ag
_symmetry_space_group_name_H-M   'P 1'
_cell_length_a   8.76337501
_cell_length_b   8.76337391
_cell_length_c   8.76337400
_cell_angle_alpha   112.57276137
_cell_angle_beta   109.44828227
_cell_angle_gamma   106.45056345
_symmetry_Int_Tables_number   1
_chemical_formula_structural   La12InCo4Ag
_chemical_formula_sum   'La12 In1 Co4 Ag1'
_cell_volume   516.59476560
_cell_formula_units_Z   1
loop_
 _symmetry_equiv_pos_site_id
 _symmetry_equiv_pos_as_xyz
  1  'x, y, z'
loop_
 _atom_site_type_symbol
 _atom_site_label
 _atom_site_symmetry_multiplicity
 _atom_site_fract_x
 _atom_site_fract_y
 _atom_site_fract_z
 _atom_site_occupancy
  La  La0  1  0.418365  0.216107  0.202238  1
  La  La1  1  0.581635  0.783893  0.797762  1
  La  La2  1  0.013871  0.216107  0.797743  1
  La  La3  1  0.986129  0.783893  0.202257  1
  La  La4  1  0.177246  0.301631  0.478871  1
  La  La5  1  0.822754  0.698369  0.521129  1
  La  La6  1  0.177241  0.698369  0.875616  1
  La  La7  1  0.822759  0.301631  0.124384  1
  La  La8  1  0.327547  0.641488  0.313942  1
  La  La9  1  0.672453  0.358512  0.686058  1
  La  La10  1  0.327529  0.013593  0.686063  1
  La  La11  1  0.672471  0.986407  0.313937  1
  In  In12  1  0.500000  0.500000  0.000000  1
  Co  Co13  1  0.339985  0.000000  0.339985  1
  Co  Co14  1  0.660015  0.000000  0.660015  1
  Co  Co15  1  0.131064  0.631062  0.499998  1
  Co  Co16  1  0.868936  0.368938  0.500002  1
  Ag  Ag17  1  0.000000  0.000000  0.000000  1
