# generated using pymatgen
data_Dy6Mn3Co14NiP12
_symmetry_space_group_name_H-M   'P 1'
_cell_length_a   3.70849500
_cell_length_b   10.54567900
_cell_length_c   12.17108000
_cell_angle_alpha   90.00000000
_cell_angle_beta   90.00000000
_cell_angle_gamma   90.00000000
_symmetry_Int_Tables_number   1
_chemical_formula_structural   Dy6Mn3Co14NiP12
_chemical_formula_sum   'Dy6 Mn3 Co14 Ni1 P12'
_cell_volume   475.99387304
_cell_formula_units_Z   1
loop_
 _symmetry_equiv_pos_site_id
 _symmetry_equiv_pos_as_xyz
  1  'x, y, z'
loop_
 _atom_site_type_symbol
 _atom_site_label
 _atom_site_symmetry_multiplicity
 _atom_site_fract_x
 _atom_site_fract_y
 _atom_site_fract_z
 _atom_site_occupancy
  Dy  Dy0  1  0.000000  0.500000  0.520727  1
  Dy  Dy1  1  0.500000  0.000000  0.477635  1
  Dy  Dy2  1  0.500000  0.818266  0.205073  1
  Dy  Dy3  1  0.500000  0.181734  0.205073  1
  Dy  Dy4  1  0.000000  0.681902  0.796598  1
  Dy  Dy5  1  0.000000  0.318098  0.796598  1
  Mn  Mn6  1  0.500000  0.500000  0.155272  1
  Mn  Mn7  1  0.000000  0.000000  0.841338  1
  Mn  Mn8  1  0.000000  0.500000  0.989239  1
  Co  Co9  1  0.000000  0.000000  0.297723  1
  Co  Co10  1  0.500000  0.000000  0.013841  1
  Co  Co11  1  0.500000  0.330478  0.994199  1
  Co  Co12  1  0.500000  0.669522  0.994199  1
  Co  Co13  1  0.000000  0.165009  0.004910  1
  Co  Co14  1  0.000000  0.834991  0.004910  1
  Co  Co15  1  0.500000  0.296501  0.430619  1
  Co  Co16  1  0.500000  0.703499  0.430619  1
  Co  Co17  1  0.000000  0.203143  0.569583  1
  Co  Co18  1  0.000000  0.796857  0.569583  1
  Co  Co19  1  0.500000  0.879102  0.709552  1
  Co  Co20  1  0.500000  0.120898  0.709552  1
  Co  Co21  1  0.000000  0.620882  0.291141  1
  Co  Co22  1  0.000000  0.379118  0.291141  1
  Ni  Ni23  1  0.500000  0.500000  0.700713  1
  P  P24  1  0.500000  0.500000  0.884260  1
  P  P25  1  0.000000  0.000000  0.117489  1
  P  P26  1  0.500000  0.500000  0.345161  1
  P  P27  1  0.000000  0.000000  0.655337  1
  P  P28  1  0.500000  0.309322  0.615631  1
  P  P29  1  0.500000  0.690678  0.615631  1
  P  P30  1  0.000000  0.188976  0.383960  1
  P  P31  1  0.000000  0.811024  0.383960  1
  P  P32  1  0.500000  0.847554  0.893073  1
  P  P33  1  0.500000  0.152446  0.893073  1
  P  P34  1  0.000000  0.654970  0.106293  1
  P  P35  1  0.000000  0.345030  0.106293  1
