# generated using pymatgen
data_Er2Sc3(Hg2Pt)2
_symmetry_space_group_name_H-M   'P 1'
_cell_length_a   3.51527900
_cell_length_b   7.80579700
_cell_length_c   17.56289600
_cell_angle_alpha   90.00000000
_cell_angle_beta   90.00000000
_cell_angle_gamma   90.00000000
_symmetry_Int_Tables_number   1
_chemical_formula_structural   Er2Sc3(Hg2Pt)2
_chemical_formula_sum   'Er4 Sc6 Hg8 Pt4'
_cell_volume   481.91803797
_cell_formula_units_Z   2
loop_
 _symmetry_equiv_pos_site_id
 _symmetry_equiv_pos_as_xyz
  1  'x, y, z'
loop_
 _atom_site_type_symbol
 _atom_site_label
 _atom_site_symmetry_multiplicity
 _atom_site_fract_x
 _atom_site_fract_y
 _atom_site_fract_z
 _atom_site_occupancy
  Er  Er0  1  0.000000  0.240603  0.215995  1
  Er  Er1  1  0.000000  0.759397  0.784005  1
  Er  Er2  1  0.000000  0.259397  0.715995  1
  Er  Er3  1  0.000000  0.740603  0.284005  1
  Sc  Sc4  1  0.000000  0.115501  0.417302  1
  Sc  Sc5  1  0.000000  0.884499  0.582698  1
  Sc  Sc6  1  0.000000  0.384499  0.917302  1
  Sc  Sc7  1  0.000000  0.615501  0.082698  1
  Sc  Sc8  1  0.000000  0.000000  0.000000  1
  Sc  Sc9  1  0.000000  0.500000  0.500000  1
  Hg  Hg10  1  0.500000  0.420921  0.358071  1
  Hg  Hg11  1  0.500000  0.579079  0.641929  1
  Hg  Hg12  1  0.500000  0.079079  0.858071  1
  Hg  Hg13  1  0.500000  0.920921  0.141929  1
  Hg  Hg14  1  0.500000  0.288839  0.057655  1
  Hg  Hg15  1  0.500000  0.711161  0.942345  1
  Hg  Hg16  1  0.500000  0.211161  0.557655  1
  Hg  Hg17  1  0.500000  0.788839  0.442345  1
  Pt  Pt18  1  0.500000  0.031375  0.308405  1
  Pt  Pt19  1  0.500000  0.968625  0.691595  1
  Pt  Pt20  1  0.500000  0.468625  0.808405  1
  Pt  Pt21  1  0.500000  0.531375  0.191595  1
