# generated using pymatgen
data_MnNb12Al8Cu2RuC4
_symmetry_space_group_name_H-M   'P 1'
_cell_length_a   8.28119826
_cell_length_b   8.28119791
_cell_length_c   8.24655600
_cell_angle_alpha   60.13827495
_cell_angle_beta   60.13827635
_cell_angle_gamma   60.37836522
_symmetry_Int_Tables_number   1
_chemical_formula_structural   MnNb12Al8Cu2RuC4
_chemical_formula_sum   'Mn1 Nb12 Al8 Cu2 Ru1 C4'
_cell_volume   401.86500673
_cell_formula_units_Z   1
loop_
 _symmetry_equiv_pos_site_id
 _symmetry_equiv_pos_as_xyz
  1  'x, y, z'
loop_
 _atom_site_type_symbol
 _atom_site_label
 _atom_site_symmetry_multiplicity
 _atom_site_fract_x
 _atom_site_fract_y
 _atom_site_fract_z
 _atom_site_occupancy
  Mn  Mn0  1  0.625000  0.125000  0.125000  1
  Nb  Nb1  1  0.568825  0.939030  0.551541  1
  Nb  Nb2  1  0.314875  0.681023  0.692007  1
  Nb  Nb3  1  0.681175  0.310970  0.309398  1
  Nb  Nb4  1  0.314875  0.681023  0.312095  1
  Nb  Nb5  1  0.688361  0.695875  0.307882  1
  Nb  Nb6  1  0.316329  0.315133  0.684269  1
  Nb  Nb7  1  0.561639  0.554125  0.942118  1
  Nb  Nb8  1  0.935125  0.568977  0.557993  1
  Nb  Nb9  1  0.568825  0.939030  0.940602  1
  Nb  Nb10  1  0.933671  0.934867  0.565731  1
  Nb  Nb11  1  0.681175  0.310970  0.698459  1
  Nb  Nb12  1  0.935125  0.568977  0.937905  1
  Al  Al13  1  0.916948  0.921110  0.917479  1
  Al  Al14  1  0.994603  0.332954  0.336221  1
  Al  Al15  1  0.333928  0.998289  0.333891  1
  Al  Al16  1  0.333052  0.328890  0.005536  1
  Al  Al17  1  0.916072  0.251711  0.916109  1
  Al  Al18  1  0.916948  0.921110  0.244464  1
  Al  Al19  1  0.255397  0.917046  0.913779  1
  Al  Al20  1  0.333052  0.328890  0.332521  1
  Cu  Cu21  1  0.125000  0.125000  0.125000  1
  Cu  Cu22  1  0.125000  0.125000  0.625000  1
  Ru  Ru23  1  0.125000  0.625000  0.125000  1
  C  C24  1  0.625000  0.625000  0.625000  1
  C  C25  1  0.125000  0.625000  0.625000  1
  C  C26  1  0.625000  0.125000  0.625000  1
  C  C27  1  0.625000  0.625000  0.125000  1
