# generated using pymatgen
data_YHo3TmIn4IrPt
_symmetry_space_group_name_H-M   'P 1'
_cell_length_a   3.62039700
_cell_length_b   8.11043708
_cell_length_c   18.19124400
_cell_angle_alpha   89.97053359
_cell_angle_beta   90.00000000
_cell_angle_gamma   90.00000000
_symmetry_Int_Tables_number   1
_chemical_formula_structural   YHo3TmIn4IrPt
_chemical_formula_sum   'Y2 Ho6 Tm2 In8 Ir2 Pt2'
_cell_volume   534.14946446
_cell_formula_units_Z   2
loop_
 _symmetry_equiv_pos_site_id
 _symmetry_equiv_pos_as_xyz
  1  'x, y, z'
loop_
 _atom_site_type_symbol
 _atom_site_label
 _atom_site_symmetry_multiplicity
 _atom_site_fract_x
 _atom_site_fract_y
 _atom_site_fract_z
 _atom_site_occupancy
  Y  Y0  1  0.000000  0.000000  0.000000  1
  Y  Y1  1  0.000000  0.500000  0.500000  1
  Ho  Ho2  1  0.000000  0.383355  0.913812  1
  Ho  Ho3  1  0.000000  0.616645  0.086188  1
  Ho  Ho4  1  0.000000  0.235783  0.222121  1
  Ho  Ho5  1  0.000000  0.764217  0.777879  1
  Ho  Ho6  1  0.000000  0.248910  0.720174  1
  Ho  Ho7  1  0.000000  0.751090  0.279826  1
  Tm  Tm8  1  0.000000  0.114866  0.411708  1
  Tm  Tm9  1  0.000000  0.885134  0.588292  1
  In  In10  1  0.500000  0.422577  0.351410  1
  In  In11  1  0.500000  0.577423  0.648590  1
  In  In12  1  0.500000  0.073771  0.850591  1
  In  In13  1  0.500000  0.926229  0.149409  1
  In  In14  1  0.500000  0.292736  0.066737  1
  In  In15  1  0.500000  0.707264  0.933263  1
  In  In16  1  0.500000  0.204551  0.566905  1
  In  In17  1  0.500000  0.795449  0.433095  1
  Ir  Ir18  1  0.500000  0.021611  0.304625  1
  Ir  Ir19  1  0.500000  0.978389  0.695375  1
  Pt  Pt20  1  0.500000  0.478261  0.803304  1
  Pt  Pt21  1  0.500000  0.521739  0.196696  1
