# generated using pymatgen
data_Er16Tl3InPdPtRh2
_symmetry_space_group_name_H-M   'P 1'
_cell_length_a   9.60874446
_cell_length_b   9.60017767
_cell_length_c   9.61444300
_cell_angle_alpha   59.98448494
_cell_angle_beta   60.01960221
_cell_angle_gamma   59.97047597
_symmetry_Int_Tables_number   1
_chemical_formula_structural   Er16Tl3InPdPtRh2
_chemical_formula_sum   'Er16 Tl3 In1 Pd1 Pt1 Rh2'
_cell_volume   627.00553578
_cell_formula_units_Z   1
loop_
 _symmetry_equiv_pos_site_id
 _symmetry_equiv_pos_as_xyz
  1  'x, y, z'
loop_
 _atom_site_type_symbol
 _atom_site_label
 _atom_site_symmetry_multiplicity
 _atom_site_fract_x
 _atom_site_fract_y
 _atom_site_fract_z
 _atom_site_occupancy
  Er  Er0  1  0.192855  0.184753  0.810290  1
  Er  Er1  1  0.438104  0.062250  0.061449  1
  Er  Er2  1  0.436983  0.064194  0.437891  1
  Er  Er3  1  0.061341  0.439914  0.062369  1
  Er  Er4  1  0.648996  0.049688  0.651751  1
  Er  Er5  1  0.187867  0.812414  0.811693  1
  Er  Er6  1  0.061122  0.063260  0.438260  1
  Er  Er7  1  0.809661  0.188584  0.190685  1
  Er  Er8  1  0.811260  0.811403  0.185948  1
  Er  Er9  1  0.647225  0.652145  0.052873  1
  Er  Er10  1  0.645133  0.651406  0.648919  1
  Er  Er11  1  0.062898  0.438914  0.436545  1
  Er  Er12  1  0.054589  0.651210  0.648700  1
  Er  Er13  1  0.811674  0.184361  0.811260  1
  Er  Er14  1  0.435953  0.439497  0.063442  1
  Er  Er15  1  0.191529  0.810450  0.186367  1
  Tl  Tl16  1  0.414062  0.756888  0.413886  1
  Tl  Tl17  1  0.414540  0.413560  0.756201  1
  Tl  Tl18  1  0.757148  0.413247  0.414356  1
  In  In19  1  0.416016  0.414748  0.415941  1
  Pd  Pd20  1  0.856505  0.430399  0.856601  1
  Pt  Pt21  1  0.857751  0.855384  0.429139  1
  Rh  Rh22  1  0.429203  0.855614  0.857739  1
  Rh  Rh23  1  0.857585  0.855716  0.857696  1
