# generated using pymatgen
data_Nd2ThIr8Pt
_symmetry_space_group_name_H-M   'P 1'
_cell_length_a   9.41733349
_cell_length_b   9.41733407
_cell_length_c   9.41733396
_cell_angle_alpha   33.24900941
_cell_angle_beta   33.24900414
_cell_angle_gamma   33.24900486
_symmetry_Int_Tables_number   1
_chemical_formula_structural   Nd2ThIr8Pt
_chemical_formula_sum   'Nd2 Th1 Ir8 Pt1'
_cell_volume   223.51689335
_cell_formula_units_Z   1
loop_
 _symmetry_equiv_pos_site_id
 _symmetry_equiv_pos_as_xyz
  1  'x, y, z'
loop_
 _atom_site_type_symbol
 _atom_site_label
 _atom_site_symmetry_multiplicity
 _atom_site_fract_x
 _atom_site_fract_y
 _atom_site_fract_z
 _atom_site_occupancy
  Nd  Nd0  1  0.860435  0.860435  0.860435  1
  Nd  Nd1  1  0.139565  0.139565  0.139565  1
  Th  Th2  1  0.000000  0.000000  0.000000  1
  Ir  Ir3  1  0.419388  0.918889  0.419388  1
  Ir  Ir4  1  0.419388  0.419388  0.918889  1
  Ir  Ir5  1  0.918889  0.419388  0.419388  1
  Ir  Ir6  1  0.580612  0.081111  0.580612  1
  Ir  Ir7  1  0.580612  0.580612  0.081111  1
  Ir  Ir8  1  0.081111  0.580612  0.580612  1
  Ir  Ir9  1  0.667275  0.667275  0.667275  1
  Ir  Ir10  1  0.332725  0.332725  0.332725  1
  Pt  Pt11  1  0.500000  0.500000  0.500000  1
