# generated using pymatgen
data_CsPaCl4O
_symmetry_space_group_name_H-M   'P 1'
_cell_length_a   7.31413886
_cell_length_b   7.31413792
_cell_length_c   8.52316113
_cell_angle_alpha   110.33337760
_cell_angle_beta   110.33337465
_cell_angle_gamma   33.52560459
_symmetry_Int_Tables_number   1
_chemical_formula_structural   CsPaCl4O
_chemical_formula_sum   'Cs1 Pa1 Cl4 O1'
_cell_volume   234.66316007
_cell_formula_units_Z   1
loop_
 _symmetry_equiv_pos_site_id
 _symmetry_equiv_pos_as_xyz
  1  'x, y, z'
loop_
 _atom_site_type_symbol
 _atom_site_label
 _atom_site_symmetry_multiplicity
 _atom_site_fract_x
 _atom_site_fract_y
 _atom_site_fract_z
 _atom_site_occupancy
  Cs  Cs0  1  0.996644  0.003357  0.000000  1
  Pa  Pa1  1  0.500949  0.499051  0.499999  1
  Cl  Cl2  1  0.360265  0.359619  0.196418  1
  Cl  Cl3  1  0.632607  0.633892  0.352060  1
  Cl  Cl4  1  0.366107  0.367393  0.647940  1
  Cl  Cl5  1  0.640381  0.639735  0.803580  1
  O  O6  1  0.002337  0.997663  0.499999  1
