# generated using pymatgen
data_Dy4Lu4B24Os3W
_symmetry_space_group_name_H-M   'P 1'
_cell_length_a   3.61233600
_cell_length_b   9.11555765
_cell_length_c   11.51823500
_cell_angle_alpha   89.89951551
_cell_angle_beta   90.00000000
_cell_angle_gamma   90.00000000
_symmetry_Int_Tables_number   1
_chemical_formula_structural   Dy4Lu4B24Os3W
_chemical_formula_sum   'Dy4 Lu4 B24 Os3 W1'
_cell_volume   379.27712355
_cell_formula_units_Z   1
loop_
 _symmetry_equiv_pos_site_id
 _symmetry_equiv_pos_as_xyz
  1  'x, y, z'
loop_
 _atom_site_type_symbol
 _atom_site_label
 _atom_site_symmetry_multiplicity
 _atom_site_fract_x
 _atom_site_fract_y
 _atom_site_fract_z
 _atom_site_occupancy
  Dy  Dy0  1  0.000000  0.320299  0.413470  1
  Dy  Dy1  1  0.000000  0.678731  0.585651  1
  Dy  Dy2  1  0.000000  0.819692  0.086485  1
  Dy  Dy3  1  0.000000  0.178000  0.914538  1
  Lu  Lu4  1  0.000000  0.945824  0.373565  1
  Lu  Lu5  1  0.000000  0.057466  0.628071  1
  Lu  Lu6  1  0.000000  0.442730  0.125892  1
  Lu  Lu7  1  0.000000  0.556607  0.871804  1
  B  B8  1  0.500000  0.550183  0.436165  1
  B  B9  1  0.500000  0.445723  0.568693  1
  B  B10  1  0.500000  0.054143  0.066974  1
  B  B11  1  0.500000  0.945964  0.932964  1
  B  B12  1  0.500000  0.753494  0.422024  1
  B  B13  1  0.500000  0.250610  0.581720  1
  B  B14  1  0.500000  0.249488  0.080314  1
  B  B15  1  0.500000  0.750253  0.918658  1
  B  B16  1  0.500000  0.795905  0.264158  1
  B  B17  1  0.500000  0.208367  0.734495  1
  B  B18  1  0.500000  0.290610  0.232452  1
  B  B19  1  0.500000  0.709106  0.765781  1
  B  B20  1  0.500000  0.630616  0.181413  1
  B  B21  1  0.500000  0.369327  0.815526  1
  B  B22  1  0.500000  0.130486  0.314510  1
  B  B23  1  0.500000  0.870625  0.685110  1
  B  B24  1  0.500000  0.983103  0.213208  1
  B  B25  1  0.500000  0.017930  0.787513  1
  B  B26  1  0.500000  0.476359  0.285540  1
  B  B27  1  0.500000  0.517263  0.713815  1
  B  B28  1  0.500000  0.602704  0.026651  1
  B  B29  1  0.500000  0.396253  0.970553  1
  B  B30  1  0.500000  0.104205  0.472089  1
  B  B31  1  0.500000  0.899465  0.529746  1
  Os  Os32  1  0.000000  0.361216  0.680931  1
  Os  Os33  1  0.000000  0.137617  0.178509  1
  Os  Os34  1  0.000000  0.861972  0.820134  1
  W  W35  1  0.000000  0.637667  0.320876  1
