# generated using pymatgen
data_Zr6Al6IrPt5
_symmetry_space_group_name_H-M   'P 1'
_cell_length_a   7.09570900
_cell_length_b   7.09570853
_cell_length_c   7.41012300
_cell_angle_alpha   90.00000000
_cell_angle_beta   90.00000000
_cell_angle_gamma   119.99999752
_symmetry_Int_Tables_number   1
_chemical_formula_structural   Zr6Al6IrPt5
_chemical_formula_sum   'Zr6 Al6 Ir1 Pt5'
_cell_volume   323.10793499
_cell_formula_units_Z   1
loop_
 _symmetry_equiv_pos_site_id
 _symmetry_equiv_pos_as_xyz
  1  'x, y, z'
loop_
 _atom_site_type_symbol
 _atom_site_label
 _atom_site_symmetry_multiplicity
 _atom_site_fract_x
 _atom_site_fract_y
 _atom_site_fract_z
 _atom_site_occupancy
  Zr  Zr0  1  0.022583  0.605687  0.745960  1
  Zr  Zr1  1  0.984405  0.585340  0.253431  1
  Zr  Zr2  1  0.600935  0.015595  0.253431  1
  Zr  Zr3  1  0.583104  0.977417  0.745960  1
  Zr  Zr4  1  0.414660  0.399065  0.253431  1
  Zr  Zr5  1  0.394313  0.416896  0.745960  1
  Al  Al6  1  0.001385  0.256748  0.498628  1
  Al  Al7  1  0.743410  0.740638  0.999874  1
  Al  Al8  1  0.997228  0.256590  0.999874  1
  Al  Al9  1  0.255364  0.998615  0.498628  1
  Al  Al10  1  0.259362  0.002772  0.999874  1
  Al  Al11  1  0.743252  0.744636  0.498628  1
  Ir  Ir12  1  0.333333  0.666667  0.479636  1
  Pt  Pt13  1  0.666667  0.333333  0.527941  1
  Pt  Pt14  1  0.666667  0.333333  0.972530  1
  Pt  Pt15  1  0.000000  0.000000  0.248349  1
  Pt  Pt16  1  0.000000  0.000000  0.750159  1
  Pt  Pt17  1  0.333333  0.666667  0.027706  1
