# generated using pymatgen
data_PrHo7Hf11Si16Au
_symmetry_space_group_name_H-M   'P 1'
_cell_length_a   7.32019192
_cell_length_b   7.32373654
_cell_length_c   13.31068100
_cell_angle_alpha   89.70854175
_cell_angle_beta   90.20072606
_cell_angle_gamma   89.80065157
_symmetry_Int_Tables_number   1
_chemical_formula_structural   PrHo7Hf11Si16Au
_chemical_formula_sum   'Pr1 Ho7 Hf11 Si16 Au1'
_cell_volume   713.58303424
_cell_formula_units_Z   1
loop_
 _symmetry_equiv_pos_site_id
 _symmetry_equiv_pos_as_xyz
  1  'x, y, z'
loop_
 _atom_site_type_symbol
 _atom_site_label
 _atom_site_symmetry_multiplicity
 _atom_site_fract_x
 _atom_site_fract_y
 _atom_site_fract_z
 _atom_site_occupancy
  Pr  Pr0  1  0.995937  0.344486  0.209833  1
  Ho  Ho1  1  0.005092  0.653755  0.716565  1
  Ho  Ho2  1  0.154995  0.496223  0.465248  1
  Ho  Ho3  1  0.496911  0.848276  0.031660  1
  Ho  Ho4  1  0.848654  0.497607  0.966641  1
  Ho  Ho5  1  0.496303  0.154181  0.536062  1
  Ho  Ho6  1  0.346773  0.997105  0.788546  1
  Ho  Ho7  1  0.653354  0.004659  0.284261  1
  Hf  Hf8  1  0.824502  0.825101  0.500829  1
  Hf  Hf9  1  0.323712  0.678702  0.249236  1
  Hf  Hf10  1  0.677588  0.322686  0.751176  1
  Hf  Hf11  1  0.147156  0.997348  0.374984  1
  Hf  Hf12  1  0.856927  0.003084  0.878875  1
  Hf  Hf13  1  0.504313  0.646222  0.627177  1
  Hf  Hf14  1  0.355847  0.492425  0.876999  1
  Hf  Hf15  1  0.490379  0.355917  0.121754  1
  Hf  Hf16  1  0.646684  0.506146  0.374452  1
  Hf  Hf17  1  0.996931  0.144954  0.626620  1
  Hf  Hf18  1  0.002690  0.857237  0.120083  1
  Si  Si19  1  0.363326  0.295634  0.317906  1
  Si  Si20  1  0.640881  0.703938  0.820233  1
  Si  Si21  1  0.206872  0.860135  0.569324  1
  Si  Si22  1  0.132042  0.775641  0.925845  1
  Si  Si23  1  0.768981  0.128212  0.071533  1
  Si  Si24  1  0.860366  0.206254  0.432719  1
  Si  Si25  1  0.296821  0.358515  0.683383  1
  Si  Si26  1  0.699811  0.644081  0.180273  1
  Si  Si27  1  0.297373  0.049930  0.188941  1
  Si  Si28  1  0.705295  0.950201  0.687087  1
  Si  Si29  1  0.449947  0.795967  0.436250  1
  Si  Si30  1  0.211912  0.570382  0.062922  1
  Si  Si31  1  0.564100  0.209395  0.935161  1
  Si  Si32  1  0.796008  0.449999  0.565032  1
  Si  Si33  1  0.052917  0.294666  0.811510  1
  Si  Si34  1  0.949069  0.709587  0.314233  1
  Au  Au35  1  0.179529  0.171349  0.996647  1
