# generated using pymatgen
data_YbHf7FeSi16Ru11
_symmetry_space_group_name_H-M   'P 1'
_cell_length_a   9.88109962
_cell_length_b   9.90773441
_cell_length_c   13.32558510
_cell_angle_alpha   53.90665622
_cell_angle_beta   53.79478960
_cell_angle_gamma   31.25714488
_symmetry_Int_Tables_number   1
_chemical_formula_structural   YbHf7FeSi16Ru11
_chemical_formula_sum   'Yb1 Hf7 Fe1 Si16 Ru11'
_cell_volume   535.05644851
_cell_formula_units_Z   1
loop_
 _symmetry_equiv_pos_site_id
 _symmetry_equiv_pos_as_xyz
  1  'x, y, z'
loop_
 _atom_site_type_symbol
 _atom_site_label
 _atom_site_symmetry_multiplicity
 _atom_site_fract_x
 _atom_site_fract_y
 _atom_site_fract_z
 _atom_site_occupancy
  Yb  Yb0  1  0.302335  0.561976  0.639109  1
  Hf  Hf1  1  0.444501  0.702355  0.853317  1
  Hf  Hf2  1  0.710694  0.442396  0.348609  1
  Hf  Hf3  1  0.552789  0.297319  0.150125  1
  Hf  Hf4  1  0.036742  0.296053  0.635323  1
  Hf  Hf5  1  0.705905  0.960736  0.864738  1
  Hf  Hf6  1  0.958008  0.707166  0.362359  1
  Hf  Hf7  1  0.294547  0.038538  0.136705  1
  Fe  Fe8  1  0.651014  0.825110  0.279588  1
  Si  Si9  1  0.872028  0.126994  0.250057  1
  Si  Si10  1  0.123678  0.876818  0.750970  1
  Si  Si11  1  0.380778  0.614019  0.251635  1
  Si  Si12  1  0.623440  0.379861  0.751594  1
  Si  Si13  1  0.970347  0.255277  0.894660  1
  Si  Si14  1  0.746221  0.024900  0.607774  1
  Si  Si15  1  0.019522  0.748073  0.111481  1
  Si  Si16  1  0.263003  0.971207  0.389225  1
  Si  Si17  1  0.575770  0.076837  0.071459  1
  Si  Si18  1  0.904563  0.438466  0.433592  1
  Si  Si19  1  0.423764  0.920484  0.933850  1
  Si  Si20  1  0.085209  0.571947  0.564327  1
  Si  Si21  1  0.391081  0.136894  0.393700  1
  Si  Si22  1  0.855849  0.614172  0.105079  1
  Si  Si23  1  0.612949  0.855462  0.603544  1
  Si  Si24  1  0.145075  0.388321  0.895066  1
  Ru  Ru25  1  0.171134  0.350237  0.221633  1
  Ru  Ru26  1  0.756674  0.485732  0.070313  1
  Ru  Ru27  1  0.827973  0.647368  0.782691  1
  Ru  Ru28  1  0.901142  0.145077  0.582941  1
  Ru  Ru29  1  0.861879  0.092567  0.919643  1
  Ru  Ru30  1  0.098744  0.864275  0.410360  1
  Ru  Ru31  1  0.138519  0.902817  0.084551  1
  Ru  Ru32  1  0.246493  0.510551  0.933794  1
  Ru  Ru33  1  0.479992  0.769307  0.564389  1
  Ru  Ru34  1  0.519267  0.233447  0.432505  1
  Ru  Ru35  1  0.348370  0.167243  0.719295  1
