# generated using pymatgen
data_Tm12Co2Ni3Bi
_symmetry_space_group_name_H-M   'P 1'
_cell_length_a   8.21861352
_cell_length_b   8.21861385
_cell_length_c   8.21861305
_cell_angle_alpha   109.42381151
_cell_angle_beta   111.31088610
_cell_angle_gamma   107.69913934
_symmetry_Int_Tables_number   1
_chemical_formula_structural   Tm12Co2Ni3Bi
_chemical_formula_sum   'Tm12 Co2 Ni3 Bi1'
_cell_volume   426.91506307
_cell_formula_units_Z   1
loop_
 _symmetry_equiv_pos_site_id
 _symmetry_equiv_pos_as_xyz
  1  'x, y, z'
loop_
 _atom_site_type_symbol
 _atom_site_label
 _atom_site_symmetry_multiplicity
 _atom_site_fract_x
 _atom_site_fract_y
 _atom_site_fract_z
 _atom_site_occupancy
  Tm  Tm0  1  0.288409  0.180322  0.468731  1
  Tm  Tm1  1  0.711591  0.819678  0.531269  1
  Tm  Tm2  1  0.288409  0.819678  0.108086  1
  Tm  Tm3  1  0.711591  0.180322  0.891914  1
  Tm  Tm4  1  0.625732  0.316044  0.309687  1
  Tm  Tm5  1  0.374268  0.683956  0.690313  1
  Tm  Tm6  1  0.006357  0.316044  0.690313  1
  Tm  Tm7  1  0.993643  0.683956  0.309687  1
  Tm  Tm8  1  0.211358  0.406319  0.194962  1
  Tm  Tm9  1  0.788642  0.593681  0.805038  1
  Tm  Tm10  1  0.211358  0.016396  0.805038  1
  Tm  Tm11  1  0.788642  0.983604  0.194962  1
  Co  Co12  1  0.385220  0.885220  0.500000  1
  Co  Co13  1  0.614780  0.114780  0.500000  1
  Ni  Ni14  1  0.000000  0.365246  0.365246  1
  Ni  Ni15  1  0.000000  0.634754  0.634754  1
  Ni  Ni16  1  0.000000  0.000000  0.000000  1
  Bi  Bi17  1  0.500000  0.500000  0.000000  1
