# generated using pymatgen
data_Ba8Yb4Mo3WN16
_symmetry_space_group_name_H-M   'P 1'
_cell_length_a   10.82573434
_cell_length_b   10.50842697
_cell_length_c   8.11435679
_cell_angle_alpha   69.73313576
_cell_angle_beta   65.59161734
_cell_angle_gamma   44.67935645
_symmetry_Int_Tables_number   1
_chemical_formula_structural   Ba8Yb4Mo3WN16
_chemical_formula_sum   'Ba8 Yb4 Mo3 W1 N16'
_cell_volume   589.06155888
_cell_formula_units_Z   1
loop_
 _symmetry_equiv_pos_site_id
 _symmetry_equiv_pos_as_xyz
  1  'x, y, z'
loop_
 _atom_site_type_symbol
 _atom_site_label
 _atom_site_symmetry_multiplicity
 _atom_site_fract_x
 _atom_site_fract_y
 _atom_site_fract_z
 _atom_site_occupancy
  Ba  Ba0  1  0.572032  0.927420  0.928031  1
  Ba  Ba1  1  0.928031  0.572517  0.572032  1
  Ba  Ba2  1  0.322356  0.677643  0.678303  1
  Ba  Ba3  1  0.110894  0.112168  0.887912  1
  Ba  Ba4  1  0.138375  0.139718  0.361534  1
  Ba  Ba5  1  0.361534  0.360373  0.138375  1
  Ba  Ba6  1  0.678303  0.321698  0.322356  1
  Ba  Ba7  1  0.887912  0.889026  0.110894  1
  Yb  Yb8  1  0.337786  0.337806  0.662099  1
  Yb  Yb9  1  0.910899  0.913096  0.588901  1
  Yb  Yb10  1  0.662099  0.662309  0.337786  1
  Yb  Yb11  1  0.588901  0.587104  0.910899  1
  Mo  Mo12  1  0.493705  0.006295  0.493705  1
  Mo  Mo13  1  0.006328  0.493672  0.006328  1
  Mo  Mo14  1  0.756363  0.243637  0.756363  1
  W  W15  1  0.243754  0.756246  0.243754  1
  N  N16  1  0.010584  0.658914  0.820410  1
  N  N17  1  0.699528  0.285028  0.995775  1
  N  N18  1  0.658391  0.011121  0.510528  1
  N  N19  1  0.510528  0.819961  0.658391  1
  N  N20  1  0.239019  0.590739  0.430483  1
  N  N21  1  0.739667  0.430026  0.591631  1
  N  N22  1  0.995775  0.019669  0.699528  1
  N  N23  1  0.550580  0.965002  0.254110  1
  N  N24  1  0.430483  0.739759  0.239019  1
  N  N25  1  0.964919  0.550493  0.230459  1
  N  N26  1  0.285644  0.699231  0.019003  1
  N  N27  1  0.820410  0.510093  0.010584  1
  N  N28  1  0.230459  0.254131  0.964919  1
  N  N29  1  0.591631  0.238675  0.739667  1
  N  N30  1  0.254110  0.230309  0.550580  1
  N  N31  1  0.019003  0.996121  0.285644  1
