# generated using pymatgen
data_Tb4Ho(In2Au)2
_symmetry_space_group_name_H-M   'P 1'
_cell_length_a   3.68698900
_cell_length_b   8.23742741
_cell_length_c   18.49144716
_cell_angle_alpha   89.94870333
_cell_angle_beta   90.00000000
_cell_angle_gamma   90.00000000
_symmetry_Int_Tables_number   1
_chemical_formula_structural   Tb4Ho(In2Au)2
_chemical_formula_sum   'Tb8 Ho2 In8 Au4'
_cell_volume   561.60914231
_cell_formula_units_Z   2
loop_
 _symmetry_equiv_pos_site_id
 _symmetry_equiv_pos_as_xyz
  1  'x, y, z'
loop_
 _atom_site_type_symbol
 _atom_site_label
 _atom_site_symmetry_multiplicity
 _atom_site_fract_x
 _atom_site_fract_y
 _atom_site_fract_z
 _atom_site_occupancy
  Tb  Tb0  1  0.000000  0.500000  0.500000  1
  Tb  Tb1  1  0.000000  0.000000  0.000000  1
  Tb  Tb2  1  0.000000  0.736162  0.283127  1
  Tb  Tb3  1  0.000000  0.263838  0.716873  1
  Tb  Tb4  1  0.000000  0.764204  0.782246  1
  Tb  Tb5  1  0.000000  0.235796  0.217754  1
  Tb  Tb6  1  0.000000  0.619747  0.079758  1
  Tb  Tb7  1  0.000000  0.380253  0.920242  1
  Ho  Ho8  1  0.000000  0.880252  0.579946  1
  Ho  Ho9  1  0.000000  0.119748  0.420054  1
  In  In10  1  0.500000  0.710996  0.932582  1
  In  In11  1  0.500000  0.289004  0.067418  1
  In  In12  1  0.500000  0.791134  0.433929  1
  In  In13  1  0.500000  0.208866  0.566071  1
  In  In14  1  0.500000  0.581693  0.646643  1
  In  In15  1  0.500000  0.418307  0.353357  1
  In  In16  1  0.500000  0.920207  0.147650  1
  In  In17  1  0.500000  0.079793  0.852350  1
  Au  Au18  1  0.500000  0.526250  0.196826  1
  Au  Au19  1  0.500000  0.473750  0.803174  1
  Au  Au20  1  0.500000  0.973172  0.695385  1
  Au  Au21  1  0.500000  0.026828  0.304615  1
