# generated using pymatgen
data_BaNaH6Rh
_symmetry_space_group_name_H-M   'P 1'
_cell_length_a   5.53150265
_cell_length_b   5.53150270
_cell_length_c   5.53150300
_cell_angle_alpha   60.00000417
_cell_angle_beta   60.00000387
_cell_angle_gamma   59.99999597
_symmetry_Int_Tables_number   1
_chemical_formula_structural   BaNaH6Rh
_chemical_formula_sum   'Ba1 Na1 H6 Rh1'
_cell_volume   119.67802693
_cell_formula_units_Z   1
loop_
 _symmetry_equiv_pos_site_id
 _symmetry_equiv_pos_as_xyz
  1  'x, y, z'
loop_
 _atom_site_type_symbol
 _atom_site_label
 _atom_site_symmetry_multiplicity
 _atom_site_fract_x
 _atom_site_fract_y
 _atom_site_fract_z
 _atom_site_occupancy
  Ba  Ba0  1  0.750000  0.750000  0.750000  1
  Na  Na1  1  0.250000  0.250000  0.250000  1
  H  H2  1  0.785777  0.214223  0.214223  1
  H  H3  1  0.214223  0.785777  0.214223  1
  H  H4  1  0.785777  0.785777  0.214223  1
  H  H5  1  0.214223  0.785777  0.785777  1
  H  H6  1  0.785777  0.214223  0.785777  1
  H  H7  1  0.214223  0.214223  0.785777  1
  Rh  Rh8  1  0.000000  0.000000  0.000000  1
