# generated using pymatgen
data_Tm4BeSi7Tc6
_symmetry_space_group_name_H-M   'P 1'
_cell_length_a   6.76918861
_cell_length_b   6.54612764
_cell_length_c   6.79353376
_cell_angle_alpha   71.07410446
_cell_angle_beta   90.27587327
_cell_angle_gamma   89.96314490
_symmetry_Int_Tables_number   1
_chemical_formula_structural   Tm4BeSi7Tc6
_chemical_formula_sum   'Tm4 Be1 Si7 Tc6'
_cell_volume   284.75652017
_cell_formula_units_Z   1
loop_
 _symmetry_equiv_pos_site_id
 _symmetry_equiv_pos_as_xyz
  1  'x, y, z'
loop_
 _atom_site_type_symbol
 _atom_site_label
 _atom_site_symmetry_multiplicity
 _atom_site_fract_x
 _atom_site_fract_y
 _atom_site_fract_z
 _atom_site_occupancy
  Tm  Tm0  1  0.335546  0.564054  0.810350  1
  Tm  Tm1  1  0.828952  0.941366  0.189435  1
  Tm  Tm2  1  0.666193  0.443629  0.189667  1
  Tm  Tm3  1  0.173603  0.054064  0.809272  1
  Be  Be4  1  0.548087  0.884181  0.901082  1
  Si  Si5  1  0.045531  0.623212  0.098674  1
  Si  Si6  1  0.454217  0.114762  0.095059  1
  Si  Si7  1  0.954742  0.377672  0.897286  1
  Si  Si8  1  0.138222  0.866559  0.490611  1
  Si  Si9  1  0.639996  0.633434  0.512555  1
  Si  Si10  1  0.857599  0.132753  0.512968  1
  Si  Si11  1  0.362188  0.365320  0.493060  1
  Tc  Tc12  1  0.501542  0.003568  0.494286  1
  Tc  Tc13  1  0.999636  0.496943  0.501195  1
  Tc  Tc14  1  0.838970  0.759176  0.765821  1
  Tc  Tc15  1  0.339299  0.740096  0.240192  1
  Tc  Tc16  1  0.159565  0.244024  0.231360  1
  Tc  Tc17  1  0.656113  0.255187  0.767130  1
