# generated using pymatgen
data_Tb9Lu(Bi2Sb)2
_symmetry_space_group_name_H-M   'P 1'
_cell_length_a   8.22116200
_cell_length_b   9.46748002
_cell_length_c   12.06219303
_cell_angle_alpha   89.99255539
_cell_angle_beta   90.00000000
_cell_angle_gamma   90.00000000
_symmetry_Int_Tables_number   1
_chemical_formula_structural   Tb9Lu(Bi2Sb)2
_chemical_formula_sum   'Tb18 Lu2 Bi8 Sb4'
_cell_volume   938.84494826
_cell_formula_units_Z   2
loop_
 _symmetry_equiv_pos_site_id
 _symmetry_equiv_pos_as_xyz
  1  'x, y, z'
loop_
 _atom_site_type_symbol
 _atom_site_label
 _atom_site_symmetry_multiplicity
 _atom_site_fract_x
 _atom_site_fract_y
 _atom_site_fract_z
 _atom_site_occupancy
  Tb  Tb0  1  0.188548  0.563059  0.442227  1
  Tb  Tb1  1  0.688548  0.936941  0.057773  1
  Tb  Tb2  1  0.811287  0.062699  0.558028  1
  Tb  Tb3  1  0.311287  0.437301  0.941972  1
  Tb  Tb4  1  0.812614  0.436883  0.557433  1
  Tb  Tb5  1  0.312614  0.063117  0.942567  1
  Tb  Tb6  1  0.027071  0.749562  0.988338  1
  Tb  Tb7  1  0.527071  0.750438  0.511662  1
  Tb  Tb8  1  0.971514  0.250474  0.012203  1
  Tb  Tb9  1  0.471514  0.249526  0.487797  1
  Tb  Tb10  1  0.181854  0.750589  0.717128  1
  Tb  Tb11  1  0.681854  0.749411  0.782872  1
  Tb  Tb12  1  0.817949  0.250024  0.282415  1
  Tb  Tb13  1  0.317949  0.249976  0.217585  1
  Tb  Tb14  1  0.853082  0.749986  0.286469  1
  Tb  Tb15  1  0.353082  0.750014  0.213531  1
  Tb  Tb16  1  0.145948  0.250143  0.713460  1
  Tb  Tb17  1  0.645948  0.249857  0.786540  1
  Lu  Lu18  1  0.187878  0.933985  0.441967  1
  Lu  Lu19  1  0.687878  0.566015  0.058033  1
  Bi  Bi20  1  0.934200  0.496046  0.825602  1
  Bi  Bi21  1  0.434200  0.003954  0.674398  1
  Bi  Bi22  1  0.066438  0.995976  0.174754  1
  Bi  Bi23  1  0.566438  0.504024  0.325246  1
  Bi  Bi24  1  0.065744  0.504038  0.174450  1
  Bi  Bi25  1  0.565744  0.995962  0.325550  1
  Bi  Bi26  1  0.934139  0.003812  0.825296  1
  Bi  Bi27  1  0.434139  0.496188  0.674704  1
  Sb  Sb28  1  0.907346  0.751000  0.541008  1
  Sb  Sb29  1  0.407346  0.749000  0.958992  1
  Sb  Sb30  1  0.094389  0.246288  0.457521  1
  Sb  Sb31  1  0.594389  0.253712  0.042479  1
