# generated using pymatgen
data_CsEuN9
_symmetry_space_group_name_H-M   'P 1'
_cell_length_a   6.91441262
_cell_length_b   6.91442000
_cell_length_c   9.07593670
_cell_angle_alpha   109.46574620
_cell_angle_beta   109.46497962
_cell_angle_gamma   95.20349234
_symmetry_Int_Tables_number   1
_chemical_formula_structural   CsEuN9
_chemical_formula_sum   'Cs2 Eu2 N18'
_cell_volume   375.66393977
_cell_formula_units_Z   2
loop_
 _symmetry_equiv_pos_site_id
 _symmetry_equiv_pos_as_xyz
  1  'x, y, z'
loop_
 _atom_site_type_symbol
 _atom_site_label
 _atom_site_symmetry_multiplicity
 _atom_site_fract_x
 _atom_site_fract_y
 _atom_site_fract_z
 _atom_site_occupancy
  Cs  Cs0  1  0.791512  0.208486  0.250000  1
  Cs  Cs1  1  0.208488  0.791514  0.750000  1
  Eu  Eu2  1  0.238238  0.761761  0.250000  1
  Eu  Eu3  1  0.761762  0.238239  0.750000  1
  N  N4  1  0.500000  0.500000  0.000000  1
  N  N5  1  0.448098  0.659235  0.052948  1
  N  N6  1  0.099943  0.334517  0.054623  1
  N  N7  1  0.179240  0.209402  0.102971  1
  N  N8  1  0.257025  0.085396  0.152117  1
  N  N9  1  0.914606  0.742970  0.347883  1
  N  N10  1  0.790596  0.820758  0.397031  1
  N  N11  1  0.665484  0.900056  0.445378  1
  N  N12  1  0.340767  0.551902  0.447053  1
  N  N13  1  0.500000  0.500000  0.500000  1
  N  N14  1  0.659233  0.448098  0.552947  1
  N  N15  1  0.334517  0.099945  0.554622  1
  N  N16  1  0.209404  0.179242  0.602970  1
  N  N17  1  0.085394  0.257030  0.652117  1
  N  N18  1  0.742976  0.914605  0.847883  1
  N  N19  1  0.820760  0.790598  0.897030  1
  N  N20  1  0.900057  0.665483  0.945377  1
  N  N21  1  0.551901  0.340765  0.947052  1
