# generated using pymatgen
data_RbTaTeO6
_symmetry_space_group_name_H-M   'P 1'
_cell_length_a   7.35972667
_cell_length_b   7.35972648
_cell_length_c   7.35972613
_cell_angle_alpha   119.55275235
_cell_angle_beta   120.41478672
_cell_angle_gamma   90.02972915
_symmetry_Int_Tables_number   1
_chemical_formula_structural   RbTaTeO6
_chemical_formula_sum   'Rb2 Ta2 Te2 O12'
_cell_volume   281.93292664
_cell_formula_units_Z   2
loop_
 _symmetry_equiv_pos_site_id
 _symmetry_equiv_pos_as_xyz
  1  'x, y, z'
loop_
 _atom_site_type_symbol
 _atom_site_label
 _atom_site_symmetry_multiplicity
 _atom_site_fract_x
 _atom_site_fract_y
 _atom_site_fract_z
 _atom_site_occupancy
  Rb  Rb0  1  0.373581  0.623581  0.750000  1
  Rb  Rb1  1  0.626419  0.376419  0.250000  1
  Ta  Ta2  1  0.000000  0.000000  0.500000  1
  Ta  Ta3  1  0.000000  0.500000  0.000000  1
  Te  Te4  1  0.000000  0.000000  0.000000  1
  Te  Te5  1  0.500000  0.000000  0.500000  1
  O  O6  1  0.322396  0.072396  0.250000  1
  O  O7  1  0.936175  0.686175  0.250000  1
  O  O8  1  0.322703  0.689383  0.257628  1
  O  O9  1  0.931755  0.065076  0.242372  1
  O  O10  1  0.322703  0.065076  0.633321  1
  O  O11  1  0.931755  0.689383  0.866679  1
  O  O12  1  0.677604  0.927604  0.750000  1
  O  O13  1  0.063825  0.313825  0.750000  1
  O  O14  1  0.677297  0.310617  0.742372  1
  O  O15  1  0.068245  0.934924  0.757628  1
  O  O16  1  0.677297  0.934924  0.366679  1
  O  O17  1  0.068245  0.310617  0.133321  1
