# generated using pymatgen
data_TmSc3Mn9Fe11P12
_symmetry_space_group_name_H-M   'P 1'
_cell_length_a   3.59793700
_cell_length_b   10.18361901
_cell_length_c   12.02695180
_cell_angle_alpha   89.42279788
_cell_angle_beta   90.00000000
_cell_angle_gamma   90.00000000
_symmetry_Int_Tables_number   1
_chemical_formula_structural   TmSc3Mn9Fe11P12
_chemical_formula_sum   'Tm1 Sc3 Mn9 Fe11 P12'
_cell_volume   440.64538947
_cell_formula_units_Z   1
loop_
 _symmetry_equiv_pos_site_id
 _symmetry_equiv_pos_as_xyz
  1  'x, y, z'
loop_
 _atom_site_type_symbol
 _atom_site_label
 _atom_site_symmetry_multiplicity
 _atom_site_fract_x
 _atom_site_fract_y
 _atom_site_fract_z
 _atom_site_occupancy
  Tm  Tm0  1  0.750000  0.079830  0.787668  1
  Sc  Sc1  1  0.250000  0.579543  0.711291  1
  Sc  Sc2  1  0.250000  0.915818  0.211617  1
  Sc  Sc3  1  0.750000  0.426327  0.291854  1
  Mn  Mn4  1  0.250000  0.705289  0.992295  1
  Mn  Mn5  1  0.250000  0.793760  0.490611  1
  Mn  Mn6  1  0.750000  0.291309  0.011168  1
  Mn  Mn7  1  0.750000  0.208176  0.507841  1
  Mn  Mn8  1  0.250000  0.411765  0.491769  1
  Mn  Mn9  1  0.250000  0.088617  0.990513  1
  Mn  Mn10  1  0.750000  0.592245  0.510730  1
  Mn  Mn11  1  0.750000  0.904431  0.009903  1
  Mn  Mn12  1  0.250000  0.218058  0.175846  1
  Fe  Fe13  1  0.250000  0.279621  0.672280  1
  Fe  Fe14  1  0.750000  0.776641  0.826627  1
  Fe  Fe15  1  0.750000  0.722110  0.327320  1
  Fe  Fe16  1  0.250000  0.875978  0.694598  1
  Fe  Fe17  1  0.250000  0.622853  0.197248  1
  Fe  Fe18  1  0.750000  0.128198  0.299409  1
  Fe  Fe19  1  0.750000  0.378323  0.804581  1
  Fe  Fe20  1  0.250000  0.462584  0.936325  1
  Fe  Fe21  1  0.250000  0.039263  0.431464  1
  Fe  Fe22  1  0.750000  0.537623  0.065520  1
  Fe  Fe23  1  0.750000  0.961611  0.561555  1
  P  P24  1  0.250000  0.425708  0.116995  1
  P  P25  1  0.250000  0.077046  0.611333  1
  P  P26  1  0.750000  0.575503  0.884243  1
  P  P27  1  0.750000  0.924191  0.382156  1
  P  P28  1  0.250000  0.266965  0.862058  1
  P  P29  1  0.250000  0.242068  0.367167  1
  P  P30  1  0.750000  0.734716  0.139604  1
  P  P31  1  0.750000  0.763816  0.638843  1
  P  P32  1  0.250000  0.601022  0.380762  1
  P  P33  1  0.250000  0.896796  0.880265  1
  P  P34  1  0.750000  0.401338  0.620980  1
  P  P35  1  0.750000  0.090858  0.115560  1
