# generated using pymatgen
data_CeThCdSi2
_symmetry_space_group_name_H-M   'P 1'
_cell_length_a   7.35819100
_cell_length_b   7.36290100
_cell_length_c   4.31124200
_cell_angle_alpha   90.00000000
_cell_angle_beta   90.00000000
_cell_angle_gamma   90.00000000
_symmetry_Int_Tables_number   1
_chemical_formula_structural   CeThCdSi2
_chemical_formula_sum   'Ce2 Th2 Cd2 Si4'
_cell_volume   233.57288199
_cell_formula_units_Z   2
loop_
 _symmetry_equiv_pos_site_id
 _symmetry_equiv_pos_as_xyz
  1  'x, y, z'
loop_
 _atom_site_type_symbol
 _atom_site_label
 _atom_site_symmetry_multiplicity
 _atom_site_fract_x
 _atom_site_fract_y
 _atom_site_fract_z
 _atom_site_occupancy
  Ce  Ce0  1  0.819869  0.680526  0.500000  1
  Ce  Ce1  1  0.319869  0.819474  0.500000  1
  Th  Th2  1  0.679763  0.179205  0.500000  1
  Th  Th3  1  0.179763  0.320795  0.500000  1
  Cd  Cd4  1  0.000960  0.995696  0.000000  1
  Cd  Cd5  1  0.500960  0.504304  0.000000  1
  Si  Si6  1  0.885520  0.388204  0.000000  1
  Si  Si7  1  0.385520  0.111796  0.000000  1
  Si  Si8  1  0.613888  0.883936  0.000000  1
  Si  Si9  1  0.113888  0.616064  0.000000  1
