# generated using pymatgen
data_PI(OF3)2
_symmetry_space_group_name_H-M   'P 1'
_cell_length_a   5.84472145
_cell_length_b   8.10838331
_cell_length_c   7.73301998
_cell_angle_alpha   86.75397995
_cell_angle_beta   81.49061563
_cell_angle_gamma   85.10065397
_symmetry_Int_Tables_number   1
_chemical_formula_structural   PI(OF3)2
_chemical_formula_sum   'P2 I2 O4 F12'
_cell_volume   360.75887416
_cell_formula_units_Z   2
loop_
 _symmetry_equiv_pos_site_id
 _symmetry_equiv_pos_as_xyz
  1  'x, y, z'
loop_
 _atom_site_type_symbol
 _atom_site_label
 _atom_site_symmetry_multiplicity
 _atom_site_fract_x
 _atom_site_fract_y
 _atom_site_fract_z
 _atom_site_occupancy
  P  P0  1  0.210499  0.205383  0.176807  1
  P  P1  1  0.789501  0.794617  0.823193  1
  I  I2  1  0.594127  0.226966  0.770784  1
  I  I3  1  0.405873  0.773034  0.229216  1
  O  O4  1  0.603739  0.718450  0.951009  1
  O  O5  1  0.804986  0.979569  0.816893  1
  O  O6  1  0.396261  0.281550  0.048991  1
  O  O7  1  0.195014  0.020431  0.183107  1
  F  F8  1  0.413319  0.414127  0.699840  1
  F  F9  1  0.229049  0.262678  0.362098  1
  F  F10  1  0.032273  0.712767  0.852816  1
  F  F11  1  0.704367  0.196668  0.532501  1
  F  F12  1  0.295633  0.803332  0.467499  1
  F  F13  1  0.586681  0.585873  0.300160  1
  F  F14  1  0.843953  0.374044  0.760748  1
  F  F15  1  0.156047  0.625956  0.239252  1
  F  F16  1  0.339928  0.101797  0.730733  1
  F  F17  1  0.660072  0.898203  0.269267  1
  F  F18  1  0.770951  0.737322  0.637902  1
  F  F19  1  0.967727  0.287233  0.147184  1
