# generated using pymatgen
data_Li8Nd7YBi8
_symmetry_space_group_name_H-M   'P 1'
_cell_length_a   9.86613200
_cell_length_b   9.86611787
_cell_length_c   7.35508000
_cell_angle_alpha   90.00105081
_cell_angle_beta   89.99850302
_cell_angle_gamma   120.00050768
_symmetry_Int_Tables_number   1
_chemical_formula_structural   Li8Nd7YBi8
_chemical_formula_sum   'Li8 Nd7 Y1 Bi8'
_cell_volume   620.02475857
_cell_formula_units_Z   1
loop_
 _symmetry_equiv_pos_site_id
 _symmetry_equiv_pos_as_xyz
  1  'x, y, z'
loop_
 _atom_site_type_symbol
 _atom_site_label
 _atom_site_symmetry_multiplicity
 _atom_site_fract_x
 _atom_site_fract_y
 _atom_site_fract_z
 _atom_site_occupancy
  Li  Li0  1  0.166243  0.833753  0.282739  1
  Li  Li1  1  0.667514  0.833757  0.282731  1
  Li  Li2  1  0.166244  0.332484  0.282728  1
  Li  Li3  1  0.833511  0.166487  0.792046  1
  Li  Li4  1  0.332980  0.166491  0.792050  1
  Li  Li5  1  0.833508  0.667020  0.792047  1
  Li  Li6  1  0.333333  0.666670  0.711628  1
  Li  Li7  1  0.666668  0.333333  0.207977  1
  Nd  Nd8  1  0.507787  0.492214  0.509511  1
  Nd  Nd9  1  0.984421  0.492212  0.509510  1
  Nd  Nd10  1  0.507790  0.015580  0.509510  1
  Nd  Nd11  1  0.491560  0.508442  0.009490  1
  Nd  Nd12  1  0.016895  0.508443  0.009488  1
  Nd  Nd13  1  0.491553  0.983106  0.009487  1
  Nd  Nd14  1  0.999999  0.999999  0.516905  1
  Y  Y15  1  0.999999  0.000000  0.017391  1
  Bi  Bi16  1  0.165744  0.834259  0.757605  1
  Bi  Bi17  1  0.668500  0.834252  0.757603  1
  Bi  Bi18  1  0.165750  0.331498  0.757609  1
  Bi  Bi19  1  0.834672  0.165327  0.250837  1
  Bi  Bi20  1  0.330666  0.165334  0.250838  1
  Bi  Bi21  1  0.834667  0.669334  0.250841  1
  Bi  Bi22  1  0.333336  0.666665  0.276471  1
  Bi  Bi23  1  0.666664  0.333340  0.772947  1
