# generated using pymatgen
data_Ho7Lu3(Bi3C)2
_symmetry_space_group_name_H-M   'P 1'
_cell_length_a   6.43671701
_cell_length_b   9.09406696
_cell_length_c   9.09318403
_cell_angle_alpha   119.99677409
_cell_angle_beta   90.00670167
_cell_angle_gamma   89.99774167
_symmetry_Int_Tables_number   1
_chemical_formula_structural   Ho7Lu3(Bi3C)2
_chemical_formula_sum   'Ho7 Lu3 Bi6 C2'
_cell_volume   460.98127952
_cell_formula_units_Z   1
loop_
 _symmetry_equiv_pos_site_id
 _symmetry_equiv_pos_as_xyz
  1  'x, y, z'
loop_
 _atom_site_type_symbol
 _atom_site_label
 _atom_site_symmetry_multiplicity
 _atom_site_fract_x
 _atom_site_fract_y
 _atom_site_fract_z
 _atom_site_occupancy
  Ho  Ho0  1  0.499014  0.333310  0.666679  1
  Ho  Ho1  1  0.498991  0.666684  0.333336  1
  Ho  Ho2  1  0.000988  0.666681  0.333323  1
  Ho  Ho3  1  0.000970  0.333326  0.666693  1
  Ho  Ho4  1  0.249980  0.791918  0.000014  1
  Ho  Ho5  1  0.250008  0.208173  0.208148  1
  Ho  Ho6  1  0.250017  0.000033  0.791844  1
  Lu  Lu7  1  0.750050  0.201887  0.999973  1
  Lu  Lu8  1  0.749981  0.798050  0.798078  1
  Lu  Lu9  1  0.749973  0.999948  0.201922  1
  Bi  Bi10  1  0.750023  0.600131  0.000001  1
  Bi  Bi11  1  0.749995  0.399860  0.399883  1
  Bi  Bi12  1  0.750003  0.999977  0.600086  1
  Bi  Bi13  1  0.249998  0.400510  0.999996  1
  Bi  Bi14  1  0.250006  0.599478  0.599446  1
  Bi  Bi15  1  0.249998  0.000025  0.400579  1
  C  C16  1  0.504370  0.000008  0.999999  1
  C  C17  1  0.995638  0.000002  0.000002  1
