# generated using pymatgen
data_Zr2Co2SiP
_symmetry_space_group_name_H-M   'P 1'
_cell_length_a   3.75594400
_cell_length_b   6.40499400
_cell_length_c   7.17480400
_cell_angle_alpha   90.00000000
_cell_angle_beta   90.00000000
_cell_angle_gamma   90.00000000
_symmetry_Int_Tables_number   1
_chemical_formula_structural   Zr2Co2SiP
_chemical_formula_sum   'Zr4 Co4 Si2 P2'
_cell_volume   172.60281615
_cell_formula_units_Z   2
loop_
 _symmetry_equiv_pos_site_id
 _symmetry_equiv_pos_as_xyz
  1  'x, y, z'
loop_
 _atom_site_type_symbol
 _atom_site_label
 _atom_site_symmetry_multiplicity
 _atom_site_fract_x
 _atom_site_fract_y
 _atom_site_fract_z
 _atom_site_occupancy
  Zr  Zr0  1  0.250000  0.017636  0.316843  1
  Zr  Zr1  1  0.250000  0.517636  0.183157  1
  Zr  Zr2  1  0.750000  0.987355  0.687888  1
  Zr  Zr3  1  0.750000  0.487355  0.812112  1
  Co  Co4  1  0.250000  0.138519  0.934376  1
  Co  Co5  1  0.250000  0.638519  0.565624  1
  Co  Co6  1  0.750000  0.856192  0.058363  1
  Co  Co7  1  0.750000  0.356192  0.441637  1
  Si  Si8  1  0.750000  0.721106  0.390672  1
  Si  Si9  1  0.750000  0.221106  0.109328  1
  P  P10  1  0.250000  0.279192  0.610726  1
  P  P11  1  0.250000  0.779192  0.889274  1
