# generated using pymatgen
data_Nd15HoCdIn3Rh4
_symmetry_space_group_name_H-M   'P 1'
_cell_length_a   9.94889700
_cell_length_b   9.95144503
_cell_length_c   9.93814900
_cell_angle_alpha   60.04419099
_cell_angle_beta   60.03573361
_cell_angle_gamma   60.08282779
_symmetry_Int_Tables_number   1
_chemical_formula_structural   Nd15HoCdIn3Rh4
_chemical_formula_sum   'Nd15 Ho1 Cd1 In3 Rh4'
_cell_volume   696.60260445
_cell_formula_units_Z   1
loop_
 _symmetry_equiv_pos_site_id
 _symmetry_equiv_pos_as_xyz
  1  'x, y, z'
loop_
 _atom_site_type_symbol
 _atom_site_label
 _atom_site_symmetry_multiplicity
 _atom_site_fract_x
 _atom_site_fract_y
 _atom_site_fract_z
 _atom_site_occupancy
  Nd  Nd0  1  0.939108  0.937603  0.561645  1
  Nd  Nd1  1  0.563000  0.561263  0.937868  1
  Nd  Nd2  1  0.690673  0.691371  0.308978  1
  Nd  Nd3  1  0.149906  0.548845  0.150625  1
  Nd  Nd4  1  0.687664  0.310804  0.688970  1
  Nd  Nd5  1  0.151515  0.150898  0.149258  1
  Nd  Nd6  1  0.548883  0.149444  0.150836  1
  Nd  Nd7  1  0.687664  0.310804  0.312561  1
  Nd  Nd8  1  0.151515  0.150898  0.548327  1
  Nd  Nd9  1  0.309455  0.689352  0.310819  1
  Nd  Nd10  1  0.309455  0.689352  0.690375  1
  Nd  Nd11  1  0.940060  0.558411  0.564246  1
  Nd  Nd12  1  0.940060  0.558411  0.937282  1
  Nd  Nd13  1  0.559634  0.939211  0.563491  1
  Nd  Nd14  1  0.559634  0.939211  0.937663  1
  Ho  Ho15  1  0.311260  0.310221  0.689259  1
  Cd  Cd16  1  0.920770  0.241169  0.919031  1
  In  In17  1  0.918699  0.920338  0.242230  1
  In  In18  1  0.243275  0.921283  0.917721  1
  In  In19  1  0.918699  0.920338  0.918734  1
  Rh  Rh20  1  0.357030  0.357038  0.923714  1
  Rh  Rh21  1  0.357755  0.928208  0.357018  1
  Rh  Rh22  1  0.927255  0.358483  0.357131  1
  Rh  Rh23  1  0.357030  0.357038  0.362219  1
