# generated using pymatgen
data_PrSc6Sn23Ir6
_symmetry_space_group_name_H-M   'P 1'
_cell_length_a   9.73369200
_cell_length_b   9.73369153
_cell_length_c   9.95872700
_cell_angle_alpha   90.00000000
_cell_angle_beta   90.00000000
_cell_angle_gamma   120.00000160
_symmetry_Int_Tables_number   1
_chemical_formula_structural   PrSc6Sn23Ir6
_chemical_formula_sum   'Pr1 Sc6 Sn23 Ir6'
_cell_volume   817.12713098
_cell_formula_units_Z   1
loop_
 _symmetry_equiv_pos_site_id
 _symmetry_equiv_pos_as_xyz
  1  'x, y, z'
loop_
 _atom_site_type_symbol
 _atom_site_label
 _atom_site_symmetry_multiplicity
 _atom_site_fract_x
 _atom_site_fract_y
 _atom_site_fract_z
 _atom_site_occupancy
  Pr  Pr0  1  0.000000  0.000000  0.000000  1
  Sc  Sc1  1  0.515469  0.484531  0.691886  1
  Sc  Sc2  1  0.515469  0.030936  0.691886  1
  Sc  Sc3  1  0.969064  0.484531  0.691886  1
  Sc  Sc4  1  0.030936  0.515469  0.308114  1
  Sc  Sc5  1  0.484531  0.969064  0.308114  1
  Sc  Sc6  1  0.484531  0.515469  0.308114  1
  Sn  Sn7  1  0.666667  0.333333  0.167306  1
  Sn  Sn8  1  0.666667  0.333333  0.860380  1
  Sn  Sn9  1  0.333333  0.666667  0.139620  1
  Sn  Sn10  1  0.354179  0.354179  0.000000  1
  Sn  Sn11  1  0.000000  0.645821  0.000000  1
  Sn  Sn12  1  0.645821  0.000000  0.000000  1
  Sn  Sn13  1  0.645821  0.645821  0.000000  1
  Sn  Sn14  1  0.333333  0.666667  0.832694  1
  Sn  Sn15  1  0.449402  0.224700  0.459722  1
  Sn  Sn16  1  0.224700  0.775300  0.540278  1
  Sn  Sn17  1  0.224700  0.449402  0.540278  1
  Sn  Sn18  1  0.550598  0.775300  0.540278  1
  Sn  Sn19  1  0.123132  0.876868  0.286681  1
  Sn  Sn20  1  0.775300  0.550598  0.459722  1
  Sn  Sn21  1  0.775300  0.224700  0.459722  1
  Sn  Sn22  1  0.354179  0.000000  0.000000  1
  Sn  Sn23  1  0.123132  0.246262  0.286681  1
  Sn  Sn24  1  0.753738  0.876868  0.286681  1
  Sn  Sn25  1  0.246262  0.123132  0.713319  1
  Sn  Sn26  1  0.876868  0.753738  0.713319  1
  Sn  Sn27  1  0.876868  0.123132  0.713319  1
  Sn  Sn28  1  0.000000  0.000000  0.500000  1
  Sn  Sn29  1  0.000000  0.354179  0.000000  1
  Ir  Ir30  1  0.170690  0.829310  0.798347  1
  Ir  Ir31  1  0.170690  0.341380  0.798347  1
  Ir  Ir32  1  0.658620  0.829310  0.798347  1
  Ir  Ir33  1  0.341380  0.170690  0.201653  1
  Ir  Ir34  1  0.829310  0.658620  0.201653  1
  Ir  Ir35  1  0.829310  0.170690  0.201653  1
