# generated using pymatgen
data_PrSi3NiIr4
_symmetry_space_group_name_H-M   'P 1'
_cell_length_a   3.87271300
_cell_length_b   10.99172200
_cell_length_c   12.50086900
_cell_angle_alpha   90.00000000
_cell_angle_beta   90.00000000
_cell_angle_gamma   90.00000000
_symmetry_Int_Tables_number   1
_chemical_formula_structural   PrSi3NiIr4
_chemical_formula_sum   'Pr4 Si12 Ni4 Ir16'
_cell_volume   532.13429993
_cell_formula_units_Z   4
loop_
 _symmetry_equiv_pos_site_id
 _symmetry_equiv_pos_as_xyz
  1  'x, y, z'
loop_
 _atom_site_type_symbol
 _atom_site_label
 _atom_site_symmetry_multiplicity
 _atom_site_fract_x
 _atom_site_fract_y
 _atom_site_fract_z
 _atom_site_occupancy
  Pr  Pr0  1  0.250000  0.590896  0.705562  1
  Pr  Pr1  1  0.250000  0.909104  0.205562  1
  Pr  Pr2  1  0.750000  0.409104  0.294438  1
  Pr  Pr3  1  0.750000  0.090896  0.794438  1
  Si  Si4  1  0.250000  0.410804  0.105168  1
  Si  Si5  1  0.250000  0.089196  0.605168  1
  Si  Si6  1  0.750000  0.589196  0.894832  1
  Si  Si7  1  0.750000  0.910804  0.394832  1
  Si  Si8  1  0.250000  0.278743  0.879651  1
  Si  Si9  1  0.250000  0.221257  0.379651  1
  Si  Si10  1  0.750000  0.721257  0.120349  1
  Si  Si11  1  0.750000  0.778743  0.620349  1
  Si  Si12  1  0.250000  0.597928  0.387503  1
  Si  Si13  1  0.250000  0.902072  0.887503  1
  Si  Si14  1  0.750000  0.402072  0.612497  1
  Si  Si15  1  0.750000  0.097928  0.112497  1
  Ni  Ni16  1  0.250000  0.474020  0.935370  1
  Ni  Ni17  1  0.250000  0.025980  0.435370  1
  Ni  Ni18  1  0.750000  0.525980  0.064630  1
  Ni  Ni19  1  0.750000  0.974020  0.564630  1
  Ir  Ir20  1  0.250000  0.712266  0.984282  1
  Ir  Ir21  1  0.250000  0.787734  0.484282  1
  Ir  Ir22  1  0.750000  0.287734  0.015718  1
  Ir  Ir23  1  0.750000  0.212266  0.515718  1
  Ir  Ir24  1  0.250000  0.406090  0.488832  1
  Ir  Ir25  1  0.250000  0.093910  0.988832  1
  Ir  Ir26  1  0.750000  0.593910  0.511168  1
  Ir  Ir27  1  0.750000  0.906090  0.011168  1
  Ir  Ir28  1  0.250000  0.218296  0.182758  1
  Ir  Ir29  1  0.250000  0.281704  0.682758  1
  Ir  Ir30  1  0.750000  0.781704  0.817242  1
  Ir  Ir31  1  0.750000  0.718296  0.317242  1
  Ir  Ir32  1  0.250000  0.894786  0.692974  1
  Ir  Ir33  1  0.250000  0.605214  0.192974  1
  Ir  Ir34  1  0.750000  0.105214  0.307026  1
  Ir  Ir35  1  0.750000  0.394786  0.807026  1
