# generated using pymatgen
data_DyCo4ReP3
_symmetry_space_group_name_H-M   'P 1'
_cell_length_a   3.71561600
_cell_length_b   10.33493700
_cell_length_c   11.79488100
_cell_angle_alpha   90.00000000
_cell_angle_beta   90.00000000
_cell_angle_gamma   90.00000000
_symmetry_Int_Tables_number   1
_chemical_formula_structural   DyCo4ReP3
_chemical_formula_sum   'Dy4 Co16 Re4 P12'
_cell_volume   452.93118289
_cell_formula_units_Z   4
loop_
 _symmetry_equiv_pos_site_id
 _symmetry_equiv_pos_as_xyz
  1  'x, y, z'
loop_
 _atom_site_type_symbol
 _atom_site_label
 _atom_site_symmetry_multiplicity
 _atom_site_fract_x
 _atom_site_fract_y
 _atom_site_fract_z
 _atom_site_occupancy
  Dy  Dy0  1  0.250000  0.583921  0.704778  1
  Dy  Dy1  1  0.250000  0.916079  0.204778  1
  Dy  Dy2  1  0.750000  0.416079  0.295222  1
  Dy  Dy3  1  0.750000  0.083921  0.795222  1
  Co  Co4  1  0.250000  0.405841  0.488520  1
  Co  Co5  1  0.250000  0.094159  0.988520  1
  Co  Co6  1  0.750000  0.594159  0.511480  1
  Co  Co7  1  0.750000  0.905841  0.011480  1
  Co  Co8  1  0.250000  0.222157  0.176419  1
  Co  Co9  1  0.250000  0.277843  0.676419  1
  Co  Co10  1  0.750000  0.777843  0.823581  1
  Co  Co11  1  0.750000  0.722157  0.323581  1
  Co  Co12  1  0.250000  0.885700  0.701696  1
  Co  Co13  1  0.250000  0.614300  0.201696  1
  Co  Co14  1  0.750000  0.114300  0.298304  1
  Co  Co15  1  0.750000  0.385700  0.798304  1
  Co  Co16  1  0.250000  0.463713  0.932644  1
  Co  Co17  1  0.250000  0.036287  0.432644  1
  Co  Co18  1  0.750000  0.536287  0.067356  1
  Co  Co19  1  0.750000  0.963713  0.567356  1
  Re  Re20  1  0.250000  0.709961  0.988973  1
  Re  Re21  1  0.250000  0.790039  0.488973  1
  Re  Re22  1  0.750000  0.290039  0.011027  1
  Re  Re23  1  0.750000  0.209961  0.511027  1
  P  P24  1  0.250000  0.420283  0.113673  1
  P  P25  1  0.250000  0.079717  0.613673  1
  P  P26  1  0.750000  0.579717  0.886327  1
  P  P27  1  0.750000  0.920283  0.386327  1
  P  P28  1  0.250000  0.269399  0.865507  1
  P  P29  1  0.250000  0.230601  0.365507  1
  P  P30  1  0.750000  0.730601  0.134493  1
  P  P31  1  0.750000  0.769399  0.634493  1
  P  P32  1  0.250000  0.595923  0.390578  1
  P  P33  1  0.250000  0.904077  0.890578  1
  P  P34  1  0.750000  0.404077  0.609422  1
  P  P35  1  0.750000  0.095923  0.109422  1
