# generated using pymatgen
data_TcI27
_symmetry_space_group_name_H-M   'P 1'
_cell_length_a   12.28936884
_cell_length_b   12.10454280
_cell_length_c   16.49093392
_cell_angle_alpha   127.69428314
_cell_angle_beta   84.16692877
_cell_angle_gamma   110.33848189
_symmetry_Int_Tables_number   1
_chemical_formula_structural   TcI27
_chemical_formula_sum   'Tc1 I27'
_cell_volume   1799.67469887
_cell_formula_units_Z   1
loop_
 _symmetry_equiv_pos_site_id
 _symmetry_equiv_pos_as_xyz
  1  'x, y, z'
loop_
 _atom_site_type_symbol
 _atom_site_label
 _atom_site_symmetry_multiplicity
 _atom_site_fract_x
 _atom_site_fract_y
 _atom_site_fract_z
 _atom_site_occupancy
  Tc  Tc0  1  0.321544  0.872525  0.947304  1
  I  I1  1  0.692184  0.155887  0.103448  1
  I  I2  1  0.363702  0.675384  0.960841  1
  I  I3  1  0.645775  0.347227  0.990623  1
  I  I4  1  0.536486  0.757048  0.383596  1
  I  I5  1  0.455488  0.220167  0.595587  1
  I  I6  1  0.734915  0.732584  0.039283  1
  I  I7  1  0.272881  0.304478  0.997309  1
  I  I8  1  0.703425  0.957603  0.230553  1
  I  I9  1  0.274388  0.009832  0.873374  1
  I  I10  1  0.417476  0.116727  0.135076  1
  I  I11  1  0.533683  0.895198  0.880943  1
  I  I12  1  0.214592  0.640311  0.741222  1
  I  I13  1  0.787350  0.385232  0.326609  1
  I  I14  1  0.106164  0.819803  0.004257  1
  I  I15  1  0.898950  0.120774  0.972774  1
  I  I16  1  0.103304  0.110825  0.219739  1
  I  I17  1  0.901176  0.863556  0.758300  1
  I  I18  1  0.289716  0.919186  0.439630  1
  I  I19  1  0.710147  0.072369  0.524543  1
  I  I20  1  0.334829  0.421879  0.654601  1
  I  I21  1  0.665133  0.584702  0.357964  1
  I  I22  1  0.864285  0.378659  0.664693  1
  I  I23  1  0.138517  0.609672  0.273528  1
  I  I24  1  0.953339  0.645072  0.556988  1
  I  I25  1  0.087997  0.367640  0.410867  1
  I  I26  1  0.241399  0.626163  0.107223  1
  I  I27  1  0.751154  0.389494  0.849123  1
