# generated using pymatgen
data_Rb4Ba(VTe4)2
_symmetry_space_group_name_H-M   'P 1'
_cell_length_a   12.95906386
_cell_length_b   12.95913195
_cell_length_c   12.95914083
_cell_angle_alpha   133.05035724
_cell_angle_beta   127.59252246
_cell_angle_gamma   72.98141369
_symmetry_Int_Tables_number   1
_chemical_formula_structural   Rb4Ba(VTe4)2
_chemical_formula_sum   'Rb8 Ba2 V4 Te16'
_cell_volume   1231.03705454
_cell_formula_units_Z   2
loop_
 _symmetry_equiv_pos_site_id
 _symmetry_equiv_pos_as_xyz
  1  'x, y, z'
loop_
 _atom_site_type_symbol
 _atom_site_label
 _atom_site_symmetry_multiplicity
 _atom_site_fract_x
 _atom_site_fract_y
 _atom_site_fract_z
 _atom_site_occupancy
  Rb  Rb0  1  0.493284  0.243283  0.250000  1
  Rb  Rb1  1  0.006716  0.756716  0.249998  1
  Rb  Rb2  1  0.577105  0.693600  0.116493  1
  Rb  Rb3  1  0.422895  0.306400  0.883507  1
  Rb  Rb4  1  0.506716  0.756717  0.750000  1
  Rb  Rb5  1  0.077105  0.460611  0.383505  1
  Rb  Rb6  1  0.922895  0.539389  0.616495  1
  Rb  Rb7  1  0.993284  0.243284  0.750002  1
  Ba  Ba8  1  0.250000  0.999999  0.249999  1
  Ba  Ba9  1  0.750000  0.000001  0.750001  1
  V  V10  1  0.129356  0.927510  0.798151  1
  V  V11  1  0.870644  0.072490  0.201849  1
  V  V12  1  0.370644  0.668796  0.298154  1
  V  V13  1  0.629356  0.331204  0.701846  1
  Te  Te14  1  0.597196  0.613382  0.375841  1
  Te  Te15  1  0.751677  0.985579  0.233904  1
  Te  Te16  1  0.893984  0.857034  0.963053  1
  Te  Te17  1  0.762456  0.386626  0.983815  1
  Te  Te18  1  0.737545  0.221360  0.124171  1
  Te  Te19  1  0.748323  0.482226  0.733902  1
  Te  Te20  1  0.248323  0.014421  0.766096  1
  Te  Te21  1  0.237544  0.613374  0.016185  1
  Te  Te22  1  0.251677  0.517774  0.266098  1
  Te  Te23  1  0.262455  0.778640  0.875829  1
  Te  Te24  1  0.106016  0.142966  0.036947  1
  Te  Te25  1  0.902803  0.778643  0.516185  1
  Te  Te26  1  0.097197  0.221357  0.483815  1
  Te  Te27  1  0.606016  0.069069  0.463051  1
  Te  Te28  1  0.402804  0.386618  0.624159  1
  Te  Te29  1  0.393984  0.930931  0.536949  1
