# generated using pymatgen
data_Y8SnPd13Pt11
_symmetry_space_group_name_H-M   'P 1'
_cell_length_a   8.42405900
_cell_length_b   8.42649300
_cell_length_c   8.41905700
_cell_angle_alpha   90.00000000
_cell_angle_beta   90.00000000
_cell_angle_gamma   90.00000000
_symmetry_Int_Tables_number   1
_chemical_formula_structural   Y8SnPd13Pt11
_chemical_formula_sum   'Y8 Sn1 Pd13 Pt11'
_cell_volume   597.62906961
_cell_formula_units_Z   1
loop_
 _symmetry_equiv_pos_site_id
 _symmetry_equiv_pos_as_xyz
  1  'x, y, z'
loop_
 _atom_site_type_symbol
 _atom_site_label
 _atom_site_symmetry_multiplicity
 _atom_site_fract_x
 _atom_site_fract_y
 _atom_site_fract_z
 _atom_site_occupancy
  Y  Y0  1  0.252914  0.252587  0.252976  1
  Y  Y1  1  0.747212  0.747945  0.747415  1
  Y  Y2  1  0.747212  0.747945  0.252585  1
  Y  Y3  1  0.747212  0.252055  0.747415  1
  Y  Y4  1  0.252914  0.252587  0.747024  1
  Y  Y5  1  0.252914  0.747413  0.252976  1
  Y  Y6  1  0.252914  0.747413  0.747024  1
  Y  Y7  1  0.747212  0.252055  0.252585  1
  Sn  Sn8  1  0.000470  0.000000  0.000000  1
  Pd  Pd9  1  0.999762  0.500000  0.264192  1
  Pd  Pd10  1  0.999762  0.500000  0.735808  1
  Pd  Pd11  1  0.746441  0.500000  0.500000  1
  Pd  Pd12  1  0.499976  0.254664  0.500000  1
  Pd  Pd13  1  0.499976  0.745336  0.500000  1
  Pd  Pd14  1  0.500019  0.500000  0.254511  1
  Pd  Pd15  1  0.500019  0.500000  0.745489  1
  Pd  Pd16  1  0.308374  0.000000  0.000000  1
  Pd  Pd17  1  0.692222  0.000000  0.000000  1
  Pd  Pd18  1  0.999927  0.308136  0.000000  1
  Pd  Pd19  1  0.999927  0.691864  0.000000  1
  Pd  Pd20  1  0.999963  0.000000  0.308022  1
  Pd  Pd21  1  0.999963  0.000000  0.691978  1
  Pt  Pt22  1  0.263951  0.500000  0.000000  1
  Pt  Pt23  1  0.735703  0.500000  0.000000  1
  Pt  Pt24  1  0.000086  0.264726  0.500000  1
  Pt  Pt25  1  0.500012  0.264494  0.000000  1
  Pt  Pt26  1  0.000086  0.735274  0.500000  1
  Pt  Pt27  1  0.500012  0.735506  0.000000  1
  Pt  Pt28  1  0.499971  0.000000  0.264105  1
  Pt  Pt29  1  0.264334  0.000000  0.500000  1
  Pt  Pt30  1  0.499971  0.000000  0.735895  1
  Pt  Pt31  1  0.735416  0.000000  0.500000  1
  Pt  Pt32  1  0.253152  0.500000  0.500000  1
