# generated using pymatgen
data_La2Th(InIr)3
_symmetry_space_group_name_H-M   'P 1'
_cell_length_a   7.68467578
_cell_length_b   7.68467597
_cell_length_c   4.08933900
_cell_angle_alpha   90.00000000
_cell_angle_beta   90.00000000
_cell_angle_gamma   118.83367521
_symmetry_Int_Tables_number   1
_chemical_formula_structural   La2Th(InIr)3
_chemical_formula_sum   'La2 Th1 In3 Ir3'
_cell_volume   211.55335677
_cell_formula_units_Z   1
loop_
 _symmetry_equiv_pos_site_id
 _symmetry_equiv_pos_as_xyz
  1  'x, y, z'
loop_
 _atom_site_type_symbol
 _atom_site_label
 _atom_site_symmetry_multiplicity
 _atom_site_fract_x
 _atom_site_fract_y
 _atom_site_fract_z
 _atom_site_occupancy
  La  La0  1  0.410499  0.999594  0.000000  1
  La  La1  1  0.999594  0.410499  0.000000  1
  Th  Th2  1  0.586297  0.586297  0.000000  1
  In  In3  1  0.004383  0.749870  0.500000  1
  In  In4  1  0.241950  0.241950  0.500000  1
  In  In5  1  0.749870  0.004383  0.500000  1
  Ir  Ir6  1  0.988819  0.988819  0.000000  1
  Ir  Ir7  1  0.664568  0.354019  0.500000  1
  Ir  Ir8  1  0.354019  0.664568  0.500000  1
