# generated using pymatgen
data_Cu9(AsSe3)4
_symmetry_space_group_name_H-M   'P 1'
_cell_length_a   8.76111089
_cell_length_b   8.73932341
_cell_length_c   8.71882160
_cell_angle_alpha   107.11884536
_cell_angle_beta   107.23759694
_cell_angle_gamma   107.33741146
_symmetry_Int_Tables_number   1
_chemical_formula_structural   Cu9(AsSe3)4
_chemical_formula_sum   'Cu9 As4 Se12'
_cell_volume   552.40936809
_cell_formula_units_Z   1
loop_
 _symmetry_equiv_pos_site_id
 _symmetry_equiv_pos_as_xyz
  1  'x, y, z'
loop_
 _atom_site_type_symbol
 _atom_site_label
 _atom_site_symmetry_multiplicity
 _atom_site_fract_x
 _atom_site_fract_y
 _atom_site_fract_z
 _atom_site_occupancy
  Cu  Cu0  1  0.395244  0.169156  0.458218  1
  Cu  Cu1  1  0.071887  0.219755  0.701156  1
  Cu  Cu2  1  0.219715  0.701068  0.071956  1
  Cu  Cu3  1  0.171219  0.459118  0.396950  1
  Cu  Cu4  1  0.457790  0.395084  0.170221  1
  Cu  Cu5  1  0.701238  0.072387  0.218671  1
  Cu  Cu6  1  0.302436  0.912871  0.764634  1
  Cu  Cu7  1  0.913209  0.765458  0.303059  1
  Cu  Cu8  1  0.764711  0.303634  0.912847  1
  As  As9  1  0.976404  0.977251  0.977041  1
  As  As10  1  0.557689  0.623129  0.838310  1
  As  As11  1  0.623815  0.838394  0.557564  1
  As  As12  1  0.837894  0.557325  0.623037  1
  Se  Se13  1  0.220788  0.135691  0.917966  1
  Se  Se14  1  0.135788  0.917616  0.220946  1
  Se  Se15  1  0.918864  0.222380  0.136266  1
  Se  Se16  1  0.289611  0.359827  0.610359  1
  Se  Se17  1  0.360668  0.610090  0.289443  1
  Se  Se18  1  0.609715  0.288619  0.360324  1
  Se  Se19  1  0.444201  0.823875  0.982236  1
  Se  Se20  1  0.824026  0.982963  0.443730  1
  Se  Se21  1  0.982445  0.444055  0.823825  1
  Se  Se22  1  0.511153  0.055631  0.665489  1
  Se  Se23  1  0.055726  0.665160  0.510855  1
  Se  Se24  1  0.665364  0.511064  0.056497  1
