# generated using pymatgen
data_CeDy7(CdCo)2
_symmetry_space_group_name_H-M   'P 1'
_cell_length_a   9.58483759
_cell_length_b   9.50771253
_cell_length_c   9.50771108
_cell_angle_alpha   59.78390411
_cell_angle_beta   59.73129285
_cell_angle_gamma   59.73129046
_symmetry_Int_Tables_number   1
_chemical_formula_structural   CeDy7(CdCo)2
_chemical_formula_sum   'Ce2 Dy14 Cd4 Co4'
_cell_volume   609.16844502
_cell_formula_units_Z   2
loop_
 _symmetry_equiv_pos_site_id
 _symmetry_equiv_pos_as_xyz
  1  'x, y, z'
loop_
 _atom_site_type_symbol
 _atom_site_label
 _atom_site_symmetry_multiplicity
 _atom_site_fract_x
 _atom_site_fract_y
 _atom_site_fract_z
 _atom_site_occupancy
  Ce  Ce0  1  0.977522  0.337914  0.337914  1
  Ce  Ce1  1  0.346650  0.337914  0.337914  1
  Dy  Dy2  1  0.563418  0.562004  0.938597  1
  Dy  Dy3  1  0.935982  0.562004  0.938597  1
  Dy  Dy4  1  0.562971  0.937029  0.937029  1
  Dy  Dy5  1  0.935982  0.938597  0.562004  1
  Dy  Dy6  1  0.563418  0.938597  0.562004  1
  Dy  Dy7  1  0.939391  0.560609  0.560609  1
  Dy  Dy8  1  0.187394  0.188544  0.813068  1
  Dy  Dy9  1  0.810994  0.188544  0.813068  1
  Dy  Dy10  1  0.185948  0.814052  0.814051  1
  Dy  Dy11  1  0.810994  0.813069  0.188544  1
  Dy  Dy12  1  0.187393  0.813068  0.188543  1
  Dy  Dy13  1  0.811416  0.188584  0.188584  1
  Dy  Dy14  1  0.348749  0.348699  0.953803  1
  Dy  Dy15  1  0.348749  0.953803  0.348699  1
  Cd  Cd16  1  0.581976  0.579344  0.256703  1
  Cd  Cd17  1  0.581976  0.256703  0.579344  1
  Cd  Cd18  1  0.259515  0.579496  0.579496  1
  Cd  Cd19  1  0.581490  0.579496  0.579496  1
  Co  Co20  1  0.139203  0.155092  0.566501  1
  Co  Co21  1  0.139203  0.566501  0.155092  1
  Co  Co22  1  0.568305  0.150169  0.150169  1
  Co  Co23  1  0.131358  0.150169  0.150169  1
