# generated using pymatgen
data_Tb5Ho3(IrO6)4
_symmetry_space_group_name_H-M   'P 1'
_cell_length_a   5.25674409
_cell_length_b   9.12174702
_cell_length_c   9.82510400
_cell_angle_alpha   90.00238059
_cell_angle_beta   90.01039810
_cell_angle_gamma   89.99747451
_symmetry_Int_Tables_number   1
_chemical_formula_structural   Tb5Ho3(IrO6)4
_chemical_formula_sum   'Tb5 Ho3 Ir4 O24'
_cell_volume   471.12050445
_cell_formula_units_Z   1
loop_
 _symmetry_equiv_pos_site_id
 _symmetry_equiv_pos_as_xyz
  1  'x, y, z'
loop_
 _atom_site_type_symbol
 _atom_site_label
 _atom_site_symmetry_multiplicity
 _atom_site_fract_x
 _atom_site_fract_y
 _atom_site_fract_z
 _atom_site_occupancy
  Tb  Tb0  1  0.480551  0.601426  0.533047  1
  Tb  Tb1  1  0.519194  0.102334  0.966835  1
  Tb  Tb2  1  0.542111  0.219161  0.370907  1
  Tb  Tb3  1  0.958283  0.780801  0.871290  1
  Tb  Tb4  1  0.981090  0.898456  0.466499  1
  Ho  Ho5  1  0.019151  0.399124  0.033134  1
  Ho  Ho6  1  0.041521  0.281430  0.629304  1
  Ho  Ho7  1  0.458512  0.718228  0.128992  1
  Ir  Ir8  1  0.043591  0.003239  0.148247  1
  Ir  Ir9  1  0.456715  0.997216  0.648540  1
  Ir  Ir10  1  0.542667  0.495759  0.851875  1
  Ir  Ir11  1  0.957262  0.503583  0.350666  1
  O  O12  1  0.077402  0.654975  0.474604  1
  O  O13  1  0.166069  0.555148  0.199925  1
  O  O14  1  0.190270  0.855306  0.264621  1
  O  O15  1  0.171758  0.865373  0.683065  1
  O  O16  1  0.235005  0.385735  0.430241  1
  O  O17  1  0.250159  0.091334  0.502637  1
  O  O18  1  0.250095  0.909159  0.002498  1
  O  O19  1  0.265002  0.614075  0.930571  1
  O  O20  1  0.328787  0.134321  0.183189  1
  O  O21  1  0.309550  0.144691  0.764953  1
  O  O22  1  0.333892  0.443599  0.701337  1
  O  O23  1  0.417603  0.345010  0.975122  1
  O  O24  1  0.577667  0.845606  0.524738  1
  O  O25  1  0.664439  0.944882  0.798803  1
  O  O26  1  0.687711  0.643319  0.734747  1
  O  O27  1  0.670522  0.634685  0.315509  1
  O  O28  1  0.737197  0.115447  0.571430  1
  O  O29  1  0.753007  0.409810  0.497884  1
  O  O30  1  0.748275  0.588641  0.999113  1
  O  O31  1  0.762888  0.884992  0.071088  1
  O  O32  1  0.830378  0.365030  0.817637  1
  O  O33  1  0.813101  0.356452  0.232865  1
  O  O34  1  0.835679  0.055345  0.298634  1
  O  O35  1  0.922898  0.156307  0.025457  1
