# generated using pymatgen
data_Pr4DyP12Ir11Ru8
_symmetry_space_group_name_H-M   'P 1'
_cell_length_a   12.72136921
_cell_length_b   12.69527966
_cell_length_c   4.01771000
_cell_angle_alpha   90.00000000
_cell_angle_beta   90.00000000
_cell_angle_gamma   120.01222336
_symmetry_Int_Tables_number   1
_chemical_formula_structural   Pr4DyP12Ir11Ru8
_chemical_formula_sum   'Pr4 Dy1 P12 Ir11 Ru8'
_cell_volume   561.86482134
_cell_formula_units_Z   1
loop_
 _symmetry_equiv_pos_site_id
 _symmetry_equiv_pos_as_xyz
  1  'x, y, z'
loop_
 _atom_site_type_symbol
 _atom_site_label
 _atom_site_symmetry_multiplicity
 _atom_site_fract_x
 _atom_site_fract_y
 _atom_site_fract_z
 _atom_site_occupancy
  Pr  Pr0  1  0.667118  0.331749  0.000000  1
  Pr  Pr1  1  0.812772  0.001080  0.500000  1
  Pr  Pr2  1  0.185040  0.186408  0.500000  1
  Pr  Pr3  1  0.998994  0.813421  0.500000  1
  Dy  Dy4  1  0.334609  0.669096  0.000000  1
  P  P5  1  0.630950  0.998959  0.000000  1
  P  P6  1  0.366295  0.365825  0.000000  1
  P  P7  1  0.999805  0.632919  0.000000  1
  P  P8  1  0.689176  0.519193  0.500000  1
  P  P9  1  0.830818  0.306865  0.500000  1
  P  P10  1  0.315902  0.832083  0.500000  1
  P  P11  1  0.518102  0.692511  0.500000  1
  P  P12  1  0.181205  0.999186  0.000000  1
  P  P13  1  0.815935  0.817089  0.000000  1
  P  P14  1  0.998218  0.184640  0.000000  1
  P  P15  1  0.478470  0.166328  0.500000  1
  P  P16  1  0.172539  0.483195  0.500000  1
  Ir  Ir17  1  0.619780  0.799942  0.000000  1
  Ir  Ir18  1  0.184385  0.381442  0.000000  1
  Ir  Ir19  1  0.376898  0.180013  0.000000  1
  Ir  Ir20  1  0.195470  0.817686  0.000000  1
  Ir  Ir21  1  0.802028  0.620633  0.000000  1
  Ir  Ir22  1  0.874059  0.509389  0.500000  1
  Ir  Ir23  1  0.489481  0.361480  0.500000  1
  Ir  Ir24  1  0.636039  0.126417  0.500000  1
  Ir  Ir25  1  0.133902  0.640050  0.500000  1
  Ir  Ir26  1  0.364005  0.494305  0.500000  1
  Ir  Ir27  1  0.998808  0.000152  0.000000  1
  Ru  Ru28  1  0.509557  0.871065  0.500000  1
  Ru  Ru29  1  0.708507  0.708501  0.500000  1
  Ru  Ru30  1  0.003674  0.292660  0.500000  1
  Ru  Ru31  1  0.449435  0.997818  0.000000  1
  Ru  Ru32  1  0.546826  0.545545  0.000000  1
  Ru  Ru33  1  0.003392  0.455037  0.000000  1
  Ru  Ru34  1  0.819668  0.198877  0.000000  1
  Ru  Ru35  1  0.288136  0.998438  0.500000  1
