# generated using pymatgen
data_Y7Hf(Si4Mo3)4
_symmetry_space_group_name_H-M   'P 1'
_cell_length_a   6.75070108
_cell_length_b   6.92286793
_cell_length_c   12.93571400
_cell_angle_alpha   89.85331412
_cell_angle_beta   90.01668768
_cell_angle_gamma   90.14937203
_symmetry_Int_Tables_number   1
_chemical_formula_structural   Y7Hf(Si4Mo3)4
_chemical_formula_sum   'Y7 Hf1 Si16 Mo12'
_cell_volume   604.53634061
_cell_formula_units_Z   1
loop_
 _symmetry_equiv_pos_site_id
 _symmetry_equiv_pos_as_xyz
  1  'x, y, z'
loop_
 _atom_site_type_symbol
 _atom_site_label
 _atom_site_symmetry_multiplicity
 _atom_site_fract_x
 _atom_site_fract_y
 _atom_site_fract_z
 _atom_site_occupancy
  Y  Y0  1  0.997128  0.166380  0.094379  1
  Y  Y1  1  0.003369  0.833156  0.904701  1
  Y  Y2  1  0.503249  0.666288  0.906249  1
  Y  Y3  1  0.004340  0.832657  0.593428  1
  Y  Y4  1  0.497304  0.332506  0.094331  1
  Y  Y5  1  0.997815  0.167939  0.407197  1
  Y  Y6  1  0.497740  0.333694  0.407798  1
  Hf  Hf7  1  0.505072  0.670949  0.598229  1
  Si  Si8  1  0.034493  0.135873  0.748814  1
  Si  Si9  1  0.963474  0.864393  0.250455  1
  Si  Si10  1  0.464275  0.633695  0.249689  1
  Si  Si11  1  0.534799  0.368462  0.747385  1
  Si  Si12  1  0.305288  0.868585  0.748246  1
  Si  Si13  1  0.696220  0.128048  0.251130  1
  Si  Si14  1  0.197416  0.369938  0.250623  1
  Si  Si15  1  0.799779  0.630908  0.748584  1
  Si  Si16  1  0.167932  0.461169  0.546572  1
  Si  Si17  1  0.837687  0.543497  0.455856  1
  Si  Si18  1  0.341408  0.953843  0.455789  1
  Si  Si19  1  0.841598  0.542840  0.047104  1
  Si  Si20  1  0.657698  0.038612  0.546972  1
  Si  Si21  1  0.157403  0.456836  0.952014  1
  Si  Si22  1  0.658029  0.042795  0.951727  1
  Si  Si23  1  0.341414  0.957546  0.047152  1
  Mo  Mo24  1  0.167537  0.504609  0.746707  1
  Mo  Mo25  1  0.834103  0.498569  0.251574  1
  Mo  Mo26  1  0.333457  0.999610  0.250653  1
  Mo  Mo27  1  0.665260  0.995139  0.747291  1
  Mo  Mo28  1  0.331676  0.164297  0.624533  1
  Mo  Mo29  1  0.666024  0.831454  0.377489  1
  Mo  Mo30  1  0.169209  0.664594  0.375696  1
  Mo  Mo31  1  0.667677  0.834280  0.125444  1
  Mo  Mo32  1  0.830276  0.340248  0.624283  1
  Mo  Mo33  1  0.331914  0.166775  0.873120  1
  Mo  Mo34  1  0.829694  0.336503  0.873925  1
  Mo  Mo35  1  0.168241  0.663316  0.124864  1
