# generated using pymatgen
data_Ac4Al3Si
_symmetry_space_group_name_H-M   'P 1'
_cell_length_a   4.31929600
_cell_length_b   4.76507500
_cell_length_c   12.14024000
_cell_angle_alpha   90.00000000
_cell_angle_beta   90.00000000
_cell_angle_gamma   90.00000000
_symmetry_Int_Tables_number   1
_chemical_formula_structural   Ac4Al3Si
_chemical_formula_sum   'Ac4 Al3 Si1'
_cell_volume   249.86761999
_cell_formula_units_Z   1
loop_
 _symmetry_equiv_pos_site_id
 _symmetry_equiv_pos_as_xyz
  1  'x, y, z'
loop_
 _atom_site_type_symbol
 _atom_site_label
 _atom_site_symmetry_multiplicity
 _atom_site_fract_x
 _atom_site_fract_y
 _atom_site_fract_z
 _atom_site_occupancy
  Ac  Ac0  1  0.000000  0.000000  0.146722  1
  Ac  Ac1  1  0.000000  0.500000  0.642336  1
  Ac  Ac2  1  0.500000  0.500000  0.359199  1
  Ac  Ac3  1  0.500000  0.000000  0.855457  1
  Al  Al4  1  0.000000  0.500000  0.936523  1
  Al  Al5  1  0.500000  0.500000  0.064686  1
  Al  Al6  1  0.500000  0.000000  0.559068  1
  Si  Si7  1  0.000000  0.000000  0.436010  1
