# generated using pymatgen
data_La4InSn15Rh8
_symmetry_space_group_name_H-M   'P 1'
_cell_length_a   4.60307200
_cell_length_b   7.20138342
_cell_length_c   18.75921131
_cell_angle_alpha   89.81510151
_cell_angle_beta   90.00000000
_cell_angle_gamma   90.00000000
_symmetry_Int_Tables_number   1
_chemical_formula_structural   La4InSn15Rh8
_chemical_formula_sum   'La4 In1 Sn15 Rh8'
_cell_volume   621.83622242
_cell_formula_units_Z   1
loop_
 _symmetry_equiv_pos_site_id
 _symmetry_equiv_pos_as_xyz
  1  'x, y, z'
loop_
 _atom_site_type_symbol
 _atom_site_label
 _atom_site_symmetry_multiplicity
 _atom_site_fract_x
 _atom_site_fract_y
 _atom_site_fract_z
 _atom_site_occupancy
  La  La0  1  0.250000  0.998151  0.859117  1
  La  La1  1  0.250000  0.499000  0.358388  1
  La  La2  1  0.750000  0.996854  0.140817  1
  La  La3  1  0.750000  0.499952  0.641115  1
  In  In4  1  0.250000  0.305082  0.181222  1
  Sn  Sn5  1  0.250000  0.197199  0.682115  1
  Sn  Sn6  1  0.750000  0.696581  0.818116  1
  Sn  Sn7  1  0.750000  0.805823  0.319010  1
  Sn  Sn8  1  0.250000  0.719569  0.195329  1
  Sn  Sn9  1  0.250000  0.780349  0.694773  1
  Sn  Sn10  1  0.750000  0.279568  0.805209  1
  Sn  Sn11  1  0.750000  0.222058  0.301512  1
  Sn  Sn12  1  0.250000  0.860156  0.031854  1
  Sn  Sn13  1  0.250000  0.637174  0.530490  1
  Sn  Sn14  1  0.750000  0.136005  0.968890  1
  Sn  Sn15  1  0.750000  0.362150  0.468108  1
  Sn  Sn16  1  0.250000  0.519058  0.931675  1
  Sn  Sn17  1  0.250000  0.983315  0.431442  1
  Sn  Sn18  1  0.750000  0.477821  0.070881  1
  Sn  Sn19  1  0.750000  0.018502  0.568233  1
  Rh  Rh20  1  0.250000  0.249162  0.033155  1
  Rh  Rh21  1  0.250000  0.248702  0.534389  1
  Rh  Rh22  1  0.750000  0.745652  0.966594  1
  Rh  Rh23  1  0.750000  0.751437  0.465908  1
  Rh  Rh24  1  0.250000  0.015933  0.286641  1
  Rh  Rh25  1  0.250000  0.483144  0.786323  1
  Rh  Rh26  1  0.750000  0.984294  0.713101  1
  Rh  Rh27  1  0.750000  0.527310  0.215595  1
