# generated using pymatgen
data_EuZr7H30
_symmetry_space_group_name_H-M   'P 1'
_cell_length_a   7.11791918
_cell_length_b   7.11791921
_cell_length_c   7.11791904
_cell_angle_alpha   109.27665539
_cell_angle_beta   109.27665947
_cell_angle_gamma   109.27666137
_symmetry_Int_Tables_number   1
_chemical_formula_structural   EuZr7H30
_chemical_formula_sum   'Eu1 Zr7 H30'
_cell_volume   279.59325918
_cell_formula_units_Z   1
loop_
 _symmetry_equiv_pos_site_id
 _symmetry_equiv_pos_as_xyz
  1  'x, y, z'
loop_
 _atom_site_type_symbol
 _atom_site_label
 _atom_site_symmetry_multiplicity
 _atom_site_fract_x
 _atom_site_fract_y
 _atom_site_fract_z
 _atom_site_occupancy
  Eu  Eu0  1  0.915163  0.915163  0.915163  1
  Zr  Zr1  1  0.502142  0.001989  0.100400  1
  Zr  Zr2  1  0.001989  0.100400  0.502142  1
  Zr  Zr3  1  0.100400  0.502142  0.001989  1
  Zr  Zr4  1  0.999872  0.597953  0.494476  1
  Zr  Zr5  1  0.597953  0.494476  0.999872  1
  Zr  Zr6  1  0.494476  0.999872  0.597953  1
  Zr  Zr7  1  0.411624  0.411624  0.411624  1
  H  H8  1  0.654018  0.973030  0.386377  1
  H  H9  1  0.217005  0.306461  0.846527  1
  H  H10  1  0.191211  0.421723  0.533451  1
  H  H11  1  0.108228  0.300353  0.136151  1
  H  H12  1  0.300353  0.136151  0.108228  1
  H  H13  1  0.136151  0.108228  0.300353  1
  H  H14  1  0.454616  0.151184  0.883787  1
  H  H15  1  0.718833  0.341456  0.813746  1
  H  H16  1  0.635162  0.367694  0.250239  1
  H  H17  1  0.250239  0.635162  0.367694  1
  H  H18  1  0.745001  0.864722  0.138378  1
  H  H19  1  0.138378  0.745001  0.864722  1
  H  H20  1  0.367694  0.250239  0.635162  1
  H  H21  1  0.864722  0.138378  0.745001  1
  H  H22  1  0.767779  0.573127  0.597033  1
  H  H23  1  0.306461  0.846527  0.217005  1
  H  H24  1  0.386377  0.654018  0.973030  1
  H  H25  1  0.973030  0.386377  0.654018  1
  H  H26  1  0.533451  0.191211  0.421723  1
  H  H27  1  0.421723  0.533451  0.191211  1
  H  H28  1  0.846527  0.217005  0.306461  1
  H  H29  1  0.904943  0.662854  0.031290  1
  H  H30  1  0.813746  0.718833  0.341456  1
  H  H31  1  0.151184  0.883787  0.454616  1
  H  H32  1  0.662854  0.031290  0.904943  1
  H  H33  1  0.341456  0.813746  0.718833  1
  H  H34  1  0.883787  0.454616  0.151184  1
  H  H35  1  0.597033  0.767779  0.573127  1
  H  H36  1  0.573127  0.597033  0.767779  1
  H  H37  1  0.031290  0.904943  0.662854  1
