# generated using pymatgen
data_La5Pr2Er3Si8O3
_symmetry_space_group_name_H-M   'P 1'
_cell_length_a   10.72398400
_cell_length_b   10.73994744
_cell_length_c   4.50931200
_cell_angle_alpha   90.00000000
_cell_angle_beta   90.00000000
_cell_angle_gamma   119.95084375
_symmetry_Int_Tables_number   1
_chemical_formula_structural   La5Pr2Er3Si8O3
_chemical_formula_sum   'La5 Pr2 Er3 Si8 O3'
_cell_volume   450.00168160
_cell_formula_units_Z   1
loop_
 _symmetry_equiv_pos_site_id
 _symmetry_equiv_pos_as_xyz
  1  'x, y, z'
loop_
 _atom_site_type_symbol
 _atom_site_label
 _atom_site_symmetry_multiplicity
 _atom_site_fract_x
 _atom_site_fract_y
 _atom_site_fract_z
 _atom_site_occupancy
  La  La0  1  0.788109  0.576219  0.000000  1
  La  La1  1  0.999898  0.999797  0.000000  1
  La  La2  1  0.211986  0.423971  0.000000  1
  La  La3  1  0.423794  0.211648  0.000000  1
  La  La4  1  0.787853  0.211648  0.000000  1
  Pr  Pr5  1  0.211835  0.788687  0.000000  1
  Pr  Pr6  1  0.576853  0.788687  0.000000  1
  Er  Er7  1  0.000511  0.500674  0.500000  1
  Er  Er8  1  0.500163  0.500674  0.500000  1
  Er  Er9  1  0.499489  0.998978  0.500000  1
  Si  Si10  1  0.000081  0.775747  0.500000  1
  Si  Si11  1  0.999852  0.223777  0.500000  1
  Si  Si12  1  0.223924  0.223777  0.500000  1
  Si  Si13  1  0.775618  0.999787  0.500000  1
  Si  Si14  1  0.333507  0.667014  0.500000  1
  Si  Si15  1  0.224170  0.999787  0.500000  1
  Si  Si16  1  0.666629  0.333256  0.500000  1
  Si  Si17  1  0.775666  0.775747  0.500000  1
  O  O18  1  0.000230  0.500127  0.000000  1
  O  O19  1  0.499897  0.500127  0.000000  1
  O  O20  1  0.499936  0.999873  0.000000  1
