# generated using pymatgen
data_ReGeP
_symmetry_space_group_name_H-M   'P 1'
_cell_length_a   4.71393224
_cell_length_b   4.71393175
_cell_length_c   7.60672468
_cell_angle_alpha   60.77427605
_cell_angle_beta   60.77427770
_cell_angle_gamma   39.31714208
_symmetry_Int_Tables_number   1
_chemical_formula_structural   ReGeP
_chemical_formula_sum   'Re2 Ge2 P2'
_cell_volume   91.58037428
_cell_formula_units_Z   2
loop_
 _symmetry_equiv_pos_site_id
 _symmetry_equiv_pos_as_xyz
  1  'x, y, z'
loop_
 _atom_site_type_symbol
 _atom_site_label
 _atom_site_symmetry_multiplicity
 _atom_site_fract_x
 _atom_site_fract_y
 _atom_site_fract_z
 _atom_site_occupancy
  Re  Re0  1  0.168351  0.168351  0.776851  1
  Re  Re1  1  0.831649  0.831649  0.223149  1
  Ge  Ge2  1  0.398276  0.398276  0.891354  1
  Ge  Ge3  1  0.601724  0.601724  0.108646  1
  P  P4  1  0.864809  0.864809  0.523005  1
  P  P5  1  0.135191  0.135191  0.476995  1
