# generated using pymatgen
data_Tb2Ho2Zn4Si3Ge
_symmetry_space_group_name_H-M   'P 1'
_cell_length_a   4.18659100
_cell_length_b   4.18659198
_cell_length_c   15.64282300
_cell_angle_alpha   90.00000000
_cell_angle_beta   90.00000000
_cell_angle_gamma   120.00000019
_symmetry_Int_Tables_number   1
_chemical_formula_structural   Tb2Ho2Zn4Si3Ge
_chemical_formula_sum   'Tb2 Ho2 Zn4 Si3 Ge1'
_cell_volume   237.44713532
_cell_formula_units_Z   1
loop_
 _symmetry_equiv_pos_site_id
 _symmetry_equiv_pos_as_xyz
  1  'x, y, z'
loop_
 _atom_site_type_symbol
 _atom_site_label
 _atom_site_symmetry_multiplicity
 _atom_site_fract_x
 _atom_site_fract_y
 _atom_site_fract_z
 _atom_site_occupancy
  Tb  Tb0  1  0.000000  0.000000  0.001804  1
  Tb  Tb1  1  0.000000  0.000000  0.499667  1
  Ho  Ho2  1  0.000000  0.000000  0.250380  1
  Ho  Ho3  1  0.000000  0.000000  0.747987  1
  Zn  Zn4  1  0.333333  0.666667  0.141725  1
  Zn  Zn5  1  0.666667  0.333333  0.854505  1
  Zn  Zn6  1  0.666667  0.333333  0.639787  1
  Zn  Zn7  1  0.333333  0.666667  0.359313  1
  Si  Si8  1  0.333333  0.666667  0.618335  1
  Si  Si9  1  0.666667  0.333333  0.381780  1
  Si  Si10  1  0.666667  0.333333  0.119286  1
  Ge  Ge11  1  0.333333  0.666667  0.885430  1
