# generated using pymatgen
data_Ga7SnPt12
_symmetry_space_group_name_H-M   'P 1'
_cell_length_a   5.50740501
_cell_length_b   5.50734446
_cell_length_c   13.40871504
_cell_angle_alpha   89.99779196
_cell_angle_beta   89.99356918
_cell_angle_gamma   119.99844367
_symmetry_Int_Tables_number   1
_chemical_formula_structural   Ga7SnPt12
_chemical_formula_sum   'Ga7 Sn1 Pt12'
_cell_volume   352.21987133
_cell_formula_units_Z   1
loop_
 _symmetry_equiv_pos_site_id
 _symmetry_equiv_pos_as_xyz
  1  'x, y, z'
loop_
 _atom_site_type_symbol
 _atom_site_label
 _atom_site_symmetry_multiplicity
 _atom_site_fract_x
 _atom_site_fract_y
 _atom_site_fract_z
 _atom_site_occupancy
  Ga  Ga0  1  0.999952  0.999983  0.245955  1
  Ga  Ga1  1  0.000018  0.000003  0.754286  1
  Ga  Ga2  1  0.333343  0.666676  0.246215  1
  Ga  Ga3  1  0.666674  0.333333  0.752208  1
  Ga  Ga4  1  0.333352  0.666677  0.926895  1
  Ga  Ga5  1  0.333339  0.666664  0.576123  1
  Ga  Ga6  1  0.666679  0.333346  0.073078  1
  Sn  Sn7  1  0.666505  0.333216  0.425598  1
  Pt  Pt8  1  0.165877  0.331654  0.095638  1
  Pt  Pt9  1  0.668377  0.834244  0.095637  1
  Pt  Pt10  1  0.165783  0.834148  0.095635  1
  Pt  Pt11  1  0.668243  0.834101  0.398956  1
  Pt  Pt12  1  0.165886  0.834105  0.398953  1
  Pt  Pt13  1  0.165871  0.331796  0.398950  1
  Pt  Pt14  1  0.833625  0.667751  0.903825  1
  Pt  Pt15  1  0.332266  0.165870  0.903821  1
  Pt  Pt16  1  0.834159  0.166407  0.903827  1
  Pt  Pt17  1  0.329476  0.165202  0.601471  1
  Pt  Pt18  1  0.834822  0.164266  0.601464  1
  Pt  Pt19  1  0.835757  0.670547  0.601468  1
