# generated using pymatgen
data_Ho8Sb(Pd11Pt)2
_symmetry_space_group_name_H-M   'P 1'
_cell_length_a   8.38965111
_cell_length_b   8.38519300
_cell_length_c   8.38965111
_cell_angle_alpha   90.00000000
_cell_angle_beta   90.01815239
_cell_angle_gamma   90.00000000
_symmetry_Int_Tables_number   1
_chemical_formula_structural   Ho8Sb(Pd11Pt)2
_chemical_formula_sum   'Ho8 Sb1 Pd22 Pt2'
_cell_volume   590.20222485
_cell_formula_units_Z   1
loop_
 _symmetry_equiv_pos_site_id
 _symmetry_equiv_pos_as_xyz
  1  'x, y, z'
loop_
 _atom_site_type_symbol
 _atom_site_label
 _atom_site_symmetry_multiplicity
 _atom_site_fract_x
 _atom_site_fract_y
 _atom_site_fract_z
 _atom_site_occupancy
  Ho  Ho0  1  0.745615  0.745607  0.254385  1
  Ho  Ho1  1  0.745353  0.254672  0.745606  1
  Ho  Ho2  1  0.254633  0.745161  0.745367  1
  Ho  Ho3  1  0.745353  0.745328  0.745606  1
  Ho  Ho4  1  0.745615  0.254393  0.254385  1
  Ho  Ho5  1  0.254633  0.254839  0.745367  1
  Ho  Ho6  1  0.254394  0.745328  0.254647  1
  Ho  Ho7  1  0.254394  0.254672  0.254647  1
  Sb  Sb8  1  0.000059  0.000000  0.999941  1
  Pd  Pd9  1  0.999912  0.000000  0.305412  1
  Pd  Pd10  1  0.735631  0.000000  0.499935  1
  Pd  Pd11  1  0.735570  0.500000  0.999994  1
  Pd  Pd12  1  0.500076  0.000000  0.735653  1
  Pd  Pd13  1  0.999992  0.735681  0.499926  1
  Pd  Pd14  1  0.500065  0.000000  0.264369  1
  Pd  Pd15  1  0.999992  0.264319  0.499926  1
  Pd  Pd16  1  0.500074  0.735681  0.000008  1
  Pd  Pd17  1  0.500034  0.500000  0.254371  1
  Pd  Pd18  1  0.500056  0.254325  0.499944  1
  Pd  Pd19  1  0.500056  0.745675  0.499944  1
  Pd  Pd20  1  0.745629  0.500000  0.499966  1
  Pd  Pd21  1  0.305477  0.000000  0.000052  1
  Pd  Pd22  1  0.999948  0.000000  0.694523  1
  Pd  Pd23  1  0.000006  0.500000  0.264430  1
  Pd  Pd24  1  0.999935  0.305369  0.000065  1
  Pd  Pd25  1  0.999935  0.694631  0.000065  1
  Pd  Pd26  1  0.694588  0.000000  0.000088  1
  Pd  Pd27  1  0.264371  0.500000  0.999994  1
  Pd  Pd28  1  0.264347  0.000000  0.499924  1
  Pd  Pd29  1  0.000006  0.500000  0.735629  1
  Pd  Pd30  1  0.500074  0.264319  0.000008  1
  Pt  Pt31  1  0.254182  0.500000  0.500002  1
  Pt  Pt32  1  0.499998  0.500000  0.745818  1
