# generated using pymatgen
data_YbNiO2
_symmetry_space_group_name_H-M   'P 1'
_cell_length_a   5.54212433
_cell_length_b   6.18293267
_cell_length_c   6.96473808
_cell_angle_alpha   100.03665147
_cell_angle_beta   97.64340367
_cell_angle_gamma   107.37786934
_symmetry_Int_Tables_number   1
_chemical_formula_structural   YbNiO2
_chemical_formula_sum   'Yb5 Ni5 O10'
_cell_volume   219.88716701
_cell_formula_units_Z   5
loop_
 _symmetry_equiv_pos_site_id
 _symmetry_equiv_pos_as_xyz
  1  'x, y, z'
loop_
 _atom_site_type_symbol
 _atom_site_label
 _atom_site_symmetry_multiplicity
 _atom_site_fract_x
 _atom_site_fract_y
 _atom_site_fract_z
 _atom_site_occupancy
  Yb  Yb0  1  0.799888  0.100863  0.599546  1
  Yb  Yb1  1  0.600160  0.699122  0.200439  1
  Yb  Yb2  1  0.400110  0.300997  0.799474  1
  Yb  Yb3  1  0.199895  0.899591  0.400216  1
  Yb  Yb4  1  0.999901  0.499569  0.000146  1
  Ni  Ni5  1  0.800280  0.600938  0.600217  1
  Ni  Ni6  1  0.599815  0.199239  0.199631  1
  Ni  Ni7  1  0.400261  0.800640  0.800239  1
  Ni  Ni8  1  0.200043  0.399884  0.399850  1
  Ni  Ni9  1  0.999652  0.999640  0.999977  1
  O  O10  1  0.902951  0.062944  0.290797  1
  O  O11  1  0.897289  0.535532  0.309258  1
  O  O12  1  0.696236  0.136273  0.908981  1
  O  O13  1  0.703394  0.663961  0.891218  1
  O  O14  1  0.502609  0.263880  0.490240  1
  O  O15  1  0.497787  0.736834  0.509728  1
  O  O16  1  0.296606  0.335439  0.108620  1
  O  O17  1  0.103096  0.464719  0.690712  1
  O  O18  1  0.096848  0.937347  0.709535  1
  O  O19  1  0.303179  0.862591  0.091180  1
