# generated using pymatgen
data_Ba4TbYU2O12
_symmetry_space_group_name_H-M   'P 1'
_cell_length_a   6.20524607
_cell_length_b   6.22643560
_cell_length_c   8.75518451
_cell_angle_alpha   90.11176236
_cell_angle_beta   89.95525041
_cell_angle_gamma   89.98950397
_symmetry_Int_Tables_number   1
_chemical_formula_structural   Ba4TbYU2O12
_chemical_formula_sum   'Ba4 Tb1 Y1 U2 O12'
_cell_volume   338.26950330
_cell_formula_units_Z   1
loop_
 _symmetry_equiv_pos_site_id
 _symmetry_equiv_pos_as_xyz
  1  'x, y, z'
loop_
 _atom_site_type_symbol
 _atom_site_label
 _atom_site_symmetry_multiplicity
 _atom_site_fract_x
 _atom_site_fract_y
 _atom_site_fract_z
 _atom_site_occupancy
  Ba  Ba0  1  0.013775  0.993899  0.750536  1
  Ba  Ba1  1  0.485766  0.493141  0.249393  1
  Ba  Ba2  1  0.514234  0.506859  0.750607  1
  Ba  Ba3  1  0.986226  0.006101  0.249464  1
  Tb  Tb4  1  0.500000  0.000000  0.500000  1
  Y  Y5  1  0.000000  0.500000  0.000000  1
  U  U6  1  0.000000  0.500000  0.500000  1
  U  U7  1  0.500000  0.000000  0.000000  1
  O  O8  1  0.239970  0.226976  0.037959  1
  O  O9  1  0.509553  0.930300  0.242488  1
  O  O10  1  0.739074  0.274780  0.460831  1
  O  O11  1  0.727656  0.258559  0.036493  1
  O  O12  1  0.774172  0.759763  0.538012  1
  O  O13  1  0.009819  0.570229  0.257248  1
  O  O14  1  0.225828  0.240237  0.461988  1
  O  O15  1  0.272344  0.741441  0.963507  1
  O  O16  1  0.260926  0.725220  0.539169  1
  O  O17  1  0.490447  0.069700  0.757512  1
  O  O18  1  0.760030  0.773024  0.962041  1
  O  O19  1  0.990181  0.429771  0.742752  1
