# generated using pymatgen
data_Ho2Lu3Ru2
_symmetry_space_group_name_H-M   'P 1'
_cell_length_a   6.22050855
_cell_length_b   7.21420353
_cell_length_c   8.35563837
_cell_angle_alpha   97.06816927
_cell_angle_beta   111.85346840
_cell_angle_gamma   89.99999371
_symmetry_Int_Tables_number   1
_chemical_formula_structural   Ho2Lu3Ru2
_chemical_formula_sum   'Ho4 Lu6 Ru4'
_cell_volume   344.95003566
_cell_formula_units_Z   2
loop_
 _symmetry_equiv_pos_site_id
 _symmetry_equiv_pos_as_xyz
  1  'x, y, z'
loop_
 _atom_site_type_symbol
 _atom_site_label
 _atom_site_symmetry_multiplicity
 _atom_site_fract_x
 _atom_site_fract_y
 _atom_site_fract_z
 _atom_site_occupancy
  Ho  Ho0  1  0.522413  0.082646  0.811147  1
  Ho  Ho1  1  0.477587  0.917354  0.188853  1
  Ho  Ho2  1  0.711266  0.417354  0.188853  1
  Ho  Ho3  1  0.288734  0.582646  0.811147  1
  Lu  Lu4  1  0.299662  0.313867  0.433682  1
  Lu  Lu5  1  0.700338  0.686133  0.566318  1
  Lu  Lu6  1  0.865981  0.186133  0.566318  1
  Lu  Lu7  1  0.134019  0.813867  0.433682  1
  Lu  Lu8  1  0.080076  0.250000  0.000000  1
  Lu  Lu9  1  0.919924  0.750000  0.000000  1
  Ru  Ru10  1  0.318366  0.576214  0.221840  1
  Ru  Ru11  1  0.681634  0.423786  0.778160  1
  Ru  Ru12  1  0.096527  0.923786  0.778160  1
  Ru  Ru13  1  0.903473  0.076214  0.221840  1
