# generated using pymatgen
data_Fe5Tc4(WI8)3
_symmetry_space_group_name_H-M   'P 1'
_cell_length_a   10.63759597
_cell_length_b   10.63759763
_cell_length_c   12.54720800
_cell_angle_alpha   89.81414491
_cell_angle_beta   89.81413950
_cell_angle_gamma   108.01584850
_symmetry_Int_Tables_number   1
_chemical_formula_structural   Fe5Tc4(WI8)3
_chemical_formula_sum   'Fe5 Tc4 W3 I24'
_cell_volume   1350.18974796
_cell_formula_units_Z   1
loop_
 _symmetry_equiv_pos_site_id
 _symmetry_equiv_pos_as_xyz
  1  'x, y, z'
loop_
 _atom_site_type_symbol
 _atom_site_label
 _atom_site_symmetry_multiplicity
 _atom_site_fract_x
 _atom_site_fract_y
 _atom_site_fract_z
 _atom_site_occupancy
  Fe  Fe0  1  0.435275  0.435275  0.369396  1
  Fe  Fe1  1  0.564143  0.564143  0.628825  1
  Fe  Fe2  1  0.070442  0.070442  0.880040  1
  Fe  Fe3  1  0.940684  0.940684  0.126104  1
  Fe  Fe4  1  0.136342  0.136342  0.070201  1
  Tc  Tc5  1  0.887796  0.111647  0.999194  1
  Tc  Tc6  1  0.111647  0.887796  0.999194  1
  Tc  Tc7  1  0.611373  0.388360  0.500002  1
  Tc  Tc8  1  0.388360  0.611373  0.500002  1
  W  W9  1  0.870858  0.870858  0.934457  1
  W  W10  1  0.367155  0.367155  0.564312  1
  W  W11  1  0.632369  0.632369  0.434697  1
  I  I12  1  0.723064  0.273005  0.998929  1
  I  I13  1  0.273005  0.723064  0.998929  1
  I  I14  1  0.773935  0.225470  0.501494  1
  I  I15  1  0.225470  0.773935  0.501494  1
  I  I16  1  0.947071  0.181574  0.206977  1
  I  I17  1  0.045027  0.812968  0.791015  1
  I  I18  1  0.543398  0.312585  0.707649  1
  I  I19  1  0.691150  0.456828  0.293589  1
  I  I20  1  0.456828  0.691150  0.293589  1
  I  I21  1  0.312585  0.543398  0.707649  1
  I  I22  1  0.812968  0.045027  0.791015  1
  I  I23  1  0.181574  0.947071  0.206977  1
  I  I24  1  0.348883  0.348883  0.159454  1
  I  I25  1  0.656010  0.656010  0.844261  1
  I  I26  1  0.159639  0.159639  0.651731  1
  I  I27  1  0.840106  0.840106  0.347974  1
  I  I28  1  0.905778  0.673333  0.066220  1
  I  I29  1  0.089945  0.323796  0.929331  1
  I  I30  1  0.590304  0.823507  0.570012  1
  I  I31  1  0.176236  0.409942  0.429862  1
  I  I32  1  0.409942  0.176236  0.429862  1
  I  I33  1  0.823507  0.590304  0.570012  1
  I  I34  1  0.323796  0.089945  0.929331  1
  I  I35  1  0.673333  0.905778  0.066220  1
