# generated using pymatgen
data_Np2Pb2F11
_symmetry_space_group_name_H-M   'P 1'
_cell_length_a   6.31518161
_cell_length_b   6.39310385
_cell_length_c   8.88998400
_cell_angle_alpha   111.89847745
_cell_angle_beta   96.20519692
_cell_angle_gamma   107.65597792
_symmetry_Int_Tables_number   1
_chemical_formula_structural   Np2Pb2F11
_chemical_formula_sum   'Np2 Pb2 F11'
_cell_volume   307.24318867
_cell_formula_units_Z   1
loop_
 _symmetry_equiv_pos_site_id
 _symmetry_equiv_pos_as_xyz
  1  'x, y, z'
loop_
 _atom_site_type_symbol
 _atom_site_label
 _atom_site_symmetry_multiplicity
 _atom_site_fract_x
 _atom_site_fract_y
 _atom_site_fract_z
 _atom_site_occupancy
  Np  Np0  1  0.503021  0.738724  0.234624  1
  Np  Np1  1  0.496979  0.261276  0.765376  1
  Pb  Pb2  1  0.000000  0.000000  0.000000  1
  Pb  Pb3  1  0.000000  0.500000  0.500000  1
  F  F4  1  0.262296  0.863237  0.125499  1
  F  F5  1  0.334921  0.339187  0.000667  1
  F  F6  1  0.665079  0.660813  0.999333  1
  F  F7  1  0.794357  0.523614  0.721058  1
  F  F8  1  0.805183  0.078973  0.268500  1
  F  F9  1  0.194817  0.921027  0.731500  1
  F  F10  1  0.737704  0.136763  0.874501  1
  F  F11  1  0.205643  0.476386  0.278942  1
  F  F12  1  0.745931  0.628980  0.354564  1
  F  F13  1  0.254069  0.371020  0.645436  1
  F  F14  1  0.500000  0.000000  0.500000  1
