# generated using pymatgen
data_Fe5Co3Si4(Mo6C)2
_symmetry_space_group_name_H-M   'P 1'
_cell_length_a   7.76240085
_cell_length_b   7.76240049
_cell_length_c   7.74574996
_cell_angle_alpha   59.92886105
_cell_angle_beta   59.92886292
_cell_angle_gamma   59.99999520
_symmetry_Int_Tables_number   1
_chemical_formula_structural   Fe5Co3Si4(Mo6C)2
_chemical_formula_sum   'Fe5 Co3 Si4 Mo12 C2'
_cell_volume   329.66493701
_cell_formula_units_Z   1
loop_
 _symmetry_equiv_pos_site_id
 _symmetry_equiv_pos_as_xyz
  1  'x, y, z'
loop_
 _atom_site_type_symbol
 _atom_site_label
 _atom_site_symmetry_multiplicity
 _atom_site_fract_x
 _atom_site_fract_y
 _atom_site_fract_z
 _atom_site_occupancy
  Fe  Fe0  1  0.418156  0.418156  0.745535  1
  Fe  Fe1  1  0.419211  0.744118  0.417462  1
  Fe  Fe2  1  0.744118  0.419211  0.417462  1
  Fe  Fe3  1  0.419211  0.419211  0.417462  1
  Fe  Fe4  1  0.832736  0.832736  0.501791  1
  Co  Co5  1  0.832364  0.504515  0.830755  1
  Co  Co6  1  0.504515  0.832364  0.830755  1
  Co  Co7  1  0.832364  0.832364  0.830755  1
  Si  Si8  1  0.628302  0.628302  0.115094  1
  Si  Si9  1  0.626084  0.118441  0.629392  1
  Si  Si10  1  0.118441  0.626084  0.629392  1
  Si  Si11  1  0.626084  0.626084  0.629392  1
  Mo  Mo12  1  0.053860  0.053860  0.446799  1
  Mo  Mo13  1  0.445481  0.053860  0.446799  1
  Mo  Mo14  1  0.053860  0.445481  0.446799  1
  Mo  Mo15  1  0.445374  0.445374  0.055233  1
  Mo  Mo16  1  0.054019  0.445374  0.055233  1
  Mo  Mo17  1  0.445374  0.054019  0.055233  1
  Mo  Mo18  1  0.195808  0.195808  0.803737  1
  Mo  Mo19  1  0.804648  0.195808  0.803737  1
  Mo  Mo20  1  0.195808  0.804648  0.803737  1
  Mo  Mo21  1  0.803900  0.803900  0.196316  1
  Mo  Mo22  1  0.195885  0.803900  0.196316  1
  Mo  Mo23  1  0.803900  0.195885  0.196316  1
  C  C24  1  0.249843  0.249843  0.250470  1
  C  C25  1  0.000657  0.000657  0.998030  1
