# generated using pymatgen
data_Er6Ti2Fe(Co5P4)3
_symmetry_space_group_name_H-M   'P 1'
_cell_length_a   3.68744100
_cell_length_b   10.59061000
_cell_length_c   12.21064900
_cell_angle_alpha   90.00000000
_cell_angle_beta   90.00000000
_cell_angle_gamma   90.00000000
_symmetry_Int_Tables_number   1
_chemical_formula_structural   Er6Ti2Fe(Co5P4)3
_chemical_formula_sum   'Er6 Ti2 Fe1 Co15 P12'
_cell_volume   476.85331166
_cell_formula_units_Z   1
loop_
 _symmetry_equiv_pos_site_id
 _symmetry_equiv_pos_as_xyz
  1  'x, y, z'
loop_
 _atom_site_type_symbol
 _atom_site_label
 _atom_site_symmetry_multiplicity
 _atom_site_fract_x
 _atom_site_fract_y
 _atom_site_fract_z
 _atom_site_occupancy
  Er  Er0  1  0.750000  0.250000  0.474797  1
  Er  Er1  1  0.250000  0.750000  0.525080  1
  Er  Er2  1  0.250000  0.929950  0.795937  1
  Er  Er3  1  0.250000  0.570050  0.795937  1
  Er  Er4  1  0.750000  0.071449  0.203876  1
  Er  Er5  1  0.750000  0.428551  0.203876  1
  Ti  Ti6  1  0.250000  0.250000  0.847208  1
  Ti  Ti7  1  0.750000  0.750000  0.153756  1
  Fe  Fe8  1  0.750000  0.250000  0.012650  1
  Co  Co9  1  0.250000  0.250000  0.297848  1
  Co  Co10  1  0.750000  0.750000  0.702231  1
  Co  Co11  1  0.250000  0.750000  0.986985  1
  Co  Co12  1  0.250000  0.420444  0.005513  1
  Co  Co13  1  0.250000  0.079556  0.005513  1
  Co  Co14  1  0.750000  0.583127  0.993838  1
  Co  Co15  1  0.750000  0.916873  0.993838  1
  Co  Co16  1  0.250000  0.454057  0.567824  1
  Co  Co17  1  0.250000  0.045943  0.567824  1
  Co  Co18  1  0.750000  0.545859  0.431681  1
  Co  Co19  1  0.750000  0.954141  0.431681  1
  Co  Co20  1  0.250000  0.871499  0.294587  1
  Co  Co21  1  0.250000  0.628501  0.294587  1
  Co  Co22  1  0.750000  0.127942  0.705706  1
  Co  Co23  1  0.750000  0.372058  0.705706  1
  P  P24  1  0.250000  0.250000  0.114816  1
  P  P25  1  0.750000  0.750000  0.882636  1
  P  P26  1  0.250000  0.250000  0.646671  1
  P  P27  1  0.750000  0.750000  0.353793  1
  P  P28  1  0.250000  0.439361  0.383520  1
  P  P29  1  0.250000  0.060639  0.383520  1
  P  P30  1  0.750000  0.560631  0.616241  1
  P  P31  1  0.750000  0.939369  0.616241  1
  P  P32  1  0.250000  0.907303  0.108495  1
  P  P33  1  0.250000  0.592697  0.108495  1
  P  P34  1  0.750000  0.093206  0.893546  1
  P  P35  1  0.750000  0.406794  0.893546  1
