# generated using pymatgen
data_Dy4TmLu7Co5Bi
_symmetry_space_group_name_H-M   'P 1'
_cell_length_a   8.17754993
_cell_length_b   8.17754939
_cell_length_c   8.17583621
_cell_angle_alpha   111.35849554
_cell_angle_beta   110.63227515
_cell_angle_gamma   106.47392340
_symmetry_Int_Tables_number   1
_chemical_formula_structural   Dy4TmLu7Co5Bi
_chemical_formula_sum   'Dy4 Tm1 Lu7 Co5 Bi1'
_cell_volume   419.95337527
_cell_formula_units_Z   1
loop_
 _symmetry_equiv_pos_site_id
 _symmetry_equiv_pos_as_xyz
  1  'x, y, z'
loop_
 _atom_site_type_symbol
 _atom_site_label
 _atom_site_symmetry_multiplicity
 _atom_site_fract_x
 _atom_site_fract_y
 _atom_site_fract_z
 _atom_site_occupancy
  Dy  Dy0  1  0.592381  0.789130  0.803511  1
  Dy  Dy1  1  0.407411  0.210766  0.196520  1
  Dy  Dy2  1  0.985754  0.789109  0.196520  1
  Dy  Dy3  1  0.014381  0.211130  0.803511  1
  Tm  Tm4  1  0.818266  0.713096  0.531362  1
  Lu  Lu5  1  0.181495  0.286900  0.468395  1
  Lu  Lu6  1  0.181708  0.713125  0.894832  1
  Lu  Lu7  1  0.818470  0.286831  0.105302  1
  Lu  Lu8  1  0.687246  0.377903  0.690755  1
  Lu  Lu9  1  0.312567  0.621993  0.309262  1
  Lu  Lu10  1  0.687269  0.996696  0.309262  1
  Lu  Lu11  1  0.312851  0.003508  0.690755  1
  Co  Co12  1  0.624299  0.000115  0.624414  1
  Co  Co13  1  0.375654  0.999989  0.375644  1
  Co  Co14  1  0.112255  0.611976  0.499925  1
  Co  Co15  1  0.887950  0.387670  0.499925  1
  Co  Co16  1  0.000037  0.000065  0.000102  1
  Bi  Bi17  1  0.500005  0.499999  0.000003  1
