# generated using pymatgen
data_Tm5Bi3Se
_symmetry_space_group_name_H-M   'P 1'
_cell_length_a   9.11342600
_cell_length_b   9.11342563
_cell_length_c   6.59621500
_cell_angle_alpha   90.00000000
_cell_angle_beta   90.00000000
_cell_angle_gamma   120.00000136
_symmetry_Int_Tables_number   1
_chemical_formula_structural   Tm5Bi3Se
_chemical_formula_sum   'Tm10 Bi6 Se2'
_cell_volume   474.44814586
_cell_formula_units_Z   2
loop_
 _symmetry_equiv_pos_site_id
 _symmetry_equiv_pos_as_xyz
  1  'x, y, z'
loop_
 _atom_site_type_symbol
 _atom_site_label
 _atom_site_symmetry_multiplicity
 _atom_site_fract_x
 _atom_site_fract_y
 _atom_site_fract_z
 _atom_site_occupancy
  Tm  Tm0  1  0.744982  0.744982  0.750000  1
  Tm  Tm1  1  0.255018  0.000000  0.750000  1
  Tm  Tm2  1  0.000000  0.255018  0.750000  1
  Tm  Tm3  1  0.255018  0.255018  0.250000  1
  Tm  Tm4  1  0.744982  0.000000  0.250000  1
  Tm  Tm5  1  0.000000  0.744982  0.250000  1
  Tm  Tm6  1  0.666667  0.333333  0.000000  1
  Tm  Tm7  1  0.333333  0.666667  0.000000  1
  Tm  Tm8  1  0.333333  0.666667  0.500000  1
  Tm  Tm9  1  0.666667  0.333333  0.500000  1
  Bi  Bi10  1  0.395661  0.395661  0.750000  1
  Bi  Bi11  1  0.604339  0.000000  0.750000  1
  Bi  Bi12  1  0.000000  0.604339  0.750000  1
  Bi  Bi13  1  0.604339  0.604339  0.250000  1
  Bi  Bi14  1  0.395661  0.000000  0.250000  1
  Bi  Bi15  1  0.000000  0.395661  0.250000  1
  Se  Se16  1  0.000000  0.000000  0.000000  1
  Se  Se17  1  0.000000  0.000000  0.500000  1
