# generated using pymatgen
data_La3Tc4(P2O)2
_symmetry_space_group_name_H-M   'P 1'
_cell_length_a   4.16768225
_cell_length_b   4.16768169
_cell_length_c   13.71795614
_cell_angle_alpha   98.73740800
_cell_angle_beta   98.73740867
_cell_angle_gamma   90.00000674
_symmetry_Int_Tables_number   1
_chemical_formula_structural   La3Tc4(P2O)2
_chemical_formula_sum   'La3 Tc4 P4 O2'
_cell_volume   232.71178186
_cell_formula_units_Z   1
loop_
 _symmetry_equiv_pos_site_id
 _symmetry_equiv_pos_as_xyz
  1  'x, y, z'
loop_
 _atom_site_type_symbol
 _atom_site_label
 _atom_site_symmetry_multiplicity
 _atom_site_fract_x
 _atom_site_fract_y
 _atom_site_fract_z
 _atom_site_occupancy
  La  La0  1  0.000000  0.000000  0.000000  1
  La  La1  1  0.705824  0.705824  0.411646  1
  La  La2  1  0.294176  0.294176  0.588354  1
  Tc  Tc3  1  0.592954  0.092954  0.185907  1
  Tc  Tc4  1  0.092954  0.592954  0.185907  1
  Tc  Tc5  1  0.907047  0.407046  0.814093  1
  Tc  Tc6  1  0.407046  0.907047  0.814093  1
  P  P7  1  0.550870  0.550870  0.101737  1
  P  P8  1  0.133919  0.133919  0.267838  1
  P  P9  1  0.866082  0.866082  0.732161  1
  P  P10  1  0.449131  0.449131  0.898264  1
  O  O11  1  0.750001  0.250000  0.500000  1
  O  O12  1  0.250000  0.750001  0.500000  1
