# generated using pymatgen
data_Eu2AlMoO6
_symmetry_space_group_name_H-M   'P 1'
_cell_length_a   5.51564111
_cell_length_b   5.60722900
_cell_length_c   7.80470745
_cell_angle_alpha   90.00000000
_cell_angle_beta   90.14567609
_cell_angle_gamma   90.00000000
_symmetry_Int_Tables_number   1
_chemical_formula_structural   Eu2AlMoO6
_chemical_formula_sum   'Eu4 Al2 Mo2 O12'
_cell_volume   241.37901886
_cell_formula_units_Z   2
loop_
 _symmetry_equiv_pos_site_id
 _symmetry_equiv_pos_as_xyz
  1  'x, y, z'
loop_
 _atom_site_type_symbol
 _atom_site_label
 _atom_site_symmetry_multiplicity
 _atom_site_fract_x
 _atom_site_fract_y
 _atom_site_fract_z
 _atom_site_occupancy
  Eu  Eu0  1  0.505480  0.532791  0.249034  1
  Eu  Eu1  1  0.994520  0.032791  0.250966  1
  Eu  Eu2  1  0.494520  0.467209  0.750966  1
  Eu  Eu3  1  0.005480  0.967209  0.749034  1
  Al  Al4  1  0.000000  0.500000  0.000000  1
  Al  Al5  1  0.500000  0.000000  0.500000  1
  Mo  Mo6  1  0.000000  0.500000  0.500000  1
  Mo  Mo7  1  0.500000  0.000000  0.000000  1
  O  O8  1  0.431945  0.982712  0.257454  1
  O  O9  1  0.068055  0.482712  0.242546  1
  O  O10  1  0.568055  0.017288  0.742546  1
  O  O11  1  0.931945  0.517288  0.757454  1
  O  O12  1  0.795247  0.783561  0.035069  1
  O  O13  1  0.704753  0.283561  0.464931  1
  O  O14  1  0.222216  0.197397  0.534876  1
  O  O15  1  0.277784  0.697397  0.965124  1
  O  O16  1  0.204753  0.216439  0.964931  1
  O  O17  1  0.295247  0.716439  0.535069  1
  O  O18  1  0.777784  0.802603  0.465124  1
  O  O19  1  0.722216  0.302603  0.034876  1
