# generated using pymatgen
data_La2DyIn3CuRh2
_symmetry_space_group_name_H-M   'P 1'
_cell_length_a   7.65235074
_cell_length_b   7.65234944
_cell_length_c   4.06467600
_cell_angle_alpha   90.00000000
_cell_angle_beta   90.00000000
_cell_angle_gamma   120.51319259
_symmetry_Int_Tables_number   1
_chemical_formula_structural   La2DyIn3CuRh2
_chemical_formula_sum   'La2 Dy1 In3 Cu1 Rh2'
_cell_volume   205.05816361
_cell_formula_units_Z   1
loop_
 _symmetry_equiv_pos_site_id
 _symmetry_equiv_pos_as_xyz
  1  'x, y, z'
loop_
 _atom_site_type_symbol
 _atom_site_label
 _atom_site_symmetry_multiplicity
 _atom_site_fract_x
 _atom_site_fract_y
 _atom_site_fract_z
 _atom_site_occupancy
  La  La0  1  0.416304  0.000582  0.500000  1
  La  La1  1  0.000582  0.416304  0.500000  1
  Dy  Dy2  1  0.587831  0.587831  0.500000  1
  In  In3  1  0.752030  0.993307  0.000000  1
  In  In4  1  0.993307  0.752030  0.000000  1
  In  In5  1  0.252882  0.252882  0.000000  1
  Cu  Cu6  1  0.996959  0.996959  0.500000  1
  Rh  Rh7  1  0.334682  0.665424  0.000000  1
  Rh  Rh8  1  0.665424  0.334682  0.000000  1
