# generated using pymatgen
data_Er4ReSi4Os
_symmetry_space_group_name_H-M   'P 1'
_cell_length_a   5.73990958
_cell_length_b   5.73990881
_cell_length_c   9.93707250
_cell_angle_alpha   116.43381057
_cell_angle_beta   116.43380834
_cell_angle_gamma   42.92095859
_symmetry_Int_Tables_number   1
_chemical_formula_structural   Er4ReSi4Os
_chemical_formula_sum   'Er4 Re1 Si4 Os1'
_cell_volume   195.79120921
_cell_formula_units_Z   1
loop_
 _symmetry_equiv_pos_site_id
 _symmetry_equiv_pos_as_xyz
  1  'x, y, z'
loop_
 _atom_site_type_symbol
 _atom_site_label
 _atom_site_symmetry_multiplicity
 _atom_site_fract_x
 _atom_site_fract_y
 _atom_site_fract_z
 _atom_site_occupancy
  Er  Er0  1  0.186469  0.186469  0.113066  1
  Er  Er1  1  0.990309  0.990309  0.320029  1
  Er  Er2  1  0.007767  0.007767  0.679128  1
  Er  Er3  1  0.814975  0.814975  0.888908  1
  Re  Re4  1  0.270962  0.270962  0.628799  1
  Si  Si5  1  0.498586  0.498586  0.125390  1
  Si  Si6  1  0.358389  0.358389  0.438889  1
  Si  Si7  1  0.639324  0.639324  0.556901  1
  Si  Si8  1  0.503174  0.503174  0.877471  1
  Os  Os9  1  0.730043  0.730043  0.371418  1
