# generated using pymatgen
data_Ho19Mg(IrAu)6
_symmetry_space_group_name_H-M   'P 1'
_cell_length_a   11.17406520
_cell_length_b   11.13995196
_cell_length_c   6.27140276
_cell_angle_alpha   90.22263524
_cell_angle_beta   89.66214220
_cell_angle_gamma   89.92843142
_symmetry_Int_Tables_number   1
_chemical_formula_structural   Ho19Mg(IrAu)6
_chemical_formula_sum   'Ho19 Mg1 Ir6 Au6'
_cell_volume   780.63502259
_cell_formula_units_Z   1
loop_
 _symmetry_equiv_pos_site_id
 _symmetry_equiv_pos_as_xyz
  1  'x, y, z'
loop_
 _atom_site_type_symbol
 _atom_site_label
 _atom_site_symmetry_multiplicity
 _atom_site_fract_x
 _atom_site_fract_y
 _atom_site_fract_z
 _atom_site_occupancy
  Ho  Ho0  1  0.295660  0.088354  0.367263  1
  Ho  Ho1  1  0.299053  0.907425  0.866221  1
  Ho  Ho2  1  0.698308  0.084542  0.861205  1
  Ho  Ho3  1  0.703181  0.919554  0.362764  1
  Ho  Ho4  1  0.577609  0.791240  0.861621  1
  Ho  Ho5  1  0.572710  0.209409  0.361322  1
  Ho  Ho6  1  0.412590  0.794037  0.374402  1
  Ho  Ho7  1  0.407984  0.206875  0.875582  1
  Ho  Ho8  1  0.211027  0.420531  0.629062  1
  Ho  Ho9  1  0.212674  0.584714  0.125892  1
  Ho  Ho10  1  0.799760  0.412714  0.135971  1
  Ho  Ho11  1  0.799421  0.581282  0.636613  1
  Ho  Ho12  1  0.919268  0.700362  0.137800  1
  Ho  Ho13  1  0.922649  0.294107  0.637061  1
  Ho  Ho14  1  0.092274  0.703980  0.635045  1
  Ho  Ho15  1  0.097222  0.300764  0.136693  1
  Ho  Ho16  1  0.998690  0.000862  0.999874  1
  Ho  Ho17  1  0.493068  0.497524  0.998682  1
  Ho  Ho18  1  0.489708  0.502982  0.498460  1
  Mg  Mg19  1  0.998964  0.999369  0.499917  1
  Ir  Ir20  1  0.345777  0.345470  0.252485  1
  Ir  Ir21  1  0.345826  0.654313  0.748177  1
  Ir  Ir22  1  0.499531  0.998937  0.113823  1
  Ir  Ir23  1  0.499375  0.000576  0.613242  1
  Ir  Ir24  1  0.000590  0.500002  0.887072  1
  Ir  Ir25  1  0.000558  0.499382  0.387141  1
  Au  Au26  1  0.843072  0.152611  0.258170  1
  Au  Au27  1  0.846505  0.845144  0.743494  1
  Au  Au28  1  0.152264  0.153716  0.745407  1
  Au  Au29  1  0.152288  0.848115  0.254583  1
  Au  Au30  1  0.657032  0.346287  0.743612  1
  Au  Au31  1  0.655362  0.654821  0.251346  1
