# generated using pymatgen
data_SrLiDy5Rh17
_symmetry_space_group_name_H-M   'P 1'
_cell_length_a   5.26405400
_cell_length_b   5.26405307
_cell_length_c   17.42075000
_cell_angle_alpha   90.00000000
_cell_angle_beta   90.00000000
_cell_angle_gamma   119.99999325
_symmetry_Int_Tables_number   1
_chemical_formula_structural   SrLiDy5Rh17
_chemical_formula_sum   'Sr1 Li1 Dy5 Rh17'
_cell_volume   418.05950766
_cell_formula_units_Z   1
loop_
 _symmetry_equiv_pos_site_id
 _symmetry_equiv_pos_as_xyz
  1  'x, y, z'
loop_
 _atom_site_type_symbol
 _atom_site_label
 _atom_site_symmetry_multiplicity
 _atom_site_fract_x
 _atom_site_fract_y
 _atom_site_fract_z
 _atom_site_occupancy
  Sr  Sr0  1  0.666667  0.333333  0.250000  1
  Li  Li1  1  0.000000  0.000000  0.250000  1
  Dy  Dy2  1  0.333333  0.666667  0.538809  1
  Dy  Dy3  1  0.666667  0.333333  0.042047  1
  Dy  Dy4  1  0.666667  0.333333  0.457953  1
  Dy  Dy5  1  0.333333  0.666667  0.961191  1
  Dy  Dy6  1  0.333333  0.666667  0.750000  1
  Rh  Rh7  1  0.167459  0.334915  0.124028  1
  Rh  Rh8  1  0.832542  0.665081  0.625700  1
  Rh  Rh9  1  0.665085  0.832541  0.124028  1
  Rh  Rh10  1  0.167459  0.832541  0.124028  1
  Rh  Rh11  1  0.832542  0.167458  0.625700  1
  Rh  Rh12  1  0.334919  0.167458  0.625700  1
  Rh  Rh13  1  0.832542  0.665081  0.874300  1
  Rh  Rh14  1  0.832542  0.167458  0.874300  1
  Rh  Rh15  1  0.334919  0.167458  0.874300  1
  Rh  Rh16  1  0.665085  0.832541  0.375972  1
  Rh  Rh17  1  0.167459  0.832541  0.375972  1
  Rh  Rh18  1  0.167459  0.334915  0.375972  1
  Rh  Rh19  1  0.000000  0.000000  0.750000  1
  Rh  Rh20  1  0.333333  0.666667  0.250000  1
  Rh  Rh21  1  0.666667  0.333333  0.750000  1
  Rh  Rh22  1  0.000000  0.000000  0.000515  1
  Rh  Rh23  1  0.000000  0.000000  0.499485  1
