# generated using pymatgen
data_Tb3Er2Tm3In3Co
_symmetry_space_group_name_H-M   'P 1'
_cell_length_a   10.29266200
_cell_length_b   10.29299781
_cell_length_c   7.00611000
_cell_angle_alpha   90.00000000
_cell_angle_beta   90.00000000
_cell_angle_gamma   119.99938309
_symmetry_Int_Tables_number   1
_chemical_formula_structural   Tb3Er2Tm3In3Co
_chemical_formula_sum   'Tb6 Er4 Tm6 In6 Co2'
_cell_volume   642.80593051
_cell_formula_units_Z   2
loop_
 _symmetry_equiv_pos_site_id
 _symmetry_equiv_pos_as_xyz
  1  'x, y, z'
loop_
 _atom_site_type_symbol
 _atom_site_label
 _atom_site_symmetry_multiplicity
 _atom_site_fract_x
 _atom_site_fract_y
 _atom_site_fract_z
 _atom_site_occupancy
  Tb  Tb0  1  0.534563  0.069108  0.790567  1
  Tb  Tb1  1  0.930893  0.465445  0.790577  1
  Tb  Tb2  1  0.534553  0.465438  0.790585  1
  Tb  Tb3  1  0.465437  0.930892  0.290567  1
  Tb  Tb4  1  0.069107  0.534555  0.290577  1
  Tb  Tb5  1  0.465447  0.534562  0.290585  1
  Er  Er6  1  0.666677  0.333356  0.184587  1
  Er  Er7  1  0.333323  0.666644  0.684587  1
  Er  Er8  1  0.000013  0.000045  0.779599  1
  Er  Er9  1  0.999987  0.999955  0.279599  1
  Tm  Tm10  1  0.821857  0.643719  0.498442  1
  Tm  Tm11  1  0.356284  0.178134  0.498454  1
  Tm  Tm12  1  0.821862  0.178150  0.498444  1
  Tm  Tm13  1  0.178143  0.356281  0.998442  1
  Tm  Tm14  1  0.643716  0.821866  0.998454  1
  Tm  Tm15  1  0.178138  0.821850  0.998444  1
  In  In16  1  0.837483  0.674972  0.040332  1
  In  In17  1  0.325025  0.162509  0.040327  1
  In  In18  1  0.837490  0.162518  0.040328  1
  In  In19  1  0.162517  0.325028  0.540332  1
  In  In20  1  0.674975  0.837491  0.540327  1
  In  In21  1  0.162510  0.837482  0.540328  1
  Co  Co22  1  0.666673  0.333341  0.565711  1
  Co  Co23  1  0.333327  0.666659  0.065711  1
