# generated using pymatgen
data_Th8Si12Tc3Ge
_symmetry_space_group_name_H-M   'P 1'
_cell_length_a   8.34254400
_cell_length_b   8.34254433
_cell_length_c   8.28251200
_cell_angle_alpha   90.00000000
_cell_angle_beta   90.00000000
_cell_angle_gamma   119.99999074
_symmetry_Int_Tables_number   1
_chemical_formula_structural   Th8Si12Tc3Ge
_chemical_formula_sum   'Th8 Si12 Tc3 Ge1'
_cell_volume   499.21747021
_cell_formula_units_Z   1
loop_
 _symmetry_equiv_pos_site_id
 _symmetry_equiv_pos_as_xyz
  1  'x, y, z'
loop_
 _atom_site_type_symbol
 _atom_site_label
 _atom_site_symmetry_multiplicity
 _atom_site_fract_x
 _atom_site_fract_y
 _atom_site_fract_z
 _atom_site_occupancy
  Th  Th0  1  0.497014  0.502986  0.752763  1
  Th  Th1  1  0.497277  0.502723  0.247197  1
  Th  Th2  1  0.005973  0.502986  0.752763  1
  Th  Th3  1  0.005446  0.502723  0.247197  1
  Th  Th4  1  0.497014  0.994027  0.752763  1
  Th  Th5  1  0.497277  0.994554  0.247197  1
  Th  Th6  1  0.000000  0.000000  0.746873  1
  Th  Th7  1  0.000000  0.000000  0.253145  1
  Si  Si8  1  0.833790  0.166210  0.999772  1
  Si  Si9  1  0.165211  0.834789  0.000191  1
  Si  Si10  1  0.332420  0.166210  0.999772  1
  Si  Si11  1  0.165871  0.834129  0.499803  1
  Si  Si12  1  0.669578  0.834789  0.000191  1
  Si  Si13  1  0.836958  0.163042  0.500147  1
  Si  Si14  1  0.833790  0.667580  0.999772  1
  Si  Si15  1  0.668256  0.834129  0.499803  1
  Si  Si16  1  0.165211  0.330422  0.000191  1
  Si  Si17  1  0.326086  0.163042  0.500147  1
  Si  Si18  1  0.165871  0.331744  0.499803  1
  Si  Si19  1  0.836958  0.673914  0.500147  1
  Tc  Tc20  1  0.666667  0.333333  0.000027  1
  Tc  Tc21  1  0.333333  0.666667  0.000206  1
  Tc  Tc22  1  0.333333  0.666667  0.499755  1
  Ge  Ge23  1  0.666667  0.333333  0.500373  1
