# generated using pymatgen
data_Lu2Al(ZnCu2)3
_symmetry_space_group_name_H-M   'P 1'
_cell_length_a   5.10436200
_cell_length_b   5.10436199
_cell_length_c   8.26435800
_cell_angle_alpha   90.00000000
_cell_angle_beta   90.00000000
_cell_angle_gamma   119.18596799
_symmetry_Int_Tables_number   1
_chemical_formula_structural   Lu2Al(ZnCu2)3
_chemical_formula_sum   'Lu2 Al1 Zn3 Cu6'
_cell_volume   187.98662805
_cell_formula_units_Z   1
loop_
 _symmetry_equiv_pos_site_id
 _symmetry_equiv_pos_as_xyz
  1  'x, y, z'
loop_
 _atom_site_type_symbol
 _atom_site_label
 _atom_site_symmetry_multiplicity
 _atom_site_fract_x
 _atom_site_fract_y
 _atom_site_fract_z
 _atom_site_occupancy
  Lu  Lu0  1  0.000000  0.000000  0.734968  1
  Lu  Lu1  1  0.000000  0.000000  0.265032  1
  Al  Al2  1  0.500000  0.500000  0.500000  1
  Zn  Zn3  1  0.500000  0.500000  0.000000  1
  Zn  Zn4  1  0.000000  0.500000  0.000000  1
  Zn  Zn5  1  0.500000  0.000000  0.000000  1
  Cu  Cu6  1  0.666340  0.333660  0.747701  1
  Cu  Cu7  1  0.666340  0.333660  0.252299  1
  Cu  Cu8  1  0.333660  0.666340  0.747701  1
  Cu  Cu9  1  0.500000  0.000000  0.500000  1
  Cu  Cu10  1  0.333660  0.666340  0.252299  1
  Cu  Cu11  1  0.000000  0.500000  0.500000  1
