# generated using pymatgen
data_Nb4CoRh3S16
_symmetry_space_group_name_H-M   'P 1'
_cell_length_a   3.43973000
_cell_length_b   11.33662700
_cell_length_c   12.64036300
_cell_angle_alpha   90.00139997
_cell_angle_beta   90.00000000
_cell_angle_gamma   90.00000000
_symmetry_Int_Tables_number   1
_chemical_formula_structural   Nb4CoRh3S16
_chemical_formula_sum   'Nb4 Co1 Rh3 S16'
_cell_volume   492.91014608
_cell_formula_units_Z   1
loop_
 _symmetry_equiv_pos_site_id
 _symmetry_equiv_pos_as_xyz
  1  'x, y, z'
loop_
 _atom_site_type_symbol
 _atom_site_label
 _atom_site_symmetry_multiplicity
 _atom_site_fract_x
 _atom_site_fract_y
 _atom_site_fract_z
 _atom_site_occupancy
  Nb  Nb0  1  0.000000  0.046659  0.998542  1
  Nb  Nb1  1  0.500000  0.955077  0.499304  1
  Nb  Nb2  1  0.000000  0.263088  0.495160  1
  Nb  Nb3  1  0.500000  0.735996  0.995884  1
  Co  Co4  1  0.500000  0.254825  0.994244  1
  Rh  Rh5  1  0.000000  0.523945  0.998066  1
  Rh  Rh6  1  0.500000  0.472195  0.498593  1
  Rh  Rh7  1  0.000000  0.746402  0.494463  1
  S  S8  1  0.500000  0.111783  0.123737  1
  S  S9  1  0.000000  0.897232  0.628155  1
  S  S10  1  0.500000  0.155519  0.601878  1
  S  S11  1  0.000000  0.844997  0.101806  1
  S  S12  1  0.500000  0.319981  0.366170  1
  S  S13  1  0.000000  0.678970  0.866971  1
  S  S14  1  0.500000  0.427143  0.903395  1
  S  S15  1  0.000000  0.564881  0.399277  1
  S  S16  1  0.000000  0.062856  0.393377  1
  S  S17  1  0.500000  0.938625  0.893810  1
  S  S18  1  0.000000  0.201955  0.878009  1
  S  S19  1  0.500000  0.805964  0.370316  1
  S  S20  1  0.000000  0.339812  0.085791  1
  S  S21  1  0.500000  0.653545  0.593496  1
  S  S22  1  0.000000  0.413523  0.623026  1
  S  S23  1  0.500000  0.585027  0.122646  1
