# generated using pymatgen
data_Sc2Fe8Co2Ni2P7
_symmetry_space_group_name_H-M   'P 1'
_cell_length_a   8.87050919
_cell_length_b   8.92011307
_cell_length_c   3.57472700
_cell_angle_alpha   90.00000000
_cell_angle_beta   90.00000000
_cell_angle_gamma   119.59844859
_symmetry_Int_Tables_number   1
_chemical_formula_structural   Sc2Fe8Co2Ni2P7
_chemical_formula_sum   'Sc2 Fe8 Co2 Ni2 P7'
_cell_volume   245.94359901
_cell_formula_units_Z   1
loop_
 _symmetry_equiv_pos_site_id
 _symmetry_equiv_pos_as_xyz
  1  'x, y, z'
loop_
 _atom_site_type_symbol
 _atom_site_label
 _atom_site_symmetry_multiplicity
 _atom_site_fract_x
 _atom_site_fract_y
 _atom_site_fract_z
 _atom_site_occupancy
  Sc  Sc0  1  0.671290  0.339315  0.500000  1
  Sc  Sc1  1  0.330054  0.662584  0.000000  1
  Fe  Fe2  1  0.219311  0.095380  0.500000  1
  Fe  Fe3  1  0.873069  0.774359  0.500000  1
  Fe  Fe4  1  0.899476  0.128796  0.500000  1
  Fe  Fe5  1  0.721365  0.880142  0.000000  1
  Fe  Fe6  1  0.119458  0.841205  0.000000  1
  Fe  Fe7  1  0.156174  0.273370  0.000000  1
  Fe  Fe8  1  0.942712  0.375497  0.000000  1
  Fe  Fe9  1  0.627677  0.568737  0.000000  1
  Co  Co10  1  0.384576  0.437540  0.500000  1
  Co  Co11  1  0.053043  0.613581  0.500000  1
  Ni  Ni12  1  0.439461  0.064588  0.000000  1
  Ni  Ni13  1  0.559352  0.945639  0.500000  1
  P  P14  1  0.997274  0.997834  0.000000  1
  P  P15  1  0.415439  0.300614  0.000000  1
  P  P16  1  0.595202  0.707999  0.500000  1
  P  P17  1  0.281998  0.877579  0.500000  1
  P  P18  1  0.115802  0.403470  0.500000  1
  P  P19  1  0.714275  0.123225  0.000000  1
  P  P20  1  0.882990  0.588542  0.000000  1
