# generated using pymatgen
data_Ba8Te3WO20
_symmetry_space_group_name_H-M   'P 1'
_cell_length_a   5.84185400
_cell_length_b   7.56278952
_cell_length_c   11.72728537
_cell_angle_alpha   89.74718152
_cell_angle_beta   90.00007832
_cell_angle_gamma   90.00000009
_symmetry_Int_Tables_number   1
_chemical_formula_structural   Ba8Te3WO20
_chemical_formula_sum   'Ba8 Te3 W1 O20'
_cell_volume   518.11477577
_cell_formula_units_Z   1
loop_
 _symmetry_equiv_pos_site_id
 _symmetry_equiv_pos_as_xyz
  1  'x, y, z'
loop_
 _atom_site_type_symbol
 _atom_site_label
 _atom_site_symmetry_multiplicity
 _atom_site_fract_x
 _atom_site_fract_y
 _atom_site_fract_z
 _atom_site_occupancy
  Ba  Ba0  1  0.750000  0.164666  0.580298  1
  Ba  Ba1  1  0.249999  0.832060  0.417104  1
  Ba  Ba2  1  0.750001  0.678748  0.918830  1
  Ba  Ba3  1  0.250000  0.334747  0.083612  1
  Ba  Ba4  1  0.250001  0.018059  0.781002  1
  Ba  Ba5  1  0.750001  0.977248  0.216071  1
  Ba  Ba6  1  0.250000  0.525261  0.715810  1
  Ba  Ba7  1  0.750000  0.479512  0.281911  1
  Te  Te8  1  0.249999  0.325522  0.436548  1
  Te  Te9  1  0.749999  0.673108  0.564591  1
  Te  Te10  1  0.250000  0.829260  0.062429  1
  W  W11  1  0.750000  0.179275  0.934433  1
  O  O12  1  0.493719  0.675972  0.113008  1
  O  O13  1  0.989112  0.323945  0.885624  1
  O  O14  1  0.005590  0.176204  0.386957  1
  O  O15  1  0.504929  0.822310  0.614874  1
  O  O16  1  0.510887  0.323943  0.885623  1
  O  O17  1  0.006281  0.675972  0.113008  1
  O  O18  1  0.995070  0.822309  0.614874  1
  O  O19  1  0.494409  0.176203  0.386957  1
  O  O20  1  0.750000  0.269493  0.091121  1
  O  O21  1  0.250000  0.721456  0.909454  1
  O  O22  1  0.750000  0.777982  0.412296  1
  O  O23  1  0.250000  0.223568  0.590244  1
  O  O24  1  0.999877  0.499977  0.500337  1
  O  O25  1  0.500124  0.499977  0.500337  1
  O  O26  1  0.494549  0.997980  0.998829  1
  O  O27  1  0.005453  0.997981  0.998830  1
  O  O28  1  0.250000  0.471976  0.303802  1
  O  O29  1  0.750000  0.526525  0.697530  1
  O  O30  1  0.250001  0.970908  0.197133  1
  O  O31  1  0.750001  0.027854  0.806523  1
