# generated using pymatgen
data_Li4Dy3Y5(ScSi2)8
_symmetry_space_group_name_H-M   'P 1'
_cell_length_a   6.90429904
_cell_length_b   7.41218300
_cell_length_c   14.08332209
_cell_angle_alpha   90.00007519
_cell_angle_beta   90.01298662
_cell_angle_gamma   90.00126454
_symmetry_Int_Tables_number   1
_chemical_formula_structural   Li4Dy3Y5(ScSi2)8
_chemical_formula_sum   'Li4 Dy3 Y5 Sc8 Si16'
_cell_volume   720.72705875
_cell_formula_units_Z   1
loop_
 _symmetry_equiv_pos_site_id
 _symmetry_equiv_pos_as_xyz
  1  'x, y, z'
loop_
 _atom_site_type_symbol
 _atom_site_label
 _atom_site_symmetry_multiplicity
 _atom_site_fract_x
 _atom_site_fract_y
 _atom_site_fract_z
 _atom_site_occupancy
  Li  Li0  1  0.159083  0.505233  0.749999  1
  Li  Li1  1  0.840891  0.494746  0.250000  1
  Li  Li2  1  0.340878  0.005250  0.250004  1
  Li  Li3  1  0.659105  0.994743  0.750001  1
  Dy  Dy4  1  0.013739  0.181982  0.400774  1
  Dy  Dy5  1  0.513739  0.318066  0.400804  1
  Dy  Dy6  1  0.486294  0.681900  0.599241  1
  Y  Y7  1  0.013613  0.181700  0.099201  1
  Y  Y8  1  0.986329  0.818277  0.900799  1
  Y  Y9  1  0.486357  0.681710  0.900782  1
  Y  Y10  1  0.986365  0.818197  0.599170  1
  Y  Y11  1  0.513646  0.318280  0.099200  1
  Sc  Sc12  1  0.330355  0.179470  0.626418  1
  Sc  Sc13  1  0.669798  0.820708  0.373580  1
  Sc  Sc14  1  0.169815  0.679273  0.373569  1
  Sc  Sc15  1  0.669783  0.820578  0.126462  1
  Sc  Sc16  1  0.830143  0.320641  0.626418  1
  Sc  Sc17  1  0.330286  0.179415  0.873480  1
  Sc  Sc18  1  0.830296  0.320600  0.873472  1
  Sc  Sc19  1  0.169771  0.679414  0.126446  1
  Si  Si20  1  0.031594  0.104730  0.750045  1
  Si  Si21  1  0.968473  0.895454  0.250060  1
  Si  Si22  1  0.468466  0.604577  0.250052  1
  Si  Si23  1  0.531537  0.395480  0.749942  1
  Si  Si24  1  0.282157  0.881893  0.749836  1
  Si  Si25  1  0.718012  0.118084  0.250256  1
  Si  Si26  1  0.218029  0.381880  0.250258  1
  Si  Si27  1  0.781718  0.617861  0.749942  1
  Si  Si28  1  0.158271  0.462878  0.535211  1
  Si  Si29  1  0.841751  0.536710  0.464680  1
  Si  Si30  1  0.341918  0.963198  0.464716  1
  Si  Si31  1  0.842027  0.537083  0.035269  1
  Si  Si32  1  0.657812  0.037059  0.535183  1
  Si  Si33  1  0.157959  0.462912  0.964730  1
  Si  Si34  1  0.657967  0.037111  0.964735  1
  Si  Si35  1  0.342025  0.962907  0.035267  1
