# generated using pymatgen
data_TbLu5TcTe2
_symmetry_space_group_name_H-M   'P 1'
_cell_length_a   8.21899200
_cell_length_b   8.13369482
_cell_length_c   4.06558200
_cell_angle_alpha   90.00000000
_cell_angle_beta   90.00000000
_cell_angle_gamma   120.34750602
_symmetry_Int_Tables_number   1
_chemical_formula_structural   TbLu5TcTe2
_chemical_formula_sum   'Tb1 Lu5 Tc1 Te2'
_cell_volume   234.54616853
_cell_formula_units_Z   1
loop_
 _symmetry_equiv_pos_site_id
 _symmetry_equiv_pos_as_xyz
  1  'x, y, z'
loop_
 _atom_site_type_symbol
 _atom_site_label
 _atom_site_symmetry_multiplicity
 _atom_site_fract_x
 _atom_site_fract_y
 _atom_site_fract_z
 _atom_site_occupancy
  Tb  Tb0  1  0.391324  0.000000  0.500000  1
  Lu  Lu1  1  0.000094  0.386849  0.500000  1
  Lu  Lu2  1  0.613245  0.613151  0.500000  1
  Lu  Lu3  1  0.998568  0.763121  0.000000  1
  Lu  Lu4  1  0.235448  0.236879  0.000000  1
  Lu  Lu5  1  0.764139  0.000000  0.000000  1
  Tc  Tc6  1  0.995383  0.000000  0.500000  1
  Te  Te7  1  0.333886  0.665974  0.000000  1
  Te  Te8  1  0.667913  0.334026  0.000000  1
