# generated using pymatgen
data_Tm4Lu8In2Fe3
_symmetry_space_group_name_H-M   'P 1'
_cell_length_a   8.19181525
_cell_length_b   8.19181562
_cell_length_c   8.19181602
_cell_angle_alpha   108.47871981
_cell_angle_beta   108.47871981
_cell_angle_gamma   111.47499526
_symmetry_Int_Tables_number   1
_chemical_formula_structural   Tm4Lu8In2Fe3
_chemical_formula_sum   'Tm4 Lu8 In2 Fe3'
_cell_volume   422.78396110
_cell_formula_units_Z   1
loop_
 _symmetry_equiv_pos_site_id
 _symmetry_equiv_pos_as_xyz
  1  'x, y, z'
loop_
 _atom_site_type_symbol
 _atom_site_label
 _atom_site_symmetry_multiplicity
 _atom_site_fract_x
 _atom_site_fract_y
 _atom_site_fract_z
 _atom_site_occupancy
  Tm  Tm0  1  0.306945  0.306945  0.613891  1
  Tm  Tm1  1  0.693055  0.693055  0.386109  1
  Tm  Tm2  1  0.693055  0.306945  0.000000  1
  Tm  Tm3  1  0.306945  0.693055  0.000000  1
  Lu  Lu4  1  0.190971  0.426866  0.235895  1
  Lu  Lu5  1  0.809029  0.573134  0.764105  1
  Lu  Lu6  1  0.190971  0.955075  0.764105  1
  Lu  Lu7  1  0.955075  0.190971  0.764105  1
  Lu  Lu8  1  0.809029  0.044925  0.235895  1
  Lu  Lu9  1  0.044925  0.809029  0.235895  1
  Lu  Lu10  1  0.426866  0.190971  0.235895  1
  Lu  Lu11  1  0.573134  0.809029  0.764105  1
  In  In12  1  0.000000  0.500000  0.500000  1
  In  In13  1  0.500000  0.000000  0.500000  1
  Fe  Fe14  1  0.383343  0.383343  0.000000  1
  Fe  Fe15  1  0.616657  0.616657  0.000000  1
  Fe  Fe16  1  0.000000  0.000000  0.000000  1
