# generated using pymatgen
data_Gd2Dy3Bi3O14
_symmetry_space_group_name_H-M   'P 1'
_cell_length_a   6.62260017
_cell_length_b   6.66526918
_cell_length_c   7.79979000
_cell_angle_alpha   106.75719342
_cell_angle_beta   89.66951748
_cell_angle_gamma   98.66681452
_symmetry_Int_Tables_number   1
_chemical_formula_structural   Gd2Dy3Bi3O14
_chemical_formula_sum   'Gd2 Dy3 Bi3 O14'
_cell_volume   325.65067072
_cell_formula_units_Z   1
loop_
 _symmetry_equiv_pos_site_id
 _symmetry_equiv_pos_as_xyz
  1  'x, y, z'
loop_
 _atom_site_type_symbol
 _atom_site_label
 _atom_site_symmetry_multiplicity
 _atom_site_fract_x
 _atom_site_fract_y
 _atom_site_fract_z
 _atom_site_occupancy
  Gd  Gd0  1  0.738509  0.460661  0.113030  1
  Gd  Gd1  1  0.743748  0.481206  0.620043  1
  Dy  Dy2  1  0.460449  0.007619  0.253814  1
  Dy  Dy3  1  0.537135  0.999305  0.750495  1
  Dy  Dy4  1  0.271153  0.535069  0.882825  1
  Bi  Bi5  1  0.994461  0.000673  0.501058  1
  Bi  Bi6  1  0.000269  0.995863  0.996935  1
  Bi  Bi7  1  0.282006  0.534293  0.388464  1
  O  O8  1  0.448166  0.653799  0.166573  1
  O  O9  1  0.552044  0.352108  0.835382  1
  O  O10  1  0.303017  0.920784  0.951600  1
  O  O11  1  0.699062  0.072977  0.050435  1
  O  O12  1  0.298167  0.932095  0.516331  1
  O  O13  1  0.698005  0.082365  0.490982  1
  O  O14  1  0.547286  0.361243  0.343420  1
  O  O15  1  0.458809  0.641861  0.658692  1
  O  O16  1  0.929804  0.660950  0.947395  1
  O  O17  1  0.071862  0.323504  0.026037  1
  O  O18  1  0.069837  0.338841  0.629943  1
  O  O19  1  0.906489  0.665750  0.381618  1
  O  O20  1  0.870269  0.903912  0.726391  1
  O  O21  1  0.119451  0.075123  0.268540  1
