# generated using pymatgen
data_LiDyHgPt3
_symmetry_space_group_name_H-M   'P 1'
_cell_length_a   5.17813427
_cell_length_b   5.17813368
_cell_length_c   5.17813346
_cell_angle_alpha   63.74843921
_cell_angle_beta   63.74843327
_cell_angle_gamma   63.74843412
_symmetry_Int_Tables_number   1
_chemical_formula_structural   LiDyHgPt3
_chemical_formula_sum   'Li1 Dy1 Hg1 Pt3'
_cell_volume   106.29744270
_cell_formula_units_Z   1
loop_
 _symmetry_equiv_pos_site_id
 _symmetry_equiv_pos_as_xyz
  1  'x, y, z'
loop_
 _atom_site_type_symbol
 _atom_site_label
 _atom_site_symmetry_multiplicity
 _atom_site_fract_x
 _atom_site_fract_y
 _atom_site_fract_z
 _atom_site_occupancy
  Li  Li0  1  0.628041  0.628041  0.628041  1
  Dy  Dy1  1  0.245344  0.245344  0.245344  1
  Hg  Hg2  1  0.997685  0.997685  0.997685  1
  Pt  Pt3  1  0.626125  0.626125  0.126680  1
  Pt  Pt4  1  0.626125  0.126680  0.626125  1
  Pt  Pt5  1  0.126680  0.626125  0.626125  1
