# generated using pymatgen
data_Dy6Er(LuPb2)3
_symmetry_space_group_name_H-M   'P 1'
_cell_length_a   6.54333200
_cell_length_b   9.02083610
_cell_length_c   9.02041900
_cell_angle_alpha   120.00160334
_cell_angle_beta   90.00015743
_cell_angle_gamma   89.99895254
_symmetry_Int_Tables_number   1
_chemical_formula_structural   Dy6Er(LuPb2)3
_chemical_formula_sum   'Dy6 Er1 Lu3 Pb6'
_cell_volume   461.10101103
_cell_formula_units_Z   1
loop_
 _symmetry_equiv_pos_site_id
 _symmetry_equiv_pos_as_xyz
  1  'x, y, z'
loop_
 _atom_site_type_symbol
 _atom_site_label
 _atom_site_symmetry_multiplicity
 _atom_site_fract_x
 _atom_site_fract_y
 _atom_site_fract_z
 _atom_site_occupancy
  Dy  Dy0  1  0.750068  0.237781  0.000063  1
  Dy  Dy1  1  0.750084  0.762319  0.762228  1
  Dy  Dy2  1  0.750069  0.999960  0.237716  1
  Dy  Dy3  1  0.249925  0.762285  0.000060  1
  Dy  Dy4  1  0.249936  0.237743  0.237718  1
  Dy  Dy5  1  0.249928  0.999915  0.762233  1
  Er  Er6  1  0.500005  0.333336  0.666670  1
  Lu  Lu7  1  0.500002  0.666635  0.333316  1
  Lu  Lu8  1  0.999998  0.666682  0.333312  1
  Lu  Lu9  1  0.000001  0.333365  0.666690  1
  Pb  Pb10  1  0.750165  0.604132  0.000210  1
  Pb  Pb11  1  0.750184  0.396120  0.395958  1
  Pb  Pb12  1  0.750178  0.999747  0.603834  1
  Pb  Pb13  1  0.249807  0.396074  0.000209  1
  Pb  Pb14  1  0.249824  0.604082  0.603837  1
  Pb  Pb15  1  0.249827  0.999826  0.395947  1
