# generated using pymatgen
data_BaGaSn2Au
_symmetry_space_group_name_H-M   'P 1'
_cell_length_a   6.74444078
_cell_length_b   6.74444009
_cell_length_c   6.74444081
_cell_angle_alpha   138.16826830
_cell_angle_beta   138.16826713
_cell_angle_gamma   60.64538888
_symmetry_Int_Tables_number   1
_chemical_formula_structural   BaGaSn2Au
_chemical_formula_sum   'Ba1 Ga1 Sn2 Au1'
_cell_volume   135.00050254
_cell_formula_units_Z   1
loop_
 _symmetry_equiv_pos_site_id
 _symmetry_equiv_pos_as_xyz
  1  'x, y, z'
loop_
 _atom_site_type_symbol
 _atom_site_label
 _atom_site_symmetry_multiplicity
 _atom_site_fract_x
 _atom_site_fract_y
 _atom_site_fract_z
 _atom_site_occupancy
  Ba  Ba0  1  0.994359  0.994359  0.000000  1
  Ga  Ga1  1  0.600590  0.600590  0.000000  1
  Sn  Sn2  1  0.742840  0.242840  0.500000  1
  Sn  Sn3  1  0.242840  0.742840  0.500000  1
  Au  Au4  1  0.377260  0.377260  0.000000  1
