# generated using pymatgen
data_LiTb8AlPd23
_symmetry_space_group_name_H-M   'P 1'
_cell_length_a   8.34006700
_cell_length_b   8.35338800
_cell_length_c   8.40994100
_cell_angle_alpha   90.00000000
_cell_angle_beta   90.00000000
_cell_angle_gamma   90.00000000
_symmetry_Int_Tables_number   1
_chemical_formula_structural   LiTb8AlPd23
_chemical_formula_sum   'Li1 Tb8 Al1 Pd23'
_cell_volume   585.90221877
_cell_formula_units_Z   1
loop_
 _symmetry_equiv_pos_site_id
 _symmetry_equiv_pos_as_xyz
  1  'x, y, z'
loop_
 _atom_site_type_symbol
 _atom_site_label
 _atom_site_symmetry_multiplicity
 _atom_site_fract_x
 _atom_site_fract_y
 _atom_site_fract_z
 _atom_site_occupancy
  Li  Li0  1  0.266198  0.500000  0.000000  1
  Tb  Tb1  1  0.251967  0.246902  0.258511  1
  Tb  Tb2  1  0.747565  0.747302  0.749191  1
  Tb  Tb3  1  0.747565  0.747302  0.250809  1
  Tb  Tb4  1  0.747565  0.252698  0.749191  1
  Tb  Tb5  1  0.251967  0.246902  0.741489  1
  Tb  Tb6  1  0.251967  0.753098  0.258511  1
  Tb  Tb7  1  0.251967  0.753098  0.741489  1
  Tb  Tb8  1  0.747565  0.252698  0.250809  1
  Al  Al9  1  0.997315  0.000000  0.000000  1
  Pd  Pd10  1  0.741481  0.500000  0.000000  1
  Pd  Pd11  1  0.998651  0.259649  0.500000  1
  Pd  Pd12  1  0.493739  0.264317  0.000000  1
  Pd  Pd13  1  0.998651  0.740351  0.500000  1
  Pd  Pd14  1  0.493739  0.735683  0.000000  1
  Pd  Pd15  1  0.500616  0.000000  0.260198  1
  Pd  Pd16  1  0.258871  0.000000  0.500000  1
  Pd  Pd17  1  0.500616  0.000000  0.739802  1
  Pd  Pd18  1  0.740109  0.000000  0.500000  1
  Pd  Pd19  1  0.002712  0.500000  0.261498  1
  Pd  Pd20  1  0.002712  0.500000  0.738502  1
  Pd  Pd21  1  0.252749  0.500000  0.500000  1
  Pd  Pd22  1  0.747418  0.500000  0.500000  1
  Pd  Pd23  1  0.501149  0.253838  0.500000  1
  Pd  Pd24  1  0.501149  0.746162  0.500000  1
  Pd  Pd25  1  0.495980  0.500000  0.252759  1
  Pd  Pd26  1  0.495980  0.500000  0.747241  1
  Pd  Pd27  1  0.288239  0.000000  0.000000  1
  Pd  Pd28  1  0.706920  0.000000  0.000000  1
  Pd  Pd29  1  0.010307  0.293997  0.000000  1
  Pd  Pd30  1  0.010307  0.706003  0.000000  1
  Pd  Pd31  1  0.998133  0.000000  0.288155  1
  Pd  Pd32  1  0.998133  0.000000  0.711845  1
