# generated using pymatgen
data_Tb9ErSi5Sn
_symmetry_space_group_name_H-M   'P 1'
_cell_length_a   8.55110225
_cell_length_b   8.57580589
_cell_length_c   6.43033814
_cell_angle_alpha   90.02181838
_cell_angle_beta   89.99811369
_cell_angle_gamma   119.87686202
_symmetry_Int_Tables_number   1
_chemical_formula_structural   Tb9ErSi5Sn
_chemical_formula_sum   'Tb9 Er1 Si5 Sn1'
_cell_volume   408.88294076
_cell_formula_units_Z   1
loop_
 _symmetry_equiv_pos_site_id
 _symmetry_equiv_pos_as_xyz
  1  'x, y, z'
loop_
 _atom_site_type_symbol
 _atom_site_label
 _atom_site_symmetry_multiplicity
 _atom_site_fract_x
 _atom_site_fract_y
 _atom_site_fract_z
 _atom_site_occupancy
  Tb  Tb0  1  0.989560  0.748056  0.749774  1
  Tb  Tb1  1  0.999253  0.243688  0.250322  1
  Tb  Tb2  1  0.755293  0.756548  0.250268  1
  Tb  Tb3  1  0.764150  0.999766  0.749735  1
  Tb  Tb4  1  0.241231  0.252173  0.749662  1
  Tb  Tb5  1  0.241981  0.999759  0.250272  1
  Tb  Tb6  1  0.673355  0.341771  0.003192  1
  Tb  Tb7  1  0.673367  0.341735  0.496799  1
  Tb  Tb8  1  0.331622  0.658272  0.003089  1
  Er  Er9  1  0.331686  0.658446  0.497008  1
  Si  Si10  1  0.393127  0.392720  0.250823  1
  Si  Si11  1  0.002101  0.608062  0.250693  1
  Si  Si12  1  0.999481  0.394677  0.749247  1
  Si  Si13  1  0.603925  0.606030  0.749235  1
  Si  Si14  1  0.605493  0.999239  0.250614  1
  Sn  Sn15  1  0.394371  0.999058  0.749266  1
