# generated using pymatgen
data_Sc8Re5B16W7
_symmetry_space_group_name_H-M   'P 1'
_cell_length_a   6.12845802
_cell_length_b   6.13064602
_cell_length_c   11.42111051
_cell_angle_alpha   89.88704622
_cell_angle_beta   89.99439659
_cell_angle_gamma   89.99381857
_symmetry_Int_Tables_number   1
_chemical_formula_structural   Sc8Re5B16W7
_chemical_formula_sum   'Sc8 Re5 B16 W7'
_cell_volume   429.10634974
_cell_formula_units_Z   1
loop_
 _symmetry_equiv_pos_site_id
 _symmetry_equiv_pos_as_xyz
  1  'x, y, z'
loop_
 _atom_site_type_symbol
 _atom_site_label
 _atom_site_symmetry_multiplicity
 _atom_site_fract_x
 _atom_site_fract_y
 _atom_site_fract_z
 _atom_site_occupancy
  Sc  Sc0  1  0.992076  0.647627  0.041255  1
  Sc  Sc1  1  0.007067  0.353515  0.543184  1
  Sc  Sc2  1  0.354211  0.006888  0.457081  1
  Sc  Sc3  1  0.146020  0.507230  0.793035  1
  Sc  Sc4  1  0.853665  0.492474  0.292772  1
  Sc  Sc5  1  0.507212  0.145559  0.206694  1
  Sc  Sc6  1  0.491340  0.853118  0.708777  1
  Sc  Sc7  1  0.646796  0.993299  0.957239  1
  Re  Re8  1  0.678645  0.678043  0.500461  1
  Re  Re9  1  0.178379  0.821293  0.249522  1
  Re  Re10  1  0.320618  0.321251  0.000175  1
  Re  Re11  1  0.140892  0.995642  0.874890  1
  Re  Re12  1  0.821776  0.177646  0.750013  1
  B  B13  1  0.073080  0.708120  0.441941  1
  B  B14  1  0.652127  0.287973  0.444905  1
  B  B15  1  0.349166  0.714438  0.941749  1
  B  B16  1  0.209366  0.151645  0.695700  1
  B  B17  1  0.288832  0.652462  0.555873  1
  B  B18  1  0.711458  0.347382  0.055535  1
  B  B19  1  0.788891  0.846862  0.194205  1
  B  B20  1  0.152436  0.211629  0.305654  1
  B  B21  1  0.930210  0.292104  0.941736  1
  B  B22  1  0.708240  0.072481  0.558435  1
  B  B23  1  0.208011  0.427202  0.191904  1
  B  B24  1  0.791645  0.572291  0.692170  1
  B  B25  1  0.425686  0.208031  0.808971  1
  B  B26  1  0.573335  0.791436  0.307930  1
  B  B27  1  0.292184  0.930155  0.056220  1
  B  B28  1  0.848765  0.789862  0.806791  1
  W  W29  1  0.001647  0.860337  0.624980  1
  W  W30  1  0.997363  0.140200  0.125411  1
  W  W31  1  0.860608  0.002197  0.374877  1
  W  W32  1  0.360751  0.497673  0.374947  1
  W  W33  1  0.639449  0.500982  0.875232  1
  W  W34  1  0.496850  0.360024  0.625605  1
  W  W35  1  0.501203  0.640929  0.124130  1
