# generated using pymatgen
data_RbSe2IO9
_symmetry_space_group_name_H-M   'P 1'
_cell_length_a   5.63142300
_cell_length_b   9.46282495
_cell_length_c   10.16777200
_cell_angle_alpha   76.50948717
_cell_angle_beta   90.00000000
_cell_angle_gamma   90.00000000
_symmetry_Int_Tables_number   1
_chemical_formula_structural   RbSe2IO9
_chemical_formula_sum   'Rb2 Se4 I2 O18'
_cell_volume   526.88220355
_cell_formula_units_Z   2
loop_
 _symmetry_equiv_pos_site_id
 _symmetry_equiv_pos_as_xyz
  1  'x, y, z'
loop_
 _atom_site_type_symbol
 _atom_site_label
 _atom_site_symmetry_multiplicity
 _atom_site_fract_x
 _atom_site_fract_y
 _atom_site_fract_z
 _atom_site_occupancy
  Rb  Rb0  1  0.250000  0.418193  0.226989  1
  Rb  Rb1  1  0.750000  0.581807  0.773011  1
  Se  Se2  1  0.250000  0.319087  0.649980  1
  Se  Se3  1  0.750000  0.680913  0.350020  1
  Se  Se4  1  0.250000  0.852518  0.872494  1
  Se  Se5  1  0.750000  0.147482  0.127506  1
  I  I6  1  0.250000  0.923106  0.259509  1
  I  I7  1  0.750000  0.076894  0.740491  1
  O  O8  1  0.250000  0.274310  0.504924  1
  O  O9  1  0.750000  0.725690  0.495076  1
  O  O10  1  0.250000  0.491323  0.654210  1
  O  O11  1  0.750000  0.508677  0.345790  1
  O  O12  1  0.007488  0.243408  0.750171  1
  O  O13  1  0.507488  0.756592  0.249829  1
  O  O14  1  0.992512  0.756592  0.249829  1
  O  O15  1  0.492512  0.243408  0.750171  1
  O  O16  1  0.250000  0.951238  0.985118  1
  O  O17  1  0.750000  0.048762  0.014882  1
  O  O18  1  0.250000  0.674327  0.925066  1
  O  O19  1  0.750000  0.325673  0.074934  1
  O  O20  1  0.006545  0.895899  0.765430  1
  O  O21  1  0.506545  0.104101  0.234570  1
  O  O22  1  0.993455  0.104101  0.234570  1
  O  O23  1  0.493455  0.895899  0.765430  1
  O  O24  1  0.250000  0.906457  0.435162  1
  O  O25  1  0.750000  0.093543  0.564838  1
