# generated using pymatgen
data_Dy5CoNiO12
_symmetry_space_group_name_H-M   'P 1'
_cell_length_a   6.76635257
_cell_length_b   6.76640125
_cell_length_c   7.22509300
_cell_angle_alpha   74.50061584
_cell_angle_beta   74.50043121
_cell_angle_gamma   50.54222614
_symmetry_Int_Tables_number   1
_chemical_formula_structural   Dy5CoNiO12
_chemical_formula_sum   'Dy5 Co1 Ni1 O12'
_cell_volume   243.99629872
_cell_formula_units_Z   1
loop_
 _symmetry_equiv_pos_site_id
 _symmetry_equiv_pos_as_xyz
  1  'x, y, z'
loop_
 _atom_site_type_symbol
 _atom_site_label
 _atom_site_symmetry_multiplicity
 _atom_site_fract_x
 _atom_site_fract_y
 _atom_site_fract_z
 _atom_site_occupancy
  Dy  Dy0  1  0.300893  0.309861  0.356141  1
  Dy  Dy1  1  0.690135  0.699100  0.643881  1
  Dy  Dy2  1  0.306051  0.308508  0.835459  1
  Dy  Dy3  1  0.691450  0.693961  0.164565  1
  Dy  Dy4  1  0.998676  0.001320  0.500020  1
  Co  Co5  1  0.763051  0.236938  0.999990  1
  Ni  Ni6  1  0.250549  0.749639  0.999871  1
  O  O7  1  0.897105  0.415248  0.922246  1
  O  O8  1  0.420360  0.902412  0.921009  1
  O  O9  1  0.097575  0.579615  0.078994  1
  O  O10  1  0.584743  0.102880  0.077774  1
  O  O11  1  0.094506  0.598386  0.577902  1
  O  O12  1  0.597668  0.099573  0.574827  1
  O  O13  1  0.900415  0.402333  0.425200  1
  O  O14  1  0.401611  0.905490  0.422130  1
  O  O15  1  0.003080  0.998236  0.829362  1
  O  O16  1  0.001774  0.996881  0.170637  1
  O  O17  1  0.500300  0.499918  0.825896  1
  O  O18  1  0.500055  0.499701  0.174097  1
