# generated using pymatgen
data_TbEu4Sb3O14
_symmetry_space_group_name_H-M   'P 1'
_cell_length_a   7.62802432
_cell_length_b   7.62802377
_cell_length_c   7.62802489
_cell_angle_alpha   60.23895669
_cell_angle_beta   60.23896701
_cell_angle_gamma   60.23896843
_symmetry_Int_Tables_number   1
_chemical_formula_structural   TbEu4Sb3O14
_chemical_formula_sum   'Tb1 Eu4 Sb3 O14'
_cell_volume   315.54716123
_cell_formula_units_Z   1
loop_
 _symmetry_equiv_pos_site_id
 _symmetry_equiv_pos_as_xyz
  1  'x, y, z'
loop_
 _atom_site_type_symbol
 _atom_site_label
 _atom_site_symmetry_multiplicity
 _atom_site_fract_x
 _atom_site_fract_y
 _atom_site_fract_z
 _atom_site_occupancy
  Tb  Tb0  1  0.000000  0.000000  0.000000  1
  Eu  Eu1  1  0.500000  0.000000  0.500000  1
  Eu  Eu2  1  0.000000  0.500000  0.500000  1
  Eu  Eu3  1  0.500000  0.500000  0.000000  1
  Eu  Eu4  1  0.500000  0.500000  0.500000  1
  Sb  Sb5  1  0.000000  0.000000  0.500000  1
  Sb  Sb6  1  0.500000  0.000000  0.000000  1
  Sb  Sb7  1  0.000000  0.500000  0.000000  1
  O  O8  1  0.087489  0.087489  0.641561  1
  O  O9  1  0.912511  0.912511  0.358439  1
  O  O10  1  0.358439  0.912511  0.912511  1
  O  O11  1  0.641561  0.087489  0.087489  1
  O  O12  1  0.914962  0.317312  0.317312  1
  O  O13  1  0.085038  0.682688  0.682688  1
  O  O14  1  0.682688  0.682688  0.085038  1
  O  O15  1  0.317312  0.317312  0.914962  1
  O  O16  1  0.376704  0.376704  0.376704  1
  O  O17  1  0.623296  0.623296  0.623296  1
  O  O18  1  0.912511  0.358439  0.912511  1
  O  O19  1  0.087489  0.641561  0.087489  1
  O  O20  1  0.682688  0.085038  0.682688  1
  O  O21  1  0.317312  0.914962  0.317312  1
