# generated using pymatgen
data_Ac4Mn3SbO12
_symmetry_space_group_name_H-M   'P 1'
_cell_length_a   5.79694649
_cell_length_b   5.84804599
_cell_length_c   8.36296842
_cell_angle_alpha   89.74591750
_cell_angle_beta   89.93361157
_cell_angle_gamma   90.37509267
_symmetry_Int_Tables_number   1
_chemical_formula_structural   Ac4Mn3SbO12
_chemical_formula_sum   'Ac4 Mn3 Sb1 O12'
_cell_volume   283.50233780
_cell_formula_units_Z   1
loop_
 _symmetry_equiv_pos_site_id
 _symmetry_equiv_pos_as_xyz
  1  'x, y, z'
loop_
 _atom_site_type_symbol
 _atom_site_label
 _atom_site_symmetry_multiplicity
 _atom_site_fract_x
 _atom_site_fract_y
 _atom_site_fract_z
 _atom_site_occupancy
  Ac  Ac0  1  0.001599  0.967025  0.736833  1
  Ac  Ac1  1  0.998474  0.032990  0.263147  1
  Ac  Ac2  1  0.516298  0.455019  0.737692  1
  Ac  Ac3  1  0.483684  0.544932  0.262324  1
  Mn  Mn4  1  0.499884  0.999944  0.499828  1
  Mn  Mn5  1  0.500026  0.999578  0.000137  1
  Mn  Mn6  1  0.000060  0.500194  0.499954  1
  Sb  Sb7  1  0.000016  0.500024  0.000070  1
  O  O8  1  0.730016  0.704331  0.537280  1
  O  O9  1  0.273914  0.301685  0.050370  1
  O  O10  1  0.270113  0.295760  0.462638  1
  O  O11  1  0.726010  0.698275  0.949760  1
  O  O12  1  0.090087  0.522670  0.767251  1
  O  O13  1  0.909886  0.477441  0.232788  1
  O  O14  1  0.797314  0.225620  0.536251  1
  O  O15  1  0.193331  0.778481  0.051333  1
  O  O16  1  0.202744  0.774444  0.463618  1
  O  O17  1  0.806548  0.221497  0.948762  1
  O  O18  1  0.424267  0.026354  0.749925  1
  O  O19  1  0.575729  0.973734  0.250038  1
