# generated using pymatgen
data_CaSm6SiBr12
_symmetry_space_group_name_H-M   'P 1'
_cell_length_a   9.36311605
_cell_length_b   9.30088714
_cell_length_c   9.36253302
_cell_angle_alpha   106.28131274
_cell_angle_beta   107.51754547
_cell_angle_gamma   107.07353329
_symmetry_Int_Tables_number   1
_chemical_formula_structural   CaSm6SiBr12
_chemical_formula_sum   'Ca1 Sm6 Si1 Br12'
_cell_volume   679.74558177
_cell_formula_units_Z   1
loop_
 _symmetry_equiv_pos_site_id
 _symmetry_equiv_pos_as_xyz
  1  'x, y, z'
loop_
 _atom_site_type_symbol
 _atom_site_label
 _atom_site_symmetry_multiplicity
 _atom_site_fract_x
 _atom_site_fract_y
 _atom_site_fract_z
 _atom_site_occupancy
  Ca  Ca0  1  0.500000  0.500000  0.500000  1
  Sm  Sm1  1  0.318133  0.102642  0.024201  1
  Sm  Sm2  1  0.024576  0.318626  0.105439  1
  Sm  Sm3  1  0.102222  0.026652  0.318729  1
  Sm  Sm4  1  0.897778  0.973348  0.681272  1
  Sm  Sm5  1  0.975424  0.681375  0.894562  1
  Sm  Sm6  1  0.681868  0.897358  0.975800  1
  Si  Si7  1  0.000000  0.000000  0.000000  1
  Br  Br8  1  0.681928  0.227100  0.071993  1
  Br  Br9  1  0.375360  0.455609  0.156842  1
  Br  Br10  1  0.072407  0.682834  0.227045  1
  Br  Br11  1  0.772610  0.927065  0.317374  1
  Br  Br12  1  0.455750  0.157228  0.376465  1
  Br  Br13  1  0.158582  0.376715  0.456899  1
  Br  Br14  1  0.841418  0.623286  0.543101  1
  Br  Br15  1  0.544250  0.842773  0.623535  1
  Br  Br16  1  0.227391  0.072936  0.682626  1
  Br  Br17  1  0.927593  0.317166  0.772956  1
  Br  Br18  1  0.624641  0.544391  0.843158  1
  Br  Br19  1  0.318073  0.772900  0.928007  1
