# generated using pymatgen
data_Ce2NpTc3
_symmetry_space_group_name_H-M   'P 1'
_cell_length_a   5.23156997
_cell_length_b   5.23156964
_cell_length_c   5.23157063
_cell_angle_alpha   67.48966933
_cell_angle_beta   67.48967171
_cell_angle_gamma   67.48967500
_symmetry_Int_Tables_number   1
_chemical_formula_structural   Ce2NpTc3
_chemical_formula_sum   'Ce2 Np1 Tc3'
_cell_volume   117.42088550
_cell_formula_units_Z   1
loop_
 _symmetry_equiv_pos_site_id
 _symmetry_equiv_pos_as_xyz
  1  'x, y, z'
loop_
 _atom_site_type_symbol
 _atom_site_label
 _atom_site_symmetry_multiplicity
 _atom_site_fract_x
 _atom_site_fract_y
 _atom_site_fract_z
 _atom_site_occupancy
  Ce  Ce0  1  0.619743  0.619743  0.619743  1
  Ce  Ce1  1  0.380257  0.380257  0.380257  1
  Np  Np2  1  0.000000  0.000000  0.000000  1
  Tc  Tc3  1  0.000000  0.500000  0.000000  1
  Tc  Tc4  1  0.500000  0.000000  0.000000  1
  Tc  Tc5  1  0.000000  0.000000  0.500000  1
