# generated using pymatgen
data_TbNd2Th(NiB4)4
_symmetry_space_group_name_H-M   'P 1'
_cell_length_a   6.92129209
_cell_length_b   6.92129314
_cell_length_c   6.92129197
_cell_angle_alpha   112.83670474
_cell_angle_beta   112.83671066
_cell_angle_gamma   102.93159706
_symmetry_Int_Tables_number   1
_chemical_formula_structural   TbNd2Th(NiB4)4
_chemical_formula_sum   'Tb1 Nd2 Th1 Ni4 B16'
_cell_volume   252.78015659
_cell_formula_units_Z   1
loop_
 _symmetry_equiv_pos_site_id
 _symmetry_equiv_pos_as_xyz
  1  'x, y, z'
loop_
 _atom_site_type_symbol
 _atom_site_label
 _atom_site_symmetry_multiplicity
 _atom_site_fract_x
 _atom_site_fract_y
 _atom_site_fract_z
 _atom_site_occupancy
  Tb  Tb0  1  0.250000  0.750000  0.500000  1
  Nd  Nd1  1  0.204165  0.204165  0.000000  1
  Nd  Nd2  1  0.795835  0.795835  0.000000  1
  Th  Th3  1  0.750000  0.250000  0.500000  1
  Ni  Ni4  1  0.499014  0.270380  0.771366  1
  Ni  Ni5  1  0.499014  0.727646  0.228634  1
  Ni  Ni6  1  0.729620  0.500986  0.228634  1
  Ni  Ni7  1  0.272354  0.500986  0.771366  1
  B  B8  1  0.111378  0.275551  0.388472  1
  B  B9  1  0.887079  0.722906  0.611528  1
  B  B10  1  0.887079  0.275551  0.164174  1
  B  B11  1  0.111378  0.722906  0.835826  1
  B  B12  1  0.724449  0.888622  0.611528  1
  B  B13  1  0.277094  0.112921  0.388472  1
  B  B14  1  0.724449  0.112921  0.835826  1
  B  B15  1  0.277094  0.888622  0.164174  1
  B  B16  1  0.416100  0.418584  0.530258  1
  B  B17  1  0.888327  0.885843  0.469742  1
  B  B18  1  0.581416  0.111673  0.997516  1
  B  B19  1  0.114157  0.583900  0.002484  1
  B  B20  1  0.581416  0.583900  0.469742  1
  B  B21  1  0.114157  0.111673  0.530258  1
  B  B22  1  0.888327  0.418584  0.002484  1
  B  B23  1  0.416100  0.885843  0.997516  1
