# generated using pymatgen
data_Lu2Ga2Co2C
_symmetry_space_group_name_H-M   'P 1'
_cell_length_a   5.67000847
_cell_length_b   5.67000813
_cell_length_c   6.82303807
_cell_angle_alpha   125.37203069
_cell_angle_beta   125.37203015
_cell_angle_gamma   39.70164094
_symmetry_Int_Tables_number   1
_chemical_formula_structural   Lu2Ga2Co2C
_chemical_formula_sum   'Lu2 Ga2 Co2 C1'
_cell_volume   110.43961097
_cell_formula_units_Z   1
loop_
 _symmetry_equiv_pos_site_id
 _symmetry_equiv_pos_as_xyz
  1  'x, y, z'
loop_
 _atom_site_type_symbol
 _atom_site_label
 _atom_site_symmetry_multiplicity
 _atom_site_fract_x
 _atom_site_fract_y
 _atom_site_fract_z
 _atom_site_occupancy
  Lu  Lu0  1  0.555455  0.555455  0.281452  1
  Lu  Lu1  1  0.444544  0.444544  0.718547  1
  Ga  Ga2  1  0.843400  0.843400  0.303718  1
  Ga  Ga3  1  0.156601  0.156601  0.696283  1
  Co  Co4  1  0.193272  0.193272  0.084204  1
  Co  Co5  1  0.806727  0.806727  0.915795  1
  C  C6  1  0.000000  0.000000  0.000000  1
