# generated using pymatgen
data_Tb2Pr(AgSn)4
_symmetry_space_group_name_H-M   'P 1'
_cell_length_a   8.86546954
_cell_length_b   8.86546978
_cell_length_c   8.86546911
_cell_angle_alpha   149.78834055
_cell_angle_beta   129.98296105
_cell_angle_gamma   59.55359582
_symmetry_Int_Tables_number   1
_chemical_formula_structural   Tb2Pr(AgSn)4
_chemical_formula_sum   'Tb2 Pr1 Ag4 Sn4'
_cell_volume   266.52253552
_cell_formula_units_Z   1
loop_
 _symmetry_equiv_pos_site_id
 _symmetry_equiv_pos_as_xyz
  1  'x, y, z'
loop_
 _atom_site_type_symbol
 _atom_site_label
 _atom_site_symmetry_multiplicity
 _atom_site_fract_x
 _atom_site_fract_y
 _atom_site_fract_z
 _atom_site_occupancy
  Tb  Tb0  1  0.872109  0.872109  0.000000  1
  Tb  Tb1  1  0.127891  0.127891  0.000000  1
  Pr  Pr2  1  0.500000  0.000000  0.500000  1
  Ag  Ag3  1  0.473730  0.670658  0.803073  1
  Ag  Ag4  1  0.867584  0.670658  0.196927  1
  Ag  Ag5  1  0.132416  0.329342  0.803073  1
  Ag  Ag6  1  0.526270  0.329342  0.196927  1
  Sn  Sn7  1  0.283075  0.783075  0.500000  1
  Sn  Sn8  1  0.716925  0.216925  0.500000  1
  Sn  Sn9  1  0.808909  0.500000  0.308909  1
  Sn  Sn10  1  0.191091  0.500000  0.691091  1
