# generated using pymatgen
data_Zr6BeZn20Cu3
_symmetry_space_group_name_H-M   'P 1'
_cell_length_a   8.69141977
_cell_length_b   8.69139296
_cell_length_c   8.73090100
_cell_angle_alpha   59.84947487
_cell_angle_beta   59.84921921
_cell_angle_gamma   60.30061651
_symmetry_Int_Tables_number   1
_chemical_formula_structural   Zr6BeZn20Cu3
_chemical_formula_sum   'Zr6 Be1 Zn20 Cu3'
_cell_volume   466.34132105
_cell_formula_units_Z   1
loop_
 _symmetry_equiv_pos_site_id
 _symmetry_equiv_pos_as_xyz
  1  'x, y, z'
loop_
 _atom_site_type_symbol
 _atom_site_label
 _atom_site_symmetry_multiplicity
 _atom_site_fract_x
 _atom_site_fract_y
 _atom_site_fract_z
 _atom_site_occupancy
  Zr  Zr0  1  0.700930  0.299074  0.299073  1
  Zr  Zr1  1  0.299075  0.700930  0.700925  1
  Zr  Zr2  1  0.299063  0.700942  0.299061  1
  Zr  Zr3  1  0.700949  0.299056  0.700945  1
  Zr  Zr4  1  0.296551  0.296550  0.703448  1
  Zr  Zr5  1  0.703451  0.703451  0.296548  1
  Be  Be6  1  0.500001  0.500005  0.499993  1
  Zn  Zn7  1  0.117368  0.117373  0.126018  1
  Zn  Zn8  1  0.882637  0.882629  0.873984  1
  Zn  Zn9  1  0.117375  0.117368  0.639246  1
  Zn  Zn10  1  0.126014  0.639252  0.117363  1
  Zn  Zn11  1  0.882635  0.882638  0.360753  1
  Zn  Zn12  1  0.873994  0.360752  0.882630  1
  Zn  Zn13  1  0.639252  0.126013  0.117371  1
  Zn  Zn14  1  0.360753  0.873991  0.882625  1
  Zn  Zn15  1  0.500005  0.000000  0.000000  1
  Zn  Zn16  1  0.000004  0.500003  0.499997  1
  Zn  Zn17  1  0.000001  0.500003  0.000000  1
  Zn  Zn18  1  0.500005  0.000003  0.499997  1
  Zn  Zn19  1  0.336707  0.336708  0.330274  1
  Zn  Zn20  1  0.663304  0.663300  0.669714  1
  Zn  Zn21  1  0.336706  0.336703  0.996310  1
  Zn  Zn22  1  0.330274  0.996317  0.336704  1
  Zn  Zn23  1  0.663299  0.663299  0.003683  1
  Zn  Zn24  1  0.669732  0.003689  0.663293  1
  Zn  Zn25  1  0.996317  0.330273  0.336708  1
  Zn  Zn26  1  0.003692  0.669729  0.663290  1
  Cu  Cu27  1  0.999930  0.999979  0.500067  1
  Cu  Cu28  1  0.499954  0.499952  0.000003  1
  Cu  Cu29  1  0.000024  0.000018  0.999978  1
