# generated using pymatgen
data_Li4Pb5O12
_symmetry_space_group_name_H-M   'P 1'
_cell_length_a   5.57628300
_cell_length_b   5.57628348
_cell_length_c   10.26002600
_cell_angle_alpha   90.00000000
_cell_angle_beta   90.00000000
_cell_angle_gamma   120.00000310
_symmetry_Int_Tables_number   1
_chemical_formula_structural   Li4Pb5O12
_chemical_formula_sum   'Li4 Pb5 O12'
_cell_volume   276.29226675
_cell_formula_units_Z   1
loop_
 _symmetry_equiv_pos_site_id
 _symmetry_equiv_pos_as_xyz
  1  'x, y, z'
loop_
 _atom_site_type_symbol
 _atom_site_label
 _atom_site_symmetry_multiplicity
 _atom_site_fract_x
 _atom_site_fract_y
 _atom_site_fract_z
 _atom_site_occupancy
  Li  Li0  1  0.000000  0.000000  0.204895  1
  Li  Li1  1  0.666667  0.333333  0.400068  1
  Li  Li2  1  0.333334  0.666667  0.616309  1
  Li  Li3  1  0.000000  0.000000  0.811807  1
  Pb  Pb4  1  0.666667  0.333333  0.049973  1
  Pb  Pb5  1  0.333334  0.666667  0.290804  1
  Pb  Pb6  1  0.000000  0.000000  0.508441  1
  Pb  Pb7  1  0.666667  0.333333  0.725711  1
  Pb  Pb8  1  0.333334  0.666667  0.966665  1
  O  O9  1  0.044017  0.369857  0.127438  1
  O  O10  1  0.630144  0.674162  0.127438  1
  O  O11  1  0.325838  0.955983  0.127438  1
  O  O12  1  0.315929  0.307511  0.375359  1
  O  O13  1  0.991582  0.684072  0.375359  1
  O  O14  1  0.692489  0.008417  0.375359  1
  O  O15  1  0.307412  0.991518  0.641165  1
  O  O16  1  0.008482  0.315894  0.641165  1
  O  O17  1  0.684107  0.692588  0.641165  1
  O  O18  1  0.674117  0.044016  0.889145  1
  O  O19  1  0.369899  0.325882  0.889145  1
  O  O20  1  0.955985  0.630102  0.889145  1
