# generated using pymatgen
data_TbHo2In4CoAg
_symmetry_space_group_name_H-M   'P 1'
_cell_length_a   8.03215758
_cell_length_b   8.03188632
_cell_length_c   3.70210600
_cell_angle_alpha   90.00000000
_cell_angle_beta   90.00000000
_cell_angle_gamma   120.05719458
_symmetry_Int_Tables_number   1
_chemical_formula_structural   TbHo2In4CoAg
_chemical_formula_sum   'Tb1 Ho2 In4 Co1 Ag1'
_cell_volume   206.71817810
_cell_formula_units_Z   1
loop_
 _symmetry_equiv_pos_site_id
 _symmetry_equiv_pos_as_xyz
  1  'x, y, z'
loop_
 _atom_site_type_symbol
 _atom_site_label
 _atom_site_symmetry_multiplicity
 _atom_site_fract_x
 _atom_site_fract_y
 _atom_site_fract_z
 _atom_site_occupancy
  Tb  Tb0  1  0.045739  0.758046  0.500000  1
  Ho  Ho1  1  0.713335  0.954960  0.500000  1
  Ho  Ho2  1  0.241337  0.286847  0.500000  1
  In  In3  1  0.938173  0.330975  0.000000  1
  In  In4  1  0.394126  0.062449  0.000000  1
  In  In5  1  0.667345  0.606341  0.000000  1
  In  In6  1  0.333834  0.666553  0.000000  1
  Co  Co7  1  0.999826  0.000870  0.000000  1
  Ag  Ag8  1  0.666286  0.332959  0.500000  1
