# generated using pymatgen
data_Y4Lu4Re(B8Ru)3
_symmetry_space_group_name_H-M   'P 1'
_cell_length_a   3.63171800
_cell_length_b   9.08192554
_cell_length_c   11.48171707
_cell_angle_alpha   90.10287640
_cell_angle_beta   90.00000000
_cell_angle_gamma   90.00000000
_symmetry_Int_Tables_number   1
_chemical_formula_structural   Y4Lu4Re(B8Ru)3
_chemical_formula_sum   'Y4 Lu4 Re1 B24 Ru3'
_cell_volume   378.70077710
_cell_formula_units_Z   1
loop_
 _symmetry_equiv_pos_site_id
 _symmetry_equiv_pos_as_xyz
  1  'x, y, z'
loop_
 _atom_site_type_symbol
 _atom_site_label
 _atom_site_symmetry_multiplicity
 _atom_site_fract_x
 _atom_site_fract_y
 _atom_site_fract_z
 _atom_site_occupancy
  Y  Y0  1  0.000000  0.322330  0.414974  1
  Y  Y1  1  0.000000  0.680491  0.587731  1
  Y  Y2  1  0.000000  0.821694  0.083786  1
  Y  Y3  1  0.000000  0.177133  0.913320  1
  Lu  Lu4  1  0.000000  0.943339  0.371299  1
  Lu  Lu5  1  0.000000  0.056143  0.627840  1
  Lu  Lu6  1  0.000000  0.442813  0.128241  1
  Lu  Lu7  1  0.000000  0.555838  0.872534  1
  Re  Re8  1  0.000000  0.861396  0.820106  1
  B  B9  1  0.500000  0.554633  0.432909  1
  B  B10  1  0.500000  0.445736  0.567483  1
  B  B11  1  0.500000  0.054298  0.067902  1
  B  B12  1  0.500000  0.946621  0.932854  1
  B  B13  1  0.500000  0.750211  0.418857  1
  B  B14  1  0.500000  0.250205  0.580883  1
  B  B15  1  0.500000  0.249965  0.081401  1
  B  B16  1  0.500000  0.749403  0.918823  1
  B  B17  1  0.500000  0.791349  0.265891  1
  B  B18  1  0.500000  0.208350  0.733127  1
  B  B19  1  0.500000  0.291835  0.234178  1
  B  B20  1  0.500000  0.707269  0.765940  1
  B  B21  1  0.500000  0.629856  0.184662  1
  B  B22  1  0.500000  0.369462  0.815011  1
  B  B23  1  0.500000  0.130638  0.315544  1
  B  B24  1  0.500000  0.869835  0.684756  1
  B  B25  1  0.500000  0.983029  0.213408  1
  B  B26  1  0.500000  0.018388  0.786469  1
  B  B27  1  0.500000  0.482937  0.287200  1
  B  B28  1  0.500000  0.516997  0.713462  1
  B  B29  1  0.500000  0.601784  0.028861  1
  B  B30  1  0.500000  0.396031  0.972000  1
  B  B31  1  0.500000  0.103515  0.471096  1
  B  B32  1  0.500000  0.897410  0.527517  1
  Ru  Ru33  1  0.000000  0.638659  0.320114  1
  Ru  Ru34  1  0.000000  0.361553  0.679431  1
  Ru  Ru35  1  0.000000  0.138857  0.180390  1
