# generated using pymatgen
data_Y9Mg(BiAu2)2
_symmetry_space_group_name_H-M   'P 1'
_cell_length_a   8.78048366
_cell_length_b   8.78048534
_cell_length_c   8.78048418
_cell_angle_alpha   125.61070229
_cell_angle_beta   125.61070184
_cell_angle_gamma   80.52892597
_symmetry_Int_Tables_number   1
_chemical_formula_structural   Y9Mg(BiAu2)2
_chemical_formula_sum   'Y9 Mg1 Bi2 Au4'
_cell_volume   431.55889006
_cell_formula_units_Z   1
loop_
 _symmetry_equiv_pos_site_id
 _symmetry_equiv_pos_as_xyz
  1  'x, y, z'
loop_
 _atom_site_type_symbol
 _atom_site_label
 _atom_site_symmetry_multiplicity
 _atom_site_fract_x
 _atom_site_fract_y
 _atom_site_fract_z
 _atom_site_occupancy
  Y  Y0  1  0.000000  0.000000  0.000000  1
  Y  Y1  1  0.508209  0.024522  0.813191  1
  Y  Y2  1  0.211332  0.695019  0.186809  1
  Y  Y3  1  0.024522  0.211332  0.516313  1
  Y  Y4  1  0.695019  0.508209  0.483687  1
  Y  Y5  1  0.491791  0.975478  0.186809  1
  Y  Y6  1  0.788668  0.304981  0.813191  1
  Y  Y7  1  0.975478  0.788668  0.483687  1
  Y  Y8  1  0.304981  0.491791  0.516313  1
  Mg  Mg9  1  0.500000  0.500000  0.000000  1
  Bi  Bi10  1  0.244609  0.244609  0.000000  1
  Bi  Bi11  1  0.755391  0.755391  0.000000  1
  Au  Au12  1  0.134190  0.640923  0.775114  1
  Au  Au13  1  0.865810  0.359077  0.224886  1
  Au  Au14  1  0.640923  0.865810  0.506734  1
  Au  Au15  1  0.359077  0.134190  0.493266  1
