# generated using pymatgen
data_Tm2Be(SiRh2)3
_symmetry_space_group_name_H-M   'P 1'
_cell_length_a   5.51531496
_cell_length_b   6.54374941
_cell_length_c   6.54375008
_cell_angle_alpha   65.53049423
_cell_angle_beta   65.31217373
_cell_angle_gamma   65.31217299
_symmetry_Int_Tables_number   1
_chemical_formula_structural   Tm2Be(SiRh2)3
_chemical_formula_sum   'Tm2 Be1 Si3 Rh6'
_cell_volume   186.56586908
_cell_formula_units_Z   1
loop_
 _symmetry_equiv_pos_site_id
 _symmetry_equiv_pos_as_xyz
  1  'x, y, z'
loop_
 _atom_site_type_symbol
 _atom_site_label
 _atom_site_symmetry_multiplicity
 _atom_site_fract_x
 _atom_site_fract_y
 _atom_site_fract_z
 _atom_site_occupancy
  Tm  Tm0  1  0.542138  0.744773  0.744773  1
  Tm  Tm1  1  0.446021  0.256312  0.256312  1
  Be  Be2  1  0.234615  0.573366  0.573366  1
  Si  Si3  1  0.773948  0.419261  0.419261  1
  Si  Si4  1  0.118465  0.080682  0.080682  1
  Si  Si5  1  0.879777  0.924200  0.924200  1
  Rh  Rh6  1  0.499580  0.219015  0.781199  1
  Rh  Rh7  1  0.000969  0.715980  0.287539  1
  Rh  Rh8  1  0.499580  0.781199  0.219015  1
  Rh  Rh9  1  0.000969  0.287539  0.715980  1
  Rh  Rh10  1  0.001970  0.507694  0.989980  1
  Rh  Rh11  1  0.001970  0.989980  0.507694  1
