# generated using pymatgen
data_La3Cd(Ir2O7)2
_symmetry_space_group_name_H-M   'P 1'
_cell_length_a   7.32718406
_cell_length_b   7.32718388
_cell_length_c   7.32718370
_cell_angle_alpha   118.50281170
_cell_angle_beta   118.50280764
_cell_angle_gamma   61.49719112
_symmetry_Int_Tables_number   1
_chemical_formula_structural   La3Cd(Ir2O7)2
_chemical_formula_sum   'La3 Cd1 Ir4 O14'
_cell_volume   287.50966703
_cell_formula_units_Z   1
loop_
 _symmetry_equiv_pos_site_id
 _symmetry_equiv_pos_as_xyz
  1  'x, y, z'
loop_
 _atom_site_type_symbol
 _atom_site_label
 _atom_site_symmetry_multiplicity
 _atom_site_fract_x
 _atom_site_fract_y
 _atom_site_fract_z
 _atom_site_occupancy
  La  La0  1  0.500000  0.000000  0.000000  1
  La  La1  1  0.000000  0.500000  0.000000  1
  La  La2  1  0.000000  0.000000  0.500001  1
  Cd  Cd3  1  0.000000  0.000000  0.000000  1
  Ir  Ir4  1  0.500000  0.500000  0.000000  1
  Ir  Ir5  1  0.500000  0.500000  0.499999  1
  Ir  Ir6  1  0.499999  0.000000  0.499999  1
  Ir  Ir7  1  0.000000  0.499999  0.499999  1
  O  O8  1  0.877969  0.877969  0.122033  1
  O  O9  1  0.823666  0.424218  0.176331  1
  O  O10  1  0.424218  0.823666  0.176331  1
  O  O11  1  0.419227  0.419227  0.170867  1
  O  O12  1  0.580773  0.170867  0.419225  1
  O  O13  1  0.170867  0.580773  0.419225  1
  O  O14  1  0.176332  0.176332  0.424219  1
  O  O15  1  0.829133  0.419227  0.580774  1
  O  O16  1  0.419227  0.829133  0.580774  1
  O  O17  1  0.823667  0.823667  0.575782  1
  O  O18  1  0.575781  0.176333  0.823667  1
  O  O19  1  0.176333  0.575781  0.823667  1
  O  O20  1  0.580774  0.580774  0.829133  1
  O  O21  1  0.122031  0.122031  0.877968  1
