# generated using pymatgen
data_Hf2ScTiI12
_symmetry_space_group_name_H-M   'P 1'
_cell_length_a   6.73764757
_cell_length_b   7.91419401
_cell_length_c   13.80255300
_cell_angle_alpha   90.00000000
_cell_angle_beta   90.00000000
_cell_angle_gamma   90.01672545
_symmetry_Int_Tables_number   1
_chemical_formula_structural   Hf2ScTiI12
_chemical_formula_sum   'Hf2 Sc1 Ti1 I12'
_cell_volume   735.99419326
_cell_formula_units_Z   1
loop_
 _symmetry_equiv_pos_site_id
 _symmetry_equiv_pos_as_xyz
  1  'x, y, z'
loop_
 _atom_site_type_symbol
 _atom_site_label
 _atom_site_symmetry_multiplicity
 _atom_site_fract_x
 _atom_site_fract_y
 _atom_site_fract_z
 _atom_site_occupancy
  Hf  Hf0  1  0.750232  0.249397  0.500000  1
  Hf  Hf1  1  0.751061  0.750549  0.000000  1
  Sc  Sc2  1  0.249874  0.249403  0.500000  1
  Ti  Ti3  1  0.248814  0.750567  0.000000  1
  I  I4  1  0.503765  0.397746  0.352319  1
  I  I5  1  0.001157  0.604242  0.854303  1
  I  I6  1  0.001157  0.604242  0.145697  1
  I  I7  1  0.503765  0.397746  0.647681  1
  I  I8  1  0.498810  0.896672  0.854871  1
  I  I9  1  0.996326  0.100801  0.352203  1
  I  I10  1  0.996326  0.100801  0.647797  1
  I  I11  1  0.498810  0.896672  0.145129  1
  I  I12  1  0.504112  0.952248  0.500000  1
  I  I13  1  0.003230  0.043322  0.000000  1
  I  I14  1  0.496623  0.458660  0.000000  1
  I  I15  1  0.995937  0.546932  0.500000  1
