# generated using pymatgen
data_Li2Nb5Co16P12W
_symmetry_space_group_name_H-M   'P 1'
_cell_length_a   11.89074400
_cell_length_b   11.89188512
_cell_length_c   3.56692000
_cell_angle_alpha   90.00000000
_cell_angle_beta   90.00000000
_cell_angle_gamma   119.99682580
_symmetry_Int_Tables_number   1
_chemical_formula_structural   Li2Nb5Co16P12W
_chemical_formula_sum   'Li2 Nb5 Co16 P12 W1'
_cell_volume   436.81508198
_cell_formula_units_Z   1
loop_
 _symmetry_equiv_pos_site_id
 _symmetry_equiv_pos_as_xyz
  1  'x, y, z'
loop_
 _atom_site_type_symbol
 _atom_site_label
 _atom_site_symmetry_multiplicity
 _atom_site_fract_x
 _atom_site_fract_y
 _atom_site_fract_z
 _atom_site_occupancy
  Li  Li0  1  0.333711  0.666996  0.000000  1
  Li  Li1  1  0.666716  0.333004  0.000000  1
  Nb  Nb2  1  0.819311  0.000000  0.500000  1
  Nb  Nb3  1  0.999853  0.821022  0.500000  1
  Nb  Nb4  1  0.178831  0.178978  0.500000  1
  Nb  Nb5  1  0.000633  0.445051  0.000000  1
  Nb  Nb6  1  0.555582  0.554949  0.000000  1
  Co  Co7  1  0.277641  0.000000  0.500000  1
  Co  Co8  1  0.999727  0.276536  0.500000  1
  Co  Co9  1  0.723191  0.723464  0.500000  1
  Co  Co10  1  0.632052  0.807611  0.000000  1
  Co  Co11  1  0.194427  0.827888  0.000000  1
  Co  Co12  1  0.173991  0.365574  0.000000  1
  Co  Co13  1  0.366539  0.172112  0.000000  1
  Co  Co14  1  0.808417  0.634426  0.000000  1
  Co  Co15  1  0.824442  0.192389  0.000000  1
  Co  Co16  1  0.520796  0.873280  0.500000  1
  Co  Co17  1  0.128816  0.651098  0.500000  1
  Co  Co18  1  0.350885  0.475402  0.500000  1
  Co  Co19  1  0.477718  0.348902  0.500000  1
  Co  Co20  1  0.875483  0.524598  0.500000  1
  Co  Co21  1  0.647515  0.126720  0.500000  1
  Co  Co22  1  0.999505  0.000000  0.000000  1
  P  P23  1  0.172811  0.000000  0.000000  1
  P  P24  1  0.998622  0.172851  0.000000  1
  P  P25  1  0.825771  0.827149  0.000000  1
  P  P26  1  0.510718  0.685354  0.500000  1
  P  P27  1  0.317386  0.829401  0.500000  1
  P  P28  1  0.174990  0.488657  0.500000  1
  P  P29  1  0.487984  0.170599  0.500000  1
  P  P30  1  0.686332  0.511343  0.500000  1
  P  P31  1  0.825363  0.314646  0.500000  1
  P  P32  1  0.644166  0.000000  0.000000  1
  P  P33  1  0.002162  0.650669  0.000000  1
  P  P34  1  0.351493  0.349331  0.000000  1
  W  W35  1  0.446420  0.000000  0.000000  1
