# generated using pymatgen
data_Tm6Fe17NiP12
_symmetry_space_group_name_H-M   'P 1'
_cell_length_a   3.67592500
_cell_length_b   10.44435200
_cell_length_c   12.14020000
_cell_angle_alpha   90.00000000
_cell_angle_beta   90.00000000
_cell_angle_gamma   90.00000000
_symmetry_Int_Tables_number   1
_chemical_formula_structural   Tm6Fe17NiP12
_chemical_formula_sum   'Tm6 Fe17 Ni1 P12'
_cell_volume   466.09450569
_cell_formula_units_Z   1
loop_
 _symmetry_equiv_pos_site_id
 _symmetry_equiv_pos_as_xyz
  1  'x, y, z'
loop_
 _atom_site_type_symbol
 _atom_site_label
 _atom_site_symmetry_multiplicity
 _atom_site_fract_x
 _atom_site_fract_y
 _atom_site_fract_z
 _atom_site_occupancy
  Tm  Tm0  1  0.000000  0.500000  0.525303  1
  Tm  Tm1  1  0.500000  0.000000  0.476637  1
  Tm  Tm2  1  0.500000  0.817429  0.206190  1
  Tm  Tm3  1  0.500000  0.182571  0.206190  1
  Tm  Tm4  1  0.000000  0.679774  0.792882  1
  Tm  Tm5  1  0.000000  0.320226  0.792882  1
  Fe  Fe6  1  0.500000  0.500000  0.153786  1
  Fe  Fe7  1  0.000000  0.000000  0.847130  1
  Fe  Fe8  1  0.500000  0.500000  0.698844  1
  Fe  Fe9  1  0.000000  0.500000  0.989375  1
  Fe  Fe10  1  0.500000  0.000000  0.011006  1
  Fe  Fe11  1  0.500000  0.328307  0.996419  1
  Fe  Fe12  1  0.500000  0.671693  0.996419  1
  Fe  Fe13  1  0.000000  0.172557  0.004432  1
  Fe  Fe14  1  0.000000  0.827443  0.004432  1
  Fe  Fe15  1  0.500000  0.298432  0.430032  1
  Fe  Fe16  1  0.500000  0.701568  0.430032  1
  Fe  Fe17  1  0.000000  0.198832  0.569699  1
  Fe  Fe18  1  0.000000  0.801168  0.569699  1
  Fe  Fe19  1  0.500000  0.882121  0.708811  1
  Fe  Fe20  1  0.500000  0.117879  0.708811  1
  Fe  Fe21  1  0.000000  0.618381  0.291459  1
  Fe  Fe22  1  0.000000  0.381619  0.291459  1
  Ni  Ni23  1  0.000000  0.000000  0.299368  1
  P  P24  1  0.500000  0.500000  0.882419  1
  P  P25  1  0.000000  0.000000  0.114887  1
  P  P26  1  0.500000  0.500000  0.342002  1
  P  P27  1  0.000000  0.000000  0.658974  1
  P  P28  1  0.500000  0.306504  0.614272  1
  P  P29  1  0.500000  0.693496  0.614272  1
  P  P30  1  0.000000  0.193879  0.385722  1
  P  P31  1  0.000000  0.806121  0.385722  1
  P  P32  1  0.500000  0.850533  0.887814  1
  P  P33  1  0.500000  0.149467  0.887814  1
  P  P34  1  0.000000  0.648482  0.112403  1
  P  P35  1  0.000000  0.351518  0.112403  1
