# generated using pymatgen
data_SrPrDy2(Ir2O7)2
_symmetry_space_group_name_H-M   'P 1'
_cell_length_a   7.35584615
_cell_length_b   7.35724582
_cell_length_c   7.35584560
_cell_angle_alpha   59.79620058
_cell_angle_beta   59.66461501
_cell_angle_gamma   59.79619454
_symmetry_Int_Tables_number   1
_chemical_formula_structural   SrPrDy2(Ir2O7)2
_chemical_formula_sum   'Sr1 Pr1 Dy2 Ir4 O14'
_cell_volume   279.90759474
_cell_formula_units_Z   1
loop_
 _symmetry_equiv_pos_site_id
 _symmetry_equiv_pos_as_xyz
  1  'x, y, z'
loop_
 _atom_site_type_symbol
 _atom_site_label
 _atom_site_symmetry_multiplicity
 _atom_site_fract_x
 _atom_site_fract_y
 _atom_site_fract_z
 _atom_site_occupancy
  Sr  Sr0  1  0.125000  0.625000  0.125000  1
  Pr  Pr1  1  0.125000  0.125000  0.125000  1
  Dy  Dy2  1  0.125000  0.125000  0.625000  1
  Dy  Dy3  1  0.625000  0.125000  0.125000  1
  Ir  Ir4  1  0.625000  0.625000  0.625000  1
  Ir  Ir5  1  0.125000  0.625000  0.625000  1
  Ir  Ir6  1  0.625000  0.125000  0.625000  1
  Ir  Ir7  1  0.625000  0.625000  0.125000  1
  O  O8  1  0.953634  0.531301  0.560201  1
  O  O9  1  0.294135  0.291638  0.698837  1
  O  O10  1  0.953335  0.541524  0.953335  1
  O  O11  1  0.698837  0.291638  0.294135  1
  O  O12  1  0.560201  0.531301  0.953634  1
  O  O13  1  0.543154  0.957685  0.543154  1
  O  O14  1  0.551163  0.958362  0.955865  1
  O  O15  1  0.261848  0.231680  0.261848  1
  O  O16  1  0.296366  0.718699  0.689799  1
  O  O17  1  0.706846  0.292315  0.706846  1
  O  O18  1  0.988152  0.018320  0.988152  1
  O  O19  1  0.955865  0.958362  0.551163  1
  O  O20  1  0.296665  0.708476  0.296665  1
  O  O21  1  0.689799  0.718699  0.296366  1
