# generated using pymatgen
data_Er7(RhSe)2
_symmetry_space_group_name_H-M   'P 1'
_cell_length_a   9.07051442
_cell_length_b   9.07051327
_cell_length_c   9.07051328
_cell_angle_alpha   155.63345751
_cell_angle_beta   118.58635523
_cell_angle_gamma   67.08235820
_symmetry_Int_Tables_number   1
_chemical_formula_structural   Er7(RhSe)2
_chemical_formula_sum   'Er7 Rh2 Se2'
_cell_volume   268.12565487
_cell_formula_units_Z   1
loop_
 _symmetry_equiv_pos_site_id
 _symmetry_equiv_pos_as_xyz
  1  'x, y, z'
loop_
 _atom_site_type_symbol
 _atom_site_label
 _atom_site_symmetry_multiplicity
 _atom_site_fract_x
 _atom_site_fract_y
 _atom_site_fract_z
 _atom_site_occupancy
  Er  Er0  1  0.708153  0.124262  0.583891  1
  Er  Er1  1  0.459629  0.875738  0.583891  1
  Er  Er2  1  0.693452  0.319208  0.374243  1
  Er  Er3  1  0.055035  0.680792  0.374243  1
  Er  Er4  1  0.100933  0.360055  0.740878  1
  Er  Er5  1  0.380823  0.639945  0.740878  1
  Er  Er6  1  0.995197  0.000000  0.995197  1
  Rh  Rh7  1  0.307786  0.238066  0.069719  1
  Rh  Rh8  1  0.831653  0.761934  0.069719  1
  Se  Se9  1  0.737185  0.500000  0.237185  1
  Se  Se10  1  0.339295  0.000000  0.339295  1
