# generated using pymatgen
data_LaYbAl20Os3Pd
_symmetry_space_group_name_H-M   'P 1'
_cell_length_a   6.89953685
_cell_length_b   6.92444925
_cell_length_c   9.21205924
_cell_angle_alpha   90.27640495
_cell_angle_beta   90.20051196
_cell_angle_gamma   96.79481261
_symmetry_Int_Tables_number   1
_chemical_formula_structural   LaYbAl20Os3Pd
_chemical_formula_sum   'La1 Yb1 Al20 Os3 Pd1'
_cell_volume   437.01067359
_cell_formula_units_Z   1
loop_
 _symmetry_equiv_pos_site_id
 _symmetry_equiv_pos_as_xyz
  1  'x, y, z'
loop_
 _atom_site_type_symbol
 _atom_site_label
 _atom_site_symmetry_multiplicity
 _atom_site_fract_x
 _atom_site_fract_y
 _atom_site_fract_z
 _atom_site_occupancy
  La  La0  1  0.626136  0.375868  0.750204  1
  Yb  Yb1  1  0.371655  0.625884  0.250763  1
  Al  Al2  1  0.273648  0.016332  0.743056  1
  Al  Al3  1  0.019777  0.284260  0.249873  1
  Al  Al4  1  0.723983  0.980434  0.256396  1
  Al  Al5  1  0.983713  0.718744  0.749903  1
  Al  Al6  1  0.884745  0.123981  0.947663  1
  Al  Al7  1  0.117245  0.874433  0.052082  1
  Al  Al8  1  0.879323  0.123241  0.547059  1
  Al  Al9  1  0.122431  0.874706  0.452749  1
  Al  Al10  1  0.645340  0.911187  0.747913  1
  Al  Al11  1  0.915134  0.644483  0.251131  1
  Al  Al12  1  0.351990  0.082496  0.252185  1
  Al  Al13  1  0.091804  0.357683  0.748846  1
  Al  Al14  1  0.337451  0.657437  0.895681  1
  Al  Al15  1  0.661989  0.343208  0.106652  1
  Al  Al16  1  0.342131  0.658101  0.598679  1
  Al  Al17  1  0.657727  0.340886  0.397897  1
  Al  Al18  1  0.726848  0.724889  0.000453  1
  Al  Al19  1  0.721982  0.722663  0.498677  1
  Al  Al20  1  0.272059  0.278659  0.006006  1
  Al  Al21  1  0.275666  0.278966  0.496124  1
  Os  Os22  1  0.999179  0.500297  0.000522  1
  Os  Os23  1  0.499810  0.000485  0.499479  1
  Os  Os24  1  0.998972  0.500054  0.499212  1
  Pd  Pd25  1  0.499261  0.000624  0.000792  1
