# generated using pymatgen
data_TbTm2ThAl4(Ga7Ir3)2
_symmetry_space_group_name_H-M   'P 1'
_cell_length_a   7.59293364
_cell_length_b   7.60810519
_cell_length_c   9.47910200
_cell_angle_alpha   90.00000000
_cell_angle_beta   90.00000000
_cell_angle_gamma   119.65345810
_symmetry_Int_Tables_number   1
_chemical_formula_structural   TbTm2ThAl4(Ga7Ir3)2
_chemical_formula_sum   'Tb1 Tm2 Th1 Al4 Ga14 Ir6'
_cell_volume   475.87175059
_cell_formula_units_Z   1
loop_
 _symmetry_equiv_pos_site_id
 _symmetry_equiv_pos_as_xyz
  1  'x, y, z'
loop_
 _atom_site_type_symbol
 _atom_site_label
 _atom_site_symmetry_multiplicity
 _atom_site_fract_x
 _atom_site_fract_y
 _atom_site_fract_z
 _atom_site_occupancy
  Tb  Tb0  1  0.672882  0.999742  0.250000  1
  Tm  Tm1  1  0.997683  0.329144  0.750000  1
  Tm  Tm2  1  0.328063  0.998549  0.750000  1
  Th  Th3  1  0.999261  0.670135  0.250000  1
  Al  Al4  1  0.330003  0.330109  0.559012  1
  Al  Al5  1  0.663921  0.667596  0.452244  1
  Al  Al6  1  0.663921  0.667596  0.047756  1
  Al  Al7  1  0.330003  0.330109  0.940988  1
  Ga  Ga8  1  0.130773  0.132930  0.250000  1
  Ga  Ga9  1  0.874212  0.877555  0.750000  1
  Ga  Ga10  1  0.001321  0.330415  0.076762  1
  Ga  Ga11  1  0.999978  0.664119  0.912162  1
  Ga  Ga12  1  0.999978  0.664119  0.587838  1
  Ga  Ga13  1  0.341431  0.005367  0.422930  1
  Ga  Ga14  1  0.001321  0.330415  0.423238  1
  Ga  Ga15  1  0.664086  0.001584  0.582338  1
  Ga  Ga16  1  0.664086  0.001584  0.917662  1
  Ga  Ga17  1  0.341431  0.005367  0.077070  1
  Ga  Ga18  1  0.353758  0.552640  0.250000  1
  Ga  Ga19  1  0.649088  0.445828  0.750000  1
  Ga  Ga20  1  0.545387  0.343659  0.250000  1
  Ga  Ga21  1  0.446719  0.652830  0.750000  1
  Ir  Ir22  1  0.672017  0.333087  0.000062  1
  Ir  Ir23  1  0.327760  0.668730  0.000150  1
  Ir  Ir24  1  0.327760  0.668730  0.499850  1
  Ir  Ir25  1  0.672017  0.333087  0.499938  1
  Ir  Ir26  1  0.000572  0.997486  0.000549  1
  Ir  Ir27  1  0.000572  0.997486  0.499451  1
