# generated using pymatgen
data_YbScPa2Ge6Os7
_symmetry_space_group_name_H-M   'P 1'
_cell_length_a   7.20221587
_cell_length_b   7.20529318
_cell_length_c   7.23756521
_cell_angle_alpha   109.47861875
_cell_angle_beta   109.64534267
_cell_angle_gamma   109.44434406
_symmetry_Int_Tables_number   1
_chemical_formula_structural   YbScPa2Ge6Os7
_chemical_formula_sum   'Yb1 Sc1 Pa2 Ge6 Os7'
_cell_volume   288.57294501
_cell_formula_units_Z   1
loop_
 _symmetry_equiv_pos_site_id
 _symmetry_equiv_pos_as_xyz
  1  'x, y, z'
loop_
 _atom_site_type_symbol
 _atom_site_label
 _atom_site_symmetry_multiplicity
 _atom_site_fract_x
 _atom_site_fract_y
 _atom_site_fract_z
 _atom_site_occupancy
  Yb  Yb0  1  0.000000  0.500000  0.000000  1
  Sc  Sc1  1  0.000000  0.000000  0.500000  1
  Pa  Pa2  1  0.500000  0.000000  0.000000  1
  Pa  Pa3  1  0.500000  0.500000  0.500000  1
  Ge  Ge4  1  0.699582  0.690231  0.008381  1
  Ge  Ge5  1  0.300432  0.990564  0.308675  1
  Ge  Ge6  1  0.999864  0.309782  0.309000  1
  Ge  Ge7  1  0.300418  0.309769  0.991619  1
  Ge  Ge8  1  0.699568  0.009436  0.691325  1
  Ge  Ge9  1  0.000136  0.690218  0.691000  1
  Os  Os10  1  0.746808  0.245857  0.493196  1
  Os  Os11  1  0.746772  0.500741  0.253423  1
  Os  Os12  1  0.491747  0.245799  0.745956  1
  Os  Os13  1  0.253228  0.499259  0.746577  1
  Os  Os14  1  0.253192  0.754143  0.506804  1
  Os  Os15  1  0.508253  0.754201  0.254044  1
  Os  Os16  1  0.000000  0.000000  0.000000  1
