# generated using pymatgen
data_Ba3NdRhO6
_symmetry_space_group_name_H-M   'P 1'
_cell_length_a   7.23691382
_cell_length_b   7.23691257
_cell_length_c   7.23691439
_cell_angle_alpha   92.76796204
_cell_angle_beta   92.76796103
_cell_angle_gamma   92.76796128
_symmetry_Int_Tables_number   1
_chemical_formula_structural   Ba3NdRhO6
_chemical_formula_sum   'Ba6 Nd2 Rh2 O12'
_cell_volume   377.64729017
_cell_formula_units_Z   2
loop_
 _symmetry_equiv_pos_site_id
 _symmetry_equiv_pos_as_xyz
  1  'x, y, z'
loop_
 _atom_site_type_symbol
 _atom_site_label
 _atom_site_symmetry_multiplicity
 _atom_site_fract_x
 _atom_site_fract_y
 _atom_site_fract_z
 _atom_site_occupancy
  Ba  Ba0  1  0.250000  0.880594  0.619406  1
  Ba  Ba1  1  0.880594  0.619406  0.250000  1
  Ba  Ba2  1  0.750000  0.119406  0.380594  1
  Ba  Ba3  1  0.380594  0.750000  0.119406  1
  Ba  Ba4  1  0.119406  0.380594  0.750000  1
  Ba  Ba5  1  0.619406  0.250000  0.880594  1
  Nd  Nd6  1  0.750000  0.750000  0.750000  1
  Nd  Nd7  1  0.250000  0.250000  0.250000  1
  Rh  Rh8  1  0.500000  0.500000  0.500000  1
  Rh  Rh9  1  0.000000  0.000000  0.000000  1
  O  O10  1  0.588970  0.782524  0.458413  1
  O  O11  1  0.458413  0.588970  0.782524  1
  O  O12  1  0.782524  0.458413  0.588970  1
  O  O13  1  0.911030  0.041587  0.717476  1
  O  O14  1  0.717476  0.911030  0.041587  1
  O  O15  1  0.041587  0.717476  0.911030  1
  O  O16  1  0.411030  0.217476  0.541587  1
  O  O17  1  0.541587  0.411030  0.217476  1
  O  O18  1  0.217476  0.541587  0.411030  1
  O  O19  1  0.088970  0.958413  0.282524  1
  O  O20  1  0.958413  0.282524  0.088970  1
  O  O21  1  0.282524  0.088970  0.958413  1
