# generated using pymatgen
data_CaLaTiSbO7
_symmetry_space_group_name_H-M   'P 1'
_cell_length_a   7.41096335
_cell_length_b   7.41096254
_cell_length_c   7.41096288
_cell_angle_alpha   120.22411244
_cell_angle_beta   119.48076910
_cell_angle_gamma   90.25696729
_symmetry_Int_Tables_number   1
_chemical_formula_structural   CaLaTiSbO7
_chemical_formula_sum   'Ca2 La2 Ti2 Sb2 O14'
_cell_volume   288.43571874
_cell_formula_units_Z   2
loop_
 _symmetry_equiv_pos_site_id
 _symmetry_equiv_pos_as_xyz
  1  'x, y, z'
loop_
 _atom_site_type_symbol
 _atom_site_label
 _atom_site_symmetry_multiplicity
 _atom_site_fract_x
 _atom_site_fract_y
 _atom_site_fract_z
 _atom_site_occupancy
  Ca  Ca0  1  0.500000  0.000000  0.000000  1
  Ca  Ca1  1  0.500000  0.500000  0.500000  1
  La  La2  1  0.500000  0.000000  0.500000  1
  La  La3  1  0.000000  0.000000  0.000000  1
  Ti  Ti4  1  0.000000  0.500000  0.000000  1
  Ti  Ti5  1  0.000000  0.000000  0.500000  1
  Sb  Sb6  1  0.000000  0.500000  0.500000  1
  Sb  Sb7  1  0.500000  0.500000  0.000000  1
  O  O8  1  0.932068  0.182068  0.750000  1
  O  O9  1  0.328033  0.578033  0.750000  1
  O  O10  1  0.929836  0.573085  0.752863  1
  O  O11  1  0.320221  0.176973  0.747137  1
  O  O12  1  0.929836  0.176973  0.356752  1
  O  O13  1  0.320221  0.573085  0.143248  1
  O  O14  1  0.067932  0.817932  0.250000  1
  O  O15  1  0.671967  0.421967  0.250000  1
  O  O16  1  0.070164  0.426915  0.247137  1
  O  O17  1  0.679779  0.823027  0.252863  1
  O  O18  1  0.070164  0.823027  0.643248  1
  O  O19  1  0.679779  0.426915  0.856752  1
  O  O20  1  0.623459  0.873459  0.750000  1
  O  O21  1  0.376541  0.126541  0.250000  1
