# generated using pymatgen
data_Tb3Y12Th(CdPt)4
_symmetry_space_group_name_H-M   'P 1'
_cell_length_a   9.76055523
_cell_length_b   9.76055641
_cell_length_c   9.76055690
_cell_angle_alpha   59.98301543
_cell_angle_beta   59.98301558
_cell_angle_gamma   59.98301719
_symmetry_Int_Tables_number   1
_chemical_formula_structural   Tb3Y12Th(CdPt)4
_chemical_formula_sum   'Tb3 Y12 Th1 Cd4 Pt4'
_cell_volume   657.26637693
_cell_formula_units_Z   1
loop_
 _symmetry_equiv_pos_site_id
 _symmetry_equiv_pos_as_xyz
  1  'x, y, z'
loop_
 _atom_site_type_symbol
 _atom_site_label
 _atom_site_symmetry_multiplicity
 _atom_site_fract_x
 _atom_site_fract_y
 _atom_site_fract_z
 _atom_site_occupancy
  Tb  Tb0  1  0.353885  0.353885  0.939104  1
  Tb  Tb1  1  0.353885  0.939104  0.353885  1
  Tb  Tb2  1  0.939104  0.353885  0.353885  1
  Y  Y3  1  0.812437  0.189402  0.189402  1
  Y  Y4  1  0.190221  0.810905  0.810905  1
  Y  Y5  1  0.189402  0.812437  0.189402  1
  Y  Y6  1  0.810905  0.190221  0.810905  1
  Y  Y7  1  0.189402  0.189402  0.812437  1
  Y  Y8  1  0.810905  0.810905  0.190221  1
  Y  Y9  1  0.937075  0.565627  0.565627  1
  Y  Y10  1  0.563328  0.936943  0.936943  1
  Y  Y11  1  0.565627  0.937075  0.565627  1
  Y  Y12  1  0.936943  0.563328  0.936943  1
  Y  Y13  1  0.565627  0.565627  0.937075  1
  Y  Y14  1  0.936943  0.936943  0.563328  1
  Th  Th15  1  0.348959  0.348959  0.348959  1
  Cd  Cd16  1  0.581714  0.581714  0.581714  1
  Cd  Cd17  1  0.582453  0.582453  0.252332  1
  Cd  Cd18  1  0.582453  0.252332  0.582453  1
  Cd  Cd19  1  0.252332  0.582453  0.582453  1
  Pt  Pt20  1  0.144202  0.144202  0.144202  1
  Pt  Pt21  1  0.141416  0.141416  0.569368  1
  Pt  Pt22  1  0.141416  0.569368  0.141416  1
  Pt  Pt23  1  0.569368  0.141416  0.141416  1
