# generated using pymatgen
data_HoZn3PdAu
_symmetry_space_group_name_H-M   'P 1'
_cell_length_a   5.23545662
_cell_length_b   5.23545724
_cell_length_c   5.25041608
_cell_angle_alpha   60.09419340
_cell_angle_beta   60.09418939
_cell_angle_gamma   59.99999332
_symmetry_Int_Tables_number   1
_chemical_formula_structural   HoZn3PdAu
_chemical_formula_sum   'Ho1 Zn3 Pd1 Au1'
_cell_volume   101.90716627
_cell_formula_units_Z   1
loop_
 _symmetry_equiv_pos_site_id
 _symmetry_equiv_pos_as_xyz
  1  'x, y, z'
loop_
 _atom_site_type_symbol
 _atom_site_label
 _atom_site_symmetry_multiplicity
 _atom_site_fract_x
 _atom_site_fract_y
 _atom_site_fract_z
 _atom_site_occupancy
  Ho  Ho0  1  0.998629  0.998629  0.004113  1
  Zn  Zn1  1  0.624445  0.130761  0.620349  1
  Zn  Zn2  1  0.130761  0.624445  0.620349  1
  Zn  Zn3  1  0.624445  0.624445  0.620349  1
  Pd  Pd4  1  0.627771  0.627771  0.116689  1
  Au  Au5  1  0.243949  0.243949  0.268154  1
