# generated using pymatgen
data_NaLa5HoIrBr12
_symmetry_space_group_name_H-M   'P 1'
_cell_length_a   9.48767731
_cell_length_b   9.75116683
_cell_length_c   9.79602937
_cell_angle_alpha   108.13400385
_cell_angle_beta   107.41321530
_cell_angle_gamma   106.25409532
_symmetry_Int_Tables_number   1
_chemical_formula_structural   NaLa5HoIrBr12
_chemical_formula_sum   'Na1 La5 Ho1 Ir1 Br12'
_cell_volume   749.04040581
_cell_formula_units_Z   1
loop_
 _symmetry_equiv_pos_site_id
 _symmetry_equiv_pos_as_xyz
  1  'x, y, z'
loop_
 _atom_site_type_symbol
 _atom_site_label
 _atom_site_symmetry_multiplicity
 _atom_site_fract_x
 _atom_site_fract_y
 _atom_site_fract_z
 _atom_site_occupancy
  Na  Na0  1  0.499580  0.501195  0.498310  1
  La  La1  1  0.302899  0.025378  0.107518  1
  La  La2  1  0.032058  0.128270  0.334313  1
  La  La3  1  0.970902  0.880666  0.669850  1
  La  La4  1  0.697267  0.972801  0.893462  1
  La  La5  1  0.878875  0.666402  0.967937  1
  Ho  Ho6  1  0.115900  0.316512  0.032528  1
  Ir  Ir7  1  0.000836  0.000159  0.002251  1
  Br  Br8  1  0.213432  0.672099  0.070559  1
  Br  Br9  1  0.443978  0.372184  0.152739  1
  Br  Br10  1  0.679831  0.072707  0.215793  1
  Br  Br11  1  0.928784  0.791248  0.315961  1
  Br  Br12  1  0.155829  0.459132  0.355291  1
  Br  Br13  1  0.373907  0.163786  0.456949  1
  Br  Br14  1  0.627148  0.839580  0.544556  1
  Br  Br15  1  0.842550  0.542332  0.627791  1
  Br  Br16  1  0.077165  0.222857  0.701384  1
  Br  Br17  1  0.321217  0.929878  0.785584  1
  Br  Br18  1  0.538197  0.626946  0.836146  1
  Br  Br19  1  0.799647  0.315868  0.931082  1
