# generated using pymatgen
data_Rb2TeBrF5
_symmetry_space_group_name_H-M   'P 1'
_cell_length_a   11.31562300
_cell_length_b   5.01227346
_cell_length_c   16.32188789
_cell_angle_alpha   74.11524312
_cell_angle_beta   90.00000000
_cell_angle_gamma   90.00000000
_symmetry_Int_Tables_number   1
_chemical_formula_structural   Rb2TeBrF5
_chemical_formula_sum   'Rb8 Te4 Br4 F20'
_cell_volume   890.37874568
_cell_formula_units_Z   4
loop_
 _symmetry_equiv_pos_site_id
 _symmetry_equiv_pos_as_xyz
  1  'x, y, z'
loop_
 _atom_site_type_symbol
 _atom_site_label
 _atom_site_symmetry_multiplicity
 _atom_site_fract_x
 _atom_site_fract_y
 _atom_site_fract_z
 _atom_site_occupancy
  Rb  Rb0  1  0.083186  0.652018  0.109490  1
  Rb  Rb1  1  0.347039  0.313922  0.920844  1
  Rb  Rb2  1  0.152961  0.313922  0.420844  1
  Rb  Rb3  1  0.583186  0.347982  0.390510  1
  Rb  Rb4  1  0.416814  0.652018  0.609490  1
  Rb  Rb5  1  0.652961  0.686078  0.079156  1
  Rb  Rb6  1  0.916814  0.347982  0.890510  1
  Rb  Rb7  1  0.847039  0.686078  0.579156  1
  Te  Te8  1  0.630155  0.810180  0.819259  1
  Te  Te9  1  0.869845  0.810180  0.319259  1
  Te  Te10  1  0.130155  0.189820  0.680741  1
  Te  Te11  1  0.369845  0.189820  0.180741  1
  Br  Br12  1  0.130053  0.835325  0.894549  1
  Br  Br13  1  0.369947  0.835325  0.394549  1
  Br  Br14  1  0.869947  0.164675  0.105451  1
  Br  Br15  1  0.630053  0.164675  0.605451  1
  F  F16  1  0.250599  0.372626  0.237809  1
  F  F17  1  0.735588  0.871176  0.395604  1
  F  F18  1  0.010061  0.137582  0.593138  1
  F  F19  1  0.264412  0.128824  0.604396  1
  F  F20  1  0.500463  0.382335  0.224666  1
  F  F21  1  0.637559  0.449001  0.901282  1
  F  F22  1  0.249401  0.372626  0.737809  1
  F  F23  1  0.510061  0.862418  0.906862  1
  F  F24  1  0.137559  0.550999  0.598718  1
  F  F25  1  0.764412  0.871176  0.895604  1
  F  F26  1  0.999537  0.382335  0.724666  1
  F  F27  1  0.749401  0.627374  0.762191  1
  F  F28  1  0.862441  0.449001  0.401282  1
  F  F29  1  0.362441  0.550999  0.098718  1
  F  F30  1  0.489939  0.137582  0.093138  1
  F  F31  1  0.235588  0.128824  0.104396  1
  F  F32  1  0.000463  0.617665  0.275334  1
  F  F33  1  0.499537  0.617665  0.775334  1
  F  F34  1  0.750599  0.627374  0.262191  1
  F  F35  1  0.989939  0.862418  0.406862  1
