# generated using pymatgen
data_Ti6AsC2Se
_symmetry_space_group_name_H-M   'P 1'
_cell_length_a   5.47986448
_cell_length_b   5.47986469
_cell_length_c   8.13238200
_cell_angle_alpha   90.00000000
_cell_angle_beta   90.00000000
_cell_angle_gamma   145.28448317
_symmetry_Int_Tables_number   1
_chemical_formula_structural   Ti6AsC2Se
_chemical_formula_sum   'Ti6 As1 C2 Se1'
_cell_volume   139.07619354
_cell_formula_units_Z   1
loop_
 _symmetry_equiv_pos_site_id
 _symmetry_equiv_pos_as_xyz
  1  'x, y, z'
loop_
 _atom_site_type_symbol
 _atom_site_label
 _atom_site_symmetry_multiplicity
 _atom_site_fract_x
 _atom_site_fract_y
 _atom_site_fract_z
 _atom_site_occupancy
  Ti  Ti0  1  0.128262  0.871738  0.051377  1
  Ti  Ti1  1  0.444175  0.555825  0.250000  1
  Ti  Ti2  1  0.128262  0.871738  0.448623  1
  Ti  Ti3  1  0.871405  0.128595  0.553032  1
  Ti  Ti4  1  0.554776  0.445224  0.750000  1
  Ti  Ti5  1  0.871405  0.128595  0.946968  1
  As  As6  1  0.246134  0.753866  0.750000  1
  C  C7  1  0.500527  0.499473  0.000883  1
  C  C8  1  0.500527  0.499473  0.499117  1
  Se  Se9  1  0.754527  0.245473  0.250000  1
