# generated using pymatgen
data_Hf3NpH15
_symmetry_space_group_name_H-M   'P 1'
_cell_length_a   7.03949770
_cell_length_b   7.08514074
_cell_length_c   7.11345722
_cell_angle_alpha   109.65663805
_cell_angle_beta   109.39789478
_cell_angle_gamma   109.06558271
_symmetry_Int_Tables_number   1
_chemical_formula_structural   Hf3NpH15
_chemical_formula_sum   'Hf6 Np2 H30'
_cell_volume   274.09662882
_cell_formula_units_Z   2
loop_
 _symmetry_equiv_pos_site_id
 _symmetry_equiv_pos_as_xyz
  1  'x, y, z'
loop_
 _atom_site_type_symbol
 _atom_site_label
 _atom_site_symmetry_multiplicity
 _atom_site_fract_x
 _atom_site_fract_y
 _atom_site_fract_z
 _atom_site_occupancy
  Hf  Hf0  1  0.008020  0.110441  0.508346  1
  Hf  Hf1  1  0.102974  0.494616  0.001555  1
  Hf  Hf2  1  0.999674  0.602094  0.491654  1
  Hf  Hf3  1  0.601419  0.493060  0.998445  1
  Hf  Hf4  1  0.493728  0.000610  0.590554  1
  Hf  Hf5  1  0.403174  0.410055  0.409446  1
  Np  Np6  1  0.907643  0.905845  0.905021  1
  Np  Np7  1  0.502621  0.000824  0.094979  1
  H  H8  1  0.667467  0.979504  0.400698  1
  H  H9  1  0.227023  0.306327  0.847983  1
  H  H10  1  0.194831  0.424140  0.542590  1
  H  H11  1  0.090499  0.288452  0.130656  1
  H  H12  1  0.283318  0.144269  0.107822  1
  H  H13  1  0.127329  0.104221  0.293026  1
  H  H14  1  0.459843  0.157796  0.869344  1
  H  H15  1  0.721699  0.337689  0.808086  1
  H  H16  1  0.625412  0.377636  0.248318  1
  H  H17  1  0.242940  0.623413  0.370860  1
  H  H18  1  0.761152  0.872784  0.139654  1
  H  H19  1  0.121498  0.733130  0.860346  1
  H  H20  1  0.372081  0.252553  0.629140  1
  H  H21  1  0.877093  0.129318  0.751682  1
  H  H22  1  0.766769  0.578807  0.599302  1
  H  H23  1  0.305191  0.833514  0.228392  1
  H  H24  1  0.381075  0.638476  0.973125  1
  H  H25  1  0.978209  0.382938  0.665277  1
  H  H26  1  0.528879  0.195256  0.426750  1
  H  H27  1  0.413614  0.529603  0.191914  1
  H  H28  1  0.863320  0.240583  0.332710  1
  H  H29  1  0.907950  0.665351  0.026875  1
  H  H30  1  0.812933  0.717660  0.334723  1
  H  H31  1  0.152240  0.881549  0.457410  1
  H  H32  1  0.675496  0.036447  0.892178  1
  H  H33  1  0.334303  0.811195  0.706974  1
  H  H34  1  0.879040  0.458344  0.152017  1
  H  H35  1  0.602128  0.768505  0.573250  1
  H  H36  1  0.576799  0.605122  0.771608  1
  H  H37  1  0.030610  0.907873  0.667290  1
