# generated using pymatgen
data_Ho6Er4CuPb6Se
_symmetry_space_group_name_H-M   'P 1'
_cell_length_a   9.11463300
_cell_length_b   9.11463312
_cell_length_c   6.66505600
_cell_angle_alpha   90.00000000
_cell_angle_beta   90.00000000
_cell_angle_gamma   120.00001044
_symmetry_Int_Tables_number   1
_chemical_formula_structural   Ho6Er4CuPb6Se
_chemical_formula_sum   'Ho6 Er4 Cu1 Pb6 Se1'
_cell_volume   479.52667122
_cell_formula_units_Z   1
loop_
 _symmetry_equiv_pos_site_id
 _symmetry_equiv_pos_as_xyz
  1  'x, y, z'
loop_
 _atom_site_type_symbol
 _atom_site_label
 _atom_site_symmetry_multiplicity
 _atom_site_fract_x
 _atom_site_fract_y
 _atom_site_fract_z
 _atom_site_occupancy
  Ho  Ho0  1  0.254039  0.000000  0.246994  1
  Ho  Ho1  1  0.745961  0.000000  0.753006  1
  Ho  Ho2  1  0.000000  0.254039  0.246994  1
  Ho  Ho3  1  0.000000  0.745961  0.753006  1
  Ho  Ho4  1  0.745961  0.745961  0.246994  1
  Ho  Ho5  1  0.254039  0.254039  0.753006  1
  Er  Er6  1  0.333333  0.666667  0.000000  1
  Er  Er7  1  0.666667  0.333333  0.000000  1
  Er  Er8  1  0.666667  0.333333  0.500000  1
  Er  Er9  1  0.333333  0.666667  0.500000  1
  Cu  Cu10  1  0.000000  0.000000  0.500000  1
  Pb  Pb11  1  0.606800  0.000000  0.249622  1
  Pb  Pb12  1  0.393200  0.000000  0.750378  1
  Pb  Pb13  1  0.000000  0.606800  0.249622  1
  Pb  Pb14  1  0.000000  0.393200  0.750378  1
  Pb  Pb15  1  0.393200  0.393200  0.249622  1
  Pb  Pb16  1  0.606800  0.606800  0.750378  1
  Se  Se17  1  0.000000  0.000000  0.000000  1
