# generated using pymatgen
data_Lu7Sn23Os6
_symmetry_space_group_name_H-M   'P 1'
_cell_length_a   9.81856400
_cell_length_b   9.81856376
_cell_length_c   10.07847400
_cell_angle_alpha   90.00000000
_cell_angle_beta   90.00000000
_cell_angle_gamma   120.00000754
_symmetry_Int_Tables_number   1
_chemical_formula_structural   Lu7Sn23Os6
_chemical_formula_sum   'Lu7 Sn23 Os6'
_cell_volume   841.43644487
_cell_formula_units_Z   1
loop_
 _symmetry_equiv_pos_site_id
 _symmetry_equiv_pos_as_xyz
  1  'x, y, z'
loop_
 _atom_site_type_symbol
 _atom_site_label
 _atom_site_symmetry_multiplicity
 _atom_site_fract_x
 _atom_site_fract_y
 _atom_site_fract_z
 _atom_site_occupancy
  Lu  Lu0  1  0.000000  0.000000  0.000000  1
  Lu  Lu1  1  0.488744  0.511256  0.299962  1
  Lu  Lu2  1  0.511256  0.488744  0.700038  1
  Lu  Lu3  1  0.488744  0.977488  0.299962  1
  Lu  Lu4  1  0.511256  0.022512  0.700038  1
  Lu  Lu5  1  0.022512  0.511256  0.299962  1
  Lu  Lu6  1  0.977488  0.488744  0.700038  1
  Sn  Sn7  1  0.349723  0.000000  0.000000  1
  Sn  Sn8  1  0.650277  0.000000  0.000000  1
  Sn  Sn9  1  0.000000  0.349723  0.000000  1
  Sn  Sn10  1  0.000000  0.650277  0.000000  1
  Sn  Sn11  1  0.650277  0.650277  0.000000  1
  Sn  Sn12  1  0.349723  0.349723  0.000000  1
  Sn  Sn13  1  0.333333  0.666667  0.831146  1
  Sn  Sn14  1  0.666667  0.333333  0.168854  1
  Sn  Sn15  1  0.000000  0.000000  0.500000  1
  Sn  Sn16  1  0.778293  0.221707  0.465489  1
  Sn  Sn17  1  0.221707  0.778293  0.534511  1
  Sn  Sn18  1  0.778293  0.556587  0.465489  1
  Sn  Sn19  1  0.221707  0.443413  0.534511  1
  Sn  Sn20  1  0.443413  0.221707  0.465489  1
  Sn  Sn21  1  0.556587  0.778293  0.534511  1
  Sn  Sn22  1  0.333333  0.666667  0.138789  1
  Sn  Sn23  1  0.666667  0.333333  0.861211  1
  Sn  Sn24  1  0.118516  0.881484  0.278554  1
  Sn  Sn25  1  0.881484  0.118516  0.721446  1
  Sn  Sn26  1  0.118516  0.237033  0.278554  1
  Sn  Sn27  1  0.881484  0.762967  0.721446  1
  Sn  Sn28  1  0.762967  0.881484  0.278554  1
  Sn  Sn29  1  0.237033  0.118516  0.721446  1
  Os  Os30  1  0.829088  0.170912  0.202924  1
  Os  Os31  1  0.170912  0.829088  0.797076  1
  Os  Os32  1  0.829088  0.658176  0.202924  1
  Os  Os33  1  0.170912  0.341824  0.797076  1
  Os  Os34  1  0.341824  0.170912  0.202924  1
  Os  Os35  1  0.658176  0.829088  0.797076  1
