# generated using pymatgen
data_TiBe(BMo)3
_symmetry_space_group_name_H-M   'P 1'
_cell_length_a   4.54610421
_cell_length_b   4.54610399
_cell_length_c   6.28488800
_cell_angle_alpha   90.00000000
_cell_angle_beta   90.00000000
_cell_angle_gamma   138.99193158
_symmetry_Int_Tables_number   1
_chemical_formula_structural   TiBe(BMo)3
_chemical_formula_sum   'Ti1 Be1 B3 Mo3'
_cell_volume   85.22942447
_cell_formula_units_Z   1
loop_
 _symmetry_equiv_pos_site_id
 _symmetry_equiv_pos_as_xyz
  1  'x, y, z'
loop_
 _atom_site_type_symbol
 _atom_site_label
 _atom_site_symmetry_multiplicity
 _atom_site_fract_x
 _atom_site_fract_y
 _atom_site_fract_z
 _atom_site_occupancy
  Ti  Ti0  1  0.850263  0.149737  0.000000  1
  Be  Be1  1  0.566349  0.433651  0.500000  1
  B  B2  1  0.557218  0.442782  0.000000  1
  B  B3  1  0.437638  0.562362  0.243619  1
  B  B4  1  0.437638  0.562362  0.756381  1
  Mo  Mo5  1  0.856157  0.143843  0.500000  1
  Mo  Mo6  1  0.147368  0.852632  0.242644  1
  Mo  Mo7  1  0.147368  0.852632  0.757356  1
