# generated using pymatgen
data_SmTaCo4As3
_symmetry_space_group_name_H-M   'P 1'
_cell_length_a   3.85575300
_cell_length_b   10.95353700
_cell_length_c   12.48376500
_cell_angle_alpha   90.00000000
_cell_angle_beta   90.00000000
_cell_angle_gamma   90.00000000
_symmetry_Int_Tables_number   1
_chemical_formula_structural   SmTaCo4As3
_chemical_formula_sum   'Sm4 Ta4 Co16 As12'
_cell_volume   527.24099320
_cell_formula_units_Z   4
loop_
 _symmetry_equiv_pos_site_id
 _symmetry_equiv_pos_as_xyz
  1  'x, y, z'
loop_
 _atom_site_type_symbol
 _atom_site_label
 _atom_site_symmetry_multiplicity
 _atom_site_fract_x
 _atom_site_fract_y
 _atom_site_fract_z
 _atom_site_occupancy
  Sm  Sm0  1  0.250000  0.579921  0.704437  1
  Sm  Sm1  1  0.250000  0.920079  0.204437  1
  Sm  Sm2  1  0.750000  0.420079  0.295563  1
  Sm  Sm3  1  0.750000  0.079921  0.795563  1
  Ta  Ta4  1  0.250000  0.701086  0.991108  1
  Ta  Ta5  1  0.250000  0.798914  0.491108  1
  Ta  Ta6  1  0.750000  0.298914  0.008892  1
  Ta  Ta7  1  0.750000  0.201086  0.508892  1
  Co  Co8  1  0.250000  0.401996  0.489126  1
  Co  Co9  1  0.250000  0.098004  0.989126  1
  Co  Co10  1  0.750000  0.598004  0.510874  1
  Co  Co11  1  0.750000  0.901996  0.010874  1
  Co  Co12  1  0.250000  0.219029  0.173377  1
  Co  Co13  1  0.250000  0.280971  0.673377  1
  Co  Co14  1  0.750000  0.780971  0.826623  1
  Co  Co15  1  0.750000  0.719029  0.326623  1
  Co  Co16  1  0.250000  0.885102  0.698445  1
  Co  Co17  1  0.250000  0.614898  0.198445  1
  Co  Co18  1  0.750000  0.114898  0.301555  1
  Co  Co19  1  0.750000  0.385102  0.801555  1
  Co  Co20  1  0.250000  0.465659  0.934524  1
  Co  Co21  1  0.250000  0.034341  0.434524  1
  Co  Co22  1  0.750000  0.534341  0.065476  1
  Co  Co23  1  0.750000  0.965659  0.565476  1
  As  As24  1  0.250000  0.421021  0.117681  1
  As  As25  1  0.250000  0.078979  0.617681  1
  As  As26  1  0.750000  0.578979  0.882319  1
  As  As27  1  0.750000  0.921021  0.382319  1
  As  As28  1  0.250000  0.268904  0.860588  1
  As  As29  1  0.250000  0.231096  0.360588  1
  As  As30  1  0.750000  0.731096  0.139412  1
  As  As31  1  0.750000  0.768904  0.639412  1
  As  As32  1  0.250000  0.593285  0.391299  1
  As  As33  1  0.250000  0.906715  0.891299  1
  As  As34  1  0.750000  0.406715  0.608701  1
  As  As35  1  0.750000  0.093285  0.108701  1
