# generated using pymatgen
data_Ce3Sn3OsRh2
_symmetry_space_group_name_H-M   'P 1'
_cell_length_a   7.50633000
_cell_length_b   7.50632959
_cell_length_c   4.06509500
_cell_angle_alpha   90.00000000
_cell_angle_beta   90.00000000
_cell_angle_gamma   120.00000179
_symmetry_Int_Tables_number   1
_chemical_formula_structural   Ce3Sn3OsRh2
_chemical_formula_sum   'Ce3 Sn3 Os1 Rh2'
_cell_volume   198.36114495
_cell_formula_units_Z   1
loop_
 _symmetry_equiv_pos_site_id
 _symmetry_equiv_pos_as_xyz
  1  'x, y, z'
loop_
 _atom_site_type_symbol
 _atom_site_label
 _atom_site_symmetry_multiplicity
 _atom_site_fract_x
 _atom_site_fract_y
 _atom_site_fract_z
 _atom_site_occupancy
  Ce  Ce0  1  0.995738  0.412748  0.000000  1
  Ce  Ce1  1  0.587252  0.582991  0.000000  1
  Ce  Ce2  1  0.417009  0.004262  0.000000  1
  Sn  Sn3  1  0.253309  0.252935  0.500000  1
  Sn  Sn4  1  0.999627  0.746691  0.500000  1
  Sn  Sn5  1  0.747065  0.000373  0.500000  1
  Os  Os6  1  0.666667  0.333333  0.500000  1
  Rh  Rh7  1  0.333333  0.666667  0.500000  1
  Rh  Rh8  1  0.000000  0.000000  0.000000  1
