# generated using pymatgen
data_Er4Fe5Ni11(MoP3)4
_symmetry_space_group_name_H-M   'P 1'
_cell_length_a   3.69466900
_cell_length_b   10.44811826
_cell_length_c   12.04292928
_cell_angle_alpha   89.86527090
_cell_angle_beta   90.00000000
_cell_angle_gamma   90.00000000
_symmetry_Int_Tables_number   1
_chemical_formula_structural   Er4Fe5Ni11(MoP3)4
_chemical_formula_sum   'Er4 Fe5 Ni11 Mo4 P12'
_cell_volume   464.88394904
_cell_formula_units_Z   1
loop_
 _symmetry_equiv_pos_site_id
 _symmetry_equiv_pos_as_xyz
  1  'x, y, z'
loop_
 _atom_site_type_symbol
 _atom_site_label
 _atom_site_symmetry_multiplicity
 _atom_site_fract_x
 _atom_site_fract_y
 _atom_site_fract_z
 _atom_site_occupancy
  Er  Er0  1  0.250000  0.578176  0.708851  1
  Er  Er1  1  0.250000  0.919273  0.207180  1
  Er  Er2  1  0.750000  0.419281  0.293090  1
  Er  Er3  1  0.750000  0.083452  0.791203  1
  Fe  Fe4  1  0.750000  0.380549  0.800302  1
  Fe  Fe5  1  0.250000  0.465243  0.935378  1
  Fe  Fe6  1  0.250000  0.034906  0.434067  1
  Fe  Fe7  1  0.750000  0.536888  0.067539  1
  Fe  Fe8  1  0.750000  0.963445  0.566208  1
  Ni  Ni9  1  0.250000  0.411201  0.487677  1
  Ni  Ni10  1  0.250000  0.092199  0.984274  1
  Ni  Ni11  1  0.750000  0.587786  0.512567  1
  Ni  Ni12  1  0.750000  0.912952  0.010485  1
  Ni  Ni13  1  0.250000  0.222651  0.178527  1
  Ni  Ni14  1  0.250000  0.275902  0.676048  1
  Ni  Ni15  1  0.750000  0.774380  0.821947  1
  Ni  Ni16  1  0.750000  0.723446  0.321200  1
  Ni  Ni17  1  0.250000  0.882518  0.702210  1
  Ni  Ni18  1  0.250000  0.616786  0.202677  1
  Ni  Ni19  1  0.750000  0.116533  0.298011  1
  Mo  Mo20  1  0.250000  0.707013  0.990366  1
  Mo  Mo21  1  0.250000  0.792550  0.490945  1
  Mo  Mo22  1  0.750000  0.295633  0.011231  1
  Mo  Mo23  1  0.750000  0.206685  0.509717  1
  P  P24  1  0.250000  0.423292  0.113165  1
  P  P25  1  0.250000  0.075014  0.612752  1
  P  P26  1  0.750000  0.571704  0.886660  1
  P  P27  1  0.750000  0.923597  0.387260  1
  P  P28  1  0.250000  0.271965  0.862992  1
  P  P29  1  0.250000  0.235088  0.368045  1
  P  P30  1  0.750000  0.736000  0.131659  1
  P  P31  1  0.750000  0.763552  0.633016  1
  P  P32  1  0.250000  0.598377  0.389861  1
  P  P33  1  0.250000  0.902485  0.889024  1
  P  P34  1  0.750000  0.400287  0.614160  1
  P  P35  1  0.750000  0.099192  0.109705  1
