# generated using pymatgen
data_CsRbTi2(Cu3Se4)2
_symmetry_space_group_name_H-M   'P 1'
_cell_length_a   5.81950904
_cell_length_b   7.84053600
_cell_length_c   10.28112866
_cell_angle_alpha   90.00000000
_cell_angle_beta   106.36502435
_cell_angle_gamma   90.00000000
_symmetry_Int_Tables_number   1
_chemical_formula_structural   CsRbTi2(Cu3Se4)2
_chemical_formula_sum   'Cs1 Rb1 Ti2 Cu6 Se8'
_cell_volume   450.10268546
_cell_formula_units_Z   1
loop_
 _symmetry_equiv_pos_site_id
 _symmetry_equiv_pos_as_xyz
  1  'x, y, z'
loop_
 _atom_site_type_symbol
 _atom_site_label
 _atom_site_symmetry_multiplicity
 _atom_site_fract_x
 _atom_site_fract_y
 _atom_site_fract_z
 _atom_site_occupancy
  Cs  Cs0  1  0.800157  0.750000  0.621299  1
  Rb  Rb1  1  0.199829  0.250001  0.378395  1
  Ti  Ti2  1  0.853493  0.750000  0.206705  1
  Ti  Ti3  1  0.145734  0.250001  0.793045  1
  Cu  Cu4  1  0.280501  0.507067  0.002357  1
  Cu  Cu5  1  0.280501  0.992934  0.002357  1
  Cu  Cu6  1  0.350499  0.750000  0.201075  1
  Cu  Cu7  1  0.649640  0.250001  0.798831  1
  Cu  Cu8  1  0.719484  0.007080  0.997668  1
  Cu  Cu9  1  0.719484  0.492920  0.997668  1
  Se  Se10  1  0.023000  0.250001  0.004898  1
  Se  Se11  1  0.614365  0.004344  0.213139  1
  Se  Se12  1  0.614365  0.495657  0.213139  1
  Se  Se13  1  0.193357  0.750000  0.396292  1
  Se  Se14  1  0.806340  0.250001  0.602169  1
  Se  Se15  1  0.385830  0.503530  0.787420  1
  Se  Se16  1  0.385830  0.996471  0.787420  1
  Se  Se17  1  0.977594  0.750000  0.996122  1
