# generated using pymatgen
data_Er10NiBi5
_symmetry_space_group_name_H-M   'P 1'
_cell_length_a   8.03785900
_cell_length_b   9.35286800
_cell_length_c   12.03499800
_cell_angle_alpha   90.00000000
_cell_angle_beta   90.00000000
_cell_angle_gamma   90.00000000
_symmetry_Int_Tables_number   1
_chemical_formula_structural   Er10NiBi5
_chemical_formula_sum   'Er20 Ni2 Bi10'
_cell_volume   904.75545660
_cell_formula_units_Z   2
loop_
 _symmetry_equiv_pos_site_id
 _symmetry_equiv_pos_as_xyz
  1  'x, y, z'
loop_
 _atom_site_type_symbol
 _atom_site_label
 _atom_site_symmetry_multiplicity
 _atom_site_fract_x
 _atom_site_fract_y
 _atom_site_fract_z
 _atom_site_occupancy
  Er  Er0  1  0.431752  0.177722  0.562844  1
  Er  Er1  1  0.568248  0.822278  0.062844  1
  Er  Er2  1  0.070588  0.723801  0.436145  1
  Er  Er3  1  0.929412  0.276199  0.936145  1
  Er  Er4  1  0.070588  0.276199  0.436145  1
  Er  Er5  1  0.929412  0.723801  0.936145  1
  Er  Er6  1  0.431752  0.822278  0.562844  1
  Er  Er7  1  0.568248  0.177722  0.062844  1
  Er  Er8  1  0.574036  0.500000  0.774018  1
  Er  Er9  1  0.425964  0.500000  0.274018  1
  Er  Er10  1  0.907156  0.000000  0.202419  1
  Er  Er11  1  0.092844  0.000000  0.702419  1
  Er  Er12  1  0.260585  0.500000  0.993677  1
  Er  Er13  1  0.739415  0.500000  0.493677  1
  Er  Er14  1  0.200496  0.000000  0.998856  1
  Er  Er15  1  0.799504  0.000000  0.498856  1
  Er  Er16  1  0.089894  0.500000  0.717106  1
  Er  Er17  1  0.910106  0.500000  0.217106  1
  Er  Er18  1  0.376983  0.000000  0.305363  1
  Er  Er19  1  0.623017  0.000000  0.805363  1
  Ni  Ni20  1  0.168358  0.000000  0.485718  1
  Ni  Ni21  1  0.831642  0.000000  0.985718  1
  Bi  Bi22  1  0.814826  0.741611  0.672859  1
  Bi  Bi23  1  0.185174  0.258389  0.172859  1
  Bi  Bi24  1  0.681100  0.241727  0.325162  1
  Bi  Bi25  1  0.318900  0.758273  0.825162  1
  Bi  Bi26  1  0.681100  0.758273  0.325162  1
  Bi  Bi27  1  0.318900  0.241727  0.825162  1
  Bi  Bi28  1  0.814826  0.258389  0.672859  1
  Bi  Bi29  1  0.185174  0.741611  0.172859  1
  Bi  Bi30  1  0.347550  0.500000  0.528824  1
  Bi  Bi31  1  0.652450  0.500000  0.028824  1
