# generated using pymatgen
data_Tb3LuAl18(Os2Pd)2
_symmetry_space_group_name_H-M   'P 1'
_cell_length_a   7.59042205
_cell_length_b   7.58975378
_cell_length_c   9.54549100
_cell_angle_alpha   90.00000000
_cell_angle_beta   90.00000000
_cell_angle_gamma   119.57402841
_symmetry_Int_Tables_number   1
_chemical_formula_structural   Tb3LuAl18(Os2Pd)2
_chemical_formula_sum   'Tb3 Lu1 Al18 Os4 Pd2'
_cell_volume   478.26732577
_cell_formula_units_Z   1
loop_
 _symmetry_equiv_pos_site_id
 _symmetry_equiv_pos_as_xyz
  1  'x, y, z'
loop_
 _atom_site_type_symbol
 _atom_site_label
 _atom_site_symmetry_multiplicity
 _atom_site_fract_x
 _atom_site_fract_y
 _atom_site_fract_z
 _atom_site_occupancy
  Tb  Tb0  1  0.997509  0.670342  0.250000  1
  Tb  Tb1  1  0.002385  0.330005  0.750000  1
  Tb  Tb2  1  0.669808  0.998028  0.250000  1
  Lu  Lu3  1  0.330564  0.001856  0.750000  1
  Al  Al4  1  0.132679  0.132615  0.250000  1
  Al  Al5  1  0.869025  0.868368  0.750000  1
  Al  Al6  1  0.002723  0.340054  0.072236  1
  Al  Al7  1  0.997876  0.660848  0.926821  1
  Al  Al8  1  0.997876  0.660848  0.573179  1
  Al  Al9  1  0.339946  0.002475  0.428515  1
  Al  Al10  1  0.002723  0.340054  0.427764  1
  Al  Al11  1  0.659183  0.997283  0.573265  1
  Al  Al12  1  0.659183  0.997283  0.926735  1
  Al  Al13  1  0.339946  0.002475  0.071485  1
  Al  Al14  1  0.339207  0.338629  0.549347  1
  Al  Al15  1  0.660822  0.660811  0.451229  1
  Al  Al16  1  0.660822  0.660811  0.048771  1
  Al  Al17  1  0.339207  0.338629  0.950653  1
  Al  Al18  1  0.336791  0.549017  0.250000  1
  Al  Al19  1  0.662573  0.449917  0.750000  1
  Al  Al20  1  0.548558  0.336510  0.250000  1
  Al  Al21  1  0.450771  0.663993  0.750000  1
  Os  Os22  1  0.671988  0.326904  0.999475  1
  Os  Os23  1  0.327304  0.672706  0.999308  1
  Os  Os24  1  0.327304  0.672706  0.500692  1
  Os  Os25  1  0.671988  0.326904  0.500525  1
  Pd  Pd26  1  0.000620  0.999966  0.999761  1
  Pd  Pd27  1  0.000620  0.999966  0.500239  1
