# generated using pymatgen
data_Np8IrSe17
_symmetry_space_group_name_H-M   'P 1'
_cell_length_a   8.18928336
_cell_length_b   8.18928391
_cell_length_c   10.90054030
_cell_angle_alpha   80.15101290
_cell_angle_beta   80.15101444
_cell_angle_gamma   65.22664994
_symmetry_Int_Tables_number   1
_chemical_formula_structural   Np8IrSe17
_chemical_formula_sum   'Np8 Ir1 Se17'
_cell_volume   649.93213452
_cell_formula_units_Z   1
loop_
 _symmetry_equiv_pos_site_id
 _symmetry_equiv_pos_as_xyz
  1  'x, y, z'
loop_
 _atom_site_type_symbol
 _atom_site_label
 _atom_site_symmetry_multiplicity
 _atom_site_fract_x
 _atom_site_fract_y
 _atom_site_fract_z
 _atom_site_occupancy
  Np  Np0  1  0.179227  0.695519  0.700123  1
  Np  Np1  1  0.695519  0.179227  0.700123  1
  Np  Np2  1  0.820773  0.304481  0.299877  1
  Np  Np3  1  0.304481  0.820773  0.299877  1
  Np  Np4  1  0.795054  0.795054  0.454087  1
  Np  Np5  1  0.204946  0.204946  0.545913  1
  Np  Np6  1  0.326264  0.326264  0.020211  1
  Np  Np7  1  0.673736  0.673736  0.979789  1
  Ir  Ir8  1  0.000000  0.000000  0.000000  1
  Se  Se9  1  0.178306  0.567660  0.463974  1
  Se  Se10  1  0.567660  0.178306  0.463974  1
  Se  Se11  1  0.821694  0.432340  0.536026  1
  Se  Se12  1  0.432340  0.821694  0.536026  1
  Se  Se13  1  0.047828  0.679523  0.972665  1
  Se  Se14  1  0.679523  0.047828  0.972665  1
  Se  Se15  1  0.952172  0.320477  0.027335  1
  Se  Se16  1  0.320477  0.952172  0.027335  1
  Se  Se17  1  0.786426  0.786426  0.719071  1
  Se  Se18  1  0.213574  0.213574  0.280929  1
  Se  Se19  1  0.947640  0.947640  0.229288  1
  Se  Se20  1  0.052360  0.052360  0.770712  1
  Se  Se21  1  0.701517  0.701517  0.241598  1
  Se  Se22  1  0.298483  0.298483  0.758402  1
  Se  Se23  1  0.479905  0.479905  0.171514  1
  Se  Se24  1  0.520095  0.520095  0.828486  1
  Se  Se25  1  0.000000  0.000000  0.500000  1
