# generated using pymatgen
data_Hf18Re8PdRu
_symmetry_space_group_name_H-M   'P 1'
_cell_length_a   8.55326000
_cell_length_b   8.64314929
_cell_length_c   8.64314900
_cell_angle_alpha   120.00107863
_cell_angle_beta   90.00000000
_cell_angle_gamma   90.00000000
_symmetry_Int_Tables_number   1
_chemical_formula_structural   Hf18Re8PdRu
_chemical_formula_sum   'Hf18 Re8 Pd1 Ru1'
_cell_volume   553.35214737
_cell_formula_units_Z   1
loop_
 _symmetry_equiv_pos_site_id
 _symmetry_equiv_pos_as_xyz
  1  'x, y, z'
loop_
 _atom_site_type_symbol
 _atom_site_label
 _atom_site_symmetry_multiplicity
 _atom_site_fract_x
 _atom_site_fract_y
 _atom_site_fract_z
 _atom_site_occupancy
  Hf  Hf0  1  0.555118  0.802967  0.605927  1
  Hf  Hf1  1  0.555120  0.802971  0.197029  1
  Hf  Hf2  1  0.555118  0.394073  0.197033  1
  Hf  Hf3  1  0.446763  0.193732  0.387462  1
  Hf  Hf4  1  0.446774  0.193729  0.806271  1
  Hf  Hf5  1  0.446763  0.612538  0.806268  1
  Hf  Hf6  1  0.053237  0.193732  0.387462  1
  Hf  Hf7  1  0.053226  0.193729  0.806271  1
  Hf  Hf8  1  0.053237  0.612538  0.806268  1
  Hf  Hf9  1  0.944882  0.802967  0.605927  1
  Hf  Hf10  1  0.944880  0.802971  0.197029  1
  Hf  Hf11  1  0.944882  0.394073  0.197033  1
  Hf  Hf12  1  0.750000  0.457618  0.915215  1
  Hf  Hf13  1  0.750000  0.457617  0.542383  1
  Hf  Hf14  1  0.750000  0.084785  0.542382  1
  Hf  Hf15  1  0.250000  0.542720  0.085443  1
  Hf  Hf16  1  0.250000  0.542710  0.457290  1
  Hf  Hf17  1  0.250000  0.914557  0.457280  1
  Re  Re18  1  0.750000  0.110145  0.220299  1
  Re  Re19  1  0.750000  0.110151  0.889849  1
  Re  Re20  1  0.750000  0.779701  0.889855  1
  Re  Re21  1  0.250000  0.889506  0.779025  1
  Re  Re22  1  0.250000  0.889501  0.110499  1
  Re  Re23  1  0.250000  0.220975  0.110494  1
  Re  Re24  1  0.500194  0.000000  0.000000  1
  Re  Re25  1  0.999806  0.000000  0.000000  1
  Pd  Pd26  1  0.250000  0.333321  0.666679  1
  Ru  Ru27  1  0.750000  0.666670  0.333330  1
