# generated using pymatgen
data_Li3Lu(BrO3)6
_symmetry_space_group_name_H-M   'P 1'
_cell_length_a   7.55889571
_cell_length_b   6.49705474
_cell_length_c   10.09557100
_cell_angle_alpha   92.95333381
_cell_angle_beta   111.37332730
_cell_angle_gamma   105.18208372
_symmetry_Int_Tables_number   1
_chemical_formula_structural   Li3Lu(BrO3)6
_chemical_formula_sum   'Li3 Lu1 Br6 O18'
_cell_volume   439.58864821
_cell_formula_units_Z   1
loop_
 _symmetry_equiv_pos_site_id
 _symmetry_equiv_pos_as_xyz
  1  'x, y, z'
loop_
 _atom_site_type_symbol
 _atom_site_label
 _atom_site_symmetry_multiplicity
 _atom_site_fract_x
 _atom_site_fract_y
 _atom_site_fract_z
 _atom_site_occupancy
  Li  Li0  1  0.495373  0.569752  0.316227  1
  Li  Li1  1  0.504627  0.430248  0.683773  1
  Li  Li2  1  0.000000  0.500000  0.500000  1
  Lu  Lu3  1  0.000000  0.000000  0.000000  1
  Br  Br4  1  0.503962  0.015320  0.204685  1
  Br  Br5  1  0.496038  0.984680  0.795315  1
  Br  Br6  1  0.783864  0.543661  0.153560  1
  Br  Br7  1  0.216136  0.456339  0.846440  1
  Br  Br8  1  0.129447  0.139793  0.390404  1
  Br  Br9  1  0.870553  0.860207  0.609596  1
  O  O10  1  0.607565  0.654589  0.156120  1
  O  O11  1  0.392435  0.345411  0.843880  1
  O  O12  1  0.033661  0.368913  0.682738  1
  O  O13  1  0.966339  0.631087  0.317262  1
  O  O14  1  0.532083  0.267652  0.271820  1
  O  O15  1  0.467917  0.732348  0.728180  1
  O  O16  1  0.091733  0.171055  0.215995  1
  O  O17  1  0.908267  0.828945  0.784005  1
  O  O18  1  0.294052  0.947815  0.045685  1
  O  O19  1  0.705948  0.052185  0.954315  1
  O  O20  1  0.291821  0.379908  0.481280  1
  O  O21  1  0.708179  0.620092  0.518720  1
  O  O22  1  0.916929  0.156337  0.399721  1
  O  O23  1  0.083071  0.843663  0.600279  1
  O  O24  1  0.567076  0.141021  0.685804  1
  O  O25  1  0.432924  0.858979  0.314196  1
  O  O26  1  0.116774  0.323575  0.955965  1
  O  O27  1  0.883226  0.676425  0.044035  1
