# generated using pymatgen
data_Al11Re2TcRu
_symmetry_space_group_name_H-M   'P 1'
_cell_length_a   5.18056231
_cell_length_b   5.17381527
_cell_length_c   9.03568818
_cell_angle_alpha   105.09048914
_cell_angle_beta   90.33667660
_cell_angle_gamma   100.22940258
_symmetry_Int_Tables_number   1
_chemical_formula_structural   Al11Re2TcRu
_chemical_formula_sum   'Al11 Re2 Tc1 Ru1'
_cell_volume   229.77120909
_cell_formula_units_Z   1
loop_
 _symmetry_equiv_pos_site_id
 _symmetry_equiv_pos_as_xyz
  1  'x, y, z'
loop_
 _atom_site_type_symbol
 _atom_site_label
 _atom_site_symmetry_multiplicity
 _atom_site_fract_x
 _atom_site_fract_y
 _atom_site_fract_z
 _atom_site_occupancy
  Al  Al0  1  0.799655  0.261614  0.633918  1
  Al  Al1  1  0.199764  0.741349  0.366096  1
  Al  Al2  1  0.146919  0.465551  0.871752  1
  Al  Al3  1  0.854616  0.535062  0.129907  1
  Al  Al4  1  0.999102  0.999296  0.000303  1
  Al  Al5  1  0.501451  0.095885  0.873727  1
  Al  Al6  1  0.498738  0.901453  0.128106  1
  Al  Al7  1  0.570497  0.321101  0.376255  1
  Al  Al8  1  0.431647  0.676497  0.622270  1
  Al  Al9  1  0.940767  0.808120  0.667434  1
  Al  Al10  1  0.056247  0.194026  0.329112  1
  Re  Re11  1  0.661604  0.608448  0.865127  1
  Re  Re12  1  0.339048  0.387635  0.132995  1
  Tc  Tc13  1  0.721224  0.849338  0.401073  1
  Ru  Ru14  1  0.278720  0.154622  0.601925  1
