# generated using pymatgen
data_Y3Mg2Sb3O14
_symmetry_space_group_name_H-M   'P 1'
_cell_length_a   7.20894615
_cell_length_b   7.20895178
_cell_length_c   7.20894861
_cell_angle_alpha   118.25436935
_cell_angle_beta   61.74561017
_cell_angle_gamma   118.25438091
_symmetry_Int_Tables_number   1
_chemical_formula_structural   Y3Mg2Sb3O14
_chemical_formula_sum   'Y3 Mg2 Sb3 O14'
_cell_volume   275.27398679
_cell_formula_units_Z   1
loop_
 _symmetry_equiv_pos_site_id
 _symmetry_equiv_pos_as_xyz
  1  'x, y, z'
loop_
 _atom_site_type_symbol
 _atom_site_label
 _atom_site_symmetry_multiplicity
 _atom_site_fract_x
 _atom_site_fract_y
 _atom_site_fract_z
 _atom_site_occupancy
  Y  Y0  1  0.000005  0.500006  0.000003  1
  Y  Y1  1  0.499998  0.999998  0.999996  1
  Y  Y2  1  0.500003  0.500005  0.500003  1
  Mg  Mg3  1  0.500009  0.499998  0.000006  1
  Mg  Mg4  1  0.999972  0.999980  0.499991  1
  Sb  Sb5  1  0.500005  0.999997  0.500012  1
  Sb  Sb6  1  0.999991  0.500011  0.499988  1
  Sb  Sb7  1  0.000013  0.999999  0.000004  1
  O  O8  1  0.617199  0.382803  0.117198  1
  O  O9  1  0.382804  0.617199  0.882802  1
  O  O10  1  0.083920  0.326587  0.173417  1
  O  O11  1  0.673414  0.916076  0.173413  1
  O  O12  1  0.673417  0.326587  0.583923  1
  O  O13  1  0.916078  0.673418  0.826588  1
  O  O14  1  0.326585  0.083918  0.826583  1
  O  O15  1  0.326589  0.673418  0.416077  1
  O  O16  1  0.652641  0.908967  0.591031  1
  O  O17  1  0.091041  0.347351  0.591039  1
  O  O18  1  0.091034  0.908968  0.152641  1
  O  O19  1  0.347352  0.091040  0.408963  1
  O  O20  1  0.908967  0.652637  0.408968  1
  O  O21  1  0.908964  0.091040  0.847353  1
