# generated using pymatgen
data_La18TmLuGa12
_symmetry_space_group_name_H-M   'P 1'
_cell_length_a   7.93293100
_cell_length_b   7.93293100
_cell_length_c   14.98409900
_cell_angle_alpha   90.00000000
_cell_angle_beta   90.00000000
_cell_angle_gamma   90.00000000
_symmetry_Int_Tables_number   1
_chemical_formula_structural   La18TmLuGa12
_chemical_formula_sum   'La18 Tm1 Lu1 Ga12'
_cell_volume   942.97024166
_cell_formula_units_Z   1
loop_
 _symmetry_equiv_pos_site_id
 _symmetry_equiv_pos_as_xyz
  1  'x, y, z'
loop_
 _atom_site_type_symbol
 _atom_site_label
 _atom_site_symmetry_multiplicity
 _atom_site_fract_x
 _atom_site_fract_y
 _atom_site_fract_z
 _atom_site_occupancy
  La  La0  1  0.337272  0.311607  0.103742  1
  La  La1  1  0.837330  0.811569  0.896272  1
  La  La2  1  0.840001  0.182302  0.396055  1
  La  La3  1  0.162670  0.188431  0.896272  1
  La  La4  1  0.662728  0.688393  0.103742  1
  La  La5  1  0.000000  0.500000  0.707259  1
  La  La6  1  0.817729  0.839997  0.603921  1
  La  La7  1  0.317698  0.340001  0.396055  1
  La  La8  1  0.188393  0.837272  0.103742  1
  La  La9  1  0.182271  0.160003  0.603921  1
  La  La10  1  0.811607  0.162728  0.103742  1
  La  La11  1  0.339997  0.682271  0.603921  1
  La  La12  1  0.500000  0.000000  0.292736  1
  La  La13  1  0.688431  0.337330  0.896272  1
  La  La14  1  0.660003  0.317729  0.603921  1
  La  La15  1  0.311569  0.662670  0.896272  1
  La  La16  1  0.159999  0.817698  0.396055  1
  La  La17  1  0.682302  0.659999  0.396055  1
  Tm  Tm18  1  0.500000  0.000000  0.773351  1
  Lu  Lu19  1  0.000000  0.500000  0.226739  1
  Ga  Ga20  1  0.624888  0.384147  0.247841  1
  Ga  Ga21  1  0.875206  0.115854  0.752139  1
  Ga  Ga22  1  0.500000  0.000000  0.499714  1
  Ga  Ga23  1  0.884147  0.875112  0.247841  1
  Ga  Ga24  1  0.000000  0.500000  0.019984  1
  Ga  Ga25  1  0.124794  0.884146  0.752139  1
  Ga  Ga26  1  0.384146  0.375206  0.752139  1
  Ga  Ga27  1  0.115853  0.124888  0.247841  1
  Ga  Ga28  1  0.375112  0.615853  0.247841  1
  Ga  Ga29  1  0.615854  0.624794  0.752139  1
  Ga  Ga30  1  0.500000  0.000000  0.980063  1
  Ga  Ga31  1  0.000000  0.500000  0.500274  1
