# generated using pymatgen
data_Rb2Zr(Te2Au)2
_symmetry_space_group_name_H-M   'P 1'
_cell_length_a   8.24140802
_cell_length_b   8.24140858
_cell_length_c   6.48124300
_cell_angle_alpha   90.00000000
_cell_angle_beta   90.00000000
_cell_angle_gamma   133.59506753
_symmetry_Int_Tables_number   1
_chemical_formula_structural   Rb2Zr(Te2Au)2
_chemical_formula_sum   'Rb2 Zr1 Te4 Au2'
_cell_volume   318.81475481
_cell_formula_units_Z   1
loop_
 _symmetry_equiv_pos_site_id
 _symmetry_equiv_pos_as_xyz
  1  'x, y, z'
loop_
 _atom_site_type_symbol
 _atom_site_label
 _atom_site_symmetry_multiplicity
 _atom_site_fract_x
 _atom_site_fract_y
 _atom_site_fract_z
 _atom_site_occupancy
  Rb  Rb0  1  0.500000  0.000000  0.256695  1
  Rb  Rb1  1  0.000000  0.500000  0.743305  1
  Zr  Zr2  1  0.000000  0.000000  0.000000  1
  Te  Te3  1  0.861646  0.646406  0.245487  1
  Te  Te4  1  0.138354  0.353594  0.245487  1
  Te  Te5  1  0.646406  0.861646  0.754513  1
  Te  Te6  1  0.353594  0.138354  0.754513  1
  Au  Au7  1  0.000000  0.000000  0.500000  1
  Au  Au8  1  0.500000  0.500000  0.000000  1
