# generated using pymatgen
data_TiNbCo6B
_symmetry_space_group_name_H-M   'P 1'
_cell_length_a   5.23139441
_cell_length_b   5.23139332
_cell_length_c   5.23139300
_cell_angle_alpha   59.99998306
_cell_angle_beta   59.99998996
_cell_angle_gamma   59.99999006
_symmetry_Int_Tables_number   1
_chemical_formula_structural   TiNbCo6B
_chemical_formula_sum   'Ti1 Nb1 Co6 B1'
_cell_volume   101.23648684
_cell_formula_units_Z   1
loop_
 _symmetry_equiv_pos_site_id
 _symmetry_equiv_pos_as_xyz
  1  'x, y, z'
loop_
 _atom_site_type_symbol
 _atom_site_label
 _atom_site_symmetry_multiplicity
 _atom_site_fract_x
 _atom_site_fract_y
 _atom_site_fract_z
 _atom_site_occupancy
  Ti  Ti0  1  0.250000  0.250000  0.250000  1
  Nb  Nb1  1  0.750000  0.750000  0.750000  1
  Co  Co2  1  0.760987  0.760987  0.239013  1
  Co  Co3  1  0.760987  0.239013  0.239013  1
  Co  Co4  1  0.239013  0.760987  0.239013  1
  Co  Co5  1  0.239013  0.239013  0.760987  1
  Co  Co6  1  0.760987  0.239013  0.760987  1
  Co  Co7  1  0.239013  0.760987  0.760987  1
  B  B8  1  0.500000  0.500000  0.500000  1
