# generated using pymatgen
data_SrTm6Co6Sn23
_symmetry_space_group_name_H-M   'P 1'
_cell_length_a   9.71260500
_cell_length_b   9.71260590
_cell_length_c   9.95738900
_cell_angle_alpha   90.00000000
_cell_angle_beta   90.00000000
_cell_angle_gamma   119.99999351
_symmetry_Int_Tables_number   1
_chemical_formula_structural   SrTm6Co6Sn23
_chemical_formula_sum   'Sr1 Tm6 Co6 Sn23'
_cell_volume   813.48140127
_cell_formula_units_Z   1
loop_
 _symmetry_equiv_pos_site_id
 _symmetry_equiv_pos_as_xyz
  1  'x, y, z'
loop_
 _atom_site_type_symbol
 _atom_site_label
 _atom_site_symmetry_multiplicity
 _atom_site_fract_x
 _atom_site_fract_y
 _atom_site_fract_z
 _atom_site_occupancy
  Sr  Sr0  1  0.000000  0.000000  0.000000  1
  Tm  Tm1  1  0.479995  0.520005  0.306521  1
  Tm  Tm2  1  0.520005  0.479995  0.693479  1
  Tm  Tm3  1  0.479995  0.959990  0.306521  1
  Tm  Tm4  1  0.520005  0.040010  0.693479  1
  Tm  Tm5  1  0.040010  0.520005  0.306521  1
  Tm  Tm6  1  0.959990  0.479995  0.693479  1
  Co  Co7  1  0.829999  0.170001  0.199669  1
  Co  Co8  1  0.170001  0.829999  0.800331  1
  Co  Co9  1  0.829999  0.659997  0.199669  1
  Co  Co10  1  0.170001  0.340003  0.800331  1
  Co  Co11  1  0.340003  0.170001  0.199669  1
  Co  Co12  1  0.659997  0.829999  0.800331  1
  Sn  Sn13  1  0.347942  0.000000  0.000000  1
  Sn  Sn14  1  0.652058  0.000000  0.000000  1
  Sn  Sn15  1  0.000000  0.347942  0.000000  1
  Sn  Sn16  1  0.000000  0.652058  0.000000  1
  Sn  Sn17  1  0.652058  0.652058  0.000000  1
  Sn  Sn18  1  0.347942  0.347942  0.000000  1
  Sn  Sn19  1  0.333333  0.666667  0.817521  1
  Sn  Sn20  1  0.666667  0.333333  0.182479  1
  Sn  Sn21  1  0.000000  0.000000  0.500000  1
  Sn  Sn22  1  0.780741  0.219259  0.452234  1
  Sn  Sn23  1  0.219259  0.780741  0.547766  1
  Sn  Sn24  1  0.780741  0.561482  0.452234  1
  Sn  Sn25  1  0.219259  0.438518  0.547766  1
  Sn  Sn26  1  0.438518  0.219259  0.452234  1
  Sn  Sn27  1  0.561482  0.780741  0.547766  1
  Sn  Sn28  1  0.333333  0.666667  0.121415  1
  Sn  Sn29  1  0.666667  0.333333  0.878585  1
  Sn  Sn30  1  0.119136  0.880864  0.276423  1
  Sn  Sn31  1  0.880864  0.119136  0.723577  1
  Sn  Sn32  1  0.119136  0.238270  0.276423  1
  Sn  Sn33  1  0.880864  0.761730  0.723577  1
  Sn  Sn34  1  0.761730  0.880864  0.276423  1
  Sn  Sn35  1  0.238270  0.119136  0.723577  1
