# generated using pymatgen
data_Nd2Y2Al13Ga5Ir6
_symmetry_space_group_name_H-M   'P 1'
_cell_length_a   7.56287654
_cell_length_b   7.56419379
_cell_length_c   9.64244700
_cell_angle_alpha   90.00000000
_cell_angle_beta   90.00000000
_cell_angle_gamma   119.51159000
_symmetry_Int_Tables_number   1
_chemical_formula_structural   Nd2Y2Al13Ga5Ir6
_chemical_formula_sum   'Nd2 Y2 Al13 Ga5 Ir6'
_cell_volume   480.04724156
_cell_formula_units_Z   1
loop_
 _symmetry_equiv_pos_site_id
 _symmetry_equiv_pos_as_xyz
  1  'x, y, z'
loop_
 _atom_site_type_symbol
 _atom_site_label
 _atom_site_symmetry_multiplicity
 _atom_site_fract_x
 _atom_site_fract_y
 _atom_site_fract_z
 _atom_site_occupancy
  Nd  Nd0  1  0.995506  0.669937  0.250000  1
  Nd  Nd1  1  0.670060  0.996503  0.250000  1
  Y  Y2  1  0.000058  0.325237  0.750000  1
  Y  Y3  1  0.330226  0.006826  0.750000  1
  Al  Al4  1  0.004080  0.334907  0.067542  1
  Al  Al5  1  0.999576  0.665160  0.925222  1
  Al  Al6  1  0.999576  0.665160  0.574778  1
  Al  Al7  1  0.334961  0.003766  0.432526  1
  Al  Al8  1  0.004080  0.334907  0.432458  1
  Al  Al9  1  0.664238  0.997649  0.575071  1
  Al  Al10  1  0.664238  0.997649  0.924929  1
  Al  Al11  1  0.334961  0.003766  0.067474  1
  Al  Al12  1  0.333669  0.334185  0.558273  1
  Al  Al13  1  0.665223  0.664970  0.453520  1
  Al  Al14  1  0.665223  0.664970  0.046480  1
  Al  Al15  1  0.333669  0.334185  0.941727  1
  Al  Al16  1  0.449159  0.661068  0.750000  1
  Ga  Ga17  1  0.132617  0.132531  0.250000  1
  Ga  Ga18  1  0.869337  0.868088  0.750000  1
  Ga  Ga19  1  0.338504  0.544388  0.250000  1
  Ga  Ga20  1  0.660976  0.453789  0.750000  1
  Ga  Ga21  1  0.544406  0.339243  0.250000  1
  Ir  Ir22  1  0.671851  0.328119  0.998285  1
  Ir  Ir23  1  0.329396  0.671139  0.996063  1
  Ir  Ir24  1  0.329396  0.671139  0.503937  1
  Ir  Ir25  1  0.671851  0.328119  0.501715  1
  Ir  Ir26  1  0.001581  0.001301  0.997576  1
  Ir  Ir27  1  0.001581  0.001301  0.502424  1
