# generated using pymatgen
data_Ca13Tb(PbN4)2
_symmetry_space_group_name_H-M   'P 1'
_cell_length_a   3.59714700
_cell_length_b   12.04477482
_cell_length_c   11.55271046
_cell_angle_alpha   90.16099826
_cell_angle_beta   90.00000000
_cell_angle_gamma   90.00000000
_symmetry_Int_Tables_number   1
_chemical_formula_structural   Ca13Tb(PbN4)2
_chemical_formula_sum   'Ca13 Tb1 Pb2 N8'
_cell_volume   500.54029565
_cell_formula_units_Z   1
loop_
 _symmetry_equiv_pos_site_id
 _symmetry_equiv_pos_as_xyz
  1  'x, y, z'
loop_
 _atom_site_type_symbol
 _atom_site_label
 _atom_site_symmetry_multiplicity
 _atom_site_fract_x
 _atom_site_fract_y
 _atom_site_fract_z
 _atom_site_occupancy
  Ca  Ca0  1  0.500450  0.669556  0.238879  1
  Ca  Ca1  1  0.500450  0.330444  0.761121  1
  Ca  Ca2  1  0.499481  0.169817  0.261139  1
  Ca  Ca3  1  0.499481  0.830183  0.738861  1
  Ca  Ca4  1  0.500441  0.000000  0.500000  1
  Ca  Ca5  1  0.999247  0.929131  0.263215  1
  Ca  Ca6  1  0.999247  0.070869  0.736785  1
  Ca  Ca7  1  0.001131  0.426220  0.240306  1
  Ca  Ca8  1  0.001131  0.573780  0.759694  1
  Ca  Ca9  1  0.001050  0.765276  0.479560  1
  Ca  Ca10  1  0.001050  0.234724  0.520440  1
  Ca  Ca11  1  0.998287  0.260442  0.020934  1
  Ca  Ca12  1  0.998287  0.739558  0.979066  1
  Tb  Tb13  1  0.499260  0.500000  0.000000  1
  Pb  Pb14  1  0.537613  0.500000  0.500000  1
  Pb  Pb15  1  0.462938  0.000000  0.000000  1
  N  N16  1  0.000407  0.594123  0.121400  1
  N  N17  1  0.000407  0.405877  0.878600  1
  N  N18  1  0.999780  0.102652  0.368315  1
  N  N19  1  0.999780  0.897348  0.631685  1
  N  N20  1  0.499710  0.830765  0.356675  1
  N  N21  1  0.499710  0.169235  0.643325  1
  N  N22  1  0.500331  0.339506  0.135461  1
  N  N23  1  0.500331  0.660494  0.864539  1
