# generated using pymatgen
data_Ca4ThIr2
_symmetry_space_group_name_H-M   'P 1'
_cell_length_a   6.76476182
_cell_length_b   7.43968269
_cell_length_c   8.81686283
_cell_angle_alpha   97.27558729
_cell_angle_beta   112.55848031
_cell_angle_gamma   89.99998975
_symmetry_Int_Tables_number   1
_chemical_formula_structural   Ca4ThIr2
_chemical_formula_sum   'Ca8 Th2 Ir4'
_cell_volume   405.91019898
_cell_formula_units_Z   2
loop_
 _symmetry_equiv_pos_site_id
 _symmetry_equiv_pos_as_xyz
  1  'x, y, z'
loop_
 _atom_site_type_symbol
 _atom_site_label
 _atom_site_symmetry_multiplicity
 _atom_site_fract_x
 _atom_site_fract_y
 _atom_site_fract_z
 _atom_site_occupancy
  Ca  Ca0  1  0.984043  0.917529  0.177095  1
  Ca  Ca1  1  0.806947  0.582471  0.822905  1
  Ca  Ca2  1  0.015957  0.082471  0.822905  1
  Ca  Ca3  1  0.193053  0.417529  0.177095  1
  Ca  Ca4  1  0.641508  0.819452  0.438347  1
  Ca  Ca5  1  0.203162  0.680548  0.561653  1
  Ca  Ca6  1  0.358492  0.180548  0.561653  1
  Ca  Ca7  1  0.796838  0.319452  0.438347  1
  Th  Th8  1  0.432962  0.750000  0.000000  1
  Th  Th9  1  0.567038  0.250000  0.000000  1
  Ir  Ir10  1  0.794218  0.569212  0.199415  1
  Ir  Ir11  1  0.594802  0.930788  0.800585  1
  Ir  Ir12  1  0.205782  0.430788  0.800585  1
  Ir  Ir13  1  0.405198  0.069212  0.199415  1
