# generated using pymatgen
data_TbGd(SeO4)3
_symmetry_space_group_name_H-M   'P 1'
_cell_length_a   10.07715400
_cell_length_b   10.07715446
_cell_length_c   10.07715274
_cell_angle_alpha   57.72174176
_cell_angle_beta   57.72174305
_cell_angle_gamma   57.72174426
_symmetry_Int_Tables_number   1
_chemical_formula_structural   TbGd(SeO4)3
_chemical_formula_sum   'Tb2 Gd2 Se6 O24'
_cell_volume   685.72828120
_cell_formula_units_Z   2
loop_
 _symmetry_equiv_pos_site_id
 _symmetry_equiv_pos_as_xyz
  1  'x, y, z'
loop_
 _atom_site_type_symbol
 _atom_site_label
 _atom_site_symmetry_multiplicity
 _atom_site_fract_x
 _atom_site_fract_y
 _atom_site_fract_z
 _atom_site_occupancy
  Tb  Tb0  1  0.144147  0.144147  0.144147  1
  Tb  Tb1  1  0.855853  0.855853  0.855853  1
  Gd  Gd2  1  0.355944  0.355944  0.355944  1
  Gd  Gd3  1  0.644056  0.644056  0.644056  1
  Se  Se4  1  0.036239  0.463692  0.751143  1
  Se  Se5  1  0.463692  0.751143  0.036239  1
  Se  Se6  1  0.751143  0.036239  0.463692  1
  Se  Se7  1  0.963761  0.536308  0.248857  1
  Se  Se8  1  0.248857  0.963761  0.536308  1
  Se  Se9  1  0.536308  0.248857  0.963761  1
  O  O10  1  0.226729  0.992887  0.369318  1
  O  O11  1  0.369318  0.226729  0.992887  1
  O  O12  1  0.992887  0.369318  0.226729  1
  O  O13  1  0.773271  0.007113  0.630682  1
  O  O14  1  0.630682  0.773271  0.007113  1
  O  O15  1  0.007113  0.630682  0.773271  1
  O  O16  1  0.271851  0.129481  0.508618  1
  O  O17  1  0.508618  0.271851  0.129481  1
  O  O18  1  0.129481  0.508618  0.271851  1
  O  O19  1  0.728149  0.870519  0.491382  1
  O  O20  1  0.064383  0.294354  0.918606  1
  O  O21  1  0.294354  0.918606  0.064383  1
  O  O22  1  0.918606  0.064383  0.294354  1
  O  O23  1  0.935617  0.705646  0.081394  1
  O  O24  1  0.705646  0.081394  0.935617  1
  O  O25  1  0.081394  0.935617  0.705646  1
  O  O26  1  0.205185  0.436349  0.583421  1
  O  O27  1  0.436349  0.583421  0.205185  1
  O  O28  1  0.583421  0.205185  0.436349  1
  O  O29  1  0.794815  0.563651  0.416579  1
  O  O30  1  0.563651  0.416579  0.794815  1
  O  O31  1  0.416579  0.794815  0.563651  1
  O  O32  1  0.870519  0.491382  0.728149  1
  O  O33  1  0.491382  0.728149  0.870519  1
