# generated using pymatgen
data_Sc10GaBi5
_symmetry_space_group_name_H-M   'P 1'
_cell_length_a   7.73464700
_cell_length_b   8.92604600
_cell_length_c   11.28874400
_cell_angle_alpha   90.00000000
_cell_angle_beta   90.00000000
_cell_angle_gamma   90.00000000
_symmetry_Int_Tables_number   1
_chemical_formula_structural   Sc10GaBi5
_chemical_formula_sum   'Sc20 Ga2 Bi10'
_cell_volume   779.37279639
_cell_formula_units_Z   2
loop_
 _symmetry_equiv_pos_site_id
 _symmetry_equiv_pos_as_xyz
  1  'x, y, z'
loop_
 _atom_site_type_symbol
 _atom_site_label
 _atom_site_symmetry_multiplicity
 _atom_site_fract_x
 _atom_site_fract_y
 _atom_site_fract_z
 _atom_site_occupancy
  Sc  Sc0  1  0.191376  0.047169  0.937801  1
  Sc  Sc1  1  0.308624  0.047169  0.437801  1
  Sc  Sc2  1  0.308624  0.452831  0.437801  1
  Sc  Sc3  1  0.324177  0.750000  0.720849  1
  Sc  Sc4  1  0.464208  0.750000  0.004956  1
  Sc  Sc5  1  0.162409  0.250000  0.216289  1
  Sc  Sc6  1  0.816198  0.926316  0.061013  1
  Sc  Sc7  1  0.647505  0.750000  0.294451  1
  Sc  Sc8  1  0.035792  0.750000  0.504956  1
  Sc  Sc9  1  0.683802  0.926316  0.561013  1
  Sc  Sc10  1  0.191376  0.452831  0.937801  1
  Sc  Sc11  1  0.337591  0.250000  0.716289  1
  Sc  Sc12  1  0.175823  0.750000  0.220849  1
  Sc  Sc13  1  0.983774  0.250000  0.493532  1
  Sc  Sc14  1  0.683802  0.573684  0.561013  1
  Sc  Sc15  1  0.680243  0.250000  0.269349  1
  Sc  Sc16  1  0.816198  0.573684  0.061013  1
  Sc  Sc17  1  0.516226  0.250000  0.993532  1
  Sc  Sc18  1  0.819757  0.250000  0.769349  1
  Sc  Sc19  1  0.852495  0.750000  0.794451  1
  Ga  Ga20  1  0.402916  0.750000  0.475703  1
  Ga  Ga21  1  0.097084  0.750000  0.975703  1
  Bi  Bi22  1  0.062451  0.490831  0.676482  1
  Bi  Bi23  1  0.563650  0.510994  0.823998  1
  Bi  Bi24  1  0.936350  0.989006  0.323998  1
  Bi  Bi25  1  0.437549  0.009169  0.176482  1
  Bi  Bi26  1  0.563650  0.989006  0.823998  1
  Bi  Bi27  1  0.437549  0.490831  0.176482  1
  Bi  Bi28  1  0.062451  0.009169  0.676482  1
  Bi  Bi29  1  0.936350  0.510994  0.323998  1
  Bi  Bi30  1  0.596961  0.250000  0.526285  1
  Bi  Bi31  1  0.903039  0.250000  0.026285  1
