# generated using pymatgen
data_Cs4Al4SiGe3Se16
_symmetry_space_group_name_H-M   'P 1'
_cell_length_a   17.27925464
_cell_length_b   7.34732416
_cell_length_c   8.20094082
_cell_angle_alpha   70.31300530
_cell_angle_beta   89.76313026
_cell_angle_gamma   89.90234952
_symmetry_Int_Tables_number   1
_chemical_formula_structural   Cs4Al4SiGe3Se16
_chemical_formula_sum   'Cs4 Al4 Si1 Ge3 Se16'
_cell_volume   980.29360472
_cell_formula_units_Z   1
loop_
 _symmetry_equiv_pos_site_id
 _symmetry_equiv_pos_as_xyz
  1  'x, y, z'
loop_
 _atom_site_type_symbol
 _atom_site_label
 _atom_site_symmetry_multiplicity
 _atom_site_fract_x
 _atom_site_fract_y
 _atom_site_fract_z
 _atom_site_occupancy
  Cs  Cs0  1  0.396365  0.957567  0.177321  1
  Cs  Cs1  1  0.897999  0.041211  0.823782  1
  Cs  Cs2  1  0.601935  0.522549  0.826650  1
  Cs  Cs3  1  0.103301  0.478391  0.173249  1
  Al  Al4  1  0.581043  0.173444  0.473538  1
  Al  Al5  1  0.083335  0.828522  0.526725  1
  Al  Al6  1  0.272544  0.589323  0.702499  1
  Al  Al7  1  0.771597  0.407738  0.296744  1
  Si  Si8  1  0.421057  0.324731  0.536027  1
  Ge  Ge9  1  0.919837  0.673133  0.464165  1
  Ge  Ge10  1  0.724901  0.913772  0.279719  1
  Ge  Ge11  1  0.227078  0.087519  0.720000  1
  Se  Se12  1  0.594236  0.896272  0.378971  1
  Se  Se13  1  0.096890  0.106640  0.619664  1
  Se  Se14  1  0.408386  0.587233  0.625342  1
  Se  Se15  1  0.907646  0.400700  0.370958  1
  Se  Se16  1  0.799453  0.786897  0.543373  1
  Se  Se17  1  0.305255  0.217694  0.459426  1
  Se  Se18  1  0.201522  0.722258  0.442683  1
  Se  Se19  1  0.699485  0.277458  0.556443  1
  Se  Se20  1  0.765955  0.226906  0.097842  1
  Se  Se21  1  0.267117  0.772521  0.900004  1
  Se  Se22  1  0.235538  0.275814  0.905522  1
  Se  Se23  1  0.735993  0.723634  0.095993  1
  Se  Se24  1  0.000037  0.916335  0.270302  1
  Se  Se25  1  0.496027  0.090182  0.727170  1
  Se  Se26  1  0.994493  0.596662  0.724122  1
  Se  Se27  1  0.490972  0.404894  0.281765  1
