# generated using pymatgen
data_Sr3Sc2WO9
_symmetry_space_group_name_H-M   'P 1'
_cell_length_a   9.95513613
_cell_length_b   9.95513598
_cell_length_c   5.72341791
_cell_angle_alpha   73.26389516
_cell_angle_beta   73.26389296
_cell_angle_gamma   48.86703758
_symmetry_Int_Tables_number   1
_chemical_formula_structural   Sr3Sc2WO9
_chemical_formula_sum   'Sr6 Sc4 W2 O18'
_cell_volume   405.28754201
_cell_formula_units_Z   2
loop_
 _symmetry_equiv_pos_site_id
 _symmetry_equiv_pos_as_xyz
  1  'x, y, z'
loop_
 _atom_site_type_symbol
 _atom_site_label
 _atom_site_symmetry_multiplicity
 _atom_site_fract_x
 _atom_site_fract_y
 _atom_site_fract_z
 _atom_site_occupancy
  Sr  Sr0  1  0.918070  0.400189  0.845676  1
  Sr  Sr1  1  0.234280  0.765720  0.500000  1
  Sr  Sr2  1  0.599811  0.081930  0.154324  1
  Sr  Sr3  1  0.765720  0.234280  0.500000  1
  Sr  Sr4  1  0.081930  0.599811  0.154324  1
  Sr  Sr5  1  0.400189  0.918070  0.845676  1
  Sc  Sc6  1  0.500000  0.500000  0.000000  1
  Sc  Sc7  1  0.833571  0.833571  0.663409  1
  Sc  Sc8  1  0.166429  0.166429  0.336591  1
  Sc  Sc9  1  0.000000  0.000000  0.000000  1
  W  W10  1  0.333239  0.333239  0.663725  1
  W  W11  1  0.666761  0.666761  0.336275  1
  O  O12  1  0.431278  0.907322  0.330475  1
  O  O13  1  0.746114  0.253886  0.000000  1
  O  O14  1  0.092678  0.568722  0.669525  1
  O  O15  1  0.907322  0.431278  0.330475  1
  O  O16  1  0.253886  0.746114  0.000000  1
  O  O17  1  0.568722  0.092678  0.669525  1
  O  O18  1  0.072412  0.072412  0.224300  1
  O  O19  1  0.396661  0.396661  0.885780  1
  O  O20  1  0.725959  0.725959  0.567074  1
  O  O21  1  0.603339  0.603339  0.114220  1
  O  O22  1  0.927588  0.927588  0.775700  1
  O  O23  1  0.274041  0.274041  0.432926  1
  O  O24  1  0.571004  0.571004  0.616311  1
  O  O25  1  0.897785  0.897785  0.309204  1
  O  O26  1  0.238875  0.238875  0.947305  1
  O  O27  1  0.102215  0.102215  0.690796  1
  O  O28  1  0.428996  0.428996  0.383689  1
  O  O29  1  0.761125  0.761125  0.052695  1
