# generated using pymatgen
data_Hf2Zr(AlPd)3
_symmetry_space_group_name_H-M   'P 1'
_cell_length_a   7.20132007
_cell_length_b   7.22170994
_cell_length_c   7.09892900
_cell_angle_alpha   90.00000000
_cell_angle_beta   90.00000000
_cell_angle_gamma   120.18838194
_symmetry_Int_Tables_number   1
_chemical_formula_structural   Hf2Zr(AlPd)3
_chemical_formula_sum   'Hf4 Zr2 Al6 Pd6'
_cell_volume   319.11563327
_cell_formula_units_Z   2
loop_
 _symmetry_equiv_pos_site_id
 _symmetry_equiv_pos_as_xyz
  1  'x, y, z'
loop_
 _atom_site_type_symbol
 _atom_site_label
 _atom_site_symmetry_multiplicity
 _atom_site_fract_x
 _atom_site_fract_y
 _atom_site_fract_z
 _atom_site_occupancy
  Hf  Hf0  1  0.018266  0.410852  0.750000  1
  Hf  Hf1  1  0.981792  0.395065  0.250000  1
  Hf  Hf2  1  0.393924  0.983239  0.750000  1
  Hf  Hf3  1  0.590371  0.606172  0.750000  1
  Zr  Zr4  1  0.604491  0.586776  0.250000  1
  Zr  Zr5  1  0.413391  0.018743  0.250000  1
  Al  Al6  1  0.260050  0.258552  0.501174  1
  Al  Al7  1  0.740853  0.000201  0.501228  1
  Al  Al8  1  0.998908  0.741466  0.499457  1
  Al  Al9  1  0.740853  0.000201  0.998772  1
  Al  Al10  1  0.260050  0.258552  0.998826  1
  Al  Al11  1  0.998908  0.741466  0.000543  1
  Pd  Pd12  1  0.329883  0.663938  0.479314  1
  Pd  Pd13  1  0.000371  0.000307  0.750000  1
  Pd  Pd14  1  0.000078  0.004106  0.250000  1
  Pd  Pd15  1  0.329883  0.663938  0.020686  1
  Pd  Pd16  1  0.668966  0.333213  0.531907  1
  Pd  Pd17  1  0.668966  0.333213  0.968093  1
