# generated using pymatgen
data_Tb3Gd2(SiB4)2
_symmetry_space_group_name_H-M   'P 1'
_cell_length_a   7.26970803
_cell_length_b   7.26862208
_cell_length_c   8.18877106
_cell_angle_alpha   90.01360526
_cell_angle_beta   90.00404704
_cell_angle_gamma   90.00991535
_symmetry_Int_Tables_number   1
_chemical_formula_structural   Tb3Gd2(SiB4)2
_chemical_formula_sum   'Tb6 Gd4 Si4 B16'
_cell_volume   432.70086915
_cell_formula_units_Z   2
loop_
 _symmetry_equiv_pos_site_id
 _symmetry_equiv_pos_as_xyz
  1  'x, y, z'
loop_
 _atom_site_type_symbol
 _atom_site_label
 _atom_site_symmetry_multiplicity
 _atom_site_fract_x
 _atom_site_fract_y
 _atom_site_fract_z
 _atom_site_occupancy
  Tb  Tb0  1  0.819574  0.680335  0.776518  1
  Tb  Tb1  1  0.680574  0.180595  0.776354  1
  Tb  Tb2  1  0.180353  0.319568  0.776436  1
  Tb  Tb3  1  0.180387  0.319575  0.223362  1
  Tb  Tb4  1  0.999974  0.000093  0.499922  1
  Tb  Tb5  1  0.500012  0.499874  0.499927  1
  Gd  Gd6  1  0.680584  0.180597  0.224752  1
  Gd  Gd7  1  0.319378  0.819406  0.774848  1
  Gd  Gd8  1  0.319468  0.819490  0.224665  1
  Gd  Gd9  1  0.819450  0.680513  0.224642  1
  Si  Si10  1  0.114307  0.613919  0.500307  1
  Si  Si11  1  0.885652  0.385300  0.500223  1
  Si  Si12  1  0.385657  0.114805  0.500188  1
  Si  Si13  1  0.614528  0.885965  0.500123  1
  B  B14  1  0.172027  0.039488  0.999830  1
  B  B15  1  0.827824  0.960982  0.999940  1
  B  B16  1  0.960842  0.172168  0.999812  1
  B  B17  1  0.327930  0.538816  0.999798  1
  B  B18  1  0.038926  0.828017  0.999874  1
  B  B19  1  0.672092  0.460702  0.999887  1
  B  B20  1  0.539282  0.671933  0.999835  1
  B  B21  1  0.460809  0.327740  0.999928  1
  B  B22  1  0.090218  0.590081  0.999873  1
  B  B23  1  0.909820  0.409685  0.999849  1
  B  B24  1  0.409894  0.090435  0.999944  1
  B  B25  1  0.590375  0.909961  0.999951  1
  B  B26  1  0.999973  0.000153  0.159736  1
  B  B27  1  0.999884  0.000171  0.839874  1
  B  B28  1  0.500182  0.499793  0.839869  1
  B  B29  1  0.500024  0.499838  0.159731  1
