# generated using pymatgen
data_LaThCu12
_symmetry_space_group_name_H-M   'P 1'
_cell_length_a   5.14312900
_cell_length_b   8.12744300
_cell_length_c   10.14386700
_cell_angle_alpha   90.00000000
_cell_angle_beta   90.00000000
_cell_angle_gamma   90.00000000
_symmetry_Int_Tables_number   1
_chemical_formula_structural   LaThCu12
_chemical_formula_sum   'La2 Th2 Cu24'
_cell_volume   424.01858867
_cell_formula_units_Z   2
loop_
 _symmetry_equiv_pos_site_id
 _symmetry_equiv_pos_as_xyz
  1  'x, y, z'
loop_
 _atom_site_type_symbol
 _atom_site_label
 _atom_site_symmetry_multiplicity
 _atom_site_fract_x
 _atom_site_fract_y
 _atom_site_fract_z
 _atom_site_occupancy
  La  La0  1  0.000000  0.760257  0.685586  1
  La  La1  1  0.000000  0.260257  0.314414  1
  Th  Th2  1  0.500000  0.240109  0.815313  1
  Th  Th3  1  0.500000  0.740109  0.184687  1
  Cu  Cu4  1  0.500000  0.353587  0.106899  1
  Cu  Cu5  1  0.500000  0.853587  0.893101  1
  Cu  Cu6  1  0.000000  0.647478  0.391581  1
  Cu  Cu7  1  0.000000  0.147478  0.608419  1
  Cu  Cu8  1  0.500000  0.681939  0.493853  1
  Cu  Cu9  1  0.500000  0.181939  0.506147  1
  Cu  Cu10  1  0.000000  0.317648  0.004379  1
  Cu  Cu11  1  0.000000  0.817648  0.995621  1
  Cu  Cu12  1  0.500000  0.938782  0.652455  1
  Cu  Cu13  1  0.500000  0.438782  0.347545  1
  Cu  Cu14  1  0.000000  0.064030  0.848180  1
  Cu  Cu15  1  0.000000  0.564030  0.151820  1
  Cu  Cu16  1  0.500000  0.598171  0.734447  1
  Cu  Cu17  1  0.500000  0.098171  0.265553  1
  Cu  Cu18  1  0.000000  0.399790  0.765604  1
  Cu  Cu19  1  0.000000  0.899790  0.234396  1
  Cu  Cu20  1  0.744245  0.064208  0.058377  1
  Cu  Cu21  1  0.255755  0.564208  0.941623  1
  Cu  Cu22  1  0.246148  0.934895  0.440363  1
  Cu  Cu23  1  0.753852  0.434895  0.559637  1
  Cu  Cu24  1  0.753852  0.934895  0.440363  1
  Cu  Cu25  1  0.246148  0.434895  0.559637  1
  Cu  Cu26  1  0.255755  0.064208  0.058377  1
  Cu  Cu27  1  0.744245  0.564208  0.941623  1
