# generated using pymatgen
data_Dy11Tm9(CoBi2)4
_symmetry_space_group_name_H-M   'P 1'
_cell_length_a   7.93305004
_cell_length_b   8.89035500
_cell_length_c   12.40672600
_cell_angle_alpha   90.00000000
_cell_angle_beta   90.04974724
_cell_angle_gamma   90.00000000
_symmetry_Int_Tables_number   1
_chemical_formula_structural   Dy11Tm9(CoBi2)4
_chemical_formula_sum   'Dy11 Tm9 Co4 Bi8'
_cell_volume   875.01666484
_cell_formula_units_Z   1
loop_
 _symmetry_equiv_pos_site_id
 _symmetry_equiv_pos_as_xyz
  1  'x, y, z'
loop_
 _atom_site_type_symbol
 _atom_site_label
 _atom_site_symmetry_multiplicity
 _atom_site_fract_x
 _atom_site_fract_y
 _atom_site_fract_z
 _atom_site_occupancy
  Dy  Dy0  1  0.651888  0.250000  0.300371  1
  Dy  Dy1  1  0.847757  0.250000  0.800136  1
  Dy  Dy2  1  0.152130  0.750000  0.199837  1
  Dy  Dy3  1  0.885131  0.750000  0.812058  1
  Dy  Dy4  1  0.115482  0.250000  0.187899  1
  Dy  Dy5  1  0.384546  0.250000  0.687967  1
  Dy  Dy6  1  0.615645  0.750000  0.312009  1
  Dy  Dy7  1  0.054732  0.750000  0.498111  1
  Dy  Dy8  1  0.946110  0.250000  0.502484  1
  Dy  Dy9  1  0.553659  0.250000  0.002033  1
  Dy  Dy10  1  0.445878  0.750000  0.997418  1
  Tm  Tm11  1  0.348368  0.750000  0.698741  1
  Tm  Tm12  1  0.672845  0.538686  0.563117  1
  Tm  Tm13  1  0.326687  0.462405  0.437509  1
  Tm  Tm14  1  0.173358  0.462070  0.937166  1
  Tm  Tm15  1  0.326687  0.037595  0.437509  1
  Tm  Tm16  1  0.826742  0.537850  0.062662  1
  Tm  Tm17  1  0.672845  0.961314  0.563117  1
  Tm  Tm18  1  0.826742  0.962150  0.062662  1
  Tm  Tm19  1  0.173358  0.037930  0.937166  1
  Co  Co20  1  0.064550  0.750000  0.992623  1
  Co  Co21  1  0.934968  0.250000  0.007426  1
  Co  Co22  1  0.564669  0.250000  0.507605  1
  Co  Co23  1  0.434964  0.750000  0.492902  1
  Bi  Bi24  1  0.569812  0.509972  0.826317  1
  Bi  Bi25  1  0.429424  0.490894  0.173093  1
  Bi  Bi26  1  0.071619  0.491348  0.673438  1
  Bi  Bi27  1  0.429424  0.009106  0.173093  1
  Bi  Bi28  1  0.929277  0.509209  0.326889  1
  Bi  Bi29  1  0.569812  0.990028  0.826317  1
  Bi  Bi30  1  0.929277  0.990791  0.326889  1
  Bi  Bi31  1  0.071619  0.008652  0.673438  1
