# generated using pymatgen
data_Dy2Ga9NiOs2
_symmetry_space_group_name_H-M   'P 1'
_cell_length_a   7.54392469
_cell_length_b   7.54392309
_cell_length_c   9.54156500
_cell_angle_alpha   90.00000000
_cell_angle_beta   90.00000000
_cell_angle_gamma   120.65188978
_symmetry_Int_Tables_number   1
_chemical_formula_structural   Dy2Ga9NiOs2
_chemical_formula_sum   'Dy4 Ga18 Ni2 Os4'
_cell_volume   467.14786665
_cell_formula_units_Z   2
loop_
 _symmetry_equiv_pos_site_id
 _symmetry_equiv_pos_as_xyz
  1  'x, y, z'
loop_
 _atom_site_type_symbol
 _atom_site_label
 _atom_site_symmetry_multiplicity
 _atom_site_fract_x
 _atom_site_fract_y
 _atom_site_fract_z
 _atom_site_occupancy
  Dy  Dy0  1  0.996553  0.656838  0.250000  1
  Dy  Dy1  1  0.003447  0.343162  0.750000  1
  Dy  Dy2  1  0.656838  0.996553  0.250000  1
  Dy  Dy3  1  0.343162  0.003447  0.750000  1
  Ga  Ga4  1  0.111630  0.111630  0.250000  1
  Ga  Ga5  1  0.888370  0.888370  0.750000  1
  Ga  Ga6  1  0.999787  0.325409  0.075348  1
  Ga  Ga7  1  0.000213  0.674591  0.924652  1
  Ga  Ga8  1  0.000213  0.674591  0.575348  1
  Ga  Ga9  1  0.325409  0.999787  0.424652  1
  Ga  Ga10  1  0.999787  0.325409  0.424652  1
  Ga  Ga11  1  0.674591  0.000213  0.575348  1
  Ga  Ga12  1  0.674591  0.000213  0.924652  1
  Ga  Ga13  1  0.325409  0.999787  0.075348  1
  Ga  Ga14  1  0.333103  0.333103  0.560935  1
  Ga  Ga15  1  0.666897  0.666897  0.439065  1
  Ga  Ga16  1  0.666897  0.666897  0.060935  1
  Ga  Ga17  1  0.333103  0.333103  0.939065  1
  Ga  Ga18  1  0.335243  0.541434  0.250000  1
  Ga  Ga19  1  0.664757  0.458566  0.750000  1
  Ga  Ga20  1  0.541434  0.335243  0.250000  1
  Ga  Ga21  1  0.458566  0.664757  0.750000  1
  Ni  Ni22  1  0.000000  0.000000  0.000000  1
  Ni  Ni23  1  0.000000  0.000000  0.500000  1
  Os  Os24  1  0.673093  0.326907  0.000000  1
  Os  Os25  1  0.326907  0.673093  0.000000  1
  Os  Os26  1  0.326907  0.673093  0.500000  1
  Os  Os27  1  0.673093  0.326907  0.500000  1
