# generated using pymatgen
data_Tb24ReTc7
_symmetry_space_group_name_H-M   'P 1'
_cell_length_a   6.34187022
_cell_length_b   9.22578900
_cell_length_c   14.96065553
_cell_angle_alpha   90.00000000
_cell_angle_beta   89.90541482
_cell_angle_gamma   90.00000000
_symmetry_Int_Tables_number   1
_chemical_formula_structural   Tb24ReTc7
_chemical_formula_sum   'Tb24 Re1 Tc7'
_cell_volume   875.32815909
_cell_formula_units_Z   1
loop_
 _symmetry_equiv_pos_site_id
 _symmetry_equiv_pos_as_xyz
  1  'x, y, z'
loop_
 _atom_site_type_symbol
 _atom_site_label
 _atom_site_symmetry_multiplicity
 _atom_site_fract_x
 _atom_site_fract_y
 _atom_site_fract_z
 _atom_site_occupancy
  Tb  Tb0  1  0.539480  0.750000  0.355225  1
  Tb  Tb1  1  0.038504  0.250000  0.145020  1
  Tb  Tb2  1  0.461820  0.250000  0.645507  1
  Tb  Tb3  1  0.961779  0.750000  0.855503  1
  Tb  Tb4  1  0.772672  0.750000  0.104900  1
  Tb  Tb5  1  0.274047  0.250000  0.394773  1
  Tb  Tb6  1  0.225225  0.250000  0.893691  1
  Tb  Tb7  1  0.725221  0.750000  0.606051  1
  Tb  Tb8  1  0.431783  0.933842  0.786410  1
  Tb  Tb9  1  0.933486  0.064864  0.713064  1
  Tb  Tb10  1  0.566188  0.433683  0.212716  1
  Tb  Tb11  1  0.066496  0.566256  0.287356  1
  Tb  Tb12  1  0.566188  0.066317  0.212716  1
  Tb  Tb13  1  0.066496  0.933744  0.287356  1
  Tb  Tb14  1  0.431783  0.566158  0.786410  1
  Tb  Tb15  1  0.933486  0.435136  0.713064  1
  Tb  Tb16  1  0.239699  0.934592  0.536599  1
  Tb  Tb17  1  0.737354  0.065987  0.963206  1
  Tb  Tb18  1  0.763028  0.434190  0.464226  1
  Tb  Tb19  1  0.261600  0.566084  0.036009  1
  Tb  Tb20  1  0.763028  0.065810  0.464226  1
  Tb  Tb21  1  0.261600  0.933916  0.036009  1
  Tb  Tb22  1  0.239699  0.565408  0.536599  1
  Tb  Tb23  1  0.737354  0.434013  0.963206  1
  Re  Re24  1  0.135052  0.750000  0.684415  1
  Tc  Tc25  1  0.932370  0.750000  0.438006  1
  Tc  Tc26  1  0.430755  0.250000  0.061531  1
  Tc  Tc27  1  0.067855  0.250000  0.562762  1
  Tc  Tc28  1  0.566114  0.750000  0.937455  1
  Tc  Tc29  1  0.369092  0.750000  0.184809  1
  Tc  Tc30  1  0.868367  0.250000  0.315789  1
  Tc  Tc31  1  0.632377  0.250000  0.815390  1
