# generated using pymatgen
data_TbSmFe12P7
_symmetry_space_group_name_H-M   'P 1'
_cell_length_a   3.65429700
_cell_length_b   8.95468373
_cell_length_c   8.95248173
_cell_angle_alpha   120.00298197
_cell_angle_beta   90.00000000
_cell_angle_gamma   90.00000000
_symmetry_Int_Tables_number   1
_chemical_formula_structural   TbSmFe12P7
_chemical_formula_sum   'Tb1 Sm1 Fe12 P7'
_cell_volume   253.69687500
_cell_formula_units_Z   1
loop_
 _symmetry_equiv_pos_site_id
 _symmetry_equiv_pos_as_xyz
  1  'x, y, z'
loop_
 _atom_site_type_symbol
 _atom_site_label
 _atom_site_symmetry_multiplicity
 _atom_site_fract_x
 _atom_site_fract_y
 _atom_site_fract_z
 _atom_site_occupancy
  Tb  Tb0  1  0.500000  0.333425  0.666696  1
  Sm  Sm1  1  0.000000  0.666614  0.333302  1
  Fe  Fe2  1  0.000000  0.367672  0.943064  1
  Fe  Fe3  1  0.000000  0.057028  0.424653  1
  Fe  Fe4  1  0.000000  0.575413  0.632357  1
  Fe  Fe5  1  0.000000  0.881089  0.728029  1
  Fe  Fe6  1  0.000000  0.271792  0.152878  1
  Fe  Fe7  1  0.000000  0.847051  0.119012  1
  Fe  Fe8  1  0.500000  0.952958  0.568800  1
  Fe  Fe9  1  0.500000  0.431191  0.384141  1
  Fe  Fe10  1  0.500000  0.615834  0.047104  1
  Fe  Fe11  1  0.500000  0.115373  0.904812  1
  Fe  Fe12  1  0.500000  0.095140  0.210493  1
  Fe  Fe13  1  0.500000  0.789420  0.884646  1
  P  P14  1  0.000000  0.110656  0.700458  1
  P  P15  1  0.000000  0.299552  0.410112  1
  P  P16  1  0.000000  0.589895  0.889477  1
  P  P17  1  0.500000  0.711023  0.603173  1
  P  P18  1  0.500000  0.396701  0.107805  1
  P  P19  1  0.500000  0.892209  0.288991  1
  P  P20  1  0.000000  0.999966  0.999996  1
