# generated using pymatgen
data_Tb3Y13Cd4NiIr3
_symmetry_space_group_name_H-M   'P 1'
_cell_length_a   9.61177175
_cell_length_b   9.64559461
_cell_length_c   9.64559400
_cell_angle_alpha   60.00000210
_cell_angle_beta   59.88352941
_cell_angle_gamma   59.88352755
_symmetry_Int_Tables_number   1
_chemical_formula_structural   Tb3Y13Cd4NiIr3
_chemical_formula_sum   'Tb3 Y13 Cd4 Ni1 Ir3'
_cell_volume   631.21837508
_cell_formula_units_Z   1
loop_
 _symmetry_equiv_pos_site_id
 _symmetry_equiv_pos_as_xyz
  1  'x, y, z'
loop_
 _atom_site_type_symbol
 _atom_site_label
 _atom_site_symmetry_multiplicity
 _atom_site_fract_x
 _atom_site_fract_y
 _atom_site_fract_z
 _atom_site_occupancy
  Tb  Tb0  1  0.601548  0.597815  0.597815  1
  Tb  Tb1  1  0.601548  0.597815  0.202822  1
  Tb  Tb2  1  0.601548  0.202822  0.597815  1
  Y  Y3  1  0.201290  0.599570  0.599570  1
  Y  Y4  1  0.059966  0.438951  0.438951  1
  Y  Y5  1  0.438750  0.060881  0.060881  1
  Y  Y6  1  0.438750  0.060881  0.439487  1
  Y  Y7  1  0.059966  0.438951  0.062131  1
  Y  Y8  1  0.438750  0.439487  0.060881  1
  Y  Y9  1  0.059966  0.062131  0.438951  1
  Y  Y10  1  0.187179  0.812894  0.812894  1
  Y  Y11  1  0.811840  0.185988  0.185988  1
  Y  Y12  1  0.811840  0.185988  0.816184  1
  Y  Y13  1  0.187179  0.812894  0.187032  1
  Y  Y14  1  0.811840  0.816184  0.185988  1
  Y  Y15  1  0.187179  0.187032  0.812894  1
  Cd  Cd16  1  0.830516  0.830903  0.830903  1
  Cd  Cd17  1  0.830516  0.830903  0.507675  1
  Cd  Cd18  1  0.830516  0.507675  0.830903  1
  Cd  Cd19  1  0.507257  0.830914  0.830914  1
  Ni  Ni20  1  0.823992  0.392003  0.392003  1
  Ir  Ir21  1  0.392689  0.391978  0.391978  1
  Ir  Ir22  1  0.392689  0.391978  0.823356  1
  Ir  Ir23  1  0.392689  0.823356  0.391978  1
