# generated using pymatgen
data_Nd4Er3Lu(ReB6)4
_symmetry_space_group_name_H-M   'P 1'
_cell_length_a   3.71263500
_cell_length_b   9.22290702
_cell_length_c   11.68520402
_cell_angle_alpha   90.00731070
_cell_angle_beta   90.00000000
_cell_angle_gamma   90.00000000
_symmetry_Int_Tables_number   1
_chemical_formula_structural   Nd4Er3Lu(ReB6)4
_chemical_formula_sum   'Nd4 Er3 Lu1 Re4 B24'
_cell_volume   400.11642604
_cell_formula_units_Z   1
loop_
 _symmetry_equiv_pos_site_id
 _symmetry_equiv_pos_as_xyz
  1  'x, y, z'
loop_
 _atom_site_type_symbol
 _atom_site_label
 _atom_site_symmetry_multiplicity
 _atom_site_fract_x
 _atom_site_fract_y
 _atom_site_fract_z
 _atom_site_occupancy
  Nd  Nd0  1  0.000000  0.322986  0.414604  1
  Nd  Nd1  1  0.000000  0.677048  0.585671  1
  Nd  Nd2  1  0.000000  0.822603  0.085312  1
  Nd  Nd3  1  0.000000  0.177182  0.914511  1
  Er  Er4  1  0.000000  0.943375  0.369506  1
  Er  Er5  1  0.000000  0.056730  0.630836  1
  Er  Er6  1  0.000000  0.443521  0.129729  1
  Lu  Lu7  1  0.000000  0.556786  0.869162  1
  Re  Re8  1  0.000000  0.639715  0.318536  1
  Re  Re9  1  0.000000  0.360783  0.682000  1
  Re  Re10  1  0.000000  0.140157  0.180960  1
  Re  Re11  1  0.000000  0.858881  0.818911  1
  B  B12  1  0.500000  0.555334  0.430249  1
  B  B13  1  0.500000  0.444802  0.570161  1
  B  B14  1  0.500000  0.055167  0.069700  1
  B  B15  1  0.500000  0.944186  0.930133  1
  B  B16  1  0.500000  0.750576  0.415639  1
  B  B17  1  0.500000  0.249724  0.584627  1
  B  B18  1  0.500000  0.250566  0.084239  1
  B  B19  1  0.500000  0.748275  0.915768  1
  B  B20  1  0.500000  0.792209  0.265675  1
  B  B21  1  0.500000  0.208250  0.734469  1
  B  B22  1  0.500000  0.292440  0.234228  1
  B  B23  1  0.500000  0.706833  0.765895  1
  B  B24  1  0.500000  0.629627  0.185715  1
  B  B25  1  0.500000  0.371195  0.814764  1
  B  B26  1  0.500000  0.129698  0.314118  1
  B  B27  1  0.500000  0.870069  0.686125  1
  B  B28  1  0.500000  0.984015  0.213376  1
  B  B29  1  0.500000  0.015648  0.786794  1
  B  B30  1  0.500000  0.483849  0.286469  1
  B  B31  1  0.500000  0.516662  0.713984  1
  B  B32  1  0.500000  0.595889  0.025184  1
  B  B33  1  0.500000  0.405162  0.972771  1
  B  B34  1  0.500000  0.096105  0.473798  1
  B  B35  1  0.500000  0.903955  0.526382  1
