# generated using pymatgen
data_Tb12Sm8Sn15Bi
_symmetry_space_group_name_H-M   'P 1'
_cell_length_a   8.14384150
_cell_length_b   8.27782848
_cell_length_c   15.62450615
_cell_angle_alpha   90.01756442
_cell_angle_beta   90.27402577
_cell_angle_gamma   90.03450568
_symmetry_Int_Tables_number   1
_chemical_formula_structural   Tb12Sm8Sn15Bi
_chemical_formula_sum   'Tb12 Sm8 Sn15 Bi1'
_cell_volume   1053.28759326
_cell_formula_units_Z   1
loop_
 _symmetry_equiv_pos_site_id
 _symmetry_equiv_pos_as_xyz
  1  'x, y, z'
loop_
 _atom_site_type_symbol
 _atom_site_label
 _atom_site_symmetry_multiplicity
 _atom_site_fract_x
 _atom_site_fract_y
 _atom_site_fract_z
 _atom_site_occupancy
  Tb  Tb0  1  0.368265  0.833478  0.876796  1
  Tb  Tb1  1  0.865664  0.663931  0.622097  1
  Tb  Tb2  1  0.634568  0.163755  0.377568  1
  Tb  Tb3  1  0.131261  0.340487  0.122845  1
  Tb  Tb4  1  0.637781  0.164658  0.122083  1
  Tb  Tb5  1  0.134788  0.336386  0.377637  1
  Tb  Tb6  1  0.365406  0.836294  0.622266  1
  Tb  Tb7  1  0.866346  0.663938  0.878012  1
  Tb  Tb8  1  0.197564  0.501674  0.749688  1
  Tb  Tb9  1  0.697359  0.997671  0.750420  1
  Tb  Tb10  1  0.801972  0.498099  0.250786  1
  Tb  Tb11  1  0.302798  0.001817  0.252935  1
  Sm  Sm12  1  0.520930  0.323110  0.901065  1
  Sm  Sm13  1  0.017986  0.179281  0.597891  1
  Sm  Sm14  1  0.482166  0.678926  0.402181  1
  Sm  Sm15  1  0.974932  0.818907  0.099495  1
  Sm  Sm16  1  0.482419  0.675724  0.098338  1
  Sm  Sm17  1  0.981813  0.820652  0.402212  1
  Sm  Sm18  1  0.518035  0.320655  0.597742  1
  Sm  Sm19  1  0.015877  0.180754  0.900096  1
  Sn  Sn20  1  0.796112  0.462209  0.458059  1
  Sn  Sn21  1  0.703970  0.962112  0.541869  1
  Sn  Sn22  1  0.205636  0.536708  0.958051  1
  Sn  Sn23  1  0.709290  0.963263  0.957709  1
  Sn  Sn24  1  0.203947  0.537604  0.541847  1
  Sn  Sn25  1  0.296397  0.037525  0.458203  1
  Sn  Sn26  1  0.794836  0.463272  0.042160  1
  Sn  Sn27  1  0.564912  0.620139  0.749594  1
  Sn  Sn28  1  0.064977  0.879779  0.750566  1
  Sn  Sn29  1  0.435760  0.378703  0.249131  1
  Sn  Sn30  1  0.936392  0.120335  0.249369  1
  Sn  Sn31  1  0.326878  0.144272  0.749988  1
  Sn  Sn32  1  0.826401  0.356278  0.749490  1
  Sn  Sn33  1  0.671852  0.855398  0.249994  1
  Sn  Sn34  1  0.172844  0.645153  0.249979  1
  Bi  Bi35  1  0.291866  0.037052  0.041839  1
