# generated using pymatgen
data_La8Zn8Ru2Pt5Rh
_symmetry_space_group_name_H-M   'P 1'
_cell_length_a   4.08729900
_cell_length_b   7.54344329
_cell_length_c   16.85228818
_cell_angle_alpha   89.98054536
_cell_angle_beta   90.00000000
_cell_angle_gamma   90.00000000
_symmetry_Int_Tables_number   1
_chemical_formula_structural   La8Zn8Ru2Pt5Rh
_chemical_formula_sum   'La8 Zn8 Ru2 Pt5 Rh1'
_cell_volume   519.59491319
_cell_formula_units_Z   1
loop_
 _symmetry_equiv_pos_site_id
 _symmetry_equiv_pos_as_xyz
  1  'x, y, z'
loop_
 _atom_site_type_symbol
 _atom_site_label
 _atom_site_symmetry_multiplicity
 _atom_site_fract_x
 _atom_site_fract_y
 _atom_site_fract_z
 _atom_site_occupancy
  La  La0  1  0.750000  0.332542  0.440252  1
  La  La1  1  0.250000  0.043048  0.717909  1
  La  La2  1  0.250000  0.552698  0.779133  1
  La  La3  1  0.250000  0.676190  0.556644  1
  La  La4  1  0.750000  0.830881  0.060261  1
  La  La5  1  0.250000  0.175286  0.945603  1
  La  La6  1  0.750000  0.444140  0.211066  1
  La  La7  1  0.750000  0.944868  0.289484  1
  Zn  Zn8  1  0.250000  0.124785  0.148458  1
  Zn  Zn9  1  0.250000  0.995922  0.439996  1
  Zn  Zn10  1  0.750000  0.873582  0.849639  1
  Zn  Zn11  1  0.750000  0.998842  0.557698  1
  Zn  Zn12  1  0.250000  0.496835  0.060353  1
  Zn  Zn13  1  0.750000  0.377653  0.649066  1
  Zn  Zn14  1  0.750000  0.500843  0.942061  1
  Zn  Zn15  1  0.250000  0.625532  0.352111  1
  Ru  Ru16  1  0.750000  0.760437  0.434038  1
  Ru  Ru17  1  0.750000  0.262036  0.066048  1
  Pt  Pt18  1  0.750000  0.255132  0.812027  1
  Pt  Pt19  1  0.250000  0.245471  0.314881  1
  Pt  Pt20  1  0.250000  0.742799  0.933277  1
  Pt  Pt21  1  0.250000  0.241637  0.566770  1
  Pt  Pt22  1  0.250000  0.745556  0.185712  1
  Rh  Rh23  1  0.750000  0.753284  0.687515  1
