# generated using pymatgen
data_Ce2B4Ir3Rh2
_symmetry_space_group_name_H-M   'P 1'
_cell_length_a   7.57411388
_cell_length_b   6.31475828
_cell_length_c   5.71482153
_cell_angle_alpha   77.86846546
_cell_angle_beta   54.59823488
_cell_angle_gamma   47.53329117
_symmetry_Int_Tables_number   1
_chemical_formula_structural   Ce2B4Ir3Rh2
_chemical_formula_sum   'Ce2 B4 Ir3 Rh2'
_cell_volume   156.72949698
_cell_formula_units_Z   1
loop_
 _symmetry_equiv_pos_site_id
 _symmetry_equiv_pos_as_xyz
  1  'x, y, z'
loop_
 _atom_site_type_symbol
 _atom_site_label
 _atom_site_symmetry_multiplicity
 _atom_site_fract_x
 _atom_site_fract_y
 _atom_site_fract_z
 _atom_site_occupancy
  Ce  Ce0  1  0.861373  0.861373  0.138627  1
  Ce  Ce1  1  0.138627  0.138627  0.861373  1
  B  B2  1  0.210721  0.522244  0.477756  1
  B  B3  1  0.789279  0.477756  0.522244  1
  B  B4  1  0.522244  0.210721  0.789279  1
  B  B5  1  0.477756  0.789279  0.210721  1
  Ir  Ir6  1  0.750000  0.750000  0.750000  1
  Ir  Ir7  1  0.250000  0.250000  0.250000  1
  Ir  Ir8  1  0.500000  0.500000  0.500000  1
  Rh  Rh9  1  0.500000  0.500000  0.000000  1
  Rh  Rh10  1  0.000000  0.000000  0.500000  1
