# generated using pymatgen
data_SrHo6NiBr12
_symmetry_space_group_name_H-M   'P 1'
_cell_length_a   9.20970433
_cell_length_b   9.20970358
_cell_length_c   9.20970372
_cell_angle_alpha   106.11561360
_cell_angle_beta   106.11561007
_cell_angle_gamma   106.11560801
_symmetry_Int_Tables_number   1
_chemical_formula_structural   SrHo6NiBr12
_chemical_formula_sum   'Sr1 Ho6 Ni1 Br12'
_cell_volume   665.62450552
_cell_formula_units_Z   1
loop_
 _symmetry_equiv_pos_site_id
 _symmetry_equiv_pos_as_xyz
  1  'x, y, z'
loop_
 _atom_site_type_symbol
 _atom_site_label
 _atom_site_symmetry_multiplicity
 _atom_site_fract_x
 _atom_site_fract_y
 _atom_site_fract_z
 _atom_site_occupancy
  Sr  Sr0  1  0.500000  0.500000  0.500000  1
  Ho  Ho1  1  0.096450  0.021635  0.302201  1
  Ho  Ho2  1  0.021635  0.302201  0.096450  1
  Ho  Ho3  1  0.302201  0.096450  0.021635  1
  Ho  Ho4  1  0.903549  0.978365  0.697799  1
  Ho  Ho5  1  0.978365  0.697799  0.903549  1
  Ho  Ho6  1  0.697799  0.903549  0.978365  1
  Ni  Ni7  1  0.000000  0.000000  0.000000  1
  Br  Br8  1  0.074056  0.678632  0.219204  1
  Br  Br9  1  0.678632  0.219204  0.074056  1
  Br  Br10  1  0.219204  0.074056  0.678632  1
  Br  Br11  1  0.925944  0.321368  0.780796  1
  Br  Br12  1  0.321368  0.780796  0.925944  1
  Br  Br13  1  0.780796  0.925944  0.321368  1
  Br  Br14  1  0.444802  0.138622  0.367683  1
  Br  Br15  1  0.138622  0.367683  0.444802  1
  Br  Br16  1  0.367683  0.444802  0.138622  1
  Br  Br17  1  0.555198  0.861378  0.632317  1
  Br  Br18  1  0.861378  0.632317  0.555198  1
  Br  Br19  1  0.632317  0.555198  0.861378  1
