# generated using pymatgen
data_Dy2Lu3P12Ir10Ru9
_symmetry_space_group_name_H-M   'P 1'
_cell_length_a   12.61726076
_cell_length_b   12.53738379
_cell_length_c   3.95090700
_cell_angle_alpha   90.00000000
_cell_angle_beta   90.00000000
_cell_angle_gamma   119.93292488
_symmetry_Int_Tables_number   1
_chemical_formula_structural   Dy2Lu3P12Ir10Ru9
_chemical_formula_sum   'Dy2 Lu3 P12 Ir10 Ru9'
_cell_volume   541.61736230
_cell_formula_units_Z   1
loop_
 _symmetry_equiv_pos_site_id
 _symmetry_equiv_pos_as_xyz
  1  'x, y, z'
loop_
 _atom_site_type_symbol
 _atom_site_label
 _atom_site_symmetry_multiplicity
 _atom_site_fract_x
 _atom_site_fract_y
 _atom_site_fract_z
 _atom_site_occupancy
  Dy  Dy0  1  0.666837  0.331986  0.000000  1
  Dy  Dy1  1  0.334695  0.667299  0.000000  1
  Lu  Lu2  1  0.812855  0.001000  0.500000  1
  Lu  Lu3  1  0.184638  0.185958  0.500000  1
  Lu  Lu4  1  0.999743  0.814811  0.500000  1
  P  P5  1  0.633278  0.999002  0.000000  1
  P  P6  1  0.364672  0.369581  0.000000  1
  P  P7  1  0.000611  0.635310  0.000000  1
  P  P8  1  0.688853  0.519642  0.500000  1
  P  P9  1  0.829881  0.306693  0.500000  1
  P  P10  1  0.316336  0.833128  0.500000  1
  P  P11  1  0.518157  0.687273  0.500000  1
  P  P12  1  0.179048  0.000887  0.000000  1
  P  P13  1  0.820175  0.821504  0.000000  1
  P  P14  1  0.995830  0.179557  0.000000  1
  P  P15  1  0.479175  0.167264  0.500000  1
  P  P16  1  0.172714  0.480660  0.500000  1
  Ir  Ir17  1  0.626871  0.807707  0.000000  1
  Ir  Ir18  1  0.181113  0.373957  0.000000  1
  Ir  Ir19  1  0.372388  0.183633  0.000000  1
  Ir  Ir20  1  0.190391  0.817850  0.000000  1
  Ir  Ir21  1  0.809569  0.626425  0.000000  1
  Ir  Ir22  1  0.869396  0.506432  0.500000  1
  Ir  Ir23  1  0.493473  0.361550  0.500000  1
  Ir  Ir24  1  0.636114  0.128403  0.500000  1
  Ir  Ir25  1  0.131002  0.638793  0.500000  1
  Ir  Ir26  1  0.999994  0.000318  0.000000  1
  Ru  Ru27  1  0.362301  0.488139  0.500000  1
  Ru  Ru28  1  0.510747  0.870644  0.500000  1
  Ru  Ru29  1  0.715914  0.715048  0.500000  1
  Ru  Ru30  1  0.001019  0.285699  0.500000  1
  Ru  Ru31  1  0.449258  0.999743  0.000000  1
  Ru  Ru32  1  0.551337  0.548340  0.000000  1
  Ru  Ru33  1  0.000470  0.452647  0.000000  1
  Ru  Ru34  1  0.816987  0.193048  0.000000  1
  Ru  Ru35  1  0.284159  0.000069  0.500000  1
