# generated using pymatgen
data_Sr(AcSe2)2
_symmetry_space_group_name_H-M   'P 1'
_cell_length_a   8.13120400
_cell_length_b   8.13120400
_cell_length_c   8.13120403
_cell_angle_alpha   109.45043630
_cell_angle_beta   109.45044080
_cell_angle_gamma   109.51279724
_symmetry_Int_Tables_number   1
_chemical_formula_structural   Sr(AcSe2)2
_chemical_formula_sum   'Sr2 Ac4 Se8'
_cell_volume   413.84954988
_cell_formula_units_Z   2
loop_
 _symmetry_equiv_pos_site_id
 _symmetry_equiv_pos_as_xyz
  1  'x, y, z'
loop_
 _atom_site_type_symbol
 _atom_site_label
 _atom_site_symmetry_multiplicity
 _atom_site_fract_x
 _atom_site_fract_y
 _atom_site_fract_z
 _atom_site_occupancy
  Sr  Sr0  1  0.750000  0.250000  0.500000  1
  Sr  Sr1  1  0.500000  0.500000  0.000000  1
  Ac  Ac2  1  0.996199  0.375000  0.121199  1
  Ac  Ac3  1  0.625000  0.746199  0.621199  1
  Ac  Ac4  1  0.253801  0.875000  0.878801  1
  Ac  Ac5  1  0.125000  0.003801  0.378801  1
  Se  Se6  1  0.373176  0.272985  0.250690  1
  Se  Se7  1  0.876824  0.627514  0.399809  1
  Se  Se8  1  0.227705  0.477015  0.600191  1
  Se  Se9  1  0.877514  0.626824  0.899809  1
  Se  Se10  1  0.372486  0.772295  0.249310  1
  Se  Se11  1  0.522985  0.123176  0.750690  1
  Se  Se12  1  0.727015  0.977705  0.100191  1
  Se  Se13  1  0.022295  0.122486  0.749310  1
