# generated using pymatgen
data_Ca9Pr3Ga12(SnO6)8
_symmetry_space_group_name_H-M   'P 1'
_cell_length_a   11.07820867
_cell_length_b   11.09846127
_cell_length_c   11.09817120
_cell_angle_alpha   109.27493706
_cell_angle_beta   109.60570905
_cell_angle_gamma   109.60703822
_symmetry_Int_Tables_number   1
_chemical_formula_structural   Ca9Pr3Ga12(SnO6)8
_chemical_formula_sum   'Ca9 Pr3 Ga12 Sn8 O48'
_cell_volume   1049.44778091
_cell_formula_units_Z   1
loop_
 _symmetry_equiv_pos_site_id
 _symmetry_equiv_pos_as_xyz
  1  'x, y, z'
loop_
 _atom_site_type_symbol
 _atom_site_label
 _atom_site_symmetry_multiplicity
 _atom_site_fract_x
 _atom_site_fract_y
 _atom_site_fract_z
 _atom_site_occupancy
  Ca  Ca0  1  0.126594  0.250315  0.377219  1
  Ca  Ca1  1  0.373410  0.750593  0.123704  1
  Ca  Ca2  1  0.249986  0.875009  0.624976  1
  Ca  Ca3  1  0.876719  0.751402  0.623117  1
  Ca  Ca4  1  0.623274  0.246427  0.874689  1
  Ca  Ca5  1  0.373408  0.122801  0.249706  1
  Ca  Ca6  1  0.623277  0.876854  0.748578  1
  Ca  Ca7  1  0.126594  0.376277  0.749384  1
  Ca  Ca8  1  0.876723  0.625327  0.253600  1
  Pr  Pr9  1  0.249990  0.374996  0.124994  1
  Pr  Pr10  1  0.750011  0.625003  0.875009  1
  Pr  Pr11  1  0.750008  0.125002  0.375008  1
  Ga  Ga12  1  0.249988  0.628658  0.378665  1
  Ga  Ga13  1  0.750003  0.374501  0.624500  1
  Ga  Ga14  1  0.750001  0.875501  0.125505  1
  Ga  Ga15  1  0.374973  0.249379  0.624237  1
  Ga  Ga16  1  0.624826  0.750600  0.375418  1
  Ga  Ga17  1  0.250008  0.121337  0.871339  1
  Ga  Ga18  1  0.125033  0.749266  0.874399  1
  Ga  Ga19  1  0.875140  0.250567  0.125716  1
  Ga  Ga20  1  0.624867  0.374282  0.249426  1
  Ga  Ga21  1  0.374959  0.625597  0.750741  1
  Ga  Ga22  1  0.875197  0.124591  0.749381  1
  Ga  Ga23  1  0.125013  0.875750  0.250617  1
  Sn  Sn24  1  0.000333  0.000110  0.999662  1
  Sn  Sn25  1  0.497191  0.998609  0.500738  1
  Sn  Sn26  1  0.002826  0.503585  0.501426  1
  Sn  Sn27  1  0.497194  0.998578  0.996436  1
  Sn  Sn28  1  0.499674  0.499317  0.999787  1
  Sn  Sn29  1  0.499669  0.500338  0.499891  1
  Sn  Sn30  1  0.002805  0.999263  0.501387  1
  Sn  Sn31  1  0.000325  0.500210  0.000680  1
  O  O32  1  0.474421  0.376791  0.293114  1
  O  O33  1  0.525306  0.622424  0.706791  1
  O  O34  1  0.583130  0.180732  0.205648  1
  O  O35  1  0.916874  0.122514  0.597604  1
  O  O36  1  0.296021  0.479958  0.379175  1
  O  O37  1  0.318159  0.917328  0.295352  1
  O  O38  1  0.417568  0.817786  0.794611  1
  O  O39  1  0.082397  0.877025  0.400196  1
  O  O40  1  0.703619  0.521022  0.620945  1
  O  O41  1  0.682182  0.083132  0.703937  1
  O  O42  1  0.025566  0.318676  0.902360  1
  O  O43  1  0.203979  0.583150  0.183937  1
  O  O44  1  0.121572  0.022450  0.203238  1
  O  O45  1  0.974700  0.681487  0.097124  1
  O  O46  1  0.796377  0.417323  0.817405  1
  O  O47  1  0.878254  0.977826  0.796352  1
  O  O48  1  0.599545  0.918148  0.121022  1
  O  O49  1  0.181848  0.477183  0.599179  1
  O  O50  1  0.402125  0.082990  0.876792  1
  O  O51  1  0.817800  0.521736  0.400941  1
  O  O52  1  0.900468  0.021479  0.318610  1
  O  O53  1  0.378420  0.581656  0.900878  1
  O  O54  1  0.097857  0.974652  0.680850  1
  O  O55  1  0.621738  0.418104  0.099578  1
  O  O56  1  0.378423  0.296764  0.477551  1
  O  O57  1  0.583129  0.902400  0.377492  1
  O  O58  1  0.621747  0.703641  0.522178  1
  O  O59  1  0.417598  0.099792  0.622968  1
  O  O60  1  0.121577  0.599119  0.918337  1
  O  O61  1  0.025570  0.206885  0.123209  1
  O  O62  1  0.878262  0.400427  0.081902  1
  O  O63  1  0.974694  0.793208  0.877573  1
  O  O64  1  0.318165  0.900829  0.022826  1
  O  O65  1  0.916871  0.294349  0.319258  1
  O  O66  1  0.682178  0.099048  0.978238  1
  O  O67  1  0.082433  0.705398  0.682222  1
  O  O68  1  0.181849  0.204653  0.582672  1
  O  O69  1  0.474432  0.597635  0.181322  1
  O  O70  1  0.817817  0.796068  0.416873  1
  O  O71  1  0.525303  0.402882  0.818515  1
  O  O72  1  0.296020  0.316060  0.916846  1
  O  O73  1  0.703624  0.682604  0.082682  1
  O  O74  1  0.203980  0.120828  0.020047  1
  O  O75  1  0.796381  0.879055  0.978973  1
  O  O76  1  0.900460  0.378984  0.581862  1
  O  O77  1  0.097863  0.623207  0.416999  1
  O  O78  1  0.599540  0.181389  0.478528  1
  O  O79  1  0.402138  0.819154  0.525352  1
