# generated using pymatgen
data_GdSbWO8
_symmetry_space_group_name_H-M   'P 1'
_cell_length_a   8.94698895
_cell_length_b   9.91717386
_cell_length_c   11.04981318
_cell_angle_alpha   110.57457029
_cell_angle_beta   94.33168272
_cell_angle_gamma   104.48292766
_symmetry_Int_Tables_number   1
_chemical_formula_structural   GdSbWO8
_chemical_formula_sum   'Gd1 Sb1 W1 O8'
_cell_volume   874.16988934
_cell_formula_units_Z   1
loop_
 _symmetry_equiv_pos_site_id
 _symmetry_equiv_pos_as_xyz
  1  'x, y, z'
loop_
 _atom_site_type_symbol
 _atom_site_label
 _atom_site_symmetry_multiplicity
 _atom_site_fract_x
 _atom_site_fract_y
 _atom_site_fract_z
 _atom_site_occupancy
  Gd  Gd0  1  0.211822  0.384494  0.036973  1
  Sb  Sb1  1  0.522591  0.008869  0.032320  1
  W  W2  1  0.813026  0.565257  0.978790  1
  O  O3  1  0.091225  0.003828  0.829319  1
  O  O4  1  0.445785  0.976544  0.311520  1
  O  O5  1  0.160380  0.826901  0.889807  1
  O  O6  1  0.216840  0.124455  0.805908  1
  O  O7  1  0.591379  0.893548  0.688899  1
  O  O8  1  0.877323  0.106996  0.308192  1
  O  O9  1  0.636869  0.116197  0.965114  1
  O  O10  1  0.932761  0.992912  0.153158  1
