# generated using pymatgen
data_Tb2Er10Co4TcBi
_symmetry_space_group_name_H-M   'P 1'
_cell_length_a   8.29280309
_cell_length_b   8.29280237
_cell_length_c   8.28041705
_cell_angle_alpha   110.51387105
_cell_angle_beta   111.60940126
_cell_angle_gamma   106.40122672
_symmetry_Int_Tables_number   1
_chemical_formula_structural   Tb2Er10Co4TcBi
_chemical_formula_sum   'Tb2 Er10 Co4 Tc1 Bi1'
_cell_volume   437.01573343
_cell_formula_units_Z   1
loop_
 _symmetry_equiv_pos_site_id
 _symmetry_equiv_pos_as_xyz
  1  'x, y, z'
loop_
 _atom_site_type_symbol
 _atom_site_label
 _atom_site_symmetry_multiplicity
 _atom_site_fract_x
 _atom_site_fract_y
 _atom_site_fract_z
 _atom_site_occupancy
  Tb  Tb0  1  0.282672  0.182662  0.465333  1
  Tb  Tb1  1  0.717328  0.817338  0.534667  1
  Er  Er2  1  0.281591  0.816987  0.098578  1
  Er  Er3  1  0.718409  0.183013  0.901422  1
  Er  Er4  1  0.619185  0.309538  0.308303  1
  Er  Er5  1  0.380815  0.690462  0.691697  1
  Er  Er6  1  0.001237  0.310883  0.691697  1
  Er  Er7  1  0.998763  0.689117  0.308303  1
  Er  Er8  1  0.213656  0.411354  0.196179  1
  Er  Er9  1  0.786344  0.588646  0.803821  1
  Er  Er10  1  0.215175  0.017478  0.803821  1
  Er  Er11  1  0.784825  0.982522  0.196179  1
  Co  Co12  1  0.999829  0.377955  0.377783  1
  Co  Co13  1  0.000171  0.622045  0.622217  1
  Co  Co14  1  0.388815  0.888815  0.500000  1
  Co  Co15  1  0.611185  0.111185  0.500000  1
  Tc  Tc16  1  0.000000  0.000000  0.000000  1
  Bi  Bi17  1  0.500000  0.500000  0.000000  1
