# generated using pymatgen
data_Zr4Si3PIr4
_symmetry_space_group_name_H-M   'P 1'
_cell_length_a   3.95218100
_cell_length_b   6.58265273
_cell_length_c   7.43690630
_cell_angle_alpha   90.12263975
_cell_angle_beta   90.00000000
_cell_angle_gamma   90.00000000
_symmetry_Int_Tables_number   1
_chemical_formula_structural   Zr4Si3PIr4
_chemical_formula_sum   'Zr4 Si3 P1 Ir4'
_cell_volume   193.47688447
_cell_formula_units_Z   1
loop_
 _symmetry_equiv_pos_site_id
 _symmetry_equiv_pos_as_xyz
  1  'x, y, z'
loop_
 _atom_site_type_symbol
 _atom_site_label
 _atom_site_symmetry_multiplicity
 _atom_site_fract_x
 _atom_site_fract_y
 _atom_site_fract_z
 _atom_site_occupancy
  Zr  Zr0  1  0.250000  0.020694  0.323295  1
  Zr  Zr1  1  0.250000  0.519806  0.179239  1
  Zr  Zr2  1  0.750000  0.982764  0.679784  1
  Zr  Zr3  1  0.750000  0.479770  0.817136  1
  Si  Si4  1  0.250000  0.777178  0.881108  1
  Si  Si5  1  0.750000  0.724443  0.380443  1
  Si  Si6  1  0.750000  0.222660  0.119282  1
  P  P7  1  0.250000  0.272710  0.619493  1
  Ir  Ir8  1  0.250000  0.152130  0.936149  1
  Ir  Ir9  1  0.250000  0.648985  0.563616  1
  Ir  Ir10  1  0.750000  0.849382  0.064333  1
  Ir  Ir11  1  0.750000  0.349477  0.436122  1
