# generated using pymatgen
data_Dy4HoIrOs
_symmetry_space_group_name_H-M   'P 1'
_cell_length_a   6.45473998
_cell_length_b   7.30096553
_cell_length_c   8.44537244
_cell_angle_alpha   96.59993329
_cell_angle_beta   112.46671585
_cell_angle_gamma   90.00000141
_symmetry_Int_Tables_number   1
_chemical_formula_structural   Dy4HoIrOs
_chemical_formula_sum   'Dy8 Ho2 Ir2 Os2'
_cell_volume   364.93224124
_cell_formula_units_Z   2
loop_
 _symmetry_equiv_pos_site_id
 _symmetry_equiv_pos_as_xyz
  1  'x, y, z'
loop_
 _atom_site_type_symbol
 _atom_site_label
 _atom_site_symmetry_multiplicity
 _atom_site_fract_x
 _atom_site_fract_y
 _atom_site_fract_z
 _atom_site_occupancy
  Dy  Dy0  1  0.969508  0.916445  0.179735  1
  Dy  Dy1  1  0.789774  0.583555  0.820265  1
  Dy  Dy2  1  0.027012  0.081286  0.816983  1
  Dy  Dy3  1  0.210028  0.418714  0.183017  1
  Dy  Dy4  1  0.653816  0.817000  0.440379  1
  Dy  Dy5  1  0.213437  0.683000  0.559621  1
  Dy  Dy6  1  0.348163  0.181053  0.561318  1
  Dy  Dy7  1  0.786845  0.318947  0.438682  1
  Ho  Ho8  1  0.426995  0.750000  0.000000  1
  Ho  Ho9  1  0.575679  0.250000  0.000000  1
  Ir  Ir10  1  0.173324  0.424727  0.780361  1
  Ir  Ir11  1  0.392962  0.075273  0.219639  1
  Os  Os12  1  0.825201  0.573321  0.217945  1
  Os  Os13  1  0.607257  0.926679  0.782055  1
