# generated using pymatgen
data_Nd2Fe4P7Ru7Pt
_symmetry_space_group_name_H-M   'P 1'
_cell_length_a   9.37153248
_cell_length_b   9.27794503
_cell_length_c   3.85968300
_cell_angle_alpha   90.00000000
_cell_angle_beta   90.00000000
_cell_angle_gamma   119.99278461
_symmetry_Int_Tables_number   1
_chemical_formula_structural   Nd2Fe4P7Ru7Pt
_chemical_formula_sum   'Nd2 Fe4 P7 Ru7 Pt1'
_cell_volume   290.65396391
_cell_formula_units_Z   1
loop_
 _symmetry_equiv_pos_site_id
 _symmetry_equiv_pos_as_xyz
  1  'x, y, z'
loop_
 _atom_site_type_symbol
 _atom_site_label
 _atom_site_symmetry_multiplicity
 _atom_site_fract_x
 _atom_site_fract_y
 _atom_site_fract_z
 _atom_site_occupancy
  Nd  Nd0  1  0.665353  0.333216  0.000000  1
  Nd  Nd1  1  0.334213  0.662906  0.500000  1
  Fe  Fe2  1  0.361927  0.418896  0.000000  1
  Fe  Fe3  1  0.264623  0.115276  0.000000  1
  Fe  Fe4  1  0.839564  0.727526  0.000000  1
  Fe  Fe5  1  0.890522  0.157212  0.000000  1
  P  P6  1  0.313838  0.906399  0.000000  1
  P  P7  1  0.584670  0.689830  0.000000  1
  P  P8  1  0.115141  0.398737  0.000000  1
  P  P9  1  0.393283  0.285852  0.500000  1
  P  P10  1  0.873243  0.602383  0.500000  1
  P  P11  1  0.719816  0.114813  0.500000  1
  P  P12  1  0.997296  0.996781  0.000000  1
  Ru  Ru13  1  0.579471  0.939319  0.000000  1
  Ru  Ru14  1  0.435913  0.054238  0.500000  1
  Ru  Ru15  1  0.607422  0.562812  0.500000  1
  Ru  Ru16  1  0.951101  0.389210  0.500000  1
  Ru  Ru17  1  0.087511  0.878793  0.500000  1
  Ru  Ru18  1  0.796304  0.913047  0.500000  1
  Ru  Ru19  1  0.119279  0.211222  0.500000  1
  Pt  Pt20  1  0.069511  0.641533  0.000000  1
