# generated using pymatgen
data_Tb4AlZn8Cd3
_symmetry_space_group_name_H-M   'P 1'
_cell_length_a   4.45262400
_cell_length_b   7.16398955
_cell_length_c   10.03403113
_cell_angle_alpha   89.86436213
_cell_angle_beta   90.00000000
_cell_angle_gamma   90.00000000
_symmetry_Int_Tables_number   1
_chemical_formula_structural   Tb4AlZn8Cd3
_chemical_formula_sum   'Tb4 Al1 Zn8 Cd3'
_cell_volume   320.07016477
_cell_formula_units_Z   1
loop_
 _symmetry_equiv_pos_site_id
 _symmetry_equiv_pos_as_xyz
  1  'x, y, z'
loop_
 _atom_site_type_symbol
 _atom_site_label
 _atom_site_symmetry_multiplicity
 _atom_site_fract_x
 _atom_site_fract_y
 _atom_site_fract_z
 _atom_site_occupancy
  Tb  Tb0  1  0.250000  0.304432  0.672393  1
  Tb  Tb1  1  0.250000  0.808148  0.823453  1
  Tb  Tb2  1  0.750000  0.695454  0.328511  1
  Tb  Tb3  1  0.750000  0.194736  0.171759  1
  Al  Al4  1  0.750000  0.968917  0.598893  1
  Zn  Zn5  1  0.250000  0.911189  0.147591  1
  Zn  Zn6  1  0.250000  0.411639  0.356773  1
  Zn  Zn7  1  0.750000  0.088003  0.846943  1
  Zn  Zn8  1  0.750000  0.595957  0.644449  1
  Zn  Zn9  1  0.250000  0.186091  0.962322  1
  Zn  Zn10  1  0.250000  0.690728  0.536868  1
  Zn  Zn11  1  0.750000  0.812865  0.036917  1
  Zn  Zn12  1  0.750000  0.302061  0.466423  1
  Cd  Cd13  1  0.250000  0.530677  0.098000  1
  Cd  Cd14  1  0.250000  0.030465  0.408468  1
  Cd  Cd15  1  0.750000  0.468640  0.900236  1
