# generated using pymatgen
data_U6CuSb8Pt4Rh
_symmetry_space_group_name_H-M   'P 1'
_cell_length_a   8.42200711
_cell_length_b   8.42002716
_cell_length_c   8.42018728
_cell_angle_alpha   109.19137631
_cell_angle_beta   108.99672495
_cell_angle_gamma   110.31620820
_symmetry_Int_Tables_number   1
_chemical_formula_structural   U6CuSb8Pt4Rh
_chemical_formula_sum   'U6 Cu1 Sb8 Pt4 Rh1'
_cell_volume   459.08348733
_cell_formula_units_Z   1
loop_
 _symmetry_equiv_pos_site_id
 _symmetry_equiv_pos_as_xyz
  1  'x, y, z'
loop_
 _atom_site_type_symbol
 _atom_site_label
 _atom_site_symmetry_multiplicity
 _atom_site_fract_x
 _atom_site_fract_y
 _atom_site_fract_z
 _atom_site_occupancy
  U  U0  1  0.877740  0.256188  0.132722  1
  U  U1  1  0.623577  0.745576  0.367934  1
  U  U2  1  0.255874  0.124058  0.875467  1
  U  U3  1  0.739922  0.374529  0.620607  1
  U  U4  1  0.127434  0.879768  0.255579  1
  U  U5  1  0.376704  0.619361  0.748120  1
  Cu  Cu6  1  0.873888  0.124806  0.749587  1
  Sb  Sb7  1  0.675635  0.498422  0.994301  1
  Sb  Sb8  1  0.509833  0.008484  0.678132  1
  Sb  Sb9  1  0.002288  0.679074  0.501986  1
  Sb  Sb10  1  0.827819  0.833431  0.821360  1
  Sb  Sb11  1  0.498181  0.997061  0.176050  1
  Sb  Sb12  1  0.166623  0.488427  0.993904  1
  Sb  Sb13  1  0.997917  0.173842  0.508480  1
  Sb  Sb14  1  0.321173  0.320695  0.325232  1
  Pt  Pt15  1  0.122219  0.747227  0.874839  1
  Pt  Pt16  1  0.252918  0.626997  0.375842  1
  Pt  Pt17  1  0.752609  0.877446  0.125444  1
  Pt  Pt18  1  0.624512  0.375299  0.249013  1
  Rh  Rh19  1  0.373134  0.249310  0.625400  1
