# generated using pymatgen
data_TmMg5Zn2(Ni3B)4
_symmetry_space_group_name_H-M   'P 1'
_cell_length_a   5.01680800
_cell_length_b   5.01680698
_cell_length_c   13.59983700
_cell_angle_alpha   90.00000000
_cell_angle_beta   90.00000000
_cell_angle_gamma   120.00000670
_symmetry_Int_Tables_number   1
_chemical_formula_structural   TmMg5Zn2(Ni3B)4
_chemical_formula_sum   'Tm1 Mg5 Zn2 Ni12 B4'
_cell_volume   296.42796883
_cell_formula_units_Z   1
loop_
 _symmetry_equiv_pos_site_id
 _symmetry_equiv_pos_as_xyz
  1  'x, y, z'
loop_
 _atom_site_type_symbol
 _atom_site_label
 _atom_site_symmetry_multiplicity
 _atom_site_fract_x
 _atom_site_fract_y
 _atom_site_fract_z
 _atom_site_occupancy
  Tm  Tm0  1  0.666667  0.333333  0.250000  1
  Mg  Mg1  1  0.333333  0.666667  0.536751  1
  Mg  Mg2  1  0.666667  0.333333  0.027562  1
  Mg  Mg3  1  0.666667  0.333333  0.472438  1
  Mg  Mg4  1  0.333333  0.666667  0.963249  1
  Mg  Mg5  1  0.333333  0.666667  0.750000  1
  Zn  Zn6  1  0.000000  0.000000  0.998455  1
  Zn  Zn7  1  0.000000  0.000000  0.501545  1
  Ni  Ni8  1  0.167878  0.335755  0.145514  1
  Ni  Ni9  1  0.832269  0.664538  0.649684  1
  Ni  Ni10  1  0.664245  0.832122  0.145514  1
  Ni  Ni11  1  0.167878  0.832122  0.145514  1
  Ni  Ni12  1  0.832269  0.167731  0.649684  1
  Ni  Ni13  1  0.335462  0.167731  0.649684  1
  Ni  Ni14  1  0.832269  0.664538  0.850316  1
  Ni  Ni15  1  0.832269  0.167731  0.850316  1
  Ni  Ni16  1  0.335462  0.167731  0.850316  1
  Ni  Ni17  1  0.664245  0.832122  0.354486  1
  Ni  Ni18  1  0.167878  0.832122  0.354486  1
  Ni  Ni19  1  0.167878  0.335755  0.354486  1
  B  B20  1  0.333333  0.666667  0.250000  1
  B  B21  1  0.666667  0.333333  0.750000  1
  B  B22  1  0.000000  0.000000  0.250000  1
  B  B23  1  0.000000  0.000000  0.750000  1
