# generated using pymatgen
data_Pr2Dy5Ho9(CdPt)4
_symmetry_space_group_name_H-M   'P 1'
_cell_length_a   9.72069174
_cell_length_b   9.72069182
_cell_length_c   9.67796800
_cell_angle_alpha   60.14528394
_cell_angle_beta   60.14528366
_cell_angle_gamma   59.93941903
_symmetry_Int_Tables_number   1
_chemical_formula_structural   Pr2Dy5Ho9(CdPt)4
_chemical_formula_sum   'Pr2 Dy5 Ho9 Cd4 Pt4'
_cell_volume   647.75927959
_cell_formula_units_Z   1
loop_
 _symmetry_equiv_pos_site_id
 _symmetry_equiv_pos_as_xyz
  1  'x, y, z'
loop_
 _atom_site_type_symbol
 _atom_site_label
 _atom_site_symmetry_multiplicity
 _atom_site_fract_x
 _atom_site_fract_y
 _atom_site_fract_z
 _atom_site_occupancy
  Pr  Pr0  1  0.569186  0.569186  0.930814  1
  Pr  Pr1  1  0.932283  0.932283  0.567717  1
  Dy  Dy2  1  0.810869  0.810869  0.189131  1
  Dy  Dy3  1  0.939884  0.559762  0.561263  1
  Dy  Dy4  1  0.559762  0.939884  0.939090  1
  Dy  Dy5  1  0.559762  0.939884  0.561263  1
  Dy  Dy6  1  0.939884  0.559762  0.939090  1
  Ho  Ho7  1  0.351967  0.351967  0.348927  1
  Ho  Ho8  1  0.351967  0.351967  0.947138  1
  Ho  Ho9  1  0.351054  0.943785  0.352580  1
  Ho  Ho10  1  0.943785  0.351054  0.352580  1
  Ho  Ho11  1  0.811449  0.189435  0.188863  1
  Ho  Ho12  1  0.189435  0.811449  0.810253  1
  Ho  Ho13  1  0.189435  0.811449  0.188863  1
  Ho  Ho14  1  0.811449  0.189435  0.810253  1
  Ho  Ho15  1  0.189519  0.189519  0.810481  1
  Cd  Cd16  1  0.582491  0.582491  0.577331  1
  Cd  Cd17  1  0.582491  0.582491  0.257684  1
  Cd  Cd18  1  0.577310  0.256572  0.583058  1
  Cd  Cd19  1  0.256572  0.577310  0.583058  1
  Pt  Pt20  1  0.144588  0.144588  0.140449  1
  Pt  Pt21  1  0.144588  0.144588  0.570375  1
  Pt  Pt22  1  0.139737  0.570529  0.144867  1
  Pt  Pt23  1  0.570529  0.139737  0.144867  1
