# generated using pymatgen
data_Y2Tm2Zn4Si3Ge
_symmetry_space_group_name_H-M   'P 1'
_cell_length_a   4.17154100
_cell_length_b   4.17154170
_cell_length_c   15.48956300
_cell_angle_alpha   90.00000000
_cell_angle_beta   90.00000000
_cell_angle_gamma   120.00000237
_symmetry_Int_Tables_number   1
_chemical_formula_structural   Y2Tm2Zn4Si3Ge
_chemical_formula_sum   'Y2 Tm2 Zn4 Si3 Ge1'
_cell_volume   233.43334457
_cell_formula_units_Z   1
loop_
 _symmetry_equiv_pos_site_id
 _symmetry_equiv_pos_as_xyz
  1  'x, y, z'
loop_
 _atom_site_type_symbol
 _atom_site_label
 _atom_site_symmetry_multiplicity
 _atom_site_fract_x
 _atom_site_fract_y
 _atom_site_fract_z
 _atom_site_occupancy
  Y  Y0  1  0.000000  0.000000  0.497948  1
  Y  Y1  1  0.000000  0.000000  0.000431  1
  Tm  Tm2  1  0.000000  0.000000  0.752321  1
  Tm  Tm3  1  0.000000  0.000000  0.249346  1
  Zn  Zn4  1  0.666667  0.333333  0.859045  1
  Zn  Zn5  1  0.666667  0.333333  0.647429  1
  Zn  Zn6  1  0.333333  0.666667  0.142062  1
  Zn  Zn7  1  0.333333  0.666667  0.356506  1
  Si  Si8  1  0.666667  0.333333  0.119099  1
  Si  Si9  1  0.666667  0.333333  0.379537  1
  Si  Si10  1  0.333333  0.666667  0.880917  1
  Ge  Ge11  1  0.333333  0.666667  0.615358  1
