# generated using pymatgen
data_LuZr3(SnRh5)2
_symmetry_space_group_name_H-M   'P 1'
_cell_length_a   5.67291045
_cell_length_b   5.67292092
_cell_length_c   8.30759200
_cell_angle_alpha   89.99745685
_cell_angle_beta   89.99741447
_cell_angle_gamma   96.96787499
_symmetry_Int_Tables_number   1
_chemical_formula_structural   LuZr3(SnRh5)2
_chemical_formula_sum   'Lu1 Zr3 Sn2 Rh10'
_cell_volume   265.38010117
_cell_formula_units_Z   1
loop_
 _symmetry_equiv_pos_site_id
 _symmetry_equiv_pos_as_xyz
  1  'x, y, z'
loop_
 _atom_site_type_symbol
 _atom_site_label
 _atom_site_symmetry_multiplicity
 _atom_site_fract_x
 _atom_site_fract_y
 _atom_site_fract_z
 _atom_site_occupancy
  Lu  Lu0  1  0.779235  0.220764  0.500011  1
  Zr  Zr1  1  0.217152  0.782846  0.000006  1
  Zr  Zr2  1  0.217360  0.782641  0.499997  1
  Zr  Zr3  1  0.782459  0.217541  0.000004  1
  Sn  Sn4  1  0.501623  0.502326  0.750278  1
  Sn  Sn5  1  0.497675  0.498379  0.249719  1
  Rh  Rh6  1  0.729272  0.729403  0.001045  1
  Rh  Rh7  1  0.729810  0.729003  0.498907  1
  Rh  Rh8  1  0.270596  0.270729  0.999001  1
  Rh  Rh9  1  0.270996  0.270188  0.501048  1
  Rh  Rh10  1  0.498289  0.998743  0.752701  1
  Rh  Rh11  1  0.498165  0.997690  0.247352  1
  Rh  Rh12  1  0.002216  0.998404  0.247099  1
  Rh  Rh13  1  0.001584  0.997801  0.752894  1
  Rh  Rh14  1  0.002303  0.501824  0.752645  1
  Rh  Rh15  1  0.001265  0.501718  0.247295  1
