# generated using pymatgen
data_TbHo3Al24Pd7Au2
_symmetry_space_group_name_H-M   'P 1'
_cell_length_a   7.57887962
_cell_length_b   7.59790849
_cell_length_c   13.16423800
_cell_angle_alpha   84.53483363
_cell_angle_beta   78.98567200
_cell_angle_gamma   59.92636049
_symmetry_Int_Tables_number   1
_chemical_formula_structural   TbHo3Al24Pd7Au2
_chemical_formula_sum   'Tb1 Ho3 Al24 Pd7 Au2'
_cell_volume   643.91428341
_cell_formula_units_Z   1
loop_
 _symmetry_equiv_pos_site_id
 _symmetry_equiv_pos_as_xyz
  1  'x, y, z'
loop_
 _atom_site_type_symbol
 _atom_site_label
 _atom_site_symmetry_multiplicity
 _atom_site_fract_x
 _atom_site_fract_y
 _atom_site_fract_z
 _atom_site_occupancy
  Tb  Tb0  1  0.392362  0.169561  0.809125  1
  Ho  Ho1  1  0.607610  0.830432  0.190941  1
  Ho  Ho2  1  0.733847  0.498589  0.809629  1
  Ho  Ho3  1  0.266145  0.501426  0.190368  1
  Al  Al4  1  0.682746  0.834490  0.944898  1
  Al  Al5  1  0.317312  0.165419  0.055193  1
  Al  Al6  1  0.145237  0.838764  0.562515  1
  Al  Al7  1  0.854770  0.161234  0.437488  1
  Al  Al8  1  0.486885  0.160207  0.560052  1
  Al  Al9  1  0.513122  0.839789  0.439919  1
  Al  Al10  1  0.223656  0.159935  0.325642  1
  Al  Al11  1  0.776451  0.839972  0.674312  1
  Al  Al12  1  0.439878  0.507094  0.674728  1
  Al  Al13  1  0.560135  0.492998  0.325228  1
  Al  Al14  1  0.108792  0.153919  0.673057  1
  Al  Al15  1  0.891139  0.846071  0.326896  1
  Al  Al16  1  0.353558  0.498959  0.944497  1
  Al  Al17  1  0.646435  0.501131  0.055542  1
  Al  Al18  1  0.015278  0.167422  0.954308  1
  Al  Al19  1  0.984626  0.832581  0.045733  1
  Al  Al20  1  0.195093  0.499716  0.437013  1
  Al  Al21  1  0.804903  0.500288  0.562990  1
  Al  Al22  1  0.731610  0.164193  0.183367  1
  Al  Al23  1  0.268358  0.835727  0.816630  1
  Al  Al24  1  0.060060  0.634632  0.818154  1
  Al  Al25  1  0.939875  0.365468  0.181847  1
  Al  Al26  1  0.853658  0.043391  0.816272  1
  Al  Al27  1  0.146446  0.956576  0.183730  1
  Pd  Pd28  1  0.656897  0.171759  0.999760  1
  Pd  Pd29  1  0.343121  0.828221  0.000274  1
  Pd  Pd30  1  0.537377  0.166987  0.362434  1
  Pd  Pd31  1  0.462636  0.832938  0.637531  1
  Pd  Pd32  1  0.779226  0.175645  0.636877  1
  Pd  Pd33  1  0.220855  0.824359  0.363075  1
  Pd  Pd34  1  0.999965  0.500031  0.000020  1
  Au  Au35  1  0.119656  0.491041  0.637933  1
  Au  Au36  1  0.880281  0.509034  0.362022  1
