# generated using pymatgen
data_Nd2Er3P12PdRu18
_symmetry_space_group_name_H-M   'P 1'
_cell_length_a   12.61850658
_cell_length_b   12.51634921
_cell_length_c   3.99445600
_cell_angle_alpha   90.00000000
_cell_angle_beta   90.00000000
_cell_angle_gamma   119.73255767
_symmetry_Int_Tables_number   1
_chemical_formula_structural   Nd2Er3P12PdRu18
_chemical_formula_sum   'Nd2 Er3 P12 Pd1 Ru18'
_cell_volume   547.82014416
_cell_formula_units_Z   1
loop_
 _symmetry_equiv_pos_site_id
 _symmetry_equiv_pos_as_xyz
  1  'x, y, z'
loop_
 _atom_site_type_symbol
 _atom_site_label
 _atom_site_symmetry_multiplicity
 _atom_site_fract_x
 _atom_site_fract_y
 _atom_site_fract_z
 _atom_site_occupancy
  Nd  Nd0  1  0.816007  0.815401  0.500000  1
  Nd  Nd1  1  0.183993  0.999393  0.500000  1
  Er  Er2  1  0.000000  0.182607  0.500000  1
  Er  Er3  1  0.660985  0.329450  0.000000  1
  Er  Er4  1  0.339015  0.668468  0.000000  1
  P  P5  1  0.000000  0.809277  0.000000  1
  P  P6  1  0.183388  0.187056  0.000000  1
  P  P7  1  0.816612  0.003668  0.000000  1
  P  P8  1  0.693626  0.174546  0.500000  1
  P  P9  1  0.817585  0.517774  0.500000  1
  P  P10  1  0.474436  0.304747  0.500000  1
  P  P11  1  0.182415  0.700190  0.500000  1
  P  P12  1  0.525564  0.830311  0.500000  1
  P  P13  1  0.306374  0.480920  0.500000  1
  P  P14  1  0.000000  0.364579  0.000000  1
  P  P15  1  0.624850  0.625498  0.000000  1
  P  P16  1  0.375150  0.000649  0.000000  1
  Pd  Pd17  1  0.000000  0.551270  0.000000  1
  Ru  Ru18  1  0.443708  0.446161  0.000000  1
  Ru  Ru19  1  0.556292  0.002453  0.000000  1
  Ru  Ru20  1  0.000000  0.709189  0.500000  1
  Ru  Ru21  1  0.281855  0.285535  0.500000  1
  Ru  Ru22  1  0.718145  0.003680  0.500000  1
  Ru  Ru23  1  0.807349  0.187412  0.000000  1
  Ru  Ru24  1  0.813106  0.617281  0.000000  1
  Ru  Ru25  1  0.377034  0.193960  0.000000  1
  Ru  Ru26  1  0.186894  0.804174  0.000000  1
  Ru  Ru27  1  0.622966  0.816926  0.000000  1
  Ru  Ru28  1  0.192651  0.380063  0.000000  1
  Ru  Ru29  1  0.873129  0.367383  0.500000  1
  Ru  Ru30  1  0.628825  0.505946  0.500000  1
  Ru  Ru31  1  0.493231  0.127784  0.500000  1
  Ru  Ru32  1  0.371175  0.877121  0.500000  1
  Ru  Ru33  1  0.506769  0.634552  0.500000  1
  Ru  Ru34  1  0.126871  0.494254  0.500000  1
  Ru  Ru35  1  0.000000  0.000320  0.000000  1
