# generated using pymatgen
data_Ba2ZnAuI
_symmetry_space_group_name_H-M   'P 1'
_cell_length_a   4.70382400
_cell_length_b   4.70382480
_cell_length_c   19.12763000
_cell_angle_alpha   90.00000000
_cell_angle_beta   90.00000000
_cell_angle_gamma   119.99999439
_symmetry_Int_Tables_number   1
_chemical_formula_structural   Ba2ZnAuI
_chemical_formula_sum   'Ba4 Zn2 Au2 I2'
_cell_volume   366.51691254
_cell_formula_units_Z   2
loop_
 _symmetry_equiv_pos_site_id
 _symmetry_equiv_pos_as_xyz
  1  'x, y, z'
loop_
 _atom_site_type_symbol
 _atom_site_label
 _atom_site_symmetry_multiplicity
 _atom_site_fract_x
 _atom_site_fract_y
 _atom_site_fract_z
 _atom_site_occupancy
  Ba  Ba0  1  0.000000  0.000000  0.113892  1
  Ba  Ba1  1  0.000000  0.000000  0.386108  1
  Ba  Ba2  1  0.000000  0.000000  0.614500  1
  Ba  Ba3  1  0.000000  0.000000  0.885500  1
  Zn  Zn4  1  0.666668  0.333335  0.500509  1
  Zn  Zn5  1  0.666668  0.333335  0.999491  1
  Au  Au6  1  0.333333  0.666667  0.000344  1
  Au  Au7  1  0.333333  0.666667  0.499656  1
  I  I8  1  0.666668  0.333335  0.250000  1
  I  I9  1  0.333333  0.666667  0.750000  1
