# generated using pymatgen
data_NdSiNO2
_symmetry_space_group_name_H-M   'P 1'
_cell_length_a   7.25281764
_cell_length_b   7.25281838
_cell_length_c   9.47446000
_cell_angle_alpha   90.00000000
_cell_angle_beta   90.00000000
_cell_angle_gamma   120.21339533
_symmetry_Int_Tables_number   1
_chemical_formula_structural   NdSiNO2
_chemical_formula_sum   'Nd6 Si6 N6 O12'
_cell_volume   430.68601291
_cell_formula_units_Z   6
loop_
 _symmetry_equiv_pos_site_id
 _symmetry_equiv_pos_as_xyz
  1  'x, y, z'
loop_
 _atom_site_type_symbol
 _atom_site_label
 _atom_site_symmetry_multiplicity
 _atom_site_fract_x
 _atom_site_fract_y
 _atom_site_fract_z
 _atom_site_occupancy
  Nd  Nd0  1  0.826188  0.173812  0.500000  1
  Nd  Nd1  1  0.173812  0.826188  0.000000  1
  Nd  Nd2  1  0.826188  0.173812  0.000000  1
  Nd  Nd3  1  0.173812  0.826188  0.500000  1
  Nd  Nd4  1  0.500000  0.500000  0.500000  1
  Nd  Nd5  1  0.500000  0.500000  0.000000  1
  Si  Si6  1  0.164489  0.404526  0.250000  1
  Si  Si7  1  0.595474  0.835511  0.750000  1
  Si  Si8  1  0.921204  0.921204  0.250000  1
  Si  Si9  1  0.835511  0.595474  0.750000  1
  Si  Si10  1  0.078796  0.078796  0.750000  1
  Si  Si11  1  0.404526  0.164489  0.250000  1
  N  N12  1  0.605099  0.605099  0.750000  1
  N  N13  1  0.836520  0.067730  0.750000  1
  N  N14  1  0.067730  0.836520  0.750000  1
  N  N15  1  0.932270  0.163480  0.250000  1
  N  N16  1  0.394901  0.394901  0.250000  1
  N  N17  1  0.163480  0.932270  0.250000  1
  O  O18  1  0.165529  0.521007  0.098774  1
  O  O19  1  0.478993  0.834471  0.901226  1
  O  O20  1  0.478993  0.834471  0.598774  1
  O  O21  1  0.521007  0.165529  0.098774  1
  O  O22  1  0.807571  0.807571  0.402894  1
  O  O23  1  0.834471  0.478993  0.901226  1
  O  O24  1  0.834471  0.478993  0.598774  1
  O  O25  1  0.192429  0.192429  0.597106  1
  O  O26  1  0.192429  0.192429  0.902894  1
  O  O27  1  0.807571  0.807571  0.097106  1
  O  O28  1  0.521007  0.165529  0.401226  1
  O  O29  1  0.165529  0.521007  0.401226  1
