# generated using pymatgen
data_Er6Tm4CoNiSb4
_symmetry_space_group_name_H-M   'P 1'
_cell_length_a   7.78650000
_cell_length_b   8.72782400
_cell_length_c   12.05909600
_cell_angle_alpha   90.00000000
_cell_angle_beta   90.00000000
_cell_angle_gamma   90.00000000
_symmetry_Int_Tables_number   1
_chemical_formula_structural   Er6Tm4CoNiSb4
_chemical_formula_sum   'Er12 Tm8 Co2 Ni2 Sb8'
_cell_volume   819.52653589
_cell_formula_units_Z   2
loop_
 _symmetry_equiv_pos_site_id
 _symmetry_equiv_pos_as_xyz
  1  'x, y, z'
loop_
 _atom_site_type_symbol
 _atom_site_label
 _atom_site_symmetry_multiplicity
 _atom_site_fract_x
 _atom_site_fract_y
 _atom_site_fract_z
 _atom_site_occupancy
  Er  Er0  1  0.155466  0.750000  0.204366  1
  Er  Er1  1  0.655466  0.250000  0.295634  1
  Er  Er2  1  0.842292  0.250000  0.792592  1
  Er  Er3  1  0.342292  0.750000  0.707408  1
  Er  Er4  1  0.451778  0.750000  0.999256  1
  Er  Er5  1  0.951778  0.250000  0.500744  1
  Er  Er6  1  0.546707  0.250000  0.001547  1
  Er  Er7  1  0.046707  0.750000  0.498453  1
  Er  Er8  1  0.625798  0.750000  0.305696  1
  Er  Er9  1  0.125798  0.250000  0.194304  1
  Er  Er10  1  0.376339  0.250000  0.692313  1
  Er  Er11  1  0.876339  0.750000  0.807687  1
  Tm  Tm12  1  0.823788  0.958157  0.065410  1
  Tm  Tm13  1  0.323788  0.041843  0.434590  1
  Tm  Tm14  1  0.177290  0.465328  0.933514  1
  Tm  Tm15  1  0.677290  0.534672  0.566486  1
  Tm  Tm16  1  0.177290  0.034672  0.933514  1
  Tm  Tm17  1  0.677290  0.965328  0.566486  1
  Tm  Tm18  1  0.823788  0.541843  0.065410  1
  Tm  Tm19  1  0.323788  0.458157  0.434590  1
  Co  Co20  1  0.567447  0.250000  0.509171  1
  Co  Co21  1  0.067447  0.750000  0.990829  1
  Ni  Ni22  1  0.431867  0.750000  0.490566  1
  Ni  Ni23  1  0.931867  0.250000  0.009434  1
  Sb  Sb24  1  0.931071  0.991973  0.327370  1
  Sb  Sb25  1  0.431071  0.008027  0.172630  1
  Sb  Sb26  1  0.069003  0.491870  0.672226  1
  Sb  Sb27  1  0.569003  0.508130  0.827774  1
  Sb  Sb28  1  0.069003  0.008130  0.672226  1
  Sb  Sb29  1  0.569003  0.991870  0.827774  1
  Sb  Sb30  1  0.931071  0.508027  0.327370  1
  Sb  Sb31  1  0.431071  0.491973  0.172630  1
