# generated using pymatgen
data_TiV7Re8
_symmetry_space_group_name_H-M   'P 1'
_cell_length_a   6.09744300
_cell_length_b   6.09744300
_cell_length_c   6.09744300
_cell_angle_alpha   90.00000000
_cell_angle_beta   90.00000000
_cell_angle_gamma   90.00000000
_symmetry_Int_Tables_number   1
_chemical_formula_structural   TiV7Re8
_chemical_formula_sum   'Ti1 V7 Re8'
_cell_volume   226.69568172
_cell_formula_units_Z   1
loop_
 _symmetry_equiv_pos_site_id
 _symmetry_equiv_pos_as_xyz
  1  'x, y, z'
loop_
 _atom_site_type_symbol
 _atom_site_label
 _atom_site_symmetry_multiplicity
 _atom_site_fract_x
 _atom_site_fract_y
 _atom_site_fract_z
 _atom_site_occupancy
  Ti  Ti0  1  0.000000  0.000000  0.000000  1
  V  V1  1  0.499999  0.000000  0.000000  1
  V  V2  1  0.000000  0.499999  0.000000  1
  V  V3  1  0.499999  0.499999  0.000000  1
  V  V4  1  0.000000  0.000000  0.499999  1
  V  V5  1  0.499999  0.000000  0.499999  1
  V  V6  1  0.000000  0.499999  0.499999  1
  V  V7  1  0.499999  0.499999  0.499999  1
  Re  Re8  1  0.251795  0.251795  0.251795  1
  Re  Re9  1  0.748205  0.251795  0.251795  1
  Re  Re10  1  0.251795  0.748205  0.251795  1
  Re  Re11  1  0.748205  0.748205  0.251795  1
  Re  Re12  1  0.251795  0.251795  0.748205  1
  Re  Re13  1  0.748205  0.251795  0.748205  1
  Re  Re14  1  0.251795  0.748205  0.748205  1
  Re  Re15  1  0.748205  0.748205  0.748205  1
