# generated using pymatgen
data_Dy7Tc2Sn23Ir4
_symmetry_space_group_name_H-M   'P 1'
_cell_length_a   9.87508628
_cell_length_b   9.87508625
_cell_length_c   10.11519098
_cell_angle_alpha   89.78434375
_cell_angle_beta   90.21565396
_cell_angle_gamma   119.75921031
_symmetry_Int_Tables_number   1
_chemical_formula_structural   Dy7Tc2Sn23Ir4
_chemical_formula_sum   'Dy7 Tc2 Sn23 Ir4'
_cell_volume   856.31006985
_cell_formula_units_Z   1
loop_
 _symmetry_equiv_pos_site_id
 _symmetry_equiv_pos_as_xyz
  1  'x, y, z'
loop_
 _atom_site_type_symbol
 _atom_site_label
 _atom_site_symmetry_multiplicity
 _atom_site_fract_x
 _atom_site_fract_y
 _atom_site_fract_z
 _atom_site_occupancy
  Dy  Dy0  1  0.000000  0.000000  0.000000  1
  Dy  Dy1  1  0.482608  0.517392  0.306267  1
  Dy  Dy2  1  0.517392  0.482608  0.693733  1
  Dy  Dy3  1  0.483079  0.964021  0.305281  1
  Dy  Dy4  1  0.516921  0.035979  0.694719  1
  Dy  Dy5  1  0.035979  0.516921  0.305281  1
  Dy  Dy6  1  0.964021  0.483079  0.694719  1
  Tc  Tc7  1  0.833053  0.166947  0.203532  1
  Tc  Tc8  1  0.166947  0.833053  0.796468  1
  Sn  Sn9  1  0.348031  0.996425  0.999255  1
  Sn  Sn10  1  0.651969  0.003575  0.000745  1
  Sn  Sn11  1  0.996425  0.348031  0.000745  1
  Sn  Sn12  1  0.003575  0.651969  0.999255  1
  Sn  Sn13  1  0.647074  0.647074  0.000000  1
  Sn  Sn14  1  0.352926  0.352926  0.000000  1
  Sn  Sn15  1  0.331271  0.668729  0.822647  1
  Sn  Sn16  1  0.668729  0.331271  0.177353  1
  Sn  Sn17  1  0.000000  0.000000  0.500000  1
  Sn  Sn18  1  0.779369  0.220631  0.459133  1
  Sn  Sn19  1  0.220631  0.779369  0.540867  1
  Sn  Sn20  1  0.779174  0.558264  0.459359  1
  Sn  Sn21  1  0.220826  0.441736  0.540641  1
  Sn  Sn22  1  0.441736  0.220826  0.459359  1
  Sn  Sn23  1  0.558264  0.779174  0.540641  1
  Sn  Sn24  1  0.332965  0.667035  0.125060  1
  Sn  Sn25  1  0.667035  0.332965  0.874940  1
  Sn  Sn26  1  0.118082  0.881918  0.282337  1
  Sn  Sn27  1  0.881918  0.118082  0.717663  1
  Sn  Sn28  1  0.121537  0.238821  0.275668  1
  Sn  Sn29  1  0.878463  0.761179  0.724332  1
  Sn  Sn30  1  0.761179  0.878463  0.275668  1
  Sn  Sn31  1  0.238821  0.121537  0.724332  1
  Ir  Ir32  1  0.830308  0.658870  0.199589  1
  Ir  Ir33  1  0.169692  0.341130  0.800411  1
  Ir  Ir34  1  0.341130  0.169692  0.199589  1
  Ir  Ir35  1  0.658870  0.830308  0.800411  1
