# generated using pymatgen
data_Tb4DyHf5(Si5Ir2)4
_symmetry_space_group_name_H-M   'P 1'
_cell_length_a   12.50675300
_cell_length_b   12.50675300
_cell_length_c   4.17533000
_cell_angle_alpha   90.00000000
_cell_angle_beta   90.00000000
_cell_angle_gamma   90.00000000
_symmetry_Int_Tables_number   1
_chemical_formula_structural   Tb4DyHf5(Si5Ir2)4
_chemical_formula_sum   'Tb4 Dy1 Hf5 Si20 Ir8'
_cell_volume   653.10040299
_cell_formula_units_Z   1
loop_
 _symmetry_equiv_pos_site_id
 _symmetry_equiv_pos_as_xyz
  1  'x, y, z'
loop_
 _atom_site_type_symbol
 _atom_site_label
 _atom_site_symmetry_multiplicity
 _atom_site_fract_x
 _atom_site_fract_y
 _atom_site_fract_z
 _atom_site_occupancy
  Tb  Tb0  1  0.884150  0.384868  0.500000  1
  Tb  Tb1  1  0.115850  0.615132  0.500000  1
  Tb  Tb2  1  0.384868  0.115850  0.500000  1
  Tb  Tb3  1  0.615132  0.884150  0.500000  1
  Dy  Dy4  1  0.000000  0.000000  0.000000  1
  Hf  Hf5  1  0.500000  0.500000  0.000000  1
  Hf  Hf6  1  0.673672  0.175462  0.500000  1
  Hf  Hf7  1  0.326328  0.824538  0.500000  1
  Hf  Hf8  1  0.175462  0.326328  0.500000  1
  Hf  Hf9  1  0.824538  0.673672  0.500000  1
  Si  Si10  1  0.565897  0.068096  0.000000  1
  Si  Si11  1  0.434103  0.931904  0.000000  1
  Si  Si12  1  0.068096  0.434103  0.000000  1
  Si  Si13  1  0.931904  0.565897  0.000000  1
  Si  Si14  1  0.665250  0.701485  0.000000  1
  Si  Si15  1  0.334750  0.298515  0.000000  1
  Si  Si16  1  0.163747  0.800365  0.000000  1
  Si  Si17  1  0.836253  0.199635  0.000000  1
  Si  Si18  1  0.298515  0.665250  0.000000  1
  Si  Si19  1  0.701485  0.334750  0.000000  1
  Si  Si20  1  0.199635  0.163747  0.000000  1
  Si  Si21  1  0.800365  0.836253  0.000000  1
  Si  Si22  1  0.651056  0.507686  0.500000  1
  Si  Si23  1  0.348944  0.492314  0.500000  1
  Si  Si24  1  0.157090  0.992740  0.500000  1
  Si  Si25  1  0.842910  0.007260  0.500000  1
  Si  Si26  1  0.492314  0.651056  0.500000  1
  Si  Si27  1  0.507686  0.348944  0.500000  1
  Si  Si28  1  0.007260  0.157090  0.500000  1
  Si  Si29  1  0.992740  0.842910  0.500000  1
  Ir  Ir30  1  0.741458  0.522173  0.000000  1
  Ir  Ir31  1  0.258542  0.477827  0.000000  1
  Ir  Ir32  1  0.246309  0.977292  0.000000  1
  Ir  Ir33  1  0.753691  0.022708  0.000000  1
  Ir  Ir34  1  0.477827  0.741458  0.000000  1
  Ir  Ir35  1  0.522173  0.258542  0.000000  1
  Ir  Ir36  1  0.022708  0.246309  0.000000  1
  Ir  Ir37  1  0.977292  0.753691  0.000000  1
