# generated using pymatgen
data_Gd3Si3Pd
_symmetry_space_group_name_H-M   'P 1'
_cell_length_a   5.61601587
_cell_length_b   5.61601540
_cell_length_c   13.61330900
_cell_angle_alpha   70.57085852
_cell_angle_beta   70.57086020
_cell_angle_gamma   45.08919782
_symmetry_Int_Tables_number   1
_chemical_formula_structural   Gd3Si3Pd
_chemical_formula_sum   'Gd6 Si6 Pd2'
_cell_volume   283.66799606
_cell_formula_units_Z   2
loop_
 _symmetry_equiv_pos_site_id
 _symmetry_equiv_pos_as_xyz
  1  'x, y, z'
loop_
 _atom_site_type_symbol
 _atom_site_label
 _atom_site_symmetry_multiplicity
 _atom_site_fract_x
 _atom_site_fract_y
 _atom_site_fract_z
 _atom_site_occupancy
  Gd  Gd0  1  0.604855  0.604855  0.074900  1
  Gd  Gd1  1  0.395145  0.395145  0.925100  1
  Gd  Gd2  1  0.526722  0.526722  0.624292  1
  Gd  Gd3  1  0.473278  0.473278  0.375708  1
  Gd  Gd4  1  0.255812  0.255812  0.225918  1
  Gd  Gd5  1  0.744188  0.744188  0.774082  1
  Si  Si6  1  0.962025  0.962025  0.228499  1
  Si  Si7  1  0.037975  0.037975  0.771501  1
  Si  Si8  1  0.874935  0.874935  0.543324  1
  Si  Si9  1  0.125065  0.125065  0.456676  1
  Si  Si10  1  0.110418  0.110418  0.923948  1
  Si  Si11  1  0.889582  0.889582  0.076052  1
  Pd  Pd12  1  0.754173  0.754173  0.401361  1
  Pd  Pd13  1  0.245827  0.245827  0.598639  1
