# generated using pymatgen
data_ZrTaNbB2Ru5
_symmetry_space_group_name_H-M   'P 1'
_cell_length_a   9.49890211
_cell_length_b   9.49890201
_cell_length_c   3.06411300
_cell_angle_alpha   90.00000000
_cell_angle_beta   90.00000000
_cell_angle_gamma   90.03693297
_symmetry_Int_Tables_number   1
_chemical_formula_structural   ZrTaNbB2Ru5
_chemical_formula_sum   'Zr2 Ta2 Nb2 B4 Ru10'
_cell_volume   276.47222448
_cell_formula_units_Z   2
loop_
 _symmetry_equiv_pos_site_id
 _symmetry_equiv_pos_as_xyz
  1  'x, y, z'
loop_
 _atom_site_type_symbol
 _atom_site_label
 _atom_site_symmetry_multiplicity
 _atom_site_fract_x
 _atom_site_fract_y
 _atom_site_fract_z
 _atom_site_occupancy
  Zr  Zr0  1  0.823259  0.676741  0.000000  1
  Zr  Zr1  1  0.176741  0.323259  0.000000  1
  Ta  Ta2  1  0.500000  0.500000  0.000000  1
  Ta  Ta3  1  0.000000  0.000000  0.000000  1
  Nb  Nb4  1  0.323384  0.823384  0.000000  1
  Nb  Nb5  1  0.676616  0.176616  0.000000  1
  B  B6  1  0.620512  0.879488  0.000000  1
  B  B7  1  0.379488  0.120512  0.000000  1
  B  B8  1  0.121464  0.621464  0.000000  1
  B  B9  1  0.878536  0.378536  0.000000  1
  Ru  Ru10  1  0.567333  0.720026  0.500000  1
  Ru  Ru11  1  0.432667  0.279974  0.500000  1
  Ru  Ru12  1  0.074030  0.782930  0.500000  1
  Ru  Ru13  1  0.925970  0.217070  0.500000  1
  Ru  Ru14  1  0.282930  0.574030  0.500000  1
  Ru  Ru15  1  0.717070  0.425970  0.500000  1
  Ru  Ru16  1  0.220026  0.067333  0.500000  1
  Ru  Ru17  1  0.779974  0.932667  0.500000  1
  Ru  Ru18  1  0.500000  0.000000  0.500000  1
  Ru  Ru19  1  0.000000  0.500000  0.500000  1
