# generated using pymatgen
data_Ca6Al24Ni3Os5
_symmetry_space_group_name_H-M   'P 1'
_cell_length_a   8.76454720
_cell_length_b   8.78833198
_cell_length_c   9.52338065
_cell_angle_alpha   89.99999960
_cell_angle_beta   89.51303835
_cell_angle_gamma   120.08980221
_symmetry_Int_Tables_number   1
_chemical_formula_structural   Ca6Al24Ni3Os5
_chemical_formula_sum   'Ca6 Al24 Ni3 Os5'
_cell_volume   634.66281450
_cell_formula_units_Z   1
loop_
 _symmetry_equiv_pos_site_id
 _symmetry_equiv_pos_as_xyz
  1  'x, y, z'
loop_
 _atom_site_type_symbol
 _atom_site_label
 _atom_site_symmetry_multiplicity
 _atom_site_fract_x
 _atom_site_fract_y
 _atom_site_fract_z
 _atom_site_occupancy
  Ca  Ca0  1  0.197735  0.389713  0.251366  1
  Ca  Ca1  1  0.802265  0.610287  0.748634  1
  Ca  Ca2  1  0.608890  0.804445  0.250224  1
  Ca  Ca3  1  0.391110  0.195555  0.749776  1
  Ca  Ca4  1  0.197735  0.808023  0.251366  1
  Ca  Ca5  1  0.802265  0.191977  0.748634  1
  Al  Al6  1  0.331368  0.665685  0.996991  1
  Al  Al7  1  0.668632  0.334315  0.003009  1
  Al  Al8  1  0.666958  0.333479  0.500711  1
  Al  Al9  1  0.333042  0.666521  0.499289  1
  Al  Al10  1  0.159236  0.319572  0.575869  1
  Al  Al11  1  0.840764  0.680428  0.424131  1
  Al  Al12  1  0.679637  0.839820  0.573696  1
  Al  Al13  1  0.839797  0.681780  0.076192  1
  Al  Al14  1  0.320363  0.160180  0.426304  1
  Al  Al15  1  0.160203  0.318220  0.923808  1
  Al  Al16  1  0.159236  0.839664  0.575869  1
  Al  Al17  1  0.320217  0.160108  0.075942  1
  Al  Al18  1  0.840764  0.160336  0.424131  1
  Al  Al19  1  0.679783  0.839892  0.924058  1
  Al  Al20  1  0.839797  0.158015  0.076192  1
  Al  Al21  1  0.160203  0.841985  0.923808  1
  Al  Al22  1  0.562088  0.121600  0.249473  1
  Al  Al23  1  0.437912  0.878400  0.750527  1
  Al  Al24  1  0.882940  0.441471  0.247410  1
  Al  Al25  1  0.117060  0.558529  0.752590  1
  Al  Al26  1  0.562088  0.440488  0.249473  1
  Al  Al27  1  0.437912  0.559512  0.750527  1
  Al  Al28  1  0.001520  0.000760  0.250954  1
  Al  Al29  1  0.998480  0.999240  0.749046  1
  Ni  Ni30  1  0.000000  0.500000  0.000000  1
  Ni  Ni31  1  0.000000  0.000000  0.000000  1
  Ni  Ni32  1  0.000000  0.000000  0.500000  1
  Os  Os33  1  0.500000  0.000000  0.000000  1
  Os  Os34  1  0.500000  0.000000  0.500000  1
  Os  Os35  1  0.500000  0.500000  0.000000  1
  Os  Os36  1  0.000000  0.500000  0.500000  1
  Os  Os37  1  0.500000  0.500000  0.500000  1
