# generated using pymatgen
data_CoBi6(IrO9)2
_symmetry_space_group_name_H-M   'P 1'
_cell_length_a   9.20027400
_cell_length_b   9.20027330
_cell_length_c   5.18963100
_cell_angle_alpha   90.00000000
_cell_angle_beta   90.00000000
_cell_angle_gamma   119.99999874
_symmetry_Int_Tables_number   1
_chemical_formula_structural   CoBi6(IrO9)2
_chemical_formula_sum   'Co1 Bi6 Ir2 O18'
_cell_volume   380.42461209
_cell_formula_units_Z   1
loop_
 _symmetry_equiv_pos_site_id
 _symmetry_equiv_pos_as_xyz
  1  'x, y, z'
loop_
 _atom_site_type_symbol
 _atom_site_label
 _atom_site_symmetry_multiplicity
 _atom_site_fract_x
 _atom_site_fract_y
 _atom_site_fract_z
 _atom_site_occupancy
  Co  Co0  1  0.666667  0.333333  0.998190  1
  Bi  Bi1  1  0.984533  0.372091  0.499762  1
  Bi  Bi2  1  0.300479  0.290930  0.000821  1
  Bi  Bi3  1  0.990450  0.699521  0.000821  1
  Bi  Bi4  1  0.627909  0.612442  0.499762  1
  Bi  Bi5  1  0.387558  0.015467  0.499762  1
  Bi  Bi6  1  0.709070  0.009550  0.000821  1
  Ir  Ir7  1  0.000000  0.000000  0.506709  1
  Ir  Ir8  1  0.333333  0.666667  0.000593  1
  O  O9  1  0.081093  0.198822  0.717246  1
  O  O10  1  0.232853  0.466798  0.216369  1
  O  O11  1  0.134858  0.596229  0.783885  1
  O  O12  1  0.403771  0.538629  0.783885  1
  O  O13  1  0.233946  0.767147  0.216369  1
  O  O14  1  0.117728  0.918907  0.717246  1
  O  O15  1  0.533202  0.766054  0.216369  1
  O  O16  1  0.200278  0.079550  0.286033  1
  O  O17  1  0.461371  0.865142  0.783885  1
  O  O18  1  0.801178  0.882272  0.717246  1
  O  O19  1  0.467693  0.231068  0.781433  1
  O  O20  1  0.596870  0.138185  0.212619  1
  O  O21  1  0.541315  0.403130  0.212619  1
  O  O22  1  0.768932  0.236625  0.781433  1
  O  O23  1  0.920450  0.120728  0.286033  1
  O  O24  1  0.763375  0.532307  0.781433  1
  O  O25  1  0.861815  0.458685  0.212619  1
  O  O26  1  0.879272  0.799722  0.286033  1
