# generated using pymatgen
data_Nd5Y5(Pb3Cl)2
_symmetry_space_group_name_H-M   'P 1'
_cell_length_a   9.39077700
_cell_length_b   9.38898858
_cell_length_c   6.74103600
_cell_angle_alpha   90.00000000
_cell_angle_beta   90.00000000
_cell_angle_gamma   120.00630477
_symmetry_Int_Tables_number   1
_chemical_formula_structural   Nd5Y5(Pb3Cl)2
_chemical_formula_sum   'Nd5 Y5 Pb6 Cl2'
_cell_volume   514.69508605
_cell_formula_units_Z   1
loop_
 _symmetry_equiv_pos_site_id
 _symmetry_equiv_pos_as_xyz
  1  'x, y, z'
loop_
 _atom_site_type_symbol
 _atom_site_label
 _atom_site_symmetry_multiplicity
 _atom_site_fract_x
 _atom_site_fract_y
 _atom_site_fract_z
 _atom_site_occupancy
  Nd  Nd0  1  0.741456  0.000000  0.750000  1
  Nd  Nd1  1  0.999288  0.259822  0.250000  1
  Nd  Nd2  1  0.000305  0.741556  0.750000  1
  Nd  Nd3  1  0.739466  0.740178  0.250000  1
  Nd  Nd4  1  0.258749  0.258444  0.750000  1
  Y  Y5  1  0.259810  0.000000  0.250000  1
  Y  Y6  1  0.333220  0.667085  0.000411  1
  Y  Y7  1  0.666137  0.332915  0.000411  1
  Y  Y8  1  0.666137  0.332915  0.499589  1
  Y  Y9  1  0.333220  0.667085  0.499589  1
  Pb  Pb10  1  0.603962  0.000000  0.250000  1
  Pb  Pb11  1  0.392480  0.000000  0.750000  1
  Pb  Pb12  1  0.002810  0.611766  0.250000  1
  Pb  Pb13  1  0.000271  0.392769  0.750000  1
  Pb  Pb14  1  0.391044  0.388234  0.250000  1
  Pb  Pb15  1  0.607502  0.607231  0.750000  1
  Cl  Cl16  1  0.002071  0.000000  0.002775  1
  Cl  Cl17  1  0.002071  0.000000  0.497225  1
