# generated using pymatgen
data_Ta6MoOs3W2
_symmetry_space_group_name_H-M   'P 1'
_cell_length_a   4.51310400
_cell_length_b   6.41223500
_cell_length_c   13.71633900
_cell_angle_alpha   90.00000000
_cell_angle_beta   89.99997060
_cell_angle_gamma   90.00000000
_symmetry_Int_Tables_number   1
_chemical_formula_structural   Ta6MoOs3W2
_chemical_formula_sum   'Ta12 Mo2 Os6 W4'
_cell_volume   396.93827864
_cell_formula_units_Z   2
loop_
 _symmetry_equiv_pos_site_id
 _symmetry_equiv_pos_as_xyz
  1  'x, y, z'
loop_
 _atom_site_type_symbol
 _atom_site_label
 _atom_site_symmetry_multiplicity
 _atom_site_fract_x
 _atom_site_fract_y
 _atom_site_fract_z
 _atom_site_occupancy
  Ta  Ta0  1  0.500000  0.250444  0.999809  1
  Ta  Ta1  1  0.500000  0.749557  0.999809  1
  Ta  Ta2  1  0.000003  0.250046  0.166662  1
  Ta  Ta3  1  0.000003  0.749955  0.166662  1
  Ta  Ta4  1  0.500000  0.249954  0.333336  1
  Ta  Ta5  1  0.500000  0.750045  0.333336  1
  Ta  Ta6  1  0.999999  0.249557  0.500191  1
  Ta  Ta7  1  0.999999  0.750442  0.500191  1
  Ta  Ta8  1  0.500000  0.249687  0.666832  1
  Ta  Ta9  1  0.500000  0.750312  0.666832  1
  Ta  Ta10  1  0.999997  0.250313  0.833171  1
  Ta  Ta11  1  0.999997  0.749688  0.833171  1
  Mo  Mo12  1  0.000001  0.000000  0.666839  1
  Mo  Mo13  1  0.499999  0.500000  0.833158  1
  Os  Os14  1  0.999999  0.500000  0.999593  1
  Os  Os15  1  0.500001  0.000000  0.166471  1
  Os  Os16  1  0.999999  0.500000  0.333530  1
  Os  Os17  1  0.500001  0.000000  0.500405  1
  Os  Os18  1  0.000002  0.500000  0.666835  1
  Os  Os19  1  0.499999  0.000000  0.833161  1
  W  W20  1  0.000000  0.000000  0.999778  1
  W  W21  1  0.500001  0.500000  0.166592  1
  W  W22  1  0.999998  0.000000  0.333412  1
  W  W23  1  0.500000  0.500000  0.500222  1
