# generated using pymatgen
data_Rb14Nb2Tl3Ga3As10
_symmetry_space_group_name_H-M   'P 1'
_cell_length_a   8.57936092
_cell_length_b   9.45964995
_cell_length_c   14.30584000
_cell_angle_alpha   85.91381942
_cell_angle_beta   83.33227777
_cell_angle_gamma   86.35161204
_symmetry_Int_Tables_number   1
_chemical_formula_structural   Rb14Nb2Tl3Ga3As10
_chemical_formula_sum   'Rb14 Nb2 Tl3 Ga3 As10'
_cell_volume   1148.44829077
_cell_formula_units_Z   1
loop_
 _symmetry_equiv_pos_site_id
 _symmetry_equiv_pos_as_xyz
  1  'x, y, z'
loop_
 _atom_site_type_symbol
 _atom_site_label
 _atom_site_symmetry_multiplicity
 _atom_site_fract_x
 _atom_site_fract_y
 _atom_site_fract_z
 _atom_site_occupancy
  Rb  Rb0  1  0.846900  0.355542  0.643817  1
  Rb  Rb1  1  0.815512  0.809624  0.138115  1
  Rb  Rb2  1  0.240634  0.004455  0.468482  1
  Rb  Rb3  1  0.271362  0.253768  0.260006  1
  Rb  Rb4  1  0.735567  0.501721  0.972864  1
  Rb  Rb5  1  0.257509  0.498962  0.028309  1
  Rb  Rb6  1  0.676168  0.075974  0.885516  1
  Rb  Rb7  1  0.761044  0.992006  0.525695  1
  Rb  Rb8  1  0.731867  0.743095  0.740031  1
  Rb  Rb9  1  0.331429  0.346381  0.597943  1
  Rb  Rb10  1  0.149412  0.643635  0.356004  1
  Rb  Rb11  1  0.174836  0.195551  0.865672  1
  Rb  Rb12  1  0.326377  0.922095  0.117866  1
  Rb  Rb13  1  0.662539  0.660371  0.396843  1
  Nb  Nb14  1  0.354176  0.607853  0.774755  1
  Nb  Nb15  1  0.648527  0.391082  0.225208  1
  Tl  Tl16  1  0.041421  0.822848  0.881091  1
  Tl  Tl17  1  0.961370  0.177418  0.119023  1
  Tl  Tl18  1  0.372197  0.968978  0.700122  1
  Ga  Ga19  1  0.097976  0.727863  0.628981  1
  Ga  Ga20  1  0.903767  0.273687  0.371387  1
  Ga  Ga21  1  0.646380  0.051446  0.296446  1
  As  As22  1  0.929870  0.451734  0.214556  1
  As  As23  1  0.621005  0.183408  0.125529  1
  As  As24  1  0.071640  0.549755  0.785528  1
  As  As25  1  0.592754  0.284911  0.392454  1
  As  As26  1  0.409480  0.703078  0.604290  1
  As  As27  1  0.019447  0.001232  0.697409  1
  As  As28  1  0.516616  0.394746  0.808080  1
  As  As29  1  0.479023  0.600083  0.192783  1
  As  As30  1  0.382998  0.805260  0.883142  1
  As  As31  1  0.970198  0.001438  0.302052  1
