# generated using pymatgen
data_TbDyNb3Si4
_symmetry_space_group_name_H-M   'P 1'
_cell_length_a   7.08248719
_cell_length_b   7.08208819
_cell_length_c   13.05682000
_cell_angle_alpha   89.99210413
_cell_angle_beta   89.99191519
_cell_angle_gamma   89.98055020
_symmetry_Int_Tables_number   1
_chemical_formula_structural   TbDyNb3Si4
_chemical_formula_sum   'Tb4 Dy4 Nb12 Si16'
_cell_volume   654.91435810
_cell_formula_units_Z   4
loop_
 _symmetry_equiv_pos_site_id
 _symmetry_equiv_pos_as_xyz
  1  'x, y, z'
loop_
 _atom_site_type_symbol
 _atom_site_label
 _atom_site_symmetry_multiplicity
 _atom_site_fract_x
 _atom_site_fract_y
 _atom_site_fract_z
 _atom_site_occupancy
  Tb  Tb0  1  0.843193  0.503337  0.967355  1
  Tb  Tb1  1  0.496693  0.156875  0.532667  1
  Tb  Tb2  1  0.343185  0.996665  0.782723  1
  Tb  Tb3  1  0.656837  0.003322  0.282709  1
  Dy  Dy4  1  0.997052  0.343377  0.217241  1
  Dy  Dy5  1  0.002977  0.656594  0.717232  1
  Dy  Dy6  1  0.156553  0.497023  0.467254  1
  Dy  Dy7  1  0.502945  0.843373  0.032751  1
  Nb  Nb8  1  0.172750  0.172771  0.000050  1
  Nb  Nb9  1  0.827390  0.827060  0.499991  1
  Nb  Nb10  1  0.327115  0.672751  0.250000  1
  Nb  Nb11  1  0.672857  0.327276  0.750002  1
  Nb  Nb12  1  0.151493  0.992649  0.375832  1
  Nb  Nb13  1  0.848417  0.007166  0.875930  1
  Nb  Nb14  1  0.507288  0.651429  0.625692  1
  Nb  Nb15  1  0.348445  0.492897  0.874283  1
  Nb  Nb16  1  0.492735  0.348522  0.125795  1
  Nb  Nb17  1  0.651618  0.507089  0.374189  1
  Nb  Nb18  1  0.992998  0.151664  0.624048  1
  Nb  Nb19  1  0.007210  0.848423  0.124154  1
  Si  Si20  1  0.364976  0.296876  0.317188  1
  Si  Si21  1  0.634654  0.703440  0.817084  1
  Si  Si22  1  0.203050  0.864918  0.567148  1
  Si  Si23  1  0.134666  0.796554  0.932964  1
  Si  Si24  1  0.796567  0.134415  0.067293  1
  Si  Si25  1  0.865989  0.203809  0.432812  1
  Si  Si26  1  0.296210  0.365996  0.682810  1
  Si  Si27  1  0.703478  0.634380  0.182718  1
  Si  Si28  1  0.292261  0.048025  0.186250  1
  Si  Si29  1  0.707974  0.951901  0.686341  1
  Si  Si30  1  0.451787  0.791928  0.436336  1
  Si  Si31  1  0.207783  0.547976  0.063809  1
  Si  Si32  1  0.547934  0.207454  0.936443  1
  Si  Si33  1  0.792847  0.452298  0.563709  1
  Si  Si34  1  0.047818  0.292722  0.813555  1
  Si  Si35  1  0.952257  0.707050  0.313646  1
