# generated using pymatgen
data_TbEu2Pa3(Co3P2)6
_symmetry_space_group_name_H-M   'P 1'
_cell_length_a   3.75566400
_cell_length_b   10.59393905
_cell_length_c   12.30379839
_cell_angle_alpha   90.13653670
_cell_angle_beta   90.00000000
_cell_angle_gamma   90.00000000
_symmetry_Int_Tables_number   1
_chemical_formula_structural   TbEu2Pa3(Co3P2)6
_chemical_formula_sum   'Tb1 Eu2 Pa3 Co18 P12'
_cell_volume   489.53322628
_cell_formula_units_Z   1
loop_
 _symmetry_equiv_pos_site_id
 _symmetry_equiv_pos_as_xyz
  1  'x, y, z'
loop_
 _atom_site_type_symbol
 _atom_site_label
 _atom_site_symmetry_multiplicity
 _atom_site_fract_x
 _atom_site_fract_y
 _atom_site_fract_z
 _atom_site_occupancy
  Tb  Tb0  1  0.000000  0.314093  0.793580  1
  Eu  Eu1  1  0.500000  0.186319  0.205313  1
  Eu  Eu2  1  0.000000  0.684586  0.794521  1
  Pa  Pa3  1  0.000000  0.498595  0.528052  1
  Pa  Pa4  1  0.500000  0.000153  0.474850  1
  Pa  Pa5  1  0.500000  0.817913  0.208257  1
  Co  Co6  1  0.500000  0.500642  0.158349  1
  Co  Co7  1  0.000000  0.998918  0.844145  1
  Co  Co8  1  0.500000  0.497652  0.692631  1
  Co  Co9  1  0.000000  0.991011  0.301610  1
  Co  Co10  1  0.000000  0.499524  0.983626  1
  Co  Co11  1  0.500000  0.999666  0.014787  1
  Co  Co12  1  0.500000  0.335294  0.992219  1
  Co  Co13  1  0.500000  0.666872  0.997316  1
  Co  Co14  1  0.000000  0.167784  0.003726  1
  Co  Co15  1  0.000000  0.834882  0.009125  1
  Co  Co16  1  0.500000  0.300242  0.432984  1
  Co  Co17  1  0.500000  0.696399  0.429342  1
  Co  Co18  1  0.000000  0.195494  0.568315  1
  Co  Co19  1  0.000000  0.803425  0.568981  1
  Co  Co20  1  0.500000  0.883913  0.710152  1
  Co  Co21  1  0.500000  0.119834  0.711494  1
  Co  Co22  1  0.000000  0.624129  0.285800  1
  Co  Co23  1  0.000000  0.384789  0.291372  1
  P  P24  1  0.500000  0.499874  0.879131  1
  P  P25  1  0.000000  0.002630  0.117147  1
  P  P26  1  0.500000  0.498248  0.342851  1
  P  P27  1  0.000000  0.999148  0.659646  1
  P  P28  1  0.500000  0.304227  0.615678  1
  P  P29  1  0.500000  0.694635  0.615184  1
  P  P30  1  0.000000  0.192147  0.384128  1
  P  P31  1  0.000000  0.804491  0.388597  1
  P  P32  1  0.500000  0.848264  0.895146  1
  P  P33  1  0.500000  0.153208  0.895114  1
  P  P34  1  0.000000  0.651455  0.102571  1
  P  P35  1  0.000000  0.349542  0.104257  1
