# generated using pymatgen
data_Pr3Ga2B4Ir9
_symmetry_space_group_name_H-M   'P 1'
_cell_length_a   5.61431900
_cell_length_b   5.61432022
_cell_length_c   10.15263300
_cell_angle_alpha   90.00000000
_cell_angle_beta   90.00000000
_cell_angle_gamma   119.99999870
_symmetry_Int_Tables_number   1
_chemical_formula_structural   Pr3Ga2B4Ir9
_chemical_formula_sum   'Pr3 Ga2 B4 Ir9'
_cell_volume   277.14279317
_cell_formula_units_Z   1
loop_
 _symmetry_equiv_pos_site_id
 _symmetry_equiv_pos_as_xyz
  1  'x, y, z'
loop_
 _atom_site_type_symbol
 _atom_site_label
 _atom_site_symmetry_multiplicity
 _atom_site_fract_x
 _atom_site_fract_y
 _atom_site_fract_z
 _atom_site_occupancy
  Pr  Pr0  1  0.000000  0.000000  0.659737  1
  Pr  Pr1  1  0.000000  0.000000  0.340263  1
  Pr  Pr2  1  0.000000  0.000000  0.000000  1
  Ga  Ga3  1  0.333333  0.666667  0.000000  1
  Ga  Ga4  1  0.666667  0.333333  0.000000  1
  B  B5  1  0.333333  0.666667  0.654005  1
  B  B6  1  0.666667  0.333333  0.654005  1
  B  B7  1  0.666667  0.333333  0.345995  1
  B  B8  1  0.333333  0.666667  0.345995  1
  Ir  Ir9  1  0.500000  0.500000  0.500000  1
  Ir  Ir10  1  0.000000  0.500000  0.500000  1
  Ir  Ir11  1  0.500000  0.000000  0.204465  1
  Ir  Ir12  1  0.500000  0.500000  0.204465  1
  Ir  Ir13  1  0.000000  0.500000  0.204465  1
  Ir  Ir14  1  0.500000  0.000000  0.795535  1
  Ir  Ir15  1  0.500000  0.500000  0.795535  1
  Ir  Ir16  1  0.000000  0.500000  0.795535  1
  Ir  Ir17  1  0.500000  0.000000  0.500000  1
