# generated using pymatgen
data_AcGe3N5
_symmetry_space_group_name_H-M   'P 1'
_cell_length_a   5.08862900
_cell_length_b   8.37814300
_cell_length_c   12.00853600
_cell_angle_alpha   90.00000000
_cell_angle_beta   90.00000000
_cell_angle_gamma   90.00000000
_symmetry_Int_Tables_number   1
_chemical_formula_structural   AcGe3N5
_chemical_formula_sum   'Ac4 Ge12 N20'
_cell_volume   511.96305475
_cell_formula_units_Z   4
loop_
 _symmetry_equiv_pos_site_id
 _symmetry_equiv_pos_as_xyz
  1  'x, y, z'
loop_
 _atom_site_type_symbol
 _atom_site_label
 _atom_site_symmetry_multiplicity
 _atom_site_fract_x
 _atom_site_fract_y
 _atom_site_fract_z
 _atom_site_occupancy
  Ac  Ac0  1  0.514038  0.054748  0.176739  1
  Ac  Ac1  1  0.985962  0.945252  0.676739  1
  Ac  Ac2  1  0.485962  0.554748  0.323261  1
  Ac  Ac3  1  0.014038  0.445252  0.823261  1
  Ge  Ge4  1  0.001713  0.208170  0.416097  1
  Ge  Ge5  1  0.498287  0.791830  0.916097  1
  Ge  Ge6  1  0.998287  0.708170  0.083903  1
  Ge  Ge7  1  0.501713  0.291830  0.583903  1
  Ge  Ge8  1  0.539691  0.464090  0.038206  1
  Ge  Ge9  1  0.960309  0.535910  0.538206  1
  Ge  Ge10  1  0.460309  0.964090  0.461794  1
  Ge  Ge11  1  0.039691  0.035910  0.961794  1
  Ge  Ge12  1  0.024151  0.335907  0.162403  1
  Ge  Ge13  1  0.475849  0.664093  0.662403  1
  Ge  Ge14  1  0.975849  0.835907  0.337597  1
  Ge  Ge15  1  0.524151  0.164093  0.837597  1
  N  N16  1  0.184053  0.290800  0.298301  1
  N  N17  1  0.315947  0.709200  0.798301  1
  N  N18  1  0.815947  0.790800  0.201699  1
  N  N19  1  0.684053  0.209200  0.701699  1
  N  N20  1  0.200773  0.518382  0.097955  1
  N  N21  1  0.299227  0.481618  0.597955  1
  N  N22  1  0.799227  0.018382  0.402045  1
  N  N23  1  0.700773  0.981618  0.902045  1
  N  N24  1  0.672253  0.380745  0.168354  1
  N  N25  1  0.827747  0.619255  0.668354  1
  N  N26  1  0.327747  0.880745  0.331646  1
  N  N27  1  0.172253  0.119255  0.831646  1
  N  N28  1  0.065867  0.143716  0.092302  1
  N  N29  1  0.434133  0.856284  0.592302  1
  N  N30  1  0.934133  0.643716  0.407698  1
  N  N31  1  0.565867  0.356284  0.907698  1
  N  N32  1  0.268832  0.144996  0.517214  1
  N  N33  1  0.231168  0.855004  0.017214  1
  N  N34  1  0.731168  0.644996  0.982786  1
  N  N35  1  0.768832  0.355004  0.482786  1
