# generated using pymatgen
data_YbCoSi2Tc
_symmetry_space_group_name_H-M   'P 1'
_cell_length_a   5.63662985
_cell_length_b   5.63663011
_cell_length_c   5.63663070
_cell_angle_alpha   137.25278520
_cell_angle_beta   137.25278336
_cell_angle_gamma   62.04933538
_symmetry_Int_Tables_number   1
_chemical_formula_structural   YbCoSi2Tc
_chemical_formula_sum   'Yb1 Co1 Si2 Tc1'
_cell_volume   81.53473411
_cell_formula_units_Z   1
loop_
 _symmetry_equiv_pos_site_id
 _symmetry_equiv_pos_as_xyz
  1  'x, y, z'
loop_
 _atom_site_type_symbol
 _atom_site_label
 _atom_site_symmetry_multiplicity
 _atom_site_fract_x
 _atom_site_fract_y
 _atom_site_fract_z
 _atom_site_occupancy
  Yb  Yb0  1  0.000000  0.000000  0.000000  1
  Co  Co1  1  0.250000  0.750000  0.500000  1
  Si  Si2  1  0.632284  0.632284  0.000000  1
  Si  Si3  1  0.367716  0.367716  0.000000  1
  Tc  Tc4  1  0.750000  0.250000  0.500000  1
