# generated using pymatgen
data_Pr(S2O7)2
_symmetry_space_group_name_H-M   'P 1'
_cell_length_a   7.04256225
_cell_length_b   7.07387503
_cell_length_c   12.99534894
_cell_angle_alpha   77.50639746
_cell_angle_beta   77.24089234
_cell_angle_gamma   79.43432271
_symmetry_Int_Tables_number   1
_chemical_formula_structural   Pr(S2O7)2
_chemical_formula_sum   'Pr2 S8 O28'
_cell_volume   610.18545223
_cell_formula_units_Z   2
loop_
 _symmetry_equiv_pos_site_id
 _symmetry_equiv_pos_as_xyz
  1  'x, y, z'
loop_
 _atom_site_type_symbol
 _atom_site_label
 _atom_site_symmetry_multiplicity
 _atom_site_fract_x
 _atom_site_fract_y
 _atom_site_fract_z
 _atom_site_occupancy
  Pr  Pr0  1  0.991453  0.005797  0.753523  1
  Pr  Pr1  1  0.007826  0.991882  0.251401  1
  S  S2  1  0.446061  0.965177  0.850348  1
  S  S3  1  0.979770  0.442934  0.343789  1
  S  S4  1  0.190811  0.716570  0.003530  1
  S  S5  1  0.273382  0.806777  0.502437  1
  S  S6  1  0.727934  0.192065  0.503467  1
  S  S7  1  0.810973  0.273367  0.001983  1
  S  S8  1  0.168754  0.510625  0.687564  1
  S  S9  1  0.553589  0.026529  0.157488  1
  O  O10  1  0.657893  0.921801  0.813486  1
  O  O11  1  0.935638  0.655155  0.313309  1
  O  O12  1  0.337501  0.966366  0.765432  1
  O  O13  1  0.407980  0.753588  0.935870  1
  O  O14  1  0.623937  0.863866  0.103321  1
  O  O15  1  0.848657  0.181855  0.906640  1
  O  O16  1  0.484268  0.763625  0.490463  1
  O  O17  1  0.955305  0.341507  0.261013  1
  O  O18  1  0.186836  0.949002  0.573592  1
  O  O19  1  0.777346  0.406235  0.441172  1
  O  O20  1  0.049875  0.810385  0.933277  1
  O  O21  1  0.202593  0.858053  0.400992  1
  O  O22  1  0.795936  0.483073  0.974797  1
  O  O23  1  0.816514  0.147989  0.599888  1
  O  O24  1  0.365633  0.472541  0.707483  1
  O  O25  1  0.205711  0.506919  0.030508  1
  O  O26  1  0.950801  0.179734  0.072929  1
  O  O27  1  0.036000  0.659123  0.742934  1
  O  O28  1  0.176360  0.607339  0.556907  1
  O  O29  1  0.818029  0.052403  0.431717  1
  O  O30  1  0.157164  0.808318  0.098416  1
  O  O31  1  0.516296  0.214548  0.529157  1
  O  O32  1  0.377348  0.121230  0.909540  1
  O  O33  1  0.658376  0.034064  0.242507  1
  O  O34  1  0.594431  0.234104  0.067479  1
  O  O35  1  0.072244  0.341531  0.694078  1
  O  O36  1  0.149738  0.367832  0.391395  1
  O  O37  1  0.341207  0.073824  0.190278  1
