# generated using pymatgen
data_Hf18BeRe8Se
_symmetry_space_group_name_H-M   'P 1'
_cell_length_a   8.58412200
_cell_length_b   8.58412224
_cell_length_c   8.60420000
_cell_angle_alpha   90.00000000
_cell_angle_beta   90.00000000
_cell_angle_gamma   119.99999907
_symmetry_Int_Tables_number   1
_chemical_formula_structural   Hf18BeRe8Se
_chemical_formula_sum   'Hf18 Be1 Re8 Se1'
_cell_volume   549.07656412
_cell_formula_units_Z   1
loop_
 _symmetry_equiv_pos_site_id
 _symmetry_equiv_pos_as_xyz
  1  'x, y, z'
loop_
 _atom_site_type_symbol
 _atom_site_label
 _atom_site_symmetry_multiplicity
 _atom_site_fract_x
 _atom_site_fract_y
 _atom_site_fract_z
 _atom_site_occupancy
  Hf  Hf0  1  0.197327  0.802673  0.445505  1
  Hf  Hf1  1  0.197327  0.394655  0.445505  1
  Hf  Hf2  1  0.605345  0.802673  0.445505  1
  Hf  Hf3  1  0.807830  0.192170  0.547686  1
  Hf  Hf4  1  0.807830  0.615661  0.547686  1
  Hf  Hf5  1  0.384339  0.192170  0.547686  1
  Hf  Hf6  1  0.807830  0.192170  0.952314  1
  Hf  Hf7  1  0.807830  0.615661  0.952314  1
  Hf  Hf8  1  0.384339  0.192170  0.952314  1
  Hf  Hf9  1  0.197327  0.802673  0.054495  1
  Hf  Hf10  1  0.197327  0.394655  0.054495  1
  Hf  Hf11  1  0.605345  0.802673  0.054495  1
  Hf  Hf12  1  0.540435  0.459565  0.250000  1
  Hf  Hf13  1  0.540435  0.080869  0.250000  1
  Hf  Hf14  1  0.919131  0.459565  0.250000  1
  Hf  Hf15  1  0.455105  0.544895  0.750000  1
  Hf  Hf16  1  0.455105  0.910210  0.750000  1
  Hf  Hf17  1  0.089790  0.544895  0.750000  1
  Be  Be18  1  0.333333  0.666667  0.250000  1
  Re  Re19  1  0.890169  0.109831  0.250000  1
  Re  Re20  1  0.890169  0.780337  0.250000  1
  Re  Re21  1  0.219663  0.109831  0.250000  1
  Re  Re22  1  0.110546  0.889454  0.750000  1
  Re  Re23  1  0.110546  0.221092  0.750000  1
  Re  Re24  1  0.778908  0.889454  0.750000  1
  Re  Re25  1  0.000000  0.000000  0.500019  1
  Re  Re26  1  0.000000  0.000000  0.999981  1
  Se  Se27  1  0.666667  0.333333  0.750000  1
