# generated using pymatgen
data_Ca10CdHg5
_symmetry_space_group_name_H-M   'P 1'
_cell_length_a   8.25993900
_cell_length_b   8.25993900
_cell_length_c   14.93660800
_cell_angle_alpha   90.00000000
_cell_angle_beta   90.00000000
_cell_angle_gamma   90.00000000
_symmetry_Int_Tables_number   1
_chemical_formula_structural   Ca10CdHg5
_chemical_formula_sum   'Ca20 Cd2 Hg10'
_cell_volume   1019.07386412
_cell_formula_units_Z   2
loop_
 _symmetry_equiv_pos_site_id
 _symmetry_equiv_pos_as_xyz
  1  'x, y, z'
loop_
 _atom_site_type_symbol
 _atom_site_label
 _atom_site_symmetry_multiplicity
 _atom_site_fract_x
 _atom_site_fract_y
 _atom_site_fract_z
 _atom_site_occupancy
  Ca  Ca0  1  0.667900  0.161181  0.101269  1
  Ca  Ca1  1  0.163142  0.666993  0.602352  1
  Ca  Ca2  1  0.332100  0.838819  0.101269  1
  Ca  Ca3  1  0.836858  0.333007  0.602352  1
  Ca  Ca4  1  0.838819  0.667900  0.101269  1
  Ca  Ca5  1  0.333007  0.163142  0.602352  1
  Ca  Ca6  1  0.161181  0.332100  0.101269  1
  Ca  Ca7  1  0.666993  0.836858  0.602352  1
  Ca  Ca8  1  0.838819  0.332100  0.898731  1
  Ca  Ca9  1  0.333007  0.836858  0.397648  1
  Ca  Ca10  1  0.161181  0.667900  0.898731  1
  Ca  Ca11  1  0.666993  0.163142  0.397648  1
  Ca  Ca12  1  0.667900  0.838819  0.898731  1
  Ca  Ca13  1  0.163142  0.333007  0.397648  1
  Ca  Ca14  1  0.332100  0.161181  0.898731  1
  Ca  Ca15  1  0.836858  0.666993  0.397648  1
  Ca  Ca16  1  0.500000  0.500000  0.753541  1
  Ca  Ca17  1  0.000000  0.000000  0.250420  1
  Ca  Ca18  1  0.000000  0.000000  0.749580  1
  Ca  Ca19  1  0.500000  0.500000  0.246459  1
  Cd  Cd20  1  0.500000  0.500000  0.500000  1
  Cd  Cd21  1  0.500000  0.500000  0.000000  1
  Hg  Hg22  1  0.633912  0.134679  0.750811  1
  Hg  Hg23  1  0.134679  0.633912  0.249189  1
  Hg  Hg24  1  0.865321  0.366088  0.249189  1
  Hg  Hg25  1  0.366088  0.865321  0.750811  1
  Hg  Hg26  1  0.865321  0.633912  0.750811  1
  Hg  Hg27  1  0.366088  0.134679  0.249189  1
  Hg  Hg28  1  0.134679  0.366088  0.750811  1
  Hg  Hg29  1  0.633912  0.865321  0.249189  1
  Hg  Hg30  1  0.000000  0.000000  0.000000  1
  Hg  Hg31  1  0.000000  0.000000  0.500000  1
