# generated using pymatgen
data_Hf2AlB2Ru5
_symmetry_space_group_name_H-M   'P 1'
_cell_length_a   9.37198000
_cell_length_b   9.37198000
_cell_length_c   3.06104300
_cell_angle_alpha   90.00000000
_cell_angle_beta   90.00000000
_cell_angle_gamma   90.00000000
_symmetry_Int_Tables_number   1
_chemical_formula_structural   Hf2AlB2Ru5
_chemical_formula_sum   'Hf4 Al2 B4 Ru10'
_cell_volume   268.86367878
_cell_formula_units_Z   2
loop_
 _symmetry_equiv_pos_site_id
 _symmetry_equiv_pos_as_xyz
  1  'x, y, z'
loop_
 _atom_site_type_symbol
 _atom_site_label
 _atom_site_symmetry_multiplicity
 _atom_site_fract_x
 _atom_site_fract_y
 _atom_site_fract_z
 _atom_site_occupancy
  Hf  Hf0  1  0.824390  0.675610  0.000000  1
  Hf  Hf1  1  0.175610  0.324390  0.000000  1
  Hf  Hf2  1  0.324390  0.824390  0.000000  1
  Hf  Hf3  1  0.675610  0.175610  0.000000  1
  Al  Al4  1  0.500000  0.500000  0.000000  1
  Al  Al5  1  0.000000  0.000000  0.000000  1
  B  B6  1  0.624440  0.875560  0.000000  1
  B  B7  1  0.375560  0.124440  0.000000  1
  B  B8  1  0.124440  0.624440  0.000000  1
  B  B9  1  0.875560  0.375560  0.000000  1
  Ru  Ru10  1  0.569558  0.714739  0.500000  1
  Ru  Ru11  1  0.430442  0.285261  0.500000  1
  Ru  Ru12  1  0.069558  0.785261  0.500000  1
  Ru  Ru13  1  0.930442  0.214739  0.500000  1
  Ru  Ru14  1  0.285261  0.569558  0.500000  1
  Ru  Ru15  1  0.714739  0.430442  0.500000  1
  Ru  Ru16  1  0.214739  0.069558  0.500000  1
  Ru  Ru17  1  0.785261  0.930442  0.500000  1
  Ru  Ru18  1  0.500000  0.000000  0.500000  1
  Ru  Ru19  1  0.000000  0.500000  0.500000  1
