# generated using pymatgen
data_Li3NiC2
_symmetry_space_group_name_H-M   'P 1'
_cell_length_a   4.72707725
_cell_length_b   4.94938858
_cell_length_c   4.06622188
_cell_angle_alpha   61.86163292
_cell_angle_beta   112.05917908
_cell_angle_gamma   119.14842923
_symmetry_Int_Tables_number   1
_chemical_formula_structural   Li3NiC2
_chemical_formula_sum   'Li3 Ni1 C2'
_cell_volume   71.94035228
_cell_formula_units_Z   1
loop_
 _symmetry_equiv_pos_site_id
 _symmetry_equiv_pos_as_xyz
  1  'x, y, z'
loop_
 _atom_site_type_symbol
 _atom_site_label
 _atom_site_symmetry_multiplicity
 _atom_site_fract_x
 _atom_site_fract_y
 _atom_site_fract_z
 _atom_site_occupancy
  Li  Li0  1  0.418249  0.341615  0.921953  1
  Li  Li1  1  0.743514  0.043490  0.688347  1
  Li  Li2  1  0.156588  0.636729  0.107754  1
  Ni  Ni3  1  0.805843  0.686730  0.431515  1
  C  C4  1  0.437900  0.321148  0.441617  1
  C  C5  1  0.170049  0.051437  0.442802  1
