# generated using pymatgen
data_ErSc6(RhSe)2
_symmetry_space_group_name_H-M   'P 1'
_cell_length_a   8.57693852
_cell_length_b   8.57693757
_cell_length_c   8.57693784
_cell_angle_alpha   155.01004136
_cell_angle_beta   118.92395273
_cell_angle_gamma   67.04361881
_symmetry_Int_Tables_number   1
_chemical_formula_structural   ErSc6(RhSe)2
_chemical_formula_sum   'Er1 Sc6 Rh2 Se2'
_cell_volume   231.30060906
_cell_formula_units_Z   1
loop_
 _symmetry_equiv_pos_site_id
 _symmetry_equiv_pos_as_xyz
  1  'x, y, z'
loop_
 _atom_site_type_symbol
 _atom_site_label
 _atom_site_symmetry_multiplicity
 _atom_site_fract_x
 _atom_site_fract_y
 _atom_site_fract_z
 _atom_site_occupancy
  Er  Er0  1  0.998683  0.000000  0.998683  1
  Sc  Sc1  1  0.710571  0.124133  0.586438  1
  Sc  Sc2  1  0.462305  0.875867  0.586438  1
  Sc  Sc3  1  0.686437  0.316901  0.369535  1
  Sc  Sc4  1  0.052634  0.683099  0.369535  1
  Sc  Sc5  1  0.101574  0.358311  0.743263  1
  Sc  Sc6  1  0.384952  0.641689  0.743263  1
  Rh  Rh7  1  0.306982  0.238495  0.068486  1
  Rh  Rh8  1  0.829991  0.761505  0.068486  1
  Se  Se9  1  0.735007  0.500000  0.235007  1
  Se  Se10  1  0.340006  0.000000  0.340006  1
