# generated using pymatgen
data_YEr7Ti11Si16Mo
_symmetry_space_group_name_H-M   'P 1'
_cell_length_a   7.01494245
_cell_length_b   7.01464180
_cell_length_c   12.88810757
_cell_angle_alpha   89.98097904
_cell_angle_beta   90.00577130
_cell_angle_gamma   89.99747773
_symmetry_Int_Tables_number   1
_chemical_formula_structural   YEr7Ti11Si16Mo
_chemical_formula_sum   'Y1 Er7 Ti11 Si16 Mo1'
_cell_volume   634.18904678
_cell_formula_units_Z   1
loop_
 _symmetry_equiv_pos_site_id
 _symmetry_equiv_pos_as_xyz
  1  'x, y, z'
loop_
 _atom_site_type_symbol
 _atom_site_label
 _atom_site_symmetry_multiplicity
 _atom_site_fract_x
 _atom_site_fract_y
 _atom_site_fract_z
 _atom_site_occupancy
  Y  Y0  1  0.340651  0.003193  0.467099  1
  Er  Er1  1  0.497637  0.840311  0.717592  1
  Er  Er2  1  0.500734  0.159260  0.215384  1
  Er  Er3  1  0.840441  0.497610  0.282466  1
  Er  Er4  1  0.159208  0.500776  0.784513  1
  Er  Er5  1  0.657546  0.999037  0.967114  1
  Er  Er6  1  0.002587  0.341107  0.533019  1
  Er  Er7  1  0.999016  0.657529  0.032868  1
  Ti  Ti8  1  0.173777  0.827384  0.249327  1
  Ti  Ti9  1  0.827473  0.173949  0.750546  1
  Ti  Ti10  1  0.673249  0.672719  0.500033  1
  Ti  Ti11  1  0.152961  0.008484  0.876195  1
  Ti  Ti12  1  0.492259  0.651062  0.124089  1
  Ti  Ti13  1  0.507129  0.349296  0.626175  1
  Ti  Ti14  1  0.651091  0.492270  0.875879  1
  Ti  Ti15  1  0.349138  0.506964  0.373917  1
  Ti  Ti16  1  0.848438  0.992684  0.375382  1
  Ti  Ti17  1  0.008447  0.153034  0.123811  1
  Ti  Ti18  1  0.992572  0.848398  0.624726  1
  Si  Si19  1  0.202666  0.131312  0.684017  1
  Si  Si20  1  0.369343  0.702001  0.933655  1
  Si  Si21  1  0.631815  0.297412  0.433590  1
  Si  Si22  1  0.702017  0.369354  0.066359  1
  Si  Si23  1  0.296757  0.630619  0.566606  1
  Si  Si24  1  0.797083  0.868840  0.183632  1
  Si  Si25  1  0.130697  0.203286  0.315784  1
  Si  Si26  1  0.868850  0.797045  0.816348  1
  Si  Si27  1  0.290896  0.953315  0.064651  1
  Si  Si28  1  0.546810  0.791509  0.314351  1
  Si  Si29  1  0.452766  0.208261  0.815287  1
  Si  Si30  1  0.791956  0.546392  0.685307  1
  Si  Si31  1  0.208229  0.452822  0.184706  1
  Si  Si32  1  0.709174  0.047265  0.565044  1
  Si  Si33  1  0.953328  0.290927  0.935377  1
  Si  Si34  1  0.046659  0.707989  0.435148  1
  Mo  Mo35  1  0.326602  0.326583  0.000005  1
