# generated using pymatgen
data_Hf16Co4Re3Hg
_symmetry_space_group_name_H-M   'P 1'
_cell_length_a   8.70306740
_cell_length_b   8.66942473
_cell_length_c   8.66942600
_cell_angle_alpha   60.00000279
_cell_angle_beta   60.12779396
_cell_angle_gamma   60.12779388
_symmetry_Int_Tables_number   1
_chemical_formula_structural   Hf16Co4Re3Hg
_chemical_formula_sum   'Hf16 Co4 Re3 Hg1'
_cell_volume   463.41935937
_cell_formula_units_Z   1
loop_
 _symmetry_equiv_pos_site_id
 _symmetry_equiv_pos_as_xyz
  1  'x, y, z'
loop_
 _atom_site_type_symbol
 _atom_site_label
 _atom_site_symmetry_multiplicity
 _atom_site_fract_x
 _atom_site_fract_y
 _atom_site_fract_z
 _atom_site_occupancy
  Hf  Hf0  1  0.696605  0.101131  0.101131  1
  Hf  Hf1  1  0.103499  0.701686  0.097407  1
  Hf  Hf2  1  0.103499  0.097407  0.701686  1
  Hf  Hf3  1  0.103499  0.097407  0.097407  1
  Hf  Hf4  1  0.312958  0.314594  0.686224  1
  Hf  Hf5  1  0.673119  0.698657  0.314112  1
  Hf  Hf6  1  0.312958  0.686224  0.314594  1
  Hf  Hf7  1  0.673119  0.314112  0.698657  1
  Hf  Hf8  1  0.673119  0.314112  0.314112  1
  Hf  Hf9  1  0.312958  0.686224  0.686224  1
  Hf  Hf10  1  0.954698  0.939046  0.553128  1
  Hf  Hf11  1  0.546496  0.545304  0.954100  1
  Hf  Hf12  1  0.954698  0.553128  0.939046  1
  Hf  Hf13  1  0.546496  0.954100  0.545304  1
  Hf  Hf14  1  0.546496  0.954100  0.954100  1
  Hf  Hf15  1  0.954698  0.553128  0.553128  1
  Co  Co16  1  0.330928  0.889690  0.889690  1
  Co  Co17  1  0.892170  0.328880  0.889475  1
  Co  Co18  1  0.892170  0.889475  0.328880  1
  Co  Co19  1  0.892170  0.889475  0.889475  1
  Re  Re20  1  0.339856  0.996836  0.331654  1
  Re  Re21  1  0.339856  0.331654  0.996836  1
  Re  Re22  1  0.339856  0.331654  0.331654  1
  Hg  Hg23  1  0.004077  0.331974  0.331974  1
