# generated using pymatgen
data_TiMn5(GaRu2)6
_symmetry_space_group_name_H-M   'P 1'
_cell_length_a   4.24499600
_cell_length_b   6.03614600
_cell_length_c   12.73905001
_cell_angle_alpha   90.00019387
_cell_angle_beta   90.00498419
_cell_angle_gamma   89.99992154
_symmetry_Int_Tables_number   1
_chemical_formula_structural   TiMn5(GaRu2)6
_chemical_formula_sum   'Ti1 Mn5 Ga6 Ru12'
_cell_volume   326.41797220
_cell_formula_units_Z   1
loop_
 _symmetry_equiv_pos_site_id
 _symmetry_equiv_pos_as_xyz
  1  'x, y, z'
loop_
 _atom_site_type_symbol
 _atom_site_label
 _atom_site_symmetry_multiplicity
 _atom_site_fract_x
 _atom_site_fract_y
 _atom_site_fract_z
 _atom_site_occupancy
  Ti  Ti0  1  0.000000  0.500001  0.000000  1
  Mn  Mn1  1  0.499830  0.000001  0.167497  1
  Mn  Mn2  1  0.999812  0.500001  0.333671  1
  Mn  Mn3  1  0.500001  0.000000  0.500000  1
  Mn  Mn4  1  0.000188  0.500001  0.666330  1
  Mn  Mn5  1  0.500170  0.999999  0.832502  1
  Ga  Ga6  1  0.000000  0.000000  0.000000  1
  Ga  Ga7  1  0.499859  0.499993  0.165791  1
  Ga  Ga8  1  0.999805  0.000010  0.335216  1
  Ga  Ga9  1  0.500001  0.500001  0.500000  1
  Ga  Ga10  1  0.000197  0.999990  0.664784  1
  Ga  Ga11  1  0.500140  0.500009  0.834209  1
  Ru  Ru12  1  0.500001  0.242929  0.000000  1
  Ru  Ru13  1  0.500001  0.757070  0.000000  1
  Ru  Ru14  1  0.999800  0.246466  0.169785  1
  Ru  Ru15  1  0.999801  0.753538  0.169785  1
  Ru  Ru16  1  0.499743  0.250954  0.334019  1
  Ru  Ru17  1  0.499744  0.749041  0.334018  1
  Ru  Ru18  1  0.000000  0.250037  0.500000  1
  Ru  Ru19  1  0.000000  0.749964  0.500000  1
  Ru  Ru20  1  0.500258  0.250959  0.665982  1
  Ru  Ru21  1  0.500259  0.749046  0.665981  1
  Ru  Ru22  1  0.000198  0.246462  0.830214  1
  Ru  Ru23  1  0.000199  0.753534  0.830214  1
