# generated using pymatgen
data_YHo18Lu(Cd3Ru)2
_symmetry_space_group_name_H-M   'P 1'
_cell_length_a   9.55102036
_cell_length_b   9.54845524
_cell_length_c   9.80569000
_cell_angle_alpha   89.99957044
_cell_angle_beta   90.00184712
_cell_angle_gamma   119.97760117
_symmetry_Int_Tables_number   1
_chemical_formula_structural   YHo18Lu(Cd3Ru)2
_chemical_formula_sum   'Y1 Ho18 Lu1 Cd6 Ru2'
_cell_volume   774.62169527
_cell_formula_units_Z   1
loop_
 _symmetry_equiv_pos_site_id
 _symmetry_equiv_pos_as_xyz
  1  'x, y, z'
loop_
 _atom_site_type_symbol
 _atom_site_label
 _atom_site_symmetry_multiplicity
 _atom_site_fract_x
 _atom_site_fract_y
 _atom_site_fract_z
 _atom_site_occupancy
  Y  Y0  1  0.082447  0.541227  0.749844  1
  Ho  Ho1  1  0.999948  0.999974  0.999980  1
  Ho  Ho2  1  0.209349  0.790890  0.440001  1
  Ho  Ho3  1  0.209348  0.418453  0.440000  1
  Ho  Ho4  1  0.581479  0.790734  0.440128  1
  Ho  Ho5  1  0.790557  0.209085  0.559838  1
  Ho  Ho6  1  0.790561  0.581486  0.559840  1
  Ho  Ho7  1  0.418503  0.209254  0.559897  1
  Ho  Ho8  1  0.789819  0.209821  0.940213  1
  Ho  Ho9  1  0.789825  0.580008  0.940210  1
  Ho  Ho10  1  0.419990  0.209991  0.940152  1
  Ho  Ho11  1  0.210088  0.790149  0.059958  1
  Ho  Ho12  1  0.210084  0.419934  0.059955  1
  Ho  Ho13  1  0.580012  0.790010  0.059835  1
  Ho  Ho14  1  0.541146  0.458887  0.250151  1
  Ho  Ho15  1  0.541144  0.082249  0.250154  1
  Ho  Ho16  1  0.917759  0.458875  0.250151  1
  Ho  Ho17  1  0.459042  0.541096  0.749847  1
  Ho  Ho18  1  0.459037  0.917951  0.749846  1
  Lu  Lu19  1  0.999975  0.999978  0.499997  1
  Cd  Cd20  1  0.885876  0.114097  0.251446  1
  Cd  Cd21  1  0.885860  0.771772  0.251448  1
  Cd  Cd22  1  0.228228  0.114127  0.251448  1
  Cd  Cd23  1  0.114156  0.886070  0.748549  1
  Cd  Cd24  1  0.114175  0.228096  0.748548  1
  Cd  Cd25  1  0.771711  0.885842  0.748555  1
  Ru  Ru26  1  0.333293  0.666661  0.250292  1
  Ru  Ru27  1  0.666585  0.333283  0.749715  1
