# generated using pymatgen
data_Ho16MgZn3Co4
_symmetry_space_group_name_H-M   'P 1'
_cell_length_a   9.37608455
_cell_length_b   9.34074958
_cell_length_c   9.34074900
_cell_angle_alpha   59.99999851
_cell_angle_beta   60.12458561
_cell_angle_gamma   60.12458117
_symmetry_Int_Tables_number   1
_chemical_formula_structural   Ho16MgZn3Co4
_chemical_formula_sum   'Ho16 Mg1 Zn3 Co4'
_cell_volume   579.54236925
_cell_formula_units_Z   1
loop_
 _symmetry_equiv_pos_site_id
 _symmetry_equiv_pos_as_xyz
  1  'x, y, z'
loop_
 _atom_site_type_symbol
 _atom_site_label
 _atom_site_symmetry_multiplicity
 _atom_site_fract_x
 _atom_site_fract_y
 _atom_site_fract_z
 _atom_site_occupancy
  Ho  Ho0  1  0.599535  0.596476  0.596476  1
  Ho  Ho1  1  0.599535  0.596476  0.207514  1
  Ho  Ho2  1  0.599535  0.207514  0.596476  1
  Ho  Ho3  1  0.194762  0.601746  0.601746  1
  Ho  Ho4  1  0.058523  0.440856  0.440856  1
  Ho  Ho5  1  0.438041  0.062274  0.062274  1
  Ho  Ho6  1  0.438041  0.062274  0.437410  1
  Ho  Ho7  1  0.058523  0.440856  0.059764  1
  Ho  Ho8  1  0.438041  0.437410  0.062274  1
  Ho  Ho9  1  0.058523  0.059764  0.440856  1
  Ho  Ho10  1  0.183372  0.812459  0.812459  1
  Ho  Ho11  1  0.811497  0.187169  0.187169  1
  Ho  Ho12  1  0.811497  0.187169  0.814165  1
  Ho  Ho13  1  0.183372  0.812459  0.191709  1
  Ho  Ho14  1  0.811497  0.814165  0.187169  1
  Ho  Ho15  1  0.183372  0.191709  0.812459  1
  Mg  Mg16  1  0.537329  0.820891  0.820891  1
  Zn  Zn17  1  0.834956  0.828654  0.828654  1
  Zn  Zn18  1  0.834956  0.828654  0.507735  1
  Zn  Zn19  1  0.834956  0.507735  0.828654  1
  Co  Co20  1  0.388187  0.393653  0.393653  1
  Co  Co21  1  0.388187  0.393653  0.824509  1
  Co  Co22  1  0.388187  0.824509  0.393653  1
  Co  Co23  1  0.825573  0.391476  0.391476  1
