# generated using pymatgen
data_Tb7NdHf11Si16Au
_symmetry_space_group_name_H-M   'P 1'
_cell_length_a   7.31675763
_cell_length_b   7.31959355
_cell_length_c   13.30400595
_cell_angle_alpha   89.70959833
_cell_angle_beta   90.20449793
_cell_angle_gamma   89.79455910
_symmetry_Int_Tables_number   1
_chemical_formula_structural   Tb7NdHf11Si16Au
_chemical_formula_sum   'Tb7 Nd1 Hf11 Si16 Au1'
_cell_volume   712.48692767
_cell_formula_units_Z   1
loop_
 _symmetry_equiv_pos_site_id
 _symmetry_equiv_pos_as_xyz
  1  'x, y, z'
loop_
 _atom_site_type_symbol
 _atom_site_label
 _atom_site_symmetry_multiplicity
 _atom_site_fract_x
 _atom_site_fract_y
 _atom_site_fract_z
 _atom_site_occupancy
  Tb  Tb0  1  0.005113  0.654481  0.716451  1
  Tb  Tb1  1  0.155319  0.495914  0.465203  1
  Tb  Tb2  1  0.497575  0.848506  0.032208  1
  Tb  Tb3  1  0.848447  0.498216  0.966786  1
  Tb  Tb4  1  0.495873  0.154612  0.535650  1
  Tb  Tb5  1  0.346240  0.997604  0.789193  1
  Tb  Tb6  1  0.653997  0.004643  0.283847  1
  Nd  Nd7  1  0.995948  0.344587  0.210228  1
  Hf  Hf8  1  0.824375  0.824939  0.500429  1
  Hf  Hf9  1  0.323615  0.678245  0.249032  1
  Hf  Hf10  1  0.677418  0.322518  0.751086  1
  Hf  Hf11  1  0.146631  0.996207  0.374448  1
  Hf  Hf12  1  0.857092  0.003135  0.878932  1
  Hf  Hf13  1  0.504574  0.646928  0.626769  1
  Hf  Hf14  1  0.355720  0.491386  0.877481  1
  Hf  Hf15  1  0.490703  0.355537  0.121847  1
  Hf  Hf16  1  0.646829  0.505657  0.374122  1
  Hf  Hf17  1  0.996162  0.145254  0.626366  1
  Hf  Hf18  1  0.003289  0.856595  0.120493  1
  Si  Si19  1  0.362831  0.295670  0.317101  1
  Si  Si20  1  0.639847  0.704102  0.819759  1
  Si  Si21  1  0.206786  0.861133  0.568631  1
  Si  Si22  1  0.131815  0.775273  0.926889  1
  Si  Si23  1  0.771609  0.128951  0.071275  1
  Si  Si24  1  0.861081  0.206208  0.432494  1
  Si  Si25  1  0.296587  0.359569  0.683747  1
  Si  Si26  1  0.701691  0.642117  0.180330  1
  Si  Si27  1  0.296218  0.050583  0.188912  1
  Si  Si28  1  0.705610  0.950309  0.687000  1
  Si  Si29  1  0.450031  0.794962  0.435907  1
  Si  Si30  1  0.212244  0.569088  0.063247  1
  Si  Si31  1  0.565774  0.210243  0.935564  1
  Si  Si32  1  0.794886  0.449951  0.564598  1
  Si  Si33  1  0.052600  0.294289  0.811261  1
  Si  Si34  1  0.949275  0.708667  0.313996  1
  Au  Au35  1  0.176194  0.173920  0.998720  1
