# generated using pymatgen
data_Nd16Cd4IrRu3
_symmetry_space_group_name_H-M   'P 1'
_cell_length_a   9.93900094
_cell_length_b   9.92421553
_cell_length_c   9.92421600
_cell_angle_alpha   59.99999845
_cell_angle_beta   60.04919616
_cell_angle_gamma   60.04919858
_symmetry_Int_Tables_number   1
_chemical_formula_structural   Nd16Cd4IrRu3
_chemical_formula_sum   'Nd16 Cd4 Ir1 Ru3'
_cell_volume   692.69599035
_cell_formula_units_Z   1
loop_
 _symmetry_equiv_pos_site_id
 _symmetry_equiv_pos_as_xyz
  1  'x, y, z'
loop_
 _atom_site_type_symbol
 _atom_site_label
 _atom_site_symmetry_multiplicity
 _atom_site_fract_x
 _atom_site_fract_y
 _atom_site_fract_z
 _atom_site_occupancy
  Nd  Nd0  1  0.346101  0.348331  0.348331  1
  Nd  Nd1  1  0.346101  0.348331  0.957237  1
  Nd  Nd2  1  0.346101  0.957237  0.348331  1
  Nd  Nd3  1  0.956849  0.347717  0.347717  1
  Nd  Nd4  1  0.812038  0.190318  0.190318  1
  Nd  Nd5  1  0.190324  0.810286  0.810286  1
  Nd  Nd6  1  0.190324  0.810286  0.189103  1
  Nd  Nd7  1  0.812038  0.190318  0.807325  1
  Nd  Nd8  1  0.190324  0.189103  0.810286  1
  Nd  Nd9  1  0.812038  0.807325  0.190318  1
  Nd  Nd10  1  0.938676  0.561588  0.561588  1
  Nd  Nd11  1  0.560675  0.938359  0.938359  1
  Nd  Nd12  1  0.560675  0.938359  0.562607  1
  Nd  Nd13  1  0.938676  0.561588  0.938148  1
  Nd  Nd14  1  0.560675  0.562607  0.938359  1
  Nd  Nd15  1  0.938676  0.938148  0.561588  1
  Cd  Cd16  1  0.579705  0.579808  0.579808  1
  Cd  Cd17  1  0.579705  0.579808  0.260677  1
  Cd  Cd18  1  0.579705  0.260677  0.579808  1
  Cd  Cd19  1  0.260831  0.579723  0.579723  1
  Ir  Ir20  1  0.580062  0.139979  0.139979  1
  Ru  Ru21  1  0.139898  0.137619  0.137619  1
  Ru  Ru22  1  0.139898  0.137619  0.584862  1
  Ru  Ru23  1  0.139898  0.584862  0.137619  1
