# generated using pymatgen
data_Th2Sc2SiBr6
_symmetry_space_group_name_H-M   'P 1'
_cell_length_a   4.02437200
_cell_length_b   13.41307800
_cell_length_c   13.97073400
_cell_angle_alpha   90.00000000
_cell_angle_beta   90.00000000
_cell_angle_gamma   90.00000000
_symmetry_Int_Tables_number   1
_chemical_formula_structural   Th2Sc2SiBr6
_chemical_formula_sum   'Th4 Sc4 Si2 Br12'
_cell_volume   754.12926180
_cell_formula_units_Z   2
loop_
 _symmetry_equiv_pos_site_id
 _symmetry_equiv_pos_as_xyz
  1  'x, y, z'
loop_
 _atom_site_type_symbol
 _atom_site_label
 _atom_site_symmetry_multiplicity
 _atom_site_fract_x
 _atom_site_fract_y
 _atom_site_fract_z
 _atom_site_occupancy
  Th  Th0  1  0.000000  0.119300  0.580935  1
  Th  Th1  1  0.000000  0.880700  0.419065  1
  Th  Th2  1  0.000000  0.619300  0.919065  1
  Th  Th3  1  0.000000  0.380700  0.080935  1
  Sc  Sc4  1  0.500000  0.110427  0.351443  1
  Sc  Sc5  1  0.500000  0.889573  0.648557  1
  Sc  Sc6  1  0.500000  0.610427  0.148557  1
  Sc  Sc7  1  0.500000  0.389573  0.851443  1
  Si  Si8  1  0.500000  0.000000  0.500000  1
  Si  Si9  1  0.500000  0.500000  0.000000  1
  Br  Br10  1  0.500000  0.234829  0.171747  1
  Br  Br11  1  0.500000  0.765171  0.828253  1
  Br  Br12  1  0.500000  0.734829  0.328253  1
  Br  Br13  1  0.500000  0.265171  0.671747  1
  Br  Br14  1  0.000000  0.246319  0.403292  1
  Br  Br15  1  0.000000  0.753681  0.596708  1
  Br  Br16  1  0.000000  0.746319  0.096708  1
  Br  Br17  1  0.000000  0.253681  0.903292  1
  Br  Br18  1  0.000000  0.013512  0.246044  1
  Br  Br19  1  0.000000  0.986488  0.753956  1
  Br  Br20  1  0.000000  0.513512  0.253956  1
  Br  Br21  1  0.000000  0.486488  0.746044  1
