# generated using pymatgen
data_HoPa3Si4Ir3Pt
_symmetry_space_group_name_H-M   'P 1'
_cell_length_a   4.25870900
_cell_length_b   7.00778137
_cell_length_c   7.49412096
_cell_angle_alpha   89.77333867
_cell_angle_beta   90.00000000
_cell_angle_gamma   90.00000000
_symmetry_Int_Tables_number   1
_chemical_formula_structural   HoPa3Si4Ir3Pt
_chemical_formula_sum   'Ho1 Pa3 Si4 Ir3 Pt1'
_cell_volume   223.65355711
_cell_formula_units_Z   1
loop_
 _symmetry_equiv_pos_site_id
 _symmetry_equiv_pos_as_xyz
  1  'x, y, z'
loop_
 _atom_site_type_symbol
 _atom_site_label
 _atom_site_symmetry_multiplicity
 _atom_site_fract_x
 _atom_site_fract_y
 _atom_site_fract_z
 _atom_site_occupancy
  Ho  Ho0  1  0.750000  0.005583  0.200834  1
  Pa  Pa1  1  0.250000  0.497183  0.704560  1
  Pa  Pa2  1  0.250000  0.993852  0.799509  1
  Pa  Pa3  1  0.750000  0.512415  0.297298  1
  Si  Si4  1  0.250000  0.809658  0.409989  1
  Si  Si5  1  0.250000  0.317301  0.085203  1
  Si  Si6  1  0.750000  0.185988  0.584417  1
  Si  Si7  1  0.750000  0.688508  0.918536  1
  Ir  Ir8  1  0.250000  0.709958  0.085896  1
  Ir  Ir9  1  0.750000  0.783894  0.590436  1
  Ir  Ir10  1  0.750000  0.284435  0.907742  1
  Pt  Pt11  1  0.250000  0.211222  0.415580  1
