# generated using pymatgen
data_AsBr10F
_symmetry_space_group_name_H-M   'P 1'
_cell_length_a   7.47145774
_cell_length_b   8.92877911
_cell_length_c   9.76962951
_cell_angle_alpha   97.01884773
_cell_angle_beta   97.40407261
_cell_angle_gamma   114.36385198
_symmetry_Int_Tables_number   1
_chemical_formula_structural   AsBr10F
_chemical_formula_sum   'As1 Br10 F1'
_cell_volume   577.55081964
_cell_formula_units_Z   1
loop_
 _symmetry_equiv_pos_site_id
 _symmetry_equiv_pos_as_xyz
  1  'x, y, z'
loop_
 _atom_site_type_symbol
 _atom_site_label
 _atom_site_symmetry_multiplicity
 _atom_site_fract_x
 _atom_site_fract_y
 _atom_site_fract_z
 _atom_site_occupancy
  As  As0  1  0.991471  0.503532  0.543147  1
  Br  Br1  1  0.995028  0.001600  0.040910  1
  Br  Br2  1  0.679847  0.791821  0.894747  1
  Br  Br3  1  0.329070  0.233067  0.230896  1
  Br  Br4  1  0.729606  0.271117  0.597409  1
  Br  Br5  1  0.240239  0.713160  0.266835  1
  Br  Br6  1  0.451954  0.747370  0.084461  1
  Br  Br7  1  0.539608  0.271235  0.011812  1
  Br  Br8  1  0.858892  0.704938  0.554724  1
  Br  Br9  1  0.155552  0.200258  0.426925  1
  Br  Br10  1  0.879011  0.483328  0.134792  1
  F  F11  1  0.149721  0.578573  0.713341  1
