# generated using pymatgen
data_U2N3O
_symmetry_space_group_name_H-M   'P 1'
_cell_length_a   5.30684100
_cell_length_b   5.29971373
_cell_length_c   5.30685173
_cell_angle_alpha   89.90744355
_cell_angle_beta   90.00157599
_cell_angle_gamma   89.99922276
_symmetry_Int_Tables_number   1
_chemical_formula_structural   U2N3O
_chemical_formula_sum   'U4 N6 O2'
_cell_volume   149.25362031
_cell_formula_units_Z   2
loop_
 _symmetry_equiv_pos_site_id
 _symmetry_equiv_pos_as_xyz
  1  'x, y, z'
loop_
 _atom_site_type_symbol
 _atom_site_label
 _atom_site_symmetry_multiplicity
 _atom_site_fract_x
 _atom_site_fract_y
 _atom_site_fract_z
 _atom_site_occupancy
  U  U0  1  0.005702  0.000016  0.005674  1
  U  U1  1  0.494356  0.500011  0.005695  1
  U  U2  1  0.494273  0.999896  0.494252  1
  U  U3  1  0.005798  0.499887  0.494244  1
  N  N4  1  0.249787  0.250526  0.250016  1
  N  N5  1  0.249854  0.750444  0.250022  1
  N  N6  1  0.749882  0.249348  0.250094  1
  N  N7  1  0.750620  0.749246  0.250105  1
  N  N8  1  0.249374  0.250348  0.749863  1
  N  N9  1  0.250346  0.750242  0.749871  1
  O  O10  1  0.749653  0.249981  0.750076  1
  O  O11  1  0.750360  0.750060  0.750094  1
