# generated using pymatgen
data_PrNd3Mg2As5
_symmetry_space_group_name_H-M   'P 1'
_cell_length_a   4.33049500
_cell_length_b   4.33049553
_cell_length_c   17.57842100
_cell_angle_alpha   90.00000000
_cell_angle_beta   90.00000000
_cell_angle_gamma   120.00000362
_symmetry_Int_Tables_number   1
_chemical_formula_structural   PrNd3Mg2As5
_chemical_formula_sum   'Pr1 Nd3 Mg2 As5'
_cell_volume   285.48652425
_cell_formula_units_Z   1
loop_
 _symmetry_equiv_pos_site_id
 _symmetry_equiv_pos_as_xyz
  1  'x, y, z'
loop_
 _atom_site_type_symbol
 _atom_site_label
 _atom_site_symmetry_multiplicity
 _atom_site_fract_x
 _atom_site_fract_y
 _atom_site_fract_z
 _atom_site_occupancy
  Pr  Pr0  1  0.666667  0.333333  0.903592  1
  Nd  Nd1  1  0.333333  0.666667  0.096737  1
  Nd  Nd2  1  0.000000  0.000000  0.711554  1
  Nd  Nd3  1  0.000000  0.000000  0.287943  1
  Mg  Mg4  1  0.666667  0.333333  0.444789  1
  Mg  Mg5  1  0.333333  0.666667  0.555205  1
  As  As6  1  0.666667  0.333333  0.601594  1
  As  As7  1  0.333333  0.666667  0.398271  1
  As  As8  1  0.666667  0.333333  0.197137  1
  As  As9  1  0.333333  0.666667  0.801846  1
  As  As10  1  0.000000  0.000000  0.001332  1
