# generated using pymatgen
data_NdTiCo4As3
_symmetry_space_group_name_H-M   'P 1'
_cell_length_a   3.84512100
_cell_length_b   10.92517400
_cell_length_c   12.47418700
_cell_angle_alpha   90.00000000
_cell_angle_beta   90.00000000
_cell_angle_gamma   90.00000000
_symmetry_Int_Tables_number   1
_chemical_formula_structural   NdTiCo4As3
_chemical_formula_sum   'Nd4 Ti4 Co16 As12'
_cell_volume   524.02333130
_cell_formula_units_Z   4
loop_
 _symmetry_equiv_pos_site_id
 _symmetry_equiv_pos_as_xyz
  1  'x, y, z'
loop_
 _atom_site_type_symbol
 _atom_site_label
 _atom_site_symmetry_multiplicity
 _atom_site_fract_x
 _atom_site_fract_y
 _atom_site_fract_z
 _atom_site_occupancy
  Nd  Nd0  1  0.250000  0.580118  0.704850  1
  Nd  Nd1  1  0.250000  0.919882  0.204850  1
  Nd  Nd2  1  0.750000  0.419882  0.295150  1
  Nd  Nd3  1  0.750000  0.080118  0.795150  1
  Ti  Ti4  1  0.250000  0.697301  0.992229  1
  Ti  Ti5  1  0.250000  0.802699  0.492229  1
  Ti  Ti6  1  0.750000  0.302699  0.007771  1
  Ti  Ti7  1  0.750000  0.197301  0.507771  1
  Co  Co8  1  0.250000  0.404621  0.490667  1
  Co  Co9  1  0.250000  0.095379  0.990667  1
  Co  Co10  1  0.750000  0.595379  0.509333  1
  Co  Co11  1  0.750000  0.904621  0.009333  1
  Co  Co12  1  0.250000  0.218343  0.174846  1
  Co  Co13  1  0.250000  0.281657  0.674846  1
  Co  Co14  1  0.750000  0.781657  0.825154  1
  Co  Co15  1  0.750000  0.718343  0.325154  1
  Co  Co16  1  0.250000  0.883459  0.697559  1
  Co  Co17  1  0.250000  0.616541  0.197559  1
  Co  Co18  1  0.750000  0.116541  0.302441  1
  Co  Co19  1  0.750000  0.383459  0.802441  1
  Co  Co20  1  0.250000  0.465799  0.934144  1
  Co  Co21  1  0.250000  0.034201  0.434144  1
  Co  Co22  1  0.750000  0.534201  0.065856  1
  Co  Co23  1  0.750000  0.965799  0.565856  1
  As  As24  1  0.250000  0.419901  0.115427  1
  As  As25  1  0.250000  0.080099  0.615427  1
  As  As26  1  0.750000  0.580099  0.884573  1
  As  As27  1  0.750000  0.919901  0.384573  1
  As  As28  1  0.250000  0.269709  0.863415  1
  As  As29  1  0.250000  0.230291  0.363415  1
  As  As30  1  0.750000  0.730291  0.136585  1
  As  As31  1  0.750000  0.769709  0.636585  1
  As  As32  1  0.250000  0.596817  0.392127  1
  As  As33  1  0.250000  0.903183  0.892127  1
  As  As34  1  0.750000  0.403183  0.607873  1
  As  As35  1  0.750000  0.096817  0.107873  1
