# generated using pymatgen
data_SmLuRe7Si4Mo
_symmetry_space_group_name_H-M   'P 1'
_cell_length_a   7.68787070
_cell_length_b   7.12978406
_cell_length_c   4.18111800
_cell_angle_alpha   90.00000000
_cell_angle_beta   90.00000000
_cell_angle_gamma   90.61539454
_symmetry_Int_Tables_number   1
_chemical_formula_structural   SmLuRe7Si4Mo
_chemical_formula_sum   'Sm1 Lu1 Re7 Si4 Mo1'
_cell_volume   229.16580803
_cell_formula_units_Z   1
loop_
 _symmetry_equiv_pos_site_id
 _symmetry_equiv_pos_as_xyz
  1  'x, y, z'
loop_
 _atom_site_type_symbol
 _atom_site_label
 _atom_site_symmetry_multiplicity
 _atom_site_fract_x
 _atom_site_fract_y
 _atom_site_fract_z
 _atom_site_occupancy
  Sm  Sm0  1  0.000021  0.001213  0.500000  1
  Lu  Lu1  1  0.501177  0.499044  0.000000  1
  Re  Re2  1  0.604335  0.155895  0.500000  1
  Re  Re3  1  0.396910  0.842365  0.500000  1
  Re  Re4  1  0.891879  0.654934  0.000000  1
  Re  Re5  1  0.160610  0.581237  0.500000  1
  Re  Re6  1  0.835238  0.420019  0.500000  1
  Re  Re7  1  0.345125  0.084475  0.000000  1
  Re  Re8  1  0.657042  0.913302  0.000000  1
  Si  Si9  1  0.691969  0.720594  0.500000  1
  Si  Si10  1  0.309493  0.279174  0.500000  1
  Si  Si11  1  0.197168  0.774324  0.000000  1
  Si  Si12  1  0.800812  0.224188  0.000000  1
  Mo  Mo13  1  0.108223  0.349237  0.000000  1
