# generated using pymatgen
data_Tb7Dy9In4(IrPt)2
_symmetry_space_group_name_H-M   'P 1'
_cell_length_a   9.71897896
_cell_length_b   9.71494126
_cell_length_c   9.68924301
_cell_angle_alpha   60.09078836
_cell_angle_beta   60.10655734
_cell_angle_gamma   60.24349691
_symmetry_Int_Tables_number   1
_chemical_formula_structural   Tb7Dy9In4(IrPt)2
_chemical_formula_sum   'Tb7 Dy9 In4 Ir2 Pt2'
_cell_volume   649.04826020
_cell_formula_units_Z   1
loop_
 _symmetry_equiv_pos_site_id
 _symmetry_equiv_pos_as_xyz
  1  'x, y, z'
loop_
 _atom_site_type_symbol
 _atom_site_label
 _atom_site_symmetry_multiplicity
 _atom_site_fract_x
 _atom_site_fract_y
 _atom_site_fract_z
 _atom_site_occupancy
  Tb  Tb0  1  0.689304  0.313568  0.688286  1
  Tb  Tb1  1  0.689349  0.689196  0.310664  1
  Tb  Tb2  1  0.689166  0.313698  0.308855  1
  Tb  Tb3  1  0.313332  0.689215  0.688362  1
  Tb  Tb4  1  0.555339  0.941813  0.562548  1
  Tb  Tb5  1  0.696847  0.104665  0.099235  1
  Tb  Tb6  1  0.555299  0.941738  0.940402  1
  Dy  Dy7  1  0.104585  0.696918  0.099302  1
  Dy  Dy8  1  0.941922  0.941617  0.558210  1
  Dy  Dy9  1  0.941925  0.555233  0.940226  1
  Dy  Dy10  1  0.313299  0.689274  0.308863  1
  Dy  Dy11  1  0.942040  0.555228  0.562571  1
  Dy  Dy12  1  0.311514  0.311981  0.688186  1
  Dy  Dy13  1  0.100144  0.100259  0.095246  1
  Dy  Dy14  1  0.559653  0.559507  0.940510  1
  Dy  Dy15  1  0.100130  0.100331  0.704328  1
  In  In16  1  0.332649  0.333087  0.333225  1
  In  In17  1  0.002438  0.331863  0.332854  1
  In  In18  1  0.331716  0.002332  0.332920  1
  In  In19  1  0.332644  0.332918  0.001248  1
  Ir  Ir20  1  0.323864  0.889556  0.893377  1
  Ir  Ir21  1  0.889856  0.324621  0.892768  1
  Pt  Pt22  1  0.891436  0.890711  0.894548  1
  Pt  Pt23  1  0.891549  0.890670  0.323264  1
