# generated using pymatgen
data_Pr9HoSi5Sn
_symmetry_space_group_name_H-M   'P 1'
_cell_length_a   7.80034224
_cell_length_b   7.80034288
_cell_length_c   9.20401857
_cell_angle_alpha   115.07136102
_cell_angle_beta   115.07135130
_cell_angle_gamma   90.00000100
_symmetry_Int_Tables_number   1
_chemical_formula_structural   Pr9HoSi5Sn
_chemical_formula_sum   'Pr9 Ho1 Si5 Sn1'
_cell_volume   448.32438988
_cell_formula_units_Z   1
loop_
 _symmetry_equiv_pos_site_id
 _symmetry_equiv_pos_as_xyz
  1  'x, y, z'
loop_
 _atom_site_type_symbol
 _atom_site_label
 _atom_site_symmetry_multiplicity
 _atom_site_fract_x
 _atom_site_fract_y
 _atom_site_fract_z
 _atom_site_occupancy
  Pr  Pr0  1  0.978593  0.978593  0.957186  1
  Pr  Pr1  1  0.973684  0.828513  0.281601  1
  Pr  Pr2  1  0.307917  0.453088  0.281601  1
  Pr  Pr3  1  0.828513  0.307917  0.281601  1
  Pr  Pr4  1  0.453088  0.973684  0.281601  1
  Pr  Pr5  1  0.047028  0.192332  0.719407  1
  Pr  Pr6  1  0.672380  0.527075  0.719407  1
  Pr  Pr7  1  0.192332  0.672380  0.719407  1
  Pr  Pr8  1  0.527075  0.047028  0.719407  1
  Ho  Ho9  1  0.514474  0.514474  0.028950  1
  Si  Si10  1  0.253013  0.253013  0.506027  1
  Si  Si11  1  0.614955  0.881874  0.003022  1
  Si  Si12  1  0.388067  0.121147  0.003022  1
  Si  Si13  1  0.881874  0.388067  0.003022  1
  Si  Si14  1  0.121147  0.614955  0.003022  1
  Sn  Sn15  1  0.745859  0.745859  0.491718  1
