# generated using pymatgen
data_Ti5SiAs2C
_symmetry_space_group_name_H-M   'P 1'
_cell_length_a   7.50904567
_cell_length_b   7.50904411
_cell_length_c   5.23694500
_cell_angle_alpha   90.00000000
_cell_angle_beta   90.00000000
_cell_angle_gamma   120.41678634
_symmetry_Int_Tables_number   1
_chemical_formula_structural   Ti5SiAs2C
_chemical_formula_sum   'Ti10 Si2 As4 C2'
_cell_volume   254.64709427
_cell_formula_units_Z   2
loop_
 _symmetry_equiv_pos_site_id
 _symmetry_equiv_pos_as_xyz
  1  'x, y, z'
loop_
 _atom_site_type_symbol
 _atom_site_label
 _atom_site_symmetry_multiplicity
 _atom_site_fract_x
 _atom_site_fract_y
 _atom_site_fract_z
 _atom_site_occupancy
  Ti  Ti0  1  0.334000  0.666000  0.000000  1
  Ti  Ti1  1  0.666000  0.334000  0.000000  1
  Ti  Ti2  1  0.666000  0.334000  0.500000  1
  Ti  Ti3  1  0.334000  0.666000  0.500000  1
  Ti  Ti4  1  0.230241  0.004060  0.250000  1
  Ti  Ti5  1  0.769759  0.995940  0.750000  1
  Ti  Ti6  1  0.004060  0.230241  0.250000  1
  Ti  Ti7  1  0.995940  0.769759  0.750000  1
  Ti  Ti8  1  0.768128  0.768128  0.250000  1
  Ti  Ti9  1  0.231872  0.231872  0.750000  1
  Si  Si10  1  0.410437  0.410437  0.250000  1
  Si  Si11  1  0.589563  0.589563  0.750000  1
  As  As12  1  0.598436  0.000241  0.250000  1
  As  As13  1  0.401564  0.999759  0.750000  1
  As  As14  1  0.000241  0.598436  0.250000  1
  As  As15  1  0.999759  0.401564  0.750000  1
  C  C16  1  0.000000  0.000000  0.000000  1
  C  C17  1  0.000000  0.000000  0.500000  1
