# generated using pymatgen
data_TbErCdNi7B2
_symmetry_space_group_name_H-M   'P 1'
_cell_length_a   5.00131300
_cell_length_b   5.00124830
_cell_length_c   14.22051100
_cell_angle_alpha   89.99855625
_cell_angle_beta   89.99910596
_cell_angle_gamma   119.99774488
_symmetry_Int_Tables_number   1
_chemical_formula_structural   TbErCdNi7B2
_chemical_formula_sum   'Tb2 Er2 Cd2 Ni14 B4'
_cell_volume   308.04783046
_cell_formula_units_Z   2
loop_
 _symmetry_equiv_pos_site_id
 _symmetry_equiv_pos_as_xyz
  1  'x, y, z'
loop_
 _atom_site_type_symbol
 _atom_site_label
 _atom_site_symmetry_multiplicity
 _atom_site_fract_x
 _atom_site_fract_y
 _atom_site_fract_z
 _atom_site_occupancy
  Tb  Tb0  1  0.666664  0.333321  0.529620  1
  Tb  Tb1  1  0.333315  0.666657  0.029657  1
  Er  Er2  1  0.666664  0.333332  0.756669  1
  Er  Er3  1  0.333335  0.666668  0.256593  1
  Cd  Cd4  1  0.333320  0.666660  0.467401  1
  Cd  Cd5  1  0.666675  0.333337  0.967409  1
  Ni  Ni6  1  0.834704  0.165303  0.351492  1
  Ni  Ni7  1  0.834710  0.669420  0.351472  1
  Ni  Ni8  1  0.999995  0.999999  0.999335  1
  Ni  Ni9  1  0.000015  0.000011  0.499297  1
  Ni  Ni10  1  0.834117  0.668238  0.148442  1
  Ni  Ni11  1  0.165877  0.834127  0.648462  1
  Ni  Ni12  1  0.668262  0.834133  0.648471  1
  Ni  Ni13  1  0.331758  0.165876  0.148453  1
  Ni  Ni14  1  0.834113  0.165874  0.148441  1
  Ni  Ni15  1  0.165312  0.330622  0.851525  1
  Ni  Ni16  1  0.165318  0.834682  0.851518  1
  Ni  Ni17  1  0.165876  0.331754  0.648468  1
  Ni  Ni18  1  0.669379  0.834687  0.851509  1
  Ni  Ni19  1  0.330594  0.165300  0.351497  1
  B  B20  1  0.666672  0.333344  0.249845  1
  B  B21  1  0.333338  0.666675  0.749822  1
  B  B22  1  0.999993  0.999994  0.747303  1
  B  B23  1  0.999993  0.999985  0.247299  1
