# generated using pymatgen
data_Yb2Ga9Ru5
_symmetry_space_group_name_H-M   'P 1'
_cell_length_a   7.98658663
_cell_length_b   7.98658635
_cell_length_c   7.98658594
_cell_angle_alpha   134.26039560
_cell_angle_beta   134.26038949
_cell_angle_gamma   66.68157859
_symmetry_Int_Tables_number   1
_chemical_formula_structural   Yb2Ga9Ru5
_chemical_formula_sum   'Yb2 Ga9 Ru5'
_cell_volume   257.12123201
_cell_formula_units_Z   1
loop_
 _symmetry_equiv_pos_site_id
 _symmetry_equiv_pos_as_xyz
  1  'x, y, z'
loop_
 _atom_site_type_symbol
 _atom_site_label
 _atom_site_symmetry_multiplicity
 _atom_site_fract_x
 _atom_site_fract_y
 _atom_site_fract_z
 _atom_site_occupancy
  Yb  Yb0  1  0.000000  0.500000  0.500000  1
  Yb  Yb1  1  0.500000  0.000000  0.500000  1
  Ga  Ga2  1  0.436019  0.857858  0.000000  1
  Ga  Ga3  1  0.142142  0.142142  0.578162  1
  Ga  Ga4  1  0.857858  0.436019  0.000000  1
  Ga  Ga5  1  0.857858  0.857858  0.421838  1
  Ga  Ga6  1  0.563981  0.142142  0.000000  1
  Ga  Ga7  1  0.142142  0.563981  0.000000  1
  Ga  Ga8  1  0.563981  0.563981  0.421838  1
  Ga  Ga9  1  0.000000  0.000000  0.000000  1
  Ga  Ga10  1  0.436019  0.436019  0.578162  1
  Ru  Ru11  1  0.181374  0.181374  0.000000  1
  Ru  Ru12  1  0.818626  0.818626  0.000000  1
  Ru  Ru13  1  0.250000  0.750000  0.500000  1
  Ru  Ru14  1  0.750000  0.250000  0.500000  1
  Ru  Ru15  1  0.500000  0.500000  0.000000  1
