# generated using pymatgen
data_Ho4TmCo2Os
_symmetry_space_group_name_H-M   'P 1'
_cell_length_a   8.60937381
_cell_length_b   8.60937377
_cell_length_c   8.60937266
_cell_angle_alpha   131.42220102
_cell_angle_beta   131.42220378
_cell_angle_gamma   71.14314635
_symmetry_Int_Tables_number   1
_chemical_formula_structural   Ho4TmCo2Os
_chemical_formula_sum   'Ho8 Tm2 Co4 Os2'
_cell_volume   351.29368399
_cell_formula_units_Z   2
loop_
 _symmetry_equiv_pos_site_id
 _symmetry_equiv_pos_as_xyz
  1  'x, y, z'
loop_
 _atom_site_type_symbol
 _atom_site_label
 _atom_site_symmetry_multiplicity
 _atom_site_fract_x
 _atom_site_fract_y
 _atom_site_fract_z
 _atom_site_occupancy
  Ho  Ho0  1  0.678966  0.535861  0.500000  1
  Ho  Ho1  1  0.464139  0.964139  0.143105  1
  Ho  Ho2  1  0.821034  0.321034  0.856895  1
  Ho  Ho3  1  0.535861  0.035861  0.856895  1
  Ho  Ho4  1  0.035861  0.178966  0.500000  1
  Ho  Ho5  1  0.321034  0.464139  0.500000  1
  Ho  Ho6  1  0.178966  0.678966  0.143105  1
  Ho  Ho7  1  0.964139  0.821034  0.500000  1
  Tm  Tm8  1  0.000000  0.000000  0.000000  1
  Tm  Tm9  1  0.500000  0.500000  0.000000  1
  Co  Co10  1  0.112228  0.612228  0.724455  1
  Co  Co11  1  0.887772  0.387772  0.275545  1
  Co  Co12  1  0.612228  0.887772  0.500000  1
  Co  Co13  1  0.387772  0.112228  0.500000  1
  Os  Os14  1  0.250000  0.250000  0.000000  1
  Os  Os15  1  0.750000  0.750000  0.000000  1
