# generated using pymatgen
data_Rb8Li4NdIn3As8
_symmetry_space_group_name_H-M   'P 1'
_cell_length_a   10.59647897
_cell_length_b   10.59648046
_cell_length_c   6.69505094
_cell_angle_alpha   89.99722255
_cell_angle_beta   90.00278257
_cell_angle_gamma   101.76892646
_symmetry_Int_Tables_number   1
_chemical_formula_structural   Rb8Li4NdIn3As8
_chemical_formula_sum   'Rb8 Li4 Nd1 In3 As8'
_cell_volume   735.95304360
_cell_formula_units_Z   1
loop_
 _symmetry_equiv_pos_site_id
 _symmetry_equiv_pos_as_xyz
  1  'x, y, z'
loop_
 _atom_site_type_symbol
 _atom_site_label
 _atom_site_symmetry_multiplicity
 _atom_site_fract_x
 _atom_site_fract_y
 _atom_site_fract_z
 _atom_site_occupancy
  Rb  Rb0  1  0.575169  0.926644  0.751546  1
  Rb  Rb1  1  0.926644  0.575169  0.248454  1
  Rb  Rb2  1  0.423257  0.067354  0.244181  1
  Rb  Rb3  1  0.067354  0.423257  0.755819  1
  Rb  Rb4  1  0.680048  0.327779  0.783707  1
  Rb  Rb5  1  0.828200  0.171816  0.276374  1
  Rb  Rb6  1  0.327779  0.680048  0.216293  1
  Rb  Rb7  1  0.171816  0.828200  0.723626  1
  Li  Li8  1  0.622818  0.622818  0.000000  1
  Li  Li9  1  0.878518  0.878518  0.500000  1
  Li  Li10  1  0.378496  0.378496  0.000000  1
  Li  Li11  1  0.116413  0.116413  0.500000  1
  Nd  Nd12  1  0.373431  0.373431  0.500000  1
  In  In13  1  0.867094  0.867094  0.000000  1
  In  In14  1  0.631698  0.631698  0.500000  1
  In  In15  1  0.129271  0.129271  0.000000  1
  As  As16  1  0.341875  0.151097  0.758640  1
  As  As17  1  0.151097  0.341875  0.241360  1
  As  As18  1  0.655893  0.843748  0.252816  1
  As  As19  1  0.843748  0.655893  0.747184  1
  As  As20  1  0.907595  0.088903  0.772216  1
  As  As21  1  0.602028  0.410855  0.261487  1
  As  As22  1  0.088903  0.907595  0.227784  1
  As  As23  1  0.410855  0.602028  0.738513  1
