# generated using pymatgen
data_Dy9Er2In9Ru4
_symmetry_space_group_name_H-M   'P 1'
_cell_length_a   3.81439100
_cell_length_b   12.87561914
_cell_length_c   12.87462975
_cell_angle_alpha   112.82254586
_cell_angle_beta   90.00000000
_cell_angle_gamma   90.00000000
_symmetry_Int_Tables_number   1
_chemical_formula_structural   Dy9Er2In9Ru4
_chemical_formula_sum   'Dy9 Er2 In9 Ru4'
_cell_volume   582.80418006
_cell_formula_units_Z   1
loop_
 _symmetry_equiv_pos_site_id
 _symmetry_equiv_pos_as_xyz
  1  'x, y, z'
loop_
 _atom_site_type_symbol
 _atom_site_label
 _atom_site_symmetry_multiplicity
 _atom_site_fract_x
 _atom_site_fract_y
 _atom_site_fract_z
 _atom_site_occupancy
  Dy  Dy0  1  0.000000  0.581742  0.914952  1
  Dy  Dy1  1  0.000000  0.418258  0.085048  1
  Dy  Dy2  1  0.000000  0.162952  0.836104  1
  Dy  Dy3  1  0.000000  0.837048  0.163896  1
  Dy  Dy4  1  0.000000  0.369301  0.630287  1
  Dy  Dy5  1  0.000000  0.630699  0.369713  1
  Dy  Dy6  1  0.000000  0.694302  0.693959  1
  Dy  Dy7  1  0.000000  0.305698  0.306041  1
  Dy  Dy8  1  0.000000  0.000000  0.000000  1
  Er  Er9  1  0.000000  0.914222  0.581653  1
  Er  Er10  1  0.000000  0.085778  0.418347  1
  In  In11  1  0.500000  0.151753  0.629662  1
  In  In12  1  0.500000  0.848247  0.370338  1
  In  In13  1  0.500000  0.631322  0.153381  1
  In  In14  1  0.500000  0.368678  0.846619  1
  In  In15  1  0.500000  0.929342  0.781009  1
  In  In16  1  0.500000  0.070658  0.218991  1
  In  In17  1  0.500000  0.781610  0.929079  1
  In  In18  1  0.500000  0.218390  0.070921  1
  In  In19  1  0.500000  0.500000  0.500000  1
  Ru  Ru20  1  0.500000  0.742356  0.547675  1
  Ru  Ru21  1  0.500000  0.257644  0.452325  1
  Ru  Ru22  1  0.500000  0.547814  0.742037  1
  Ru  Ru23  1  0.500000  0.452186  0.257963  1
