# generated using pymatgen
data_Pr2(TcB2)3
_symmetry_space_group_name_H-M   'P 1'
_cell_length_a   6.32160642
_cell_length_b   6.32160659
_cell_length_c   7.65708501
_cell_angle_alpha   89.44316633
_cell_angle_beta   89.44316903
_cell_angle_gamma   114.65672735
_symmetry_Int_Tables_number   1
_chemical_formula_structural   Pr2(TcB2)3
_chemical_formula_sum   'Pr4 Tc6 B12'
_cell_volume   278.05297866
_cell_formula_units_Z   2
loop_
 _symmetry_equiv_pos_site_id
 _symmetry_equiv_pos_as_xyz
  1  'x, y, z'
loop_
 _atom_site_type_symbol
 _atom_site_label
 _atom_site_symmetry_multiplicity
 _atom_site_fract_x
 _atom_site_fract_y
 _atom_site_fract_z
 _atom_site_occupancy
  Pr  Pr0  1  0.907899  0.561047  0.326816  1
  Pr  Pr1  1  0.438953  0.092101  0.173184  1
  Pr  Pr2  1  0.092101  0.438953  0.673184  1
  Pr  Pr3  1  0.561047  0.907899  0.826816  1
  Tc  Tc4  1  0.417340  0.582660  0.250000  1
  Tc  Tc5  1  0.582660  0.417340  0.750000  1
  Tc  Tc6  1  0.010976  0.197600  0.088292  1
  Tc  Tc7  1  0.802400  0.989024  0.411708  1
  Tc  Tc8  1  0.989024  0.802400  0.911708  1
  Tc  Tc9  1  0.197600  0.010976  0.588292  1
  B  B10  1  0.760820  0.848272  0.131355  1
  B  B11  1  0.151728  0.239180  0.368645  1
  B  B12  1  0.239180  0.151728  0.868645  1
  B  B13  1  0.848272  0.760820  0.631355  1
  B  B14  1  0.418313  0.843272  0.481967  1
  B  B15  1  0.156728  0.581687  0.018033  1
  B  B16  1  0.581687  0.156728  0.518033  1
  B  B17  1  0.843272  0.418313  0.981967  1
  B  B18  1  0.559643  0.649980  0.532105  1
  B  B19  1  0.350020  0.440357  0.967895  1
  B  B20  1  0.440357  0.350020  0.467895  1
  B  B21  1  0.649980  0.559643  0.032105  1
