# generated using pymatgen
data_Ho19TmSn16
_symmetry_space_group_name_H-M   'P 1'
_cell_length_a   8.01707105
_cell_length_b   8.15017406
_cell_length_c   15.41410700
_cell_angle_alpha   90.00000000
_cell_angle_beta   90.00000000
_cell_angle_gamma   90.01341740
_symmetry_Int_Tables_number   1
_chemical_formula_structural   Ho19TmSn16
_chemical_formula_sum   'Ho19 Tm1 Sn16'
_cell_volume   1007.16580871
_cell_formula_units_Z   1
loop_
 _symmetry_equiv_pos_site_id
 _symmetry_equiv_pos_as_xyz
  1  'x, y, z'
loop_
 _atom_site_type_symbol
 _atom_site_label
 _atom_site_symmetry_multiplicity
 _atom_site_fract_x
 _atom_site_fract_y
 _atom_site_fract_z
 _atom_site_occupancy
  Ho  Ho0  1  0.368003  0.836326  0.877760  1
  Ho  Ho1  1  0.867995  0.663655  0.622264  1
  Ho  Ho2  1  0.631874  0.163592  0.377735  1
  Ho  Ho3  1  0.132075  0.336252  0.122267  1
  Ho  Ho4  1  0.631874  0.163592  0.122265  1
  Ho  Ho5  1  0.132075  0.336252  0.377733  1
  Ho  Ho6  1  0.368003  0.836326  0.622240  1
  Ho  Ho7  1  0.867995  0.663655  0.877736  1
  Ho  Ho8  1  0.521364  0.320237  0.902732  1
  Ho  Ho9  1  0.021340  0.179773  0.597256  1
  Ho  Ho10  1  0.478610  0.679807  0.402721  1
  Ho  Ho11  1  0.978708  0.820275  0.097287  1
  Ho  Ho12  1  0.478610  0.679807  0.097279  1
  Ho  Ho13  1  0.978708  0.820275  0.402713  1
  Ho  Ho14  1  0.521364  0.320237  0.597268  1
  Ho  Ho15  1  0.021340  0.179773  0.902744  1
  Ho  Ho16  1  0.198153  0.503057  0.750000  1
  Ho  Ho17  1  0.698150  0.996954  0.750000  1
  Ho  Ho18  1  0.801877  0.496978  0.250000  1
  Tm  Tm19  1  0.301757  0.003076  0.250000  1
  Sn  Sn20  1  0.292290  0.035463  0.041801  1
  Sn  Sn21  1  0.792296  0.464526  0.458428  1
  Sn  Sn22  1  0.707706  0.964476  0.541545  1
  Sn  Sn23  1  0.207711  0.535482  0.958460  1
  Sn  Sn24  1  0.707706  0.964476  0.958455  1
  Sn  Sn25  1  0.207711  0.535482  0.541540  1
  Sn  Sn26  1  0.292290  0.035463  0.458199  1
  Sn  Sn27  1  0.792296  0.464526  0.041572  1
  Sn  Sn28  1  0.564916  0.618820  0.750000  1
  Sn  Sn29  1  0.064986  0.881215  0.750000  1
  Sn  Sn30  1  0.434914  0.381025  0.250000  1
  Sn  Sn31  1  0.935555  0.118584  0.250000  1
  Sn  Sn32  1  0.330021  0.147925  0.750000  1
  Sn  Sn33  1  0.830118  0.351953  0.750000  1
  Sn  Sn34  1  0.669662  0.852128  0.250000  1
  Sn  Sn35  1  0.169949  0.648558  0.250000  1
