# generated using pymatgen
data_Y4Er8Tc3Ir
_symmetry_space_group_name_H-M   'P 1'
_cell_length_a   6.28841803
_cell_length_b   7.41054259
_cell_length_c   9.01578900
_cell_angle_alpha   90.00000000
_cell_angle_beta   90.00000000
_cell_angle_gamma   90.00999733
_symmetry_Int_Tables_number   1
_chemical_formula_structural   Y4Er8Tc3Ir
_chemical_formula_sum   'Y4 Er8 Tc3 Ir1'
_cell_volume   420.14107676
_cell_formula_units_Z   1
loop_
 _symmetry_equiv_pos_site_id
 _symmetry_equiv_pos_as_xyz
  1  'x, y, z'
loop_
 _atom_site_type_symbol
 _atom_site_label
 _atom_site_symmetry_multiplicity
 _atom_site_fract_x
 _atom_site_fract_y
 _atom_site_fract_z
 _atom_site_occupancy
  Y  Y0  1  0.628902  0.041886  0.250000  1
  Y  Y1  1  0.375788  0.959176  0.750000  1
  Y  Y2  1  0.124187  0.461434  0.750000  1
  Y  Y3  1  0.872897  0.539809  0.250000  1
  Er  Er4  1  0.163580  0.177027  0.061621  1
  Er  Er5  1  0.834499  0.824152  0.936005  1
  Er  Er6  1  0.661529  0.324330  0.936779  1
  Er  Er7  1  0.834499  0.824152  0.563995  1
  Er  Er8  1  0.336915  0.674946  0.062141  1
  Er  Er9  1  0.163580  0.177027  0.438379  1
  Er  Er10  1  0.336915  0.674946  0.437859  1
  Er  Er11  1  0.661529  0.324330  0.563221  1
  Tc  Tc12  1  0.456864  0.384231  0.250000  1
  Tc  Tc13  1  0.543074  0.615221  0.750000  1
  Tc  Tc14  1  0.959799  0.112804  0.750000  1
  Ir  Ir15  1  0.045441  0.884525  0.250000  1
