# generated using pymatgen
data_CaCo3Si2
_symmetry_space_group_name_H-M   'P 1'
_cell_length_a   6.30434660
_cell_length_b   6.30434675
_cell_length_c   6.30434671
_cell_angle_alpha   130.04612516
_cell_angle_beta   114.84505987
_cell_angle_gamma   86.35525382
_symmetry_Int_Tables_number   1
_chemical_formula_structural   CaCo3Si2
_chemical_formula_sum   'Ca2 Co6 Si4'
_cell_volume   166.17219255
_cell_formula_units_Z   2
loop_
 _symmetry_equiv_pos_site_id
 _symmetry_equiv_pos_as_xyz
  1  'x, y, z'
loop_
 _atom_site_type_symbol
 _atom_site_label
 _atom_site_symmetry_multiplicity
 _atom_site_fract_x
 _atom_site_fract_y
 _atom_site_fract_z
 _atom_site_occupancy
  Ca  Ca0  1  0.250000  0.528484  0.278484  1
  Ca  Ca1  1  0.750000  0.471516  0.721516  1
  Co  Co2  1  0.000000  0.000000  0.500000  1
  Co  Co3  1  0.500000  0.000000  0.000000  1
  Co  Co4  1  0.718660  0.000000  0.718660  1
  Co  Co5  1  0.218660  0.500000  0.718660  1
  Co  Co6  1  0.281340  0.000000  0.281340  1
  Co  Co7  1  0.781340  0.500000  0.281340  1
  Si  Si8  1  0.078499  0.877225  0.798726  1
  Si  Si9  1  0.921501  0.122775  0.201274  1
  Si  Si10  1  0.578499  0.779774  0.201274  1
  Si  Si11  1  0.421501  0.220226  0.798726  1
