# generated using pymatgen
data_SrCa5Nd2(Si3Pd)4
_symmetry_space_group_name_H-M   'P 1'
_cell_length_a   8.30280700
_cell_length_b   8.28764659
_cell_length_c   8.51238000
_cell_angle_alpha   90.00000000
_cell_angle_beta   90.00000000
_cell_angle_gamma   120.06052651
_symmetry_Int_Tables_number   1
_chemical_formula_structural   SrCa5Nd2(Si3Pd)4
_chemical_formula_sum   'Sr1 Ca5 Nd2 Si12 Pd4'
_cell_volume   506.95872121
_cell_formula_units_Z   1
loop_
 _symmetry_equiv_pos_site_id
 _symmetry_equiv_pos_as_xyz
  1  'x, y, z'
loop_
 _atom_site_type_symbol
 _atom_site_label
 _atom_site_symmetry_multiplicity
 _atom_site_fract_x
 _atom_site_fract_y
 _atom_site_fract_z
 _atom_site_occupancy
  Sr  Sr0  1  0.500481  0.000961  0.250000  1
  Ca  Ca1  1  0.499561  0.500425  0.750000  1
  Ca  Ca2  1  0.500425  0.499617  0.250000  1
  Ca  Ca3  1  0.000863  0.500425  0.750000  1
  Ca  Ca4  1  0.999192  0.499617  0.250000  1
  Ca  Ca5  1  0.499521  0.999043  0.750000  1
  Nd  Nd6  1  0.999961  0.999922  0.750000  1
  Nd  Nd7  1  0.000005  0.000011  0.250000  1
  Si  Si8  1  0.836961  0.166527  0.996349  1
  Si  Si9  1  0.163022  0.833488  0.997129  1
  Si  Si10  1  0.329566  0.166527  0.996349  1
  Si  Si11  1  0.163022  0.833488  0.502871  1
  Si  Si12  1  0.670466  0.833488  0.997129  1
  Si  Si13  1  0.836961  0.166527  0.503651  1
  Si  Si14  1  0.834484  0.668968  0.998872  1
  Si  Si15  1  0.670466  0.833488  0.502871  1
  Si  Si16  1  0.165484  0.330968  0.999605  1
  Si  Si17  1  0.329566  0.166527  0.503651  1
  Si  Si18  1  0.165484  0.330968  0.500395  1
  Si  Si19  1  0.834484  0.668968  0.501128  1
  Pd  Pd20  1  0.667361  0.334720  0.994096  1
  Pd  Pd21  1  0.332652  0.665305  0.995786  1
  Pd  Pd22  1  0.332652  0.665305  0.504214  1
  Pd  Pd23  1  0.667361  0.334720  0.505904  1
