# generated using pymatgen
data_Li8La5Nd3(Sn3Bi)2
_symmetry_space_group_name_H-M   'P 1'
_cell_length_a   9.68256997
_cell_length_b   9.67805051
_cell_length_c   7.78293907
_cell_angle_alpha   90.00000364
_cell_angle_beta   90.09658879
_cell_angle_gamma   119.98455825
_symmetry_Int_Tables_number   1
_chemical_formula_structural   Li8La5Nd3(Sn3Bi)2
_chemical_formula_sum   'Li8 La5 Nd3 Sn6 Bi2'
_cell_volume   631.71257783
_cell_formula_units_Z   1
loop_
 _symmetry_equiv_pos_site_id
 _symmetry_equiv_pos_as_xyz
  1  'x, y, z'
loop_
 _atom_site_type_symbol
 _atom_site_label
 _atom_site_symmetry_multiplicity
 _atom_site_fract_x
 _atom_site_fract_y
 _atom_site_fract_z
 _atom_site_occupancy
  Li  Li0  1  0.166498  0.332757  0.283043  1
  Li  Li1  1  0.166498  0.833741  0.283043  1
  Li  Li2  1  0.666908  0.833454  0.286323  1
  Li  Li3  1  0.831166  0.665900  0.788723  1
  Li  Li4  1  0.831166  0.165265  0.788723  1
  Li  Li5  1  0.335182  0.167591  0.791473  1
  Li  Li6  1  0.336316  0.668158  0.665912  1
  Li  Li7  1  0.667128  0.333563  0.168850  1
  La  La8  1  0.516083  0.025341  0.492397  1
  La  La9  1  0.516083  0.490742  0.492397  1
  La  La10  1  0.972286  0.486144  0.490395  1
  La  La11  1  0.492098  0.978546  0.997796  1
  La  La12  1  0.492098  0.513552  0.997796  1
  Nd  Nd13  1  0.018389  0.509194  0.000306  1
  Nd  Nd14  1  0.995168  0.997584  0.494143  1
  Nd  Nd15  1  0.995559  0.997780  0.003992  1
  Sn  Sn16  1  0.670124  0.835063  0.728845  1
  Sn  Sn17  1  0.836416  0.669400  0.228844  1
  Sn  Sn18  1  0.836416  0.167015  0.228844  1
  Sn  Sn19  1  0.329999  0.164999  0.229740  1
  Sn  Sn20  1  0.330678  0.665339  0.265906  1
  Sn  Sn21  1  0.668477  0.334238  0.768471  1
  Bi  Bi22  1  0.164631  0.331795  0.733007  1
  Bi  Bi23  1  0.164631  0.832838  0.733007  1
