# generated using pymatgen
data_MgGa(TcSn4)2
_symmetry_space_group_name_H-M   'P 1'
_cell_length_a   7.38944654
_cell_length_b   7.38944683
_cell_length_c   7.38944711
_cell_angle_alpha   123.77995261
_cell_angle_beta   123.77996363
_cell_angle_gamma   83.56881435
_symmetry_Int_Tables_number   1
_chemical_formula_structural   MgGa(TcSn4)2
_chemical_formula_sum   'Mg1 Ga1 Tc2 Sn8'
_cell_volume   267.16727733
_cell_formula_units_Z   1
loop_
 _symmetry_equiv_pos_site_id
 _symmetry_equiv_pos_as_xyz
  1  'x, y, z'
loop_
 _atom_site_type_symbol
 _atom_site_label
 _atom_site_symmetry_multiplicity
 _atom_site_fract_x
 _atom_site_fract_y
 _atom_site_fract_z
 _atom_site_occupancy
  Mg  Mg0  1  0.500000  0.500000  0.000000  1
  Ga  Ga1  1  0.000000  0.000000  0.000000  1
  Tc  Tc2  1  0.763005  0.763005  0.000000  1
  Tc  Tc3  1  0.236995  0.236995  0.000000  1
  Sn  Sn4  1  0.703539  0.510214  0.495074  1
  Sn  Sn5  1  0.510214  0.015141  0.806675  1
  Sn  Sn6  1  0.208465  0.703539  0.193325  1
  Sn  Sn7  1  0.791535  0.296461  0.806675  1
  Sn  Sn8  1  0.489786  0.984859  0.193325  1
  Sn  Sn9  1  0.296461  0.489786  0.504926  1
  Sn  Sn10  1  0.984859  0.791535  0.495074  1
  Sn  Sn11  1  0.015141  0.208465  0.504926  1
