# generated using pymatgen
data_Br(NO3)3
_symmetry_space_group_name_H-M   'P 1'
_cell_length_a   6.31535000
_cell_length_b   10.02099585
_cell_length_c   11.42367200
_cell_angle_alpha   87.00290508
_cell_angle_beta   90.00000000
_cell_angle_gamma   90.00000000
_symmetry_Int_Tables_number   1
_chemical_formula_structural   Br(NO3)3
_chemical_formula_sum   'Br4 N12 O36'
_cell_volume   721.97073082
_cell_formula_units_Z   4
loop_
 _symmetry_equiv_pos_site_id
 _symmetry_equiv_pos_as_xyz
  1  'x, y, z'
loop_
 _atom_site_type_symbol
 _atom_site_label
 _atom_site_symmetry_multiplicity
 _atom_site_fract_x
 _atom_site_fract_y
 _atom_site_fract_z
 _atom_site_occupancy
  Br  Br0  1  0.625324  0.245693  0.723399  1
  Br  Br1  1  0.124805  0.253557  0.276282  1
  Br  Br2  1  0.374676  0.754307  0.276601  1
  Br  Br3  1  0.875195  0.746443  0.723718  1
  N  N4  1  0.319392  0.135100  0.457585  1
  N  N5  1  0.821339  0.363718  0.542521  1
  N  N6  1  0.680608  0.864900  0.542415  1
  N  N7  1  0.178661  0.636282  0.457479  1
  N  N8  1  0.740316  0.197390  0.202115  1
  N  N9  1  0.241106  0.302938  0.797151  1
  N  N10  1  0.259684  0.802610  0.797885  1
  N  N11  1  0.758894  0.697062  0.202849  1
  N  N12  1  0.716332  0.560997  0.901472  1
  N  N13  1  0.216348  0.938791  0.097849  1
  N  N14  1  0.283668  0.439003  0.098528  1
  N  N15  1  0.783652  0.061209  0.902151  1
  O  O16  1  0.388128  0.239799  0.389488  1
  O  O17  1  0.888715  0.258811  0.610820  1
  O  O18  1  0.611872  0.760201  0.610512  1
  O  O19  1  0.111285  0.741189  0.389180  1
  O  O20  1  0.157263  0.077315  0.421369  1
  O  O21  1  0.658751  0.421745  0.577910  1
  O  O22  1  0.842737  0.922685  0.578631  1
  O  O23  1  0.341249  0.578255  0.422090  1
  O  O24  1  0.415507  0.104635  0.547234  1
  O  O25  1  0.919242  0.394068  0.453442  1
  O  O26  1  0.584493  0.895365  0.452766  1
  O  O27  1  0.080758  0.605932  0.546558  1
  O  O28  1  0.825238  0.108156  0.268064  1
  O  O29  1  0.325879  0.391557  0.730460  1
  O  O30  1  0.174762  0.891844  0.731936  1
  O  O31  1  0.674121  0.608443  0.269540  1
  O  O32  1  0.560821  0.196061  0.163841  1
  O  O33  1  0.061883  0.304768  0.835778  1
  O  O34  1  0.439179  0.803939  0.836159  1
  O  O35  1  0.938117  0.695232  0.164222  1
  O  O36  1  0.863727  0.303405  0.172698  1
  O  O37  1  0.364314  0.196930  0.826983  1
  O  O38  1  0.136273  0.696595  0.827302  1
  O  O39  1  0.635686  0.803070  0.173017  1
  O  O40  1  0.773373  0.575608  0.773479  1
  O  O41  1  0.273123  0.924855  0.225904  1
  O  O42  1  0.226627  0.424392  0.226521  1
  O  O43  1  0.726877  0.075145  0.774096  1
  O  O44  1  0.654837  0.448672  0.925034  1
  O  O45  1  0.156580  0.051345  0.073592  1
  O  O46  1  0.345163  0.551328  0.074966  1
  O  O47  1  0.843420  0.948655  0.926408  1
  O  O48  1  0.743280  0.656399  0.959380  1
  O  O49  1  0.241704  0.842756  0.040527  1
  O  O50  1  0.256720  0.343601  0.040620  1
  O  O51  1  0.758296  0.157244  0.959473  1
