# generated using pymatgen
data_Tb20Cd6CoRe
_symmetry_space_group_name_H-M   'P 1'
_cell_length_a   9.60618800
_cell_length_b   9.60618814
_cell_length_c   9.94832500
_cell_angle_alpha   90.00000000
_cell_angle_beta   90.00000000
_cell_angle_gamma   119.99999953
_symmetry_Int_Tables_number   1
_chemical_formula_structural   Tb20Cd6CoRe
_chemical_formula_sum   'Tb20 Cd6 Co1 Re1'
_cell_volume   795.02862987
_cell_formula_units_Z   1
loop_
 _symmetry_equiv_pos_site_id
 _symmetry_equiv_pos_as_xyz
  1  'x, y, z'
loop_
 _atom_site_type_symbol
 _atom_site_label
 _atom_site_symmetry_multiplicity
 _atom_site_fract_x
 _atom_site_fract_y
 _atom_site_fract_z
 _atom_site_occupancy
  Tb  Tb0  1  0.000000  0.000000  0.499504  1
  Tb  Tb1  1  0.000000  0.000000  0.000496  1
  Tb  Tb2  1  0.539935  0.460065  0.250000  1
  Tb  Tb3  1  0.539935  0.079869  0.250000  1
  Tb  Tb4  1  0.920131  0.460065  0.250000  1
  Tb  Tb5  1  0.457998  0.542002  0.750000  1
  Tb  Tb6  1  0.457998  0.915997  0.750000  1
  Tb  Tb7  1  0.084003  0.542002  0.750000  1
  Tb  Tb8  1  0.209025  0.790975  0.440204  1
  Tb  Tb9  1  0.209025  0.418051  0.440204  1
  Tb  Tb10  1  0.581949  0.790975  0.440204  1
  Tb  Tb11  1  0.787488  0.212512  0.564470  1
  Tb  Tb12  1  0.787488  0.574975  0.564470  1
  Tb  Tb13  1  0.425025  0.212512  0.564470  1
  Tb  Tb14  1  0.787488  0.212512  0.935530  1
  Tb  Tb15  1  0.787488  0.574975  0.935530  1
  Tb  Tb16  1  0.425025  0.212512  0.935530  1
  Tb  Tb17  1  0.209025  0.790975  0.059796  1
  Tb  Tb18  1  0.209025  0.418051  0.059796  1
  Tb  Tb19  1  0.581949  0.790975  0.059796  1
  Cd  Cd20  1  0.885721  0.114279  0.250000  1
  Cd  Cd21  1  0.885721  0.771443  0.250000  1
  Cd  Cd22  1  0.228557  0.114279  0.250000  1
  Cd  Cd23  1  0.113883  0.886117  0.750000  1
  Cd  Cd24  1  0.113883  0.227766  0.750000  1
  Cd  Cd25  1  0.772234  0.886117  0.750000  1
  Co  Co26  1  0.666667  0.333333  0.750000  1
  Re  Re27  1  0.333333  0.666667  0.250000  1
