# generated using pymatgen
data_Tb2Ta2C3O
_symmetry_space_group_name_H-M   'P 1'
_cell_length_a   11.08300822
_cell_length_b   11.08300814
_cell_length_c   11.08300664
_cell_angle_alpha   17.27754664
_cell_angle_beta   17.27754778
_cell_angle_gamma   17.27754872
_symmetry_Int_Tables_number   1
_chemical_formula_structural   Tb2Ta2C3O
_chemical_formula_sum   'Tb2 Ta2 C3 O1'
_cell_volume   104.78438411
_cell_formula_units_Z   1
loop_
 _symmetry_equiv_pos_site_id
 _symmetry_equiv_pos_as_xyz
  1  'x, y, z'
loop_
 _atom_site_type_symbol
 _atom_site_label
 _atom_site_symmetry_multiplicity
 _atom_site_fract_x
 _atom_site_fract_y
 _atom_site_fract_z
 _atom_site_occupancy
  Tb  Tb0  1  0.380963  0.380963  0.380963  1
  Tb  Tb1  1  0.619037  0.619037  0.619037  1
  Ta  Ta2  1  0.870588  0.870588  0.870588  1
  Ta  Ta3  1  0.129412  0.129412  0.129412  1
  C  C4  1  0.242020  0.242020  0.242020  1
  C  C5  1  0.500000  0.500000  0.500000  1
  C  C6  1  0.757980  0.757980  0.757980  1
  O  O7  1  0.000000  0.000000  0.000000  1
