# generated using pymatgen
data_Nb2Cd(FeO4)2
_symmetry_space_group_name_H-M   'P 1'
_cell_length_a   10.46257439
_cell_length_b   10.46266609
_cell_length_c   5.33185473
_cell_angle_alpha   89.43153482
_cell_angle_beta   89.43187281
_cell_angle_gamma   34.43181826
_symmetry_Int_Tables_number   1
_chemical_formula_structural   Nb2Cd(FeO4)2
_chemical_formula_sum   'Nb4 Cd2 Fe4 O16'
_cell_volume   329.99770877
_cell_formula_units_Z   2
loop_
 _symmetry_equiv_pos_site_id
 _symmetry_equiv_pos_as_xyz
  1  'x, y, z'
loop_
 _atom_site_type_symbol
 _atom_site_label
 _atom_site_symmetry_multiplicity
 _atom_site_fract_x
 _atom_site_fract_y
 _atom_site_fract_z
 _atom_site_occupancy
  Nb  Nb0  1  0.719017  0.041872  0.265681  1
  Nb  Nb1  1  0.958135  0.280991  0.234310  1
  Nb  Nb2  1  0.280976  0.958132  0.734316  1
  Nb  Nb3  1  0.041861  0.719015  0.765692  1
  Cd  Cd4  1  0.330277  0.669722  0.250000  1
  Cd  Cd5  1  0.669722  0.330279  0.749999  1
  Fe  Fe6  1  0.599512  0.860921  0.247919  1
  Fe  Fe7  1  0.139099  0.400474  0.252086  1
  Fe  Fe8  1  0.400490  0.139080  0.752054  1
  Fe  Fe9  1  0.860903  0.599523  0.747945  1
  O  O10  1  0.824478  0.024318  0.936734  1
  O  O11  1  0.975695  0.175510  0.563257  1
  O  O12  1  0.175524  0.975682  0.063263  1
  O  O13  1  0.024305  0.824489  0.436744  1
  O  O14  1  0.568709  0.304225  0.395958  1
  O  O15  1  0.695785  0.431287  0.104044  1
  O  O16  1  0.431290  0.695777  0.604042  1
  O  O17  1  0.304214  0.568714  0.895955  1
  O  O18  1  0.706800  0.921053  0.553772  1
  O  O19  1  0.078970  0.293175  0.946190  1
  O  O20  1  0.153633  0.460860  0.625549  1
  O  O21  1  0.539146  0.846371  0.874446  1
  O  O22  1  0.846361  0.539136  0.374473  1
  O  O23  1  0.460855  0.153636  0.125535  1
  O  O24  1  0.921039  0.706821  0.053815  1
  O  O25  1  0.293206  0.078936  0.446219  1
