# generated using pymatgen
data_Ti8Al15Pt3Rh4
_symmetry_space_group_name_H-M   'P 1'
_cell_length_a   8.67200814
_cell_length_b   8.65919786
_cell_length_c   8.67200753
_cell_angle_alpha   120.01174558
_cell_angle_beta   119.96626196
_cell_angle_gamma   90.06147434
_symmetry_Int_Tables_number   1
_chemical_formula_structural   Ti8Al15Pt3Rh4
_chemical_formula_sum   'Ti8 Al15 Pt3 Rh4'
_cell_volume   460.37626370
_cell_formula_units_Z   1
loop_
 _symmetry_equiv_pos_site_id
 _symmetry_equiv_pos_as_xyz
  1  'x, y, z'
loop_
 _atom_site_type_symbol
 _atom_site_label
 _atom_site_symmetry_multiplicity
 _atom_site_fract_x
 _atom_site_fract_y
 _atom_site_fract_z
 _atom_site_occupancy
  Ti  Ti0  1  0.788701  0.289755  0.074478  1
  Ti  Ti1  1  0.215277  0.289755  0.501054  1
  Ti  Ti2  1  0.210249  0.710873  0.500624  1
  Ti  Ti3  1  0.214107  0.714579  0.923625  1
  Ti  Ti4  1  0.790953  0.714579  0.500471  1
  Ti  Ti5  1  0.784844  0.284985  0.500141  1
  Ti  Ti6  1  0.380040  0.121992  0.741953  1
  Ti  Ti7  1  0.376899  0.636389  0.259491  1
  Al  Al8  1  0.997780  0.496860  0.499080  1
  Al  Al9  1  0.154441  0.343992  0.189550  1
  Al  Al10  1  0.154141  0.967624  0.813483  1
  Al  Al11  1  0.150791  0.346861  0.808731  1
  Al  Al12  1  0.538129  0.346861  0.196070  1
  Al  Al13  1  0.844906  0.653628  0.808723  1
  Al  Al14  1  0.848033  0.038239  0.190206  1
  Al  Al15  1  0.845988  0.652628  0.186389  1
  Al  Al16  1  0.466239  0.652628  0.806640  1
  Al  Al17  1  0.376413  0.123790  0.261280  1
  Al  Al18  1  0.862510  0.123790  0.747377  1
  Al  Al19  1  0.620189  0.878539  0.258350  1
  Al  Al20  1  0.623012  0.363698  0.740687  1
  Al  Al21  1  0.624212  0.876370  0.740532  1
  Al  Al22  1  0.135837  0.876370  0.252158  1
  Pt  Pt23  1  0.999060  0.998805  0.499013  1
  Pt  Pt24  1  0.499792  0.998805  0.999745  1
  Pt  Pt25  1  0.499056  0.500093  0.001037  1
  Rh  Rh26  1  0.498935  0.499562  0.498917  1
  Rh  Rh27  1  0.000645  0.499562  0.000627  1
  Rh  Rh28  1  0.000313  0.999797  0.999484  1
  Rh  Rh29  1  0.498505  0.998589  0.500084  1
