# generated using pymatgen
data_Cs6Na4VInP6
_symmetry_space_group_name_H-M   'P 1'
_cell_length_a   10.65743393
_cell_length_b   10.65743512
_cell_length_c   16.67827000
_cell_angle_alpha   90.00000000
_cell_angle_beta   90.00000000
_cell_angle_gamma   142.65223862
_symmetry_Int_Tables_number   1
_chemical_formula_structural   Cs6Na4VInP6
_chemical_formula_sum   'Cs12 Na8 V2 In2 P12'
_cell_volume   1149.19961704
_cell_formula_units_Z   2
loop_
 _symmetry_equiv_pos_site_id
 _symmetry_equiv_pos_as_xyz
  1  'x, y, z'
loop_
 _atom_site_type_symbol
 _atom_site_label
 _atom_site_symmetry_multiplicity
 _atom_site_fract_x
 _atom_site_fract_y
 _atom_site_fract_z
 _atom_site_occupancy
  Cs  Cs0  1  0.945160  0.608626  0.827873  1
  Cs  Cs1  1  0.554840  0.891374  0.327873  1
  Cs  Cs2  1  0.391374  0.054840  0.172127  1
  Cs  Cs3  1  0.059693  0.393004  0.171473  1
  Cs  Cs4  1  0.893004  0.559693  0.328527  1
  Cs  Cs5  1  0.440307  0.106996  0.671473  1
  Cs  Cs6  1  0.606996  0.940307  0.828527  1
  Cs  Cs7  1  0.276263  0.273665  0.318148  1
  Cs  Cs8  1  0.773665  0.776263  0.181852  1
  Cs  Cs9  1  0.223737  0.226335  0.818148  1
  Cs  Cs10  1  0.726335  0.723737  0.681852  1
  Cs  Cs11  1  0.108626  0.445160  0.672127  1
  Na  Na12  1  0.920200  0.079800  0.000000  1
  Na  Na13  1  0.579800  0.420200  0.500000  1
  Na  Na14  1  0.079082  0.920918  0.000000  1
  Na  Na15  1  0.420918  0.579082  0.500000  1
  Na  Na16  1  0.755479  0.244521  0.000000  1
  Na  Na17  1  0.744521  0.255479  0.500000  1
  Na  Na18  1  0.247075  0.752925  0.000000  1
  Na  Na19  1  0.252925  0.747075  0.500000  1
  V  V20  1  0.580763  0.419237  0.000000  1
  V  V21  1  0.919237  0.080763  0.500000  1
  In  In22  1  0.415595  0.584405  0.000000  1
  In  In23  1  0.084405  0.915595  0.500000  1
  P  P24  1  0.840336  0.545077  0.080112  1
  P  P25  1  0.454923  0.159664  0.919888  1
  P  P26  1  0.659664  0.954923  0.580112  1
  P  P27  1  0.935263  0.620136  0.594256  1
  P  P28  1  0.120136  0.435263  0.905744  1
  P  P29  1  0.564737  0.879864  0.094256  1
  P  P30  1  0.379864  0.064737  0.405744  1
  P  P31  1  0.182943  0.203511  0.581497  1
  P  P32  1  0.703511  0.682943  0.918503  1
  P  P33  1  0.317057  0.296489  0.081497  1
  P  P34  1  0.045077  0.340336  0.419888  1
  P  P35  1  0.796489  0.817057  0.418503  1
