# generated using pymatgen
data_YMnCo4P3
_symmetry_space_group_name_H-M   'P 1'
_cell_length_a   3.64772100
_cell_length_b   10.31352900
_cell_length_c   11.80010100
_cell_angle_alpha   90.00000000
_cell_angle_beta   90.00000000
_cell_angle_gamma   90.00000000
_symmetry_Int_Tables_number   1
_chemical_formula_structural   YMnCo4P3
_chemical_formula_sum   'Y4 Mn4 Co16 P12'
_cell_volume   443.93014025
_cell_formula_units_Z   4
loop_
 _symmetry_equiv_pos_site_id
 _symmetry_equiv_pos_as_xyz
  1  'x, y, z'
loop_
 _atom_site_type_symbol
 _atom_site_label
 _atom_site_symmetry_multiplicity
 _atom_site_fract_x
 _atom_site_fract_y
 _atom_site_fract_z
 _atom_site_occupancy
  Y  Y0  1  0.250000  0.917798  0.204197  1
  Y  Y1  1  0.750000  0.082202  0.795803  1
  Y  Y2  1  0.750000  0.417798  0.295803  1
  Y  Y3  1  0.250000  0.582202  0.704197  1
  Mn  Mn4  1  0.250000  0.790515  0.488625  1
  Mn  Mn5  1  0.750000  0.209485  0.511375  1
  Mn  Mn6  1  0.750000  0.290515  0.011375  1
  Mn  Mn7  1  0.250000  0.709485  0.988625  1
  Co  Co8  1  0.250000  0.093717  0.988138  1
  Co  Co9  1  0.750000  0.906283  0.011862  1
  Co  Co10  1  0.750000  0.593717  0.511862  1
  Co  Co11  1  0.250000  0.406283  0.488138  1
  Co  Co12  1  0.250000  0.278857  0.676588  1
  Co  Co13  1  0.750000  0.721143  0.323412  1
  Co  Co14  1  0.750000  0.778857  0.823412  1
  Co  Co15  1  0.250000  0.221143  0.176588  1
  Co  Co16  1  0.250000  0.616689  0.198914  1
  Co  Co17  1  0.750000  0.383311  0.801086  1
  Co  Co18  1  0.750000  0.116689  0.301086  1
  Co  Co19  1  0.250000  0.883311  0.698914  1
  Co  Co20  1  0.250000  0.034214  0.432491  1
  Co  Co21  1  0.750000  0.965786  0.567509  1
  Co  Co22  1  0.750000  0.534214  0.067509  1
  Co  Co23  1  0.250000  0.465786  0.932491  1
  P  P24  1  0.250000  0.080936  0.612507  1
  P  P25  1  0.750000  0.919064  0.387493  1
  P  P26  1  0.750000  0.580936  0.887493  1
  P  P27  1  0.250000  0.419064  0.112507  1
  P  P28  1  0.250000  0.229992  0.367951  1
  P  P29  1  0.750000  0.770008  0.632049  1
  P  P30  1  0.750000  0.729992  0.132049  1
  P  P31  1  0.250000  0.270008  0.867951  1
  P  P32  1  0.250000  0.899291  0.891505  1
  P  P33  1  0.750000  0.100709  0.108495  1
  P  P34  1  0.750000  0.399291  0.608495  1
  P  P35  1  0.250000  0.600709  0.391505  1
