# generated using pymatgen
data_AlZnRhS4
_symmetry_space_group_name_H-M   'P 1'
_cell_length_a   7.08743706
_cell_length_b   7.08743585
_cell_length_c   7.08743559
_cell_angle_alpha   120.30420803
_cell_angle_beta   119.21944148
_cell_angle_gamma   90.41557556
_symmetry_Int_Tables_number   1
_chemical_formula_structural   AlZnRhS4
_chemical_formula_sum   'Al2 Zn2 Rh2 S8'
_cell_volume   252.61117666
_cell_formula_units_Z   2
loop_
 _symmetry_equiv_pos_site_id
 _symmetry_equiv_pos_as_xyz
  1  'x, y, z'
loop_
 _atom_site_type_symbol
 _atom_site_label
 _atom_site_symmetry_multiplicity
 _atom_site_fract_x
 _atom_site_fract_y
 _atom_site_fract_z
 _atom_site_occupancy
  Al  Al0  1  0.000000  0.500000  0.000000  1
  Al  Al1  1  0.000000  0.000000  0.500000  1
  Zn  Zn2  1  0.377541  0.127541  0.250000  1
  Zn  Zn3  1  0.622459  0.872459  0.750000  1
  Rh  Rh4  1  0.500000  0.500000  0.000000  1
  Rh  Rh5  1  0.000000  0.500000  0.500000  1
  S  S6  1  0.761095  0.735333  0.474239  1
  S  S7  1  0.761095  0.286856  0.025761  1
  S  S8  1  0.219068  0.739595  0.479474  1
  S  S9  1  0.760120  0.739595  0.020526  1
  S  S10  1  0.238905  0.264667  0.525761  1
  S  S11  1  0.238905  0.713144  0.974239  1
  S  S12  1  0.780932  0.260405  0.520526  1
  S  S13  1  0.239880  0.260405  0.979474  1
