# generated using pymatgen
data_LiScNi3P7Ru9
_symmetry_space_group_name_H-M   'P 1'
_cell_length_a   9.33472300
_cell_length_b   9.33472339
_cell_length_c   3.76155800
_cell_angle_alpha   90.00000000
_cell_angle_beta   90.00000000
_cell_angle_gamma   119.99999506
_symmetry_Int_Tables_number   1
_chemical_formula_structural   LiScNi3P7Ru9
_chemical_formula_sum   'Li1 Sc1 Ni3 P7 Ru9'
_cell_volume   283.85810861
_cell_formula_units_Z   1
loop_
 _symmetry_equiv_pos_site_id
 _symmetry_equiv_pos_as_xyz
  1  'x, y, z'
loop_
 _atom_site_type_symbol
 _atom_site_label
 _atom_site_symmetry_multiplicity
 _atom_site_fract_x
 _atom_site_fract_y
 _atom_site_fract_z
 _atom_site_occupancy
  Li  Li0  1  0.333333  0.666667  0.000000  1
  Sc  Sc1  1  0.666667  0.333333  0.500000  1
  Ni  Ni2  1  0.725680  0.886354  0.000000  1
  Ni  Ni3  1  0.113646  0.839325  0.000000  1
  Ni  Ni4  1  0.160675  0.274320  0.000000  1
  P  P5  1  0.592957  0.713415  0.500000  1
  P  P6  1  0.000000  0.000000  0.000000  1
  P  P7  1  0.286585  0.879542  0.500000  1
  P  P8  1  0.120458  0.407043  0.500000  1
  P  P9  1  0.887099  0.584860  0.000000  1
  P  P10  1  0.415140  0.302239  0.000000  1
  P  P11  1  0.697761  0.112901  0.000000  1
  Ru  Ru12  1  0.564139  0.950115  0.500000  1
  Ru  Ru13  1  0.385978  0.435861  0.500000  1
  Ru  Ru14  1  0.918585  0.121791  0.500000  1
  Ru  Ru15  1  0.203205  0.081415  0.500000  1
  Ru  Ru16  1  0.878209  0.796795  0.500000  1
  Ru  Ru17  1  0.427616  0.065216  0.000000  1
  Ru  Ru18  1  0.934784  0.362401  0.000000  1
  Ru  Ru19  1  0.637599  0.572384  0.000000  1
  Ru  Ru20  1  0.049885  0.614022  0.500000  1
