# generated using pymatgen
data_Y6Ga4Pt13
_symmetry_space_group_name_H-M   'P 1'
_cell_length_a   8.27720993
_cell_length_b   8.27721051
_cell_length_c   8.27721000
_cell_angle_alpha   109.47122674
_cell_angle_beta   109.47122815
_cell_angle_gamma   109.47121171
_symmetry_Int_Tables_number   1
_chemical_formula_structural   Y6Ga4Pt13
_chemical_formula_sum   'Y6 Ga4 Pt13'
_cell_volume   436.54601521
_cell_formula_units_Z   1
loop_
 _symmetry_equiv_pos_site_id
 _symmetry_equiv_pos_as_xyz
  1  'x, y, z'
loop_
 _atom_site_type_symbol
 _atom_site_label
 _atom_site_symmetry_multiplicity
 _atom_site_fract_x
 _atom_site_fract_y
 _atom_site_fract_z
 _atom_site_occupancy
  Y  Y0  1  0.698572  0.698572  0.000000  1
  Y  Y1  1  0.301428  0.000000  0.301428  1
  Y  Y2  1  0.000000  0.301428  0.301428  1
  Y  Y3  1  0.301428  0.301428  0.000000  1
  Y  Y4  1  0.698572  0.000000  0.698572  1
  Y  Y5  1  0.000000  0.698572  0.698572  1
  Ga  Ga6  1  0.000000  0.000000  0.500000  1
  Ga  Ga7  1  0.000000  0.500000  0.000000  1
  Ga  Ga8  1  0.500000  0.000000  0.000000  1
  Ga  Ga9  1  0.500000  0.500000  0.500000  1
  Pt  Pt10  1  0.321348  0.321348  0.642697  1
  Pt  Pt11  1  0.678652  0.000000  0.321348  1
  Pt  Pt12  1  0.000000  0.678652  0.321348  1
  Pt  Pt13  1  0.678652  0.321348  0.000000  1
  Pt  Pt14  1  0.321348  0.642697  0.321348  1
  Pt  Pt15  1  0.000000  0.321348  0.678652  1
  Pt  Pt16  1  0.321348  0.678652  0.000000  1
  Pt  Pt17  1  0.321348  0.000000  0.678652  1
  Pt  Pt18  1  0.642697  0.321348  0.321348  1
  Pt  Pt19  1  0.678652  0.678652  0.357303  1
  Pt  Pt20  1  0.678652  0.357303  0.678652  1
  Pt  Pt21  1  0.357303  0.678652  0.678652  1
  Pt  Pt22  1  0.000000  0.000000  0.000000  1
