# generated using pymatgen
data_Ho8Ta4Ti8Si15As
_symmetry_space_group_name_H-M   'P 1'
_cell_length_a   7.03549533
_cell_length_b   7.03468090
_cell_length_c   12.94281680
_cell_angle_alpha   89.99407915
_cell_angle_beta   89.92070017
_cell_angle_gamma   89.96586552
_symmetry_Int_Tables_number   1
_chemical_formula_structural   Ho8Ta4Ti8Si15As
_chemical_formula_sum   'Ho8 Ta4 Ti8 Si15 As1'
_cell_volume   640.57117183
_cell_formula_units_Z   1
loop_
 _symmetry_equiv_pos_site_id
 _symmetry_equiv_pos_as_xyz
  1  'x, y, z'
loop_
 _atom_site_type_symbol
 _atom_site_label
 _atom_site_symmetry_multiplicity
 _atom_site_fract_x
 _atom_site_fract_y
 _atom_site_fract_z
 _atom_site_occupancy
  Ho  Ho0  1  0.341292  0.000773  0.466235  1
  Ho  Ho1  1  0.498356  0.841555  0.717858  1
  Ho  Ho2  1  0.501544  0.158922  0.216938  1
  Ho  Ho3  1  0.840525  0.497927  0.282815  1
  Ho  Ho4  1  0.159072  0.500609  0.782929  1
  Ho  Ho5  1  0.660557  0.996191  0.967948  1
  Ho  Ho6  1  0.999045  0.343158  0.531686  1
  Ho  Ho7  1  0.998584  0.659339  0.033016  1
  Ta  Ta8  1  0.325925  0.326901  0.999893  1
  Ta  Ta9  1  0.173011  0.827315  0.249972  1
  Ta  Ta10  1  0.823450  0.173999  0.750059  1
  Ta  Ta11  1  0.673159  0.673032  0.500113  1
  Ti  Ti12  1  0.154392  0.009683  0.874926  1
  Ti  Ti13  1  0.491180  0.652814  0.125009  1
  Ti  Ti14  1  0.509640  0.347250  0.626123  1
  Ti  Ti15  1  0.654643  0.493932  0.875382  1
  Ti  Ti16  1  0.346676  0.508492  0.375032  1
  Ti  Ti17  1  0.846889  0.991525  0.375185  1
  Ti  Ti18  1  0.008553  0.152470  0.124892  1
  Ti  Ti19  1  0.988847  0.843109  0.623701  1
  Si  Si20  1  0.369059  0.702860  0.933534  1
  Si  Si21  1  0.629399  0.297650  0.434143  1
  Si  Si22  1  0.702535  0.369443  0.066371  1
  Si  Si23  1  0.297578  0.630625  0.566152  1
  Si  Si24  1  0.797635  0.869192  0.184090  1
  Si  Si25  1  0.130358  0.202555  0.316301  1
  Si  Si26  1  0.870211  0.797660  0.815926  1
  Si  Si27  1  0.292693  0.953770  0.063778  1
  Si  Si28  1  0.546349  0.792156  0.313741  1
  Si  Si29  1  0.461749  0.209285  0.818672  1
  Si  Si30  1  0.792252  0.546506  0.686131  1
  Si  Si31  1  0.207475  0.453612  0.186248  1
  Si  Si32  1  0.707103  0.046291  0.563730  1
  Si  Si33  1  0.953766  0.292604  0.936054  1
  Si  Si34  1  0.046053  0.707611  0.435415  1
  As  As35  1  0.200446  0.129184  0.680004  1
