# generated using pymatgen
data_ErTm5ReBi2
_symmetry_space_group_name_H-M   'P 1'
_cell_length_a   8.17933633
_cell_length_b   8.17933767
_cell_length_c   4.31522900
_cell_angle_alpha   90.00000000
_cell_angle_beta   90.00000000
_cell_angle_gamma   120.02752492
_symmetry_Int_Tables_number   1
_chemical_formula_structural   ErTm5ReBi2
_chemical_formula_sum   'Er1 Tm5 Re1 Bi2'
_cell_volume   249.94828497
_cell_formula_units_Z   1
loop_
 _symmetry_equiv_pos_site_id
 _symmetry_equiv_pos_as_xyz
  1  'x, y, z'
loop_
 _atom_site_type_symbol
 _atom_site_label
 _atom_site_symmetry_multiplicity
 _atom_site_fract_x
 _atom_site_fract_y
 _atom_site_fract_z
 _atom_site_occupancy
  Er  Er0  1  0.385303  0.385303  0.000000  1
  Tm  Tm1  1  0.230903  0.999851  0.500000  1
  Tm  Tm2  1  0.999851  0.230903  0.500000  1
  Tm  Tm3  1  0.767189  0.767189  0.500000  1
  Tm  Tm4  1  0.617997  0.000308  0.000000  1
  Tm  Tm5  1  0.000308  0.617997  0.000000  1
  Re  Re6  1  0.998304  0.998304  0.000000  1
  Bi  Bi7  1  0.332765  0.667379  0.500000  1
  Bi  Bi8  1  0.667379  0.332765  0.500000  1
