# generated using pymatgen
data_Er10Al2GaBi3
_symmetry_space_group_name_H-M   'P 1'
_cell_length_a   8.90509400
_cell_length_b   8.91459997
_cell_length_c   6.39736300
_cell_angle_alpha   90.00000000
_cell_angle_beta   90.00000000
_cell_angle_gamma   120.04949141
_symmetry_Int_Tables_number   1
_chemical_formula_structural   Er10Al2GaBi3
_chemical_formula_sum   'Er10 Al2 Ga1 Bi3'
_cell_volume   439.59747730
_cell_formula_units_Z   1
loop_
 _symmetry_equiv_pos_site_id
 _symmetry_equiv_pos_as_xyz
  1  'x, y, z'
loop_
 _atom_site_type_symbol
 _atom_site_label
 _atom_site_symmetry_multiplicity
 _atom_site_fract_x
 _atom_site_fract_y
 _atom_site_fract_z
 _atom_site_occupancy
  Er  Er0  1  0.014505  0.772672  0.750000  1
  Er  Er1  1  0.998999  0.232153  0.250000  1
  Er  Er2  1  0.751340  0.769024  0.250000  1
  Er  Er3  1  0.753011  0.997732  0.750000  1
  Er  Er4  1  0.242724  0.226738  0.750000  1
  Er  Er5  1  0.249353  0.014256  0.250000  1
  Er  Er6  1  0.345014  0.679891  0.496028  1
  Er  Er7  1  0.647826  0.313201  0.003936  1
  Er  Er8  1  0.647826  0.313201  0.496064  1
  Er  Er9  1  0.345014  0.679891  0.003972  1
  Al  Al10  1  0.398055  0.995585  0.750000  1
  Al  Al11  1  0.394104  0.399957  0.250000  1
  Ga  Ga12  1  0.605404  0.001477  0.250000  1
  Bi  Bi13  1  0.994600  0.608159  0.250000  1
  Bi  Bi14  1  0.002801  0.393354  0.750000  1
  Bi  Bi15  1  0.609428  0.602709  0.750000  1
