# generated using pymatgen
data_Tb7PuGaPd24
_symmetry_space_group_name_H-M   'P 1'
_cell_length_a   8.36659306
_cell_length_b   8.36659312
_cell_length_c   8.36659300
_cell_angle_alpha   89.99302857
_cell_angle_beta   89.99302857
_cell_angle_gamma   89.99302772
_symmetry_Int_Tables_number   1
_chemical_formula_structural   Tb7PuGaPd24
_chemical_formula_sum   'Tb7 Pu1 Ga1 Pd24'
_cell_volume   585.66049285
_cell_formula_units_Z   1
loop_
 _symmetry_equiv_pos_site_id
 _symmetry_equiv_pos_as_xyz
  1  'x, y, z'
loop_
 _atom_site_type_symbol
 _atom_site_label
 _atom_site_symmetry_multiplicity
 _atom_site_fract_x
 _atom_site_fract_y
 _atom_site_fract_z
 _atom_site_occupancy
  Tb  Tb0  1  0.252145  0.252145  0.748583  1
  Tb  Tb1  1  0.252145  0.748583  0.252145  1
  Tb  Tb2  1  0.748583  0.252145  0.252145  1
  Tb  Tb3  1  0.747968  0.747968  0.747968  1
  Tb  Tb4  1  0.747683  0.747683  0.251968  1
  Tb  Tb5  1  0.747683  0.251968  0.747683  1
  Tb  Tb6  1  0.251968  0.747683  0.747683  1
  Pu  Pu7  1  0.251330  0.251330  0.251330  1
  Ga  Ga8  1  0.999925  0.999925  0.999925  1
  Pd  Pd9  1  0.499866  0.499866  0.746916  1
  Pd  Pd10  1  0.498737  0.252973  0.498737  1
  Pd  Pd11  1  0.252973  0.498737  0.498737  1
  Pd  Pd12  1  0.498737  0.498737  0.252973  1
  Pd  Pd13  1  0.499866  0.746916  0.499866  1
  Pd  Pd14  1  0.746916  0.499866  0.499866  1
  Pd  Pd15  1  0.000195  0.000195  0.708568  1
  Pd  Pd16  1  0.000135  0.292020  0.000135  1
  Pd  Pd17  1  0.292020  0.000135  0.000135  1
  Pd  Pd18  1  0.000135  0.000135  0.292020  1
  Pd  Pd19  1  0.000195  0.708568  0.000195  1
  Pd  Pd20  1  0.708568  0.000195  0.000195  1
  Pd  Pd21  1  0.999811  0.499928  0.739956  1
  Pd  Pd22  1  0.498800  0.260348  0.002271  1
  Pd  Pd23  1  0.260348  0.002271  0.498800  1
  Pd  Pd24  1  0.002271  0.260348  0.498800  1
  Pd  Pd25  1  0.499928  0.999811  0.739956  1
  Pd  Pd26  1  0.260348  0.498800  0.002271  1
  Pd  Pd27  1  0.002271  0.498800  0.260348  1
  Pd  Pd28  1  0.499928  0.739956  0.999811  1
  Pd  Pd29  1  0.999811  0.739956  0.499928  1
  Pd  Pd30  1  0.498800  0.002271  0.260348  1
  Pd  Pd31  1  0.739956  0.999811  0.499928  1
  Pd  Pd32  1  0.739956  0.499928  0.999811  1
