# generated using pymatgen
data_Li8Tb2Y6Sn7Sb
_symmetry_space_group_name_H-M   'P 1'
_cell_length_a   9.38448871
_cell_length_b   9.38376512
_cell_length_c   7.30970302
_cell_angle_alpha   90.07469737
_cell_angle_beta   89.92997277
_cell_angle_gamma   119.98101523
_symmetry_Int_Tables_number   1
_chemical_formula_structural   Li8Tb2Y6Sn7Sb
_chemical_formula_sum   'Li8 Tb2 Y6 Sn7 Sb1'
_cell_volume   557.57166569
_cell_formula_units_Z   1
loop_
 _symmetry_equiv_pos_site_id
 _symmetry_equiv_pos_as_xyz
  1  'x, y, z'
loop_
 _atom_site_type_symbol
 _atom_site_label
 _atom_site_symmetry_multiplicity
 _atom_site_fract_x
 _atom_site_fract_y
 _atom_site_fract_z
 _atom_site_occupancy
  Li  Li0  1  0.166945  0.833119  0.191353  1
  Li  Li1  1  0.334246  0.167735  0.690528  1
  Li  Li2  1  0.832233  0.665804  0.690517  1
  Li  Li3  1  0.166794  0.333843  0.191017  1
  Li  Li4  1  0.666118  0.833226  0.191000  1
  Li  Li5  1  0.833066  0.166799  0.691193  1
  Li  Li6  1  0.333762  0.666319  0.815631  1
  Li  Li7  1  0.666660  0.333195  0.315045  1
  Tb  Tb8  1  0.513184  0.486791  0.991869  1
  Tb  Tb9  1  0.024697  0.511164  0.490435  1
  Y  Y10  1  0.488849  0.975281  0.490434  1
  Y  Y11  1  0.515732  0.027064  0.993605  1
  Y  Y12  1  0.972989  0.484287  0.993647  1
  Y  Y13  1  0.486897  0.513179  0.491300  1
  Y  Y14  1  0.998982  0.001036  0.987523  1
  Y  Y15  1  0.999120  0.000879  0.484771  1
  Sn  Sn16  1  0.333105  0.165913  0.257806  1
  Sn  Sn17  1  0.834051  0.666977  0.257731  1
  Sn  Sn18  1  0.166083  0.333191  0.757917  1
  Sn  Sn19  1  0.666811  0.833958  0.757859  1
  Sn  Sn20  1  0.833392  0.166515  0.257067  1
  Sn  Sn21  1  0.332852  0.667212  0.222988  1
  Sn  Sn22  1  0.666807  0.333025  0.722731  1
  Sb  Sb23  1  0.166627  0.833490  0.756041  1
