# generated using pymatgen
data_Sm6YFeBr12
_symmetry_space_group_name_H-M   'P 1'
_cell_length_a   9.39477064
_cell_length_b   9.39476995
_cell_length_c   9.39476943
_cell_angle_alpha   107.10030135
_cell_angle_beta   107.10029906
_cell_angle_gamma   107.10028654
_symmetry_Int_Tables_number   1
_chemical_formula_structural   Sm6YFeBr12
_chemical_formula_sum   'Sm6 Y1 Fe1 Br12'
_cell_volume   688.66628154
_cell_formula_units_Z   1
loop_
 _symmetry_equiv_pos_site_id
 _symmetry_equiv_pos_as_xyz
  1  'x, y, z'
loop_
 _atom_site_type_symbol
 _atom_site_label
 _atom_site_symmetry_multiplicity
 _atom_site_fract_x
 _atom_site_fract_y
 _atom_site_fract_z
 _atom_site_occupancy
  Sm  Sm0  1  0.695814  0.979008  0.903343  1
  Sm  Sm1  1  0.979008  0.903343  0.695814  1
  Sm  Sm2  1  0.096657  0.304186  0.020992  1
  Sm  Sm3  1  0.304186  0.020992  0.096657  1
  Sm  Sm4  1  0.903343  0.695814  0.979008  1
  Sm  Sm5  1  0.020992  0.096657  0.304186  1
  Y  Y6  1  0.500000  0.500000  0.500000  1
  Fe  Fe7  1  0.000000  0.000000  0.000000  1
  Br  Br8  1  0.071900  0.225291  0.682699  1
  Br  Br9  1  0.386867  0.172159  0.462032  1
  Br  Br10  1  0.613133  0.827841  0.537968  1
  Br  Br11  1  0.225291  0.682699  0.071900  1
  Br  Br12  1  0.774709  0.317301  0.928100  1
  Br  Br13  1  0.682699  0.071900  0.225291  1
  Br  Br14  1  0.537968  0.613133  0.827841  1
  Br  Br15  1  0.827841  0.537968  0.613133  1
  Br  Br16  1  0.928100  0.774709  0.317301  1
  Br  Br17  1  0.317301  0.928100  0.774709  1
  Br  Br18  1  0.462032  0.386867  0.172159  1
  Br  Br19  1  0.172159  0.462032  0.386867  1
