# generated using pymatgen
data_SmV3P3Rh2
_symmetry_space_group_name_H-M   'P 1'
_cell_length_a   3.91603500
_cell_length_b   6.88045254
_cell_length_c   9.94373953
_cell_angle_alpha   79.96958373
_cell_angle_beta   90.00000000
_cell_angle_gamma   90.00000000
_symmetry_Int_Tables_number   1
_chemical_formula_structural   SmV3P3Rh2
_chemical_formula_sum   'Sm2 V6 P6 Rh4'
_cell_volume   263.82992345
_cell_formula_units_Z   2
loop_
 _symmetry_equiv_pos_site_id
 _symmetry_equiv_pos_as_xyz
  1  'x, y, z'
loop_
 _atom_site_type_symbol
 _atom_site_label
 _atom_site_symmetry_multiplicity
 _atom_site_fract_x
 _atom_site_fract_y
 _atom_site_fract_z
 _atom_site_occupancy
  Sm  Sm0  1  0.250000  0.804851  0.791534  1
  Sm  Sm1  1  0.750000  0.195149  0.208466  1
  V  V2  1  0.250000  0.610277  0.514684  1
  V  V3  1  0.750000  0.389723  0.485316  1
  V  V4  1  0.250000  0.130103  0.500714  1
  V  V5  1  0.750000  0.869897  0.499286  1
  V  V6  1  0.250000  0.321019  0.724918  1
  V  V7  1  0.750000  0.678981  0.275082  1
  P  P8  1  0.250000  0.256090  0.974241  1
  P  P9  1  0.750000  0.743910  0.025759  1
  P  P10  1  0.250000  0.430279  0.330190  1
  P  P11  1  0.750000  0.569721  0.669810  1
  P  P12  1  0.250000  0.899375  0.339717  1
  P  P13  1  0.750000  0.100625  0.660283  1
  Rh  Rh14  1  0.250000  0.529327  0.095146  1
  Rh  Rh15  1  0.750000  0.470673  0.904854  1
  Rh  Rh16  1  0.250000  0.925302  0.098403  1
  Rh  Rh17  1  0.750000  0.074698  0.901597  1
