# generated using pymatgen
data_TbHo3Co8(PRu)12
_symmetry_space_group_name_H-M   'P 1'
_cell_length_a   3.78482400
_cell_length_b   10.61551036
_cell_length_c   12.10072941
_cell_angle_alpha   90.02989472
_cell_angle_beta   90.00000000
_cell_angle_gamma   90.00000000
_symmetry_Int_Tables_number   1
_chemical_formula_structural   TbHo3Co8(PRu)12
_chemical_formula_sum   'Tb1 Ho3 Co8 P12 Ru12'
_cell_volume   486.18108450
_cell_formula_units_Z   1
loop_
 _symmetry_equiv_pos_site_id
 _symmetry_equiv_pos_as_xyz
  1  'x, y, z'
loop_
 _atom_site_type_symbol
 _atom_site_label
 _atom_site_symmetry_multiplicity
 _atom_site_fract_x
 _atom_site_fract_y
 _atom_site_fract_z
 _atom_site_occupancy
  Tb  Tb0  1  0.250000  0.584432  0.706698  1
  Ho  Ho1  1  0.250000  0.915528  0.206586  1
  Ho  Ho2  1  0.750000  0.415471  0.293362  1
  Ho  Ho3  1  0.750000  0.084512  0.793425  1
  Co  Co4  1  0.250000  0.888168  0.695841  1
  Co  Co5  1  0.250000  0.612082  0.196164  1
  Co  Co6  1  0.750000  0.112093  0.303985  1
  Co  Co7  1  0.750000  0.387446  0.804501  1
  Co  Co8  1  0.250000  0.462763  0.935411  1
  Co  Co9  1  0.250000  0.037075  0.434777  1
  Co  Co10  1  0.750000  0.537021  0.065510  1
  Co  Co11  1  0.750000  0.963162  0.564950  1
  P  P12  1  0.250000  0.425745  0.113202  1
  P  P13  1  0.250000  0.074204  0.612816  1
  P  P14  1  0.750000  0.574359  0.887846  1
  P  P15  1  0.750000  0.925904  0.386955  1
  P  P16  1  0.250000  0.271570  0.871388  1
  P  P17  1  0.250000  0.228313  0.371266  1
  P  P18  1  0.750000  0.728581  0.128614  1
  P  P19  1  0.750000  0.772101  0.628285  1
  P  P20  1  0.250000  0.600969  0.386761  1
  P  P21  1  0.250000  0.898984  0.886794  1
  P  P22  1  0.750000  0.398382  0.612819  1
  P  P23  1  0.750000  0.101025  0.113220  1
  Ru  Ru24  1  0.250000  0.706277  0.986517  1
  Ru  Ru25  1  0.250000  0.793797  0.486279  1
  Ru  Ru26  1  0.750000  0.293601  0.013697  1
  Ru  Ru27  1  0.750000  0.206074  0.513446  1
  Ru  Ru28  1  0.250000  0.405237  0.485379  1
  Ru  Ru29  1  0.250000  0.094437  0.985579  1
  Ru  Ru30  1  0.750000  0.594442  0.513508  1
  Ru  Ru31  1  0.750000  0.905629  0.014521  1
  Ru  Ru32  1  0.250000  0.223923  0.180565  1
  Ru  Ru33  1  0.250000  0.275771  0.680519  1
  Ru  Ru34  1  0.750000  0.776643  0.819578  1
  Ru  Ru35  1  0.750000  0.724282  0.319236  1
