# generated using pymatgen
data_Nd20Co3Bi8Ru
_symmetry_space_group_name_H-M   'P 1'
_cell_length_a   8.34138496
_cell_length_b   9.12205900
_cell_length_c   12.83104727
_cell_angle_alpha   90.00000000
_cell_angle_beta   90.19839268
_cell_angle_gamma   90.00000000
_symmetry_Int_Tables_number   1
_chemical_formula_structural   Nd20Co3Bi8Ru
_chemical_formula_sum   'Nd20 Co3 Bi8 Ru1'
_cell_volume   976.31630662
_cell_formula_units_Z   1
loop_
 _symmetry_equiv_pos_site_id
 _symmetry_equiv_pos_as_xyz
  1  'x, y, z'
loop_
 _atom_site_type_symbol
 _atom_site_label
 _atom_site_symmetry_multiplicity
 _atom_site_fract_x
 _atom_site_fract_y
 _atom_site_fract_z
 _atom_site_occupancy
  Nd  Nd0  1  0.848433  0.750000  0.797782  1
  Nd  Nd1  1  0.150527  0.250000  0.199663  1
  Nd  Nd2  1  0.349959  0.250000  0.699282  1
  Nd  Nd3  1  0.648942  0.750000  0.296765  1
  Nd  Nd4  1  0.378105  0.750000  0.694375  1
  Nd  Nd5  1  0.621137  0.250000  0.307887  1
  Nd  Nd6  1  0.878736  0.250000  0.809235  1
  Nd  Nd7  1  0.120474  0.750000  0.190661  1
  Nd  Nd8  1  0.950780  0.750000  0.503068  1
  Nd  Nd9  1  0.047599  0.250000  0.496219  1
  Nd  Nd10  1  0.451904  0.250000  0.997255  1
  Nd  Nd11  1  0.549851  0.750000  0.002732  1
  Nd  Nd12  1  0.680315  0.037702  0.565527  1
  Nd  Nd13  1  0.320726  0.967117  0.436633  1
  Nd  Nd14  1  0.178743  0.967467  0.937215  1
  Nd  Nd15  1  0.320726  0.532883  0.436633  1
  Nd  Nd16  1  0.819968  0.033336  0.062929  1
  Nd  Nd17  1  0.680315  0.462298  0.565527  1
  Nd  Nd18  1  0.819968  0.466664  0.062929  1
  Nd  Nd19  1  0.178743  0.532533  0.937215  1
  Co  Co20  1  0.430842  0.250000  0.490535  1
  Co  Co21  1  0.065661  0.250000  0.991374  1
  Co  Co22  1  0.933429  0.750000  0.007359  1
  Bi  Bi23  1  0.574254  0.492476  0.826659  1
  Bi  Bi24  1  0.425234  0.506717  0.173976  1
  Bi  Bi25  1  0.074330  0.506190  0.674606  1
  Bi  Bi26  1  0.425234  0.993283  0.173976  1
  Bi  Bi27  1  0.926268  0.493303  0.324884  1
  Bi  Bi28  1  0.574254  0.007524  0.826659  1
  Bi  Bi29  1  0.926268  0.006697  0.324884  1
  Bi  Bi30  1  0.074330  0.993810  0.674606  1
  Ru  Ru31  1  0.573944  0.750000  0.510950  1
