# generated using pymatgen
data_Tb8Y4Co4BiIr
_symmetry_space_group_name_H-M   'P 1'
_cell_length_a   8.38142782
_cell_length_b   8.38142878
_cell_length_c   8.38142803
_cell_angle_alpha   111.19232131
_cell_angle_beta   110.35446472
_cell_angle_gamma   106.89827908
_symmetry_Int_Tables_number   1
_chemical_formula_structural   Tb8Y4Co4BiIr
_chemical_formula_sum   'Tb8 Y4 Co4 Bi1 Ir1'
_cell_volume   452.53707644
_cell_formula_units_Z   1
loop_
 _symmetry_equiv_pos_site_id
 _symmetry_equiv_pos_as_xyz
  1  'x, y, z'
loop_
 _atom_site_type_symbol
 _atom_site_label
 _atom_site_symmetry_multiplicity
 _atom_site_fract_x
 _atom_site_fract_y
 _atom_site_fract_z
 _atom_site_occupancy
  Tb  Tb0  1  0.687648  0.378096  0.690448  1
  Tb  Tb1  1  0.312352  0.621904  0.309552  1
  Tb  Tb2  1  0.687648  0.997201  0.309552  1
  Tb  Tb3  1  0.312352  0.002799  0.690448  1
  Tb  Tb4  1  0.594581  0.791281  0.803301  1
  Tb  Tb5  1  0.405419  0.208719  0.196699  1
  Tb  Tb6  1  0.987980  0.791281  0.196699  1
  Tb  Tb7  1  0.012020  0.208719  0.803301  1
  Y  Y8  1  0.817846  0.711469  0.529316  1
  Y  Y9  1  0.182154  0.288531  0.470684  1
  Y  Y10  1  0.182154  0.711469  0.893625  1
  Y  Y11  1  0.817846  0.288531  0.106375  1
  Co  Co12  1  0.621807  0.000000  0.621807  1
  Co  Co13  1  0.378193  0.000000  0.378193  1
  Co  Co14  1  0.110356  0.610356  0.500000  1
  Co  Co15  1  0.889644  0.389644  0.500000  1
  Bi  Bi16  1  0.500000  0.500000  0.000000  1
  Ir  Ir17  1  0.000000  0.000000  0.000000  1
