# generated using pymatgen
data_CrCu3(OsO3)8
_symmetry_space_group_name_H-M   'P 1'
_cell_length_a   6.48252501
_cell_length_b   6.48774124
_cell_length_c   10.42315096
_cell_angle_alpha   71.87184673
_cell_angle_beta   71.88662569
_cell_angle_gamma   90.01261825
_symmetry_Int_Tables_number   1
_chemical_formula_structural   CrCu3(OsO3)8
_chemical_formula_sum   'Cr1 Cu3 Os8 O24'
_cell_volume   393.67339615
_cell_formula_units_Z   1
loop_
 _symmetry_equiv_pos_site_id
 _symmetry_equiv_pos_as_xyz
  1  'x, y, z'
loop_
 _atom_site_type_symbol
 _atom_site_label
 _atom_site_symmetry_multiplicity
 _atom_site_fract_x
 _atom_site_fract_y
 _atom_site_fract_z
 _atom_site_occupancy
  Cr  Cr0  1  0.666615  0.666677  0.666703  1
  Cu  Cu1  1  0.417292  0.917653  0.165454  1
  Cu  Cu2  1  0.166801  0.166604  0.666596  1
  Cu  Cu3  1  0.916203  0.416307  0.167881  1
  Os  Os4  1  0.250572  0.750540  0.498781  1
  Os  Os5  1  0.750712  0.250691  0.498599  1
  Os  Os6  1  0.082768  0.582713  0.834517  1
  Os  Os7  1  0.582616  0.082658  0.834774  1
  Os  Os8  1  0.499748  0.499735  0.000529  1
  Os  Os9  1  0.001679  0.001712  0.996651  1
  Os  Os10  1  0.331689  0.331669  0.336676  1
  Os  Os11  1  0.833520  0.833512  0.332830  1
  O  O12  1  0.729208  0.917571  0.164683  1
  O  O13  1  0.227292  0.415584  0.168638  1
  O  O14  1  0.106012  0.917750  0.164688  1
  O  O15  1  0.604122  0.415760  0.168651  1
  O  O16  1  0.166741  0.852763  0.666624  1
  O  O17  1  0.666736  0.356749  0.666678  1
  O  O18  1  0.166567  0.480462  0.666639  1
  O  O19  1  0.666545  0.976560  0.666702  1
  O  O20  1  0.552258  0.749851  0.499960  1
  O  O21  1  0.047663  0.255338  0.489107  1
  O  O22  1  0.385582  0.583159  0.833411  1
  O  O23  1  0.870096  0.077798  0.844204  1
  O  O24  1  0.947706  0.750057  0.499943  1
  O  O25  1  0.463294  0.255535  0.489103  1
  O  O26  1  0.781034  0.583363  0.833403  1
  O  O27  1  0.285704  0.077976  0.844234  1
  O  O28  1  0.325586  0.031280  0.348939  1
  O  O29  1  0.826719  0.536878  0.346635  1
  O  O30  1  0.007925  0.713656  0.984330  1
  O  O31  1  0.506774  0.216902  0.986720  1
  O  O32  1  0.007724  0.302046  0.984391  1
  O  O33  1  0.506585  0.796435  0.986704  1
  O  O34  1  0.325376  0.619729  0.348931  1
  O  O35  1  0.826539  0.116333  0.346693  1
