# generated using pymatgen
data_Ca3Ta3HgSbO14
_symmetry_space_group_name_H-M   'P 1'
_cell_length_a   7.54003264
_cell_length_b   7.36829252
_cell_length_c   7.54003300
_cell_angle_alpha   59.22593830
_cell_angle_beta   60.00000282
_cell_angle_gamma   59.22593733
_symmetry_Int_Tables_number   1
_chemical_formula_structural   Ca3Ta3HgSbO14
_chemical_formula_sum   'Ca3 Ta3 Hg1 Sb1 O14'
_cell_volume   292.69599221
_cell_formula_units_Z   1
loop_
 _symmetry_equiv_pos_site_id
 _symmetry_equiv_pos_as_xyz
  1  'x, y, z'
loop_
 _atom_site_type_symbol
 _atom_site_label
 _atom_site_symmetry_multiplicity
 _atom_site_fract_x
 _atom_site_fract_y
 _atom_site_fract_z
 _atom_site_occupancy
  Ca  Ca0  1  0.125000  0.125000  0.625000  1
  Ca  Ca1  1  0.625000  0.125000  0.125000  1
  Ca  Ca2  1  0.125000  0.125000  0.125000  1
  Ta  Ta3  1  0.625000  0.625000  0.125000  1
  Ta  Ta4  1  0.125000  0.625000  0.625000  1
  Ta  Ta5  1  0.625000  0.625000  0.625000  1
  Hg  Hg6  1  0.125000  0.625000  0.125000  1
  Sb  Sb7  1  0.625000  0.125000  0.625000  1
  O  O8  1  0.312903  0.696886  0.312903  1
  O  O9  1  0.552598  0.950592  0.552598  1
  O  O10  1  0.305789  0.299408  0.697402  1
  O  O11  1  0.697402  0.299408  0.305789  1
  O  O12  1  0.312903  0.696886  0.677308  1
  O  O13  1  0.677308  0.696886  0.312903  1
  O  O14  1  0.944211  0.950592  0.552598  1
  O  O15  1  0.572692  0.553114  0.937097  1
  O  O16  1  0.006133  0.981601  0.006133  1
  O  O17  1  0.243867  0.268399  0.243867  1
  O  O18  1  0.697402  0.299408  0.697402  1
  O  O19  1  0.937097  0.553114  0.572692  1
  O  O20  1  0.552598  0.950592  0.944211  1
  O  O21  1  0.937097  0.553114  0.937097  1
