# generated using pymatgen
data_La3Nd5SnPd24
_symmetry_space_group_name_H-M   'P 1'
_cell_length_a   8.56820427
_cell_length_b   8.56820427
_cell_length_c   8.56762706
_cell_angle_alpha   90.00973547
_cell_angle_beta   89.99026453
_cell_angle_gamma   89.97271736
_symmetry_Int_Tables_number   1
_chemical_formula_structural   La3Nd5SnPd24
_chemical_formula_sum   'La3 Nd5 Sn1 Pd24'
_cell_volume   628.98475012
_cell_formula_units_Z   1
loop_
 _symmetry_equiv_pos_site_id
 _symmetry_equiv_pos_as_xyz
  1  'x, y, z'
loop_
 _atom_site_type_symbol
 _atom_site_label
 _atom_site_symmetry_multiplicity
 _atom_site_fract_x
 _atom_site_fract_y
 _atom_site_fract_z
 _atom_site_occupancy
  La  La0  1  0.253042  0.746958  0.252851  1
  La  La1  1  0.252919  0.747081  0.747211  1
  La  La2  1  0.746813  0.253187  0.253148  1
  Nd  Nd3  1  0.251747  0.251834  0.251949  1
  Nd  Nd4  1  0.747941  0.747799  0.747715  1
  Nd  Nd5  1  0.748166  0.748253  0.251949  1
  Nd  Nd6  1  0.747904  0.252096  0.748096  1
  Nd  Nd7  1  0.252201  0.252059  0.747715  1
  Sn  Sn8  1  0.999802  0.000198  0.999846  1
  Pd  Pd9  1  0.265975  0.499071  0.999844  1
  Pd  Pd10  1  0.733978  0.500179  0.999161  1
  Pd  Pd11  1  0.000559  0.266011  0.500568  1
  Pd  Pd12  1  0.499821  0.266022  0.999161  1
  Pd  Pd13  1  0.998444  0.734064  0.500206  1
  Pd  Pd14  1  0.500929  0.734025  0.999844  1
  Pd  Pd15  1  0.500209  0.000166  0.265988  1
  Pd  Pd16  1  0.265936  0.001556  0.500206  1
  Pd  Pd17  1  0.500561  0.000843  0.733975  1
  Pd  Pd18  1  0.733989  0.999441  0.500568  1
  Pd  Pd19  1  0.999834  0.499791  0.265988  1
  Pd  Pd20  1  0.999157  0.499439  0.733975  1
  Pd  Pd21  1  0.254867  0.498412  0.500099  1
  Pd  Pd22  1  0.745162  0.500637  0.500833  1
  Pd  Pd23  1  0.499363  0.254838  0.500833  1
  Pd  Pd24  1  0.501588  0.745133  0.500099  1
  Pd  Pd25  1  0.500108  0.499892  0.254862  1
  Pd  Pd26  1  0.500847  0.499153  0.745165  1
  Pd  Pd27  1  0.311196  0.001854  0.999918  1
  Pd  Pd28  1  0.688971  0.999186  0.999042  1
  Pd  Pd29  1  0.000814  0.311029  0.999042  1
  Pd  Pd30  1  0.998146  0.688804  0.999918  1
  Pd  Pd31  1  0.999944  0.000056  0.311216  1
  Pd  Pd32  1  0.999067  0.000933  0.689012  1
