# generated using pymatgen
data_Zr5PaAsCl15
_symmetry_space_group_name_H-M   'P 1'
_cell_length_a   9.11788413
_cell_length_b   9.11788156
_cell_length_c   9.11788284
_cell_angle_alpha   110.70089231
_cell_angle_beta   110.70088500
_cell_angle_gamma   107.03891888
_symmetry_Int_Tables_number   1
_chemical_formula_structural   Zr5PaAsCl15
_chemical_formula_sum   'Zr5 Pa1 As1 Cl15'
_cell_volume   582.74142576
_cell_formula_units_Z   1
loop_
 _symmetry_equiv_pos_site_id
 _symmetry_equiv_pos_as_xyz
  1  'x, y, z'
loop_
 _atom_site_type_symbol
 _atom_site_label
 _atom_site_symmetry_multiplicity
 _atom_site_fract_x
 _atom_site_fract_y
 _atom_site_fract_z
 _atom_site_occupancy
  Zr  Zr0  1  0.780396  0.780396  0.000000  1
  Zr  Zr1  1  0.747757  0.990610  0.757147  1
  Zr  Zr2  1  0.990610  0.747757  0.757147  1
  Zr  Zr3  1  0.990610  0.233464  0.242853  1
  Zr  Zr4  1  0.233464  0.990610  0.242853  1
  Pa  Pa5  1  0.272581  0.272581  0.000000  1
  As  As6  1  0.018561  0.018561  0.000000  1
  Cl  Cl7  1  0.757868  0.511123  0.753255  1
  Cl  Cl8  1  0.518328  0.518328  0.000000  1
  Cl  Cl9  1  0.995202  0.495202  0.500000  1
  Cl  Cl10  1  0.495202  0.995202  0.500000  1
  Cl  Cl11  1  0.234654  0.976187  0.741532  1
  Cl  Cl12  1  0.976187  0.234654  0.741532  1
  Cl  Cl13  1  0.757868  0.004611  0.246745  1
  Cl  Cl14  1  0.511123  0.757868  0.753255  1
  Cl  Cl15  1  0.004611  0.757868  0.246745  1
  Cl  Cl16  1  0.246031  0.246031  0.498460  1
  Cl  Cl17  1  0.747570  0.246031  0.000000  1
  Cl  Cl18  1  0.493122  0.234654  0.258468  1
  Cl  Cl19  1  0.234654  0.493122  0.258468  1
  Cl  Cl20  1  0.747570  0.747570  0.501540  1
  Cl  Cl21  1  0.246031  0.747570  0.000000  1
