# generated using pymatgen
data_ErTm11TcOs3
_symmetry_space_group_name_H-M   'P 1'
_cell_length_a   7.35681252
_cell_length_b   8.90292900
_cell_length_c   6.21853105
_cell_angle_alpha   90.00000000
_cell_angle_beta   89.93086228
_cell_angle_gamma   90.00000000
_symmetry_Int_Tables_number   1
_chemical_formula_structural   ErTm11TcOs3
_chemical_formula_sum   'Er1 Tm11 Tc1 Os3'
_cell_volume   407.29594785
_cell_formula_units_Z   1
loop_
 _symmetry_equiv_pos_site_id
 _symmetry_equiv_pos_as_xyz
  1  'x, y, z'
loop_
 _atom_site_type_symbol
 _atom_site_label
 _atom_site_symmetry_multiplicity
 _atom_site_fract_x
 _atom_site_fract_y
 _atom_site_fract_z
 _atom_site_occupancy
  Er  Er0  1  0.040092  0.250000  0.627520  1
  Tm  Tm1  1  0.959656  0.750000  0.370842  1
  Tm  Tm2  1  0.460347  0.750000  0.129398  1
  Tm  Tm3  1  0.539492  0.250000  0.874350  1
  Tm  Tm4  1  0.174642  0.062153  0.164358  1
  Tm  Tm5  1  0.824787  0.938123  0.833619  1
  Tm  Tm6  1  0.325448  0.937515  0.665078  1
  Tm  Tm7  1  0.824787  0.561877  0.833619  1
  Tm  Tm8  1  0.674983  0.062364  0.334689  1
  Tm  Tm9  1  0.174642  0.437847  0.164358  1
  Tm  Tm10  1  0.674983  0.437636  0.334689  1
  Tm  Tm11  1  0.325448  0.562485  0.665078  1
  Tc  Tc12  1  0.382501  0.250000  0.463885  1
  Os  Os13  1  0.618657  0.750000  0.538553  1
  Os  Os14  1  0.117793  0.750000  0.962289  1
  Os  Os15  1  0.881740  0.250000  0.037674  1
