# generated using pymatgen
data_Hf6Zn16Au7Se
_symmetry_space_group_name_H-M   'P 1'
_cell_length_a   8.87568091
_cell_length_b   8.89127276
_cell_length_c   8.89127400
_cell_angle_alpha   60.00004748
_cell_angle_beta   59.94191213
_cell_angle_gamma   59.94189947
_symmetry_Int_Tables_number   1
_chemical_formula_structural   Hf6Zn16Au7Se
_chemical_formula_sum   'Hf6 Zn16 Au7 Se1'
_cell_volume   495.71590763
_cell_formula_units_Z   1
loop_
 _symmetry_equiv_pos_site_id
 _symmetry_equiv_pos_as_xyz
  1  'x, y, z'
loop_
 _atom_site_type_symbol
 _atom_site_label
 _atom_site_symmetry_multiplicity
 _atom_site_fract_x
 _atom_site_fract_y
 _atom_site_fract_z
 _atom_site_occupancy
  Hf  Hf0  1  0.713458  0.287301  0.287303  1
  Hf  Hf1  1  0.286746  0.709550  0.709549  1
  Hf  Hf2  1  0.286747  0.709550  0.294154  1
  Hf  Hf3  1  0.713459  0.287301  0.711938  1
  Hf  Hf4  1  0.286747  0.294155  0.709549  1
  Hf  Hf5  1  0.713459  0.711939  0.287301  1
  Zn  Zn6  1  0.367715  0.877429  0.877429  1
  Zn  Zn7  1  0.497700  0.998600  0.998599  1
  Zn  Zn8  1  0.998874  0.499998  0.499997  1
  Zn  Zn9  1  0.998875  0.499997  0.001130  1
  Zn  Zn10  1  0.497700  0.998600  0.505101  1
  Zn  Zn11  1  0.998875  0.001130  0.499998  1
  Zn  Zn12  1  0.497701  0.505100  0.998600  1
  Zn  Zn13  1  0.337350  0.337021  0.337021  1
  Zn  Zn14  1  0.660431  0.663496  0.663497  1
  Zn  Zn15  1  0.337349  0.337021  0.988609  1
  Zn  Zn16  1  0.337349  0.988609  0.337020  1
  Zn  Zn17  1  0.660433  0.663497  0.012573  1
  Zn  Zn18  1  0.660432  0.012574  0.663497  1
  Zn  Zn19  1  0.989641  0.336786  0.336786  1
  Zn  Zn20  1  0.008280  0.663907  0.663906  1
  Zn  Zn21  1  0.002728  0.999091  0.999091  1
  Au  Au22  1  0.125120  0.118556  0.118556  1
  Au  Au23  1  0.877606  0.878820  0.878821  1
  Au  Au24  1  0.125120  0.118556  0.637769  1
  Au  Au25  1  0.125121  0.637767  0.118556  1
  Au  Au26  1  0.877606  0.878821  0.364751  1
  Au  Au27  1  0.877607  0.364751  0.878820  1
  Au  Au28  1  0.633452  0.122183  0.122183  1
  Se  Se29  1  0.506314  0.497896  0.497895  1
