# generated using pymatgen
data_Ho12TlCo2Ni3
_symmetry_space_group_name_H-M   'P 1'
_cell_length_a   8.26801262
_cell_length_b   8.26739384
_cell_length_c   8.26801200
_cell_angle_alpha   110.96547798
_cell_angle_beta   109.88827188
_cell_angle_gamma   107.58119563
_symmetry_Int_Tables_number   1
_chemical_formula_structural   Ho12TlCo2Ni3
_chemical_formula_sum   'Ho12 Tl1 Co2 Ni3'
_cell_volume   434.64987603
_cell_formula_units_Z   1
loop_
 _symmetry_equiv_pos_site_id
 _symmetry_equiv_pos_as_xyz
  1  'x, y, z'
loop_
 _atom_site_type_symbol
 _atom_site_label
 _atom_site_symmetry_multiplicity
 _atom_site_fract_x
 _atom_site_fract_y
 _atom_site_fract_z
 _atom_site_occupancy
  Ho  Ho0  1  0.815285  0.707162  0.522462  1
  Ho  Ho1  1  0.184715  0.292838  0.477538  1
  Ho  Ho2  1  0.184701  0.707162  0.891876  1
  Ho  Ho3  1  0.815299  0.292838  0.108124  1
  Ho  Ho4  1  0.683836  0.378047  0.694212  1
  Ho  Ho5  1  0.316164  0.621953  0.305788  1
  Ho  Ho6  1  0.683828  0.989624  0.305795  1
  Ho  Ho7  1  0.316172  0.010376  0.694205  1
  Ho  Ho8  1  0.593844  0.786435  0.807423  1
  Ho  Ho9  1  0.406156  0.213565  0.192577  1
  Ho  Ho10  1  0.979013  0.786435  0.192591  1
  Ho  Ho11  1  0.020987  0.213565  0.807409  1
  Tl  Tl12  1  0.500000  0.500000  0.000000  1
  Co  Co13  1  0.114657  0.614631  0.499974  1
  Co  Co14  1  0.885343  0.385369  0.500026  1
  Ni  Ni15  1  0.632630  0.000000  0.632630  1
  Ni  Ni16  1  0.367370  0.000000  0.367370  1
  Ni  Ni17  1  0.000000  0.000000  0.000000  1
