# generated using pymatgen
data_La2Y3ErTa2O14
_symmetry_space_group_name_H-M   'P 1'
_cell_length_a   6.52567112
_cell_length_b   6.53436576
_cell_length_c   7.63586200
_cell_angle_alpha   90.00000000
_cell_angle_beta   90.00000000
_cell_angle_gamma   109.02515082
_symmetry_Int_Tables_number   1
_chemical_formula_structural   La2Y3ErTa2O14
_chemical_formula_sum   'La2 Y3 Er1 Ta2 O14'
_cell_volume   307.81591457
_cell_formula_units_Z   1
loop_
 _symmetry_equiv_pos_site_id
 _symmetry_equiv_pos_as_xyz
  1  'x, y, z'
loop_
 _atom_site_type_symbol
 _atom_site_label
 _atom_site_symmetry_multiplicity
 _atom_site_fract_x
 _atom_site_fract_y
 _atom_site_fract_z
 _atom_site_occupancy
  La  La0  1  0.501213  0.501408  0.500693  1
  La  La1  1  0.501213  0.501408  0.999307  1
  Y  Y2  1  0.000962  0.532388  0.250000  1
  Y  Y3  1  0.467776  0.999217  0.250000  1
  Y  Y4  1  0.999463  0.467025  0.750000  1
  Er  Er5  1  0.532399  0.001627  0.750000  1
  Ta  Ta6  1  0.000248  0.000148  0.500713  1
  Ta  Ta7  1  0.000248  0.000148  0.999287  1
  O  O8  1  0.681003  0.934739  0.469758  1
  O  O9  1  0.932311  0.680908  0.531450  1
  O  O10  1  0.681003  0.934739  0.030242  1
  O  O11  1  0.932311  0.680908  0.968550  1
  O  O12  1  0.317251  0.063142  0.535974  1
  O  O13  1  0.067359  0.318153  0.468117  1
  O  O14  1  0.317251  0.063142  0.964026  1
  O  O15  1  0.067359  0.318153  0.031883  1
  O  O16  1  0.935975  0.062157  0.750000  1
  O  O17  1  0.063126  0.939964  0.250000  1
  O  O18  1  0.364301  0.640448  0.750000  1
  O  O19  1  0.636721  0.362579  0.250000  1
  O  O20  1  0.643701  0.353430  0.750000  1
  O  O21  1  0.356808  0.644170  0.250000  1
