# generated using pymatgen
data_Sc2NbRu3
_symmetry_space_group_name_H-M   'P 1'
_cell_length_a   13.62967000
_cell_length_b   3.18398400
_cell_length_c   4.55148700
_cell_angle_alpha   90.00000000
_cell_angle_beta   90.00000000
_cell_angle_gamma   90.00000000
_symmetry_Int_Tables_number   1
_chemical_formula_structural   Sc2NbRu3
_chemical_formula_sum   'Sc4 Nb2 Ru6'
_cell_volume   197.51929380
_cell_formula_units_Z   2
loop_
 _symmetry_equiv_pos_site_id
 _symmetry_equiv_pos_as_xyz
  1  'x, y, z'
loop_
 _atom_site_type_symbol
 _atom_site_label
 _atom_site_symmetry_multiplicity
 _atom_site_fract_x
 _atom_site_fract_y
 _atom_site_fract_z
 _atom_site_occupancy
  Sc  Sc0  1  0.081891  0.000000  0.250939  1
  Sc  Sc1  1  0.418110  0.000000  0.250939  1
  Sc  Sc2  1  0.581891  0.000000  0.749060  1
  Sc  Sc3  1  0.918109  0.000000  0.749060  1
  Nb  Nb4  1  0.750000  0.000000  0.248855  1
  Nb  Nb5  1  0.250000  0.000000  0.751144  1
  Ru  Ru6  1  0.250000  0.500000  0.251757  1
  Ru  Ru7  1  0.590490  0.500000  0.248721  1
  Ru  Ru8  1  0.909510  0.500000  0.248721  1
  Ru  Ru9  1  0.090490  0.500000  0.751278  1
  Ru  Ru10  1  0.409510  0.500000  0.751278  1
  Ru  Ru11  1  0.750000  0.500000  0.748243  1
