# generated using pymatgen
data_Ho5HgSe4
_symmetry_space_group_name_H-M   'P 1'
_cell_length_a   7.14070909
_cell_length_b   7.14070879
_cell_length_c   7.14070939
_cell_angle_alpha   99.61224830
_cell_angle_beta   99.61224768
_cell_angle_gamma   131.76222162
_symmetry_Int_Tables_number   1
_chemical_formula_structural   Ho5HgSe4
_chemical_formula_sum   'Ho5 Hg1 Se4'
_cell_volume   247.87995681
_cell_formula_units_Z   1
loop_
 _symmetry_equiv_pos_site_id
 _symmetry_equiv_pos_as_xyz
  1  'x, y, z'
loop_
 _atom_site_type_symbol
 _atom_site_label
 _atom_site_symmetry_multiplicity
 _atom_site_fract_x
 _atom_site_fract_y
 _atom_site_fract_z
 _atom_site_occupancy
  Ho  Ho0  1  0.399742  0.801778  0.201520  1
  Ho  Ho1  1  0.000000  0.000000  0.000000  1
  Ho  Ho2  1  0.600258  0.198222  0.798480  1
  Ho  Ho3  1  0.198222  0.399742  0.597962  1
  Ho  Ho4  1  0.801778  0.600258  0.402038  1
  Hg  Hg5  1  0.500000  0.500000  0.000000  1
  Se  Se6  1  0.097725  0.697431  0.795154  1
  Se  Se7  1  0.697431  0.902275  0.599705  1
  Se  Se8  1  0.302569  0.097725  0.400295  1
  Se  Se9  1  0.902275  0.302569  0.204846  1
