# generated using pymatgen
data_Sm4Mg3Co4P12Rh13
_symmetry_space_group_name_H-M   'P 1'
_cell_length_a   3.88308300
_cell_length_b   10.84971507
_cell_length_c   12.62285619
_cell_angle_alpha   90.38623589
_cell_angle_beta   90.00000000
_cell_angle_gamma   90.00000000
_symmetry_Int_Tables_number   1
_chemical_formula_structural   Sm4Mg3Co4P12Rh13
_chemical_formula_sum   'Sm4 Mg3 Co4 P12 Rh13'
_cell_volume   531.79319220
_cell_formula_units_Z   1
loop_
 _symmetry_equiv_pos_site_id
 _symmetry_equiv_pos_as_xyz
  1  'x, y, z'
loop_
 _atom_site_type_symbol
 _atom_site_label
 _atom_site_symmetry_multiplicity
 _atom_site_fract_x
 _atom_site_fract_y
 _atom_site_fract_z
 _atom_site_occupancy
  Sm  Sm0  1  0.250000  0.580703  0.708561  1
  Sm  Sm1  1  0.250000  0.918923  0.208428  1
  Sm  Sm2  1  0.750000  0.419088  0.293415  1
  Sm  Sm3  1  0.750000  0.080940  0.790453  1
  Mg  Mg4  1  0.250000  0.704880  0.986539  1
  Mg  Mg5  1  0.250000  0.794892  0.487642  1
  Mg  Mg6  1  0.750000  0.295191  0.012699  1
  Co  Co7  1  0.250000  0.463126  0.935100  1
  Co  Co8  1  0.250000  0.037535  0.436391  1
  Co  Co9  1  0.750000  0.534501  0.062638  1
  Co  Co10  1  0.750000  0.964660  0.562028  1
  P  P11  1  0.250000  0.426850  0.109700  1
  P  P12  1  0.250000  0.075388  0.605746  1
  P  P13  1  0.750000  0.572016  0.889199  1
  P  P14  1  0.750000  0.927747  0.390325  1
  P  P15  1  0.250000  0.269693  0.863100  1
  P  P16  1  0.250000  0.228090  0.369760  1
  P  P17  1  0.750000  0.728597  0.137337  1
  P  P18  1  0.750000  0.771353  0.637207  1
  P  P19  1  0.250000  0.593763  0.386668  1
  P  P20  1  0.250000  0.906281  0.886726  1
  P  P21  1  0.750000  0.400821  0.607941  1
  P  P22  1  0.750000  0.096147  0.115012  1
  Rh  Rh23  1  0.750000  0.209799  0.516557  1
  Rh  Rh24  1  0.250000  0.404045  0.481029  1
  Rh  Rh25  1  0.250000  0.097454  0.980707  1
  Rh  Rh26  1  0.750000  0.594403  0.519554  1
  Rh  Rh27  1  0.750000  0.904003  0.021250  1
  Rh  Rh28  1  0.250000  0.225001  0.177386  1
  Rh  Rh29  1  0.250000  0.272343  0.674343  1
  Rh  Rh30  1  0.750000  0.776267  0.825640  1
  Rh  Rh31  1  0.750000  0.725500  0.326311  1
  Rh  Rh32  1  0.250000  0.884881  0.693208  1
  Rh  Rh33  1  0.250000  0.619431  0.193848  1
  Rh  Rh34  1  0.750000  0.116459  0.305930  1
  Rh  Rh35  1  0.750000  0.379227  0.801627  1
