# generated using pymatgen
data_Dy5FeBi2
_symmetry_space_group_name_H-M   'P 1'
_cell_length_a   7.97016200
_cell_length_b   8.93476500
_cell_length_c   12.42724300
_cell_angle_alpha   90.00000000
_cell_angle_beta   90.00000000
_cell_angle_gamma   90.00000000
_symmetry_Int_Tables_number   1
_chemical_formula_structural   Dy5FeBi2
_chemical_formula_sum   'Dy20 Fe4 Bi8'
_cell_volume   884.96291914
_cell_formula_units_Z   4
loop_
 _symmetry_equiv_pos_site_id
 _symmetry_equiv_pos_as_xyz
  1  'x, y, z'
loop_
 _atom_site_type_symbol
 _atom_site_label
 _atom_site_symmetry_multiplicity
 _atom_site_fract_x
 _atom_site_fract_y
 _atom_site_fract_z
 _atom_site_occupancy
  Dy  Dy0  1  0.347425  0.750000  0.700811  1
  Dy  Dy1  1  0.652575  0.250000  0.299189  1
  Dy  Dy2  1  0.847425  0.250000  0.799189  1
  Dy  Dy3  1  0.152575  0.750000  0.200811  1
  Dy  Dy4  1  0.884245  0.750000  0.812298  1
  Dy  Dy5  1  0.115755  0.250000  0.187702  1
  Dy  Dy6  1  0.384245  0.250000  0.687702  1
  Dy  Dy7  1  0.615755  0.750000  0.312298  1
  Dy  Dy8  1  0.673983  0.536634  0.562608  1
  Dy  Dy9  1  0.326017  0.463366  0.437392  1
  Dy  Dy10  1  0.173983  0.463366  0.937392  1
  Dy  Dy11  1  0.326017  0.036634  0.437392  1
  Dy  Dy12  1  0.826017  0.536634  0.062608  1
  Dy  Dy13  1  0.673983  0.963366  0.562608  1
  Dy  Dy14  1  0.826017  0.963366  0.062608  1
  Dy  Dy15  1  0.173983  0.036634  0.937392  1
  Dy  Dy16  1  0.056093  0.750000  0.495255  1
  Dy  Dy17  1  0.943907  0.250000  0.504745  1
  Dy  Dy18  1  0.556093  0.250000  0.004745  1
  Dy  Dy19  1  0.443907  0.750000  0.995255  1
  Fe  Fe20  1  0.071170  0.750000  0.990849  1
  Fe  Fe21  1  0.928830  0.250000  0.009151  1
  Fe  Fe22  1  0.571170  0.250000  0.509151  1
  Fe  Fe23  1  0.428830  0.750000  0.490849  1
  Bi  Bi24  1  0.570959  0.507433  0.826981  1
  Bi  Bi25  1  0.429041  0.492567  0.173019  1
  Bi  Bi26  1  0.070959  0.492567  0.673019  1
  Bi  Bi27  1  0.429041  0.007433  0.173019  1
  Bi  Bi28  1  0.929041  0.507433  0.326981  1
  Bi  Bi29  1  0.570959  0.992567  0.826981  1
  Bi  Bi30  1  0.929041  0.992567  0.326981  1
  Bi  Bi31  1  0.070959  0.007433  0.673019  1
