# generated using pymatgen
data_PrErGa3Cu7
_symmetry_space_group_name_H-M   'P 1'
_cell_length_a   4.19387400
_cell_length_b   5.12364696
_cell_length_c   8.92565149
_cell_angle_alpha   89.43195131
_cell_angle_beta   90.00000000
_cell_angle_gamma   90.00000000
_symmetry_Int_Tables_number   1
_chemical_formula_structural   PrErGa3Cu7
_chemical_formula_sum   'Pr1 Er1 Ga3 Cu7'
_cell_volume   191.78434644
_cell_formula_units_Z   1
loop_
 _symmetry_equiv_pos_site_id
 _symmetry_equiv_pos_as_xyz
  1  'x, y, z'
loop_
 _atom_site_type_symbol
 _atom_site_label
 _atom_site_symmetry_multiplicity
 _atom_site_fract_x
 _atom_site_fract_y
 _atom_site_fract_z
 _atom_site_occupancy
  Pr  Pr0  1  0.000000  0.752293  0.249612  1
  Er  Er1  1  0.000000  0.249295  0.751709  1
  Ga  Ga2  1  0.500000  0.732407  0.743995  1
  Ga  Ga3  1  0.500000  0.263626  0.254995  1
  Ga  Ga4  1  0.500000  0.003795  0.996674  1
  Cu  Cu5  1  0.000000  0.255319  0.074995  1
  Cu  Cu6  1  0.000000  0.749487  0.587713  1
  Cu  Cu7  1  0.000000  0.746377  0.908117  1
  Cu  Cu8  1  0.000000  0.249805  0.427707  1
  Cu  Cu9  1  0.500000  0.495253  0.502945  1
  Cu  Cu10  1  0.500000  0.499722  0.995567  1
  Cu  Cu11  1  0.500000  0.002621  0.505971  1
