# generated using pymatgen
data_Nd4Al4OsPdPt2
_symmetry_space_group_name_H-M   'P 1'
_cell_length_a   4.46917600
_cell_length_b   7.10261430
_cell_length_c   7.96136658
_cell_angle_alpha   89.50689601
_cell_angle_beta   90.00000000
_cell_angle_gamma   90.00000000
_symmetry_Int_Tables_number   1
_chemical_formula_structural   Nd4Al4OsPdPt2
_chemical_formula_sum   'Nd4 Al4 Os1 Pd1 Pt2'
_cell_volume   252.70697388
_cell_formula_units_Z   1
loop_
 _symmetry_equiv_pos_site_id
 _symmetry_equiv_pos_as_xyz
  1  'x, y, z'
loop_
 _atom_site_type_symbol
 _atom_site_label
 _atom_site_symmetry_multiplicity
 _atom_site_fract_x
 _atom_site_fract_y
 _atom_site_fract_z
 _atom_site_occupancy
  Nd  Nd0  1  0.750000  0.472071  0.180334  1
  Nd  Nd1  1  0.250000  0.021127  0.682329  1
  Nd  Nd2  1  0.750000  0.963983  0.320781  1
  Nd  Nd3  1  0.250000  0.531125  0.812895  1
  Al  Al4  1  0.750000  0.852948  0.931905  1
  Al  Al5  1  0.250000  0.651120  0.437720  1
  Al  Al6  1  0.750000  0.361144  0.566973  1
  Al  Al7  1  0.250000  0.142314  0.061568  1
  Os  Os8  1  0.750000  0.723985  0.616552  1
  Pd  Pd9  1  0.250000  0.282008  0.385200  1
  Pt  Pt10  1  0.750000  0.218627  0.887400  1
  Pt  Pt11  1  0.250000  0.779550  0.116343  1
