# generated using pymatgen
data_Rb4Zr6SiCl18
_symmetry_space_group_name_H-M   'P 1'
_cell_length_a   10.51298708
_cell_length_b   10.51298675
_cell_length_c   10.21097964
_cell_angle_alpha   77.27071237
_cell_angle_beta   77.27071201
_cell_angle_gamma   117.63202375
_symmetry_Int_Tables_number   1
_chemical_formula_structural   Rb4Zr6SiCl18
_chemical_formula_sum   'Rb4 Zr6 Si1 Cl18'
_cell_volume   904.78093167
_cell_formula_units_Z   1
loop_
 _symmetry_equiv_pos_site_id
 _symmetry_equiv_pos_as_xyz
  1  'x, y, z'
loop_
 _atom_site_type_symbol
 _atom_site_label
 _atom_site_symmetry_multiplicity
 _atom_site_fract_x
 _atom_site_fract_y
 _atom_site_fract_z
 _atom_site_occupancy
  Rb  Rb0  1  0.768639  0.445879  0.683858  1
  Rb  Rb1  1  0.554121  0.231361  0.316142  1
  Rb  Rb2  1  0.231361  0.554121  0.316142  1
  Rb  Rb3  1  0.445879  0.768639  0.683858  1
  Zr  Zr4  1  0.129546  0.129546  0.149324  1
  Zr  Zr5  1  0.870454  0.870454  0.850676  1
  Zr  Zr6  1  0.945611  0.751469  0.157599  1
  Zr  Zr7  1  0.248531  0.054389  0.842401  1
  Zr  Zr8  1  0.054389  0.248531  0.842401  1
  Zr  Zr9  1  0.751469  0.945611  0.157599  1
  Si  Si10  1  0.000000  0.000000  0.000000  1
  Cl  Cl11  1  0.806563  0.600345  0.009645  1
  Cl  Cl12  1  0.399656  0.193437  0.990355  1
  Cl  Cl13  1  0.193437  0.399656  0.990355  1
  Cl  Cl14  1  0.600344  0.806563  0.009645  1
  Cl  Cl15  1  0.205145  0.794855  0.000000  1
  Cl  Cl16  1  0.794855  0.205145  0.000000  1
  Cl  Cl17  1  0.320948  0.320948  0.671924  1
  Cl  Cl18  1  0.679052  0.679052  0.328076  1
  Cl  Cl19  1  0.886929  0.491327  0.329699  1
  Cl  Cl20  1  0.508673  0.113071  0.670301  1
  Cl  Cl21  1  0.113071  0.508673  0.670301  1
  Cl  Cl22  1  0.491327  0.886929  0.329699  1
  Cl  Cl23  1  0.267637  0.267637  0.299386  1
  Cl  Cl24  1  0.732363  0.732363  0.700614  1
  Cl  Cl25  1  0.079888  0.874737  0.319437  1
  Cl  Cl26  1  0.125263  0.920112  0.680563  1
  Cl  Cl27  1  0.920112  0.125263  0.680563  1
  Cl  Cl28  1  0.874737  0.079888  0.319437  1
