# generated using pymatgen
data_LaNd2Y2P12Ru19
_symmetry_space_group_name_H-M   'P 1'
_cell_length_a   12.62421634
_cell_length_b   12.61914139
_cell_length_c   4.01429900
_cell_angle_alpha   90.00000000
_cell_angle_beta   90.00000000
_cell_angle_gamma   119.98669312
_symmetry_Int_Tables_number   1
_chemical_formula_structural   LaNd2Y2P12Ru19
_chemical_formula_sum   'La1 Nd2 Y2 P12 Ru19'
_cell_volume   553.90183295
_cell_formula_units_Z   1
loop_
 _symmetry_equiv_pos_site_id
 _symmetry_equiv_pos_as_xyz
  1  'x, y, z'
loop_
 _atom_site_type_symbol
 _atom_site_label
 _atom_site_symmetry_multiplicity
 _atom_site_fract_x
 _atom_site_fract_y
 _atom_site_fract_z
 _atom_site_occupancy
  La  La0  1  0.000000  0.183357  0.500000  1
  Nd  Nd1  1  0.815999  0.815725  0.500000  1
  Nd  Nd2  1  0.184001  0.999726  0.500000  1
  Y  Y3  1  0.666631  0.333623  0.000000  1
  Y  Y4  1  0.333369  0.666993  0.000000  1
  P  P5  1  0.000000  0.811909  0.000000  1
  P  P6  1  0.189342  0.188056  0.000000  1
  P  P7  1  0.810658  0.998714  0.000000  1
  P  P8  1  0.694879  0.173256  0.500000  1
  P  P9  1  0.826715  0.521856  0.500000  1
  P  P10  1  0.478742  0.305159  0.500000  1
  P  P11  1  0.173285  0.695141  0.500000  1
  P  P12  1  0.521258  0.826418  0.500000  1
  P  P13  1  0.305121  0.478377  0.500000  1
  P  P14  1  0.000000  0.375103  0.000000  1
  P  P15  1  0.625889  0.625858  0.000000  1
  P  P16  1  0.374111  0.999969  0.000000  1
  Ru  Ru17  1  0.000000  0.554489  0.000000  1
  Ru  Ru18  1  0.446138  0.445996  0.000000  1
  Ru  Ru19  1  0.553862  0.999858  0.000000  1
  Ru  Ru20  1  0.000000  0.713551  0.500000  1
  Ru  Ru21  1  0.287320  0.286717  0.500000  1
  Ru  Ru22  1  0.712680  0.999397  0.500000  1
  Ru  Ru23  1  0.804096  0.185212  0.000000  1
  Ru  Ru24  1  0.814716  0.619583  0.000000  1
  Ru  Ru25  1  0.380840  0.195317  0.000000  1
  Ru  Ru26  1  0.185284  0.804865  0.000000  1
  Ru  Ru27  1  0.619160  0.814476  0.000000  1
  Ru  Ru28  1  0.195904  0.381115  0.000000  1
  Ru  Ru29  1  0.874239  0.367715  0.500000  1
  Ru  Ru30  1  0.632539  0.506884  0.500000  1
  Ru  Ru31  1  0.493144  0.125619  0.500000  1
  Ru  Ru32  1  0.367461  0.874346  0.500000  1
  Ru  Ru33  1  0.506856  0.632476  0.500000  1
  Ru  Ru34  1  0.125761  0.493477  0.500000  1
  Ru  Ru35  1  0.000000  0.999666  0.000000  1
