# generated using pymatgen
data_Tb3YHf4F28
_symmetry_space_group_name_H-M   'P 1'
_cell_length_a   5.70402209
_cell_length_b   9.07115987
_cell_length_c   12.21042698
_cell_angle_alpha   62.34552564
_cell_angle_beta   90.00938914
_cell_angle_gamma   89.99913631
_symmetry_Int_Tables_number   1
_chemical_formula_structural   Tb3YHf4F28
_chemical_formula_sum   'Tb3 Y1 Hf4 F28'
_cell_volume   559.61873989
_cell_formula_units_Z   1
loop_
 _symmetry_equiv_pos_site_id
 _symmetry_equiv_pos_as_xyz
  1  'x, y, z'
loop_
 _atom_site_type_symbol
 _atom_site_label
 _atom_site_symmetry_multiplicity
 _atom_site_fract_x
 _atom_site_fract_y
 _atom_site_fract_z
 _atom_site_occupancy
  Tb  Tb0  1  0.743305  0.185846  0.734301  1
  Tb  Tb1  1  0.756617  0.185623  0.234308  1
  Tb  Tb2  1  0.243320  0.814096  0.765697  1
  Y  Y3  1  0.256683  0.814135  0.265629  1
  Hf  Hf4  1  0.756384  0.726267  0.044293  1
  Hf  Hf5  1  0.243922  0.273621  0.956072  1
  Hf  Hf6  1  0.256143  0.274044  0.455851  1
  Hf  Hf7  1  0.743671  0.726256  0.543757  1
  F  F8  1  0.958783  0.709527  0.420555  1
  F  F9  1  0.041020  0.290472  0.579227  1
  F  F10  1  0.458928  0.290253  0.079449  1
  F  F11  1  0.541093  0.709824  0.920966  1
  F  F12  1  0.484255  0.732644  0.146236  1
  F  F13  1  0.516704  0.267377  0.854452  1
  F  F14  1  0.983707  0.267259  0.354214  1
  F  F15  1  0.016314  0.732628  0.645536  1
  F  F16  1  0.963615  0.744955  0.171633  1
  F  F17  1  0.037435  0.255166  0.828482  1
  F  F18  1  0.462851  0.255292  0.328467  1
  F  F19  1  0.537176  0.744981  0.671266  1
  F  F20  1  0.772212  0.477511  0.140208  1
  F  F21  1  0.227981  0.522388  0.860042  1
  F  F22  1  0.271858  0.522836  0.359721  1
  F  F23  1  0.727556  0.477586  0.639993  1
  F  F24  1  0.952346  0.278493  0.048462  1
  F  F25  1  0.047585  0.721447  0.951719  1
  F  F26  1  0.452023  0.721491  0.451323  1
  F  F27  1  0.547640  0.278725  0.548298  1
  F  F28  1  0.739673  0.974308  0.443001  1
  F  F29  1  0.260168  0.026040  0.556792  1
  F  F30  1  0.239790  0.025678  0.056735  1
  F  F31  1  0.760393  0.974254  0.943254  1
  F  F32  1  0.576488  0.971790  0.232554  1
  F  F33  1  0.422470  0.028055  0.767544  1
  F  F34  1  0.077384  0.027159  0.267551  1
  F  F35  1  0.922510  0.971972  0.732415  1
