# generated using pymatgen
data_HfZr5GeSb2
_symmetry_space_group_name_H-M   'P 1'
_cell_length_a   7.58653700
_cell_length_b   7.60767565
_cell_length_c   3.95460300
_cell_angle_alpha   90.00000000
_cell_angle_beta   90.00000000
_cell_angle_gamma   119.90813164
_symmetry_Int_Tables_number   1
_chemical_formula_structural   HfZr5GeSb2
_chemical_formula_sum   'Hf1 Zr5 Ge1 Sb2'
_cell_volume   197.84741754
_cell_formula_units_Z   1
loop_
 _symmetry_equiv_pos_site_id
 _symmetry_equiv_pos_as_xyz
  1  'x, y, z'
loop_
 _atom_site_type_symbol
 _atom_site_label
 _atom_site_symmetry_multiplicity
 _atom_site_fract_x
 _atom_site_fract_y
 _atom_site_fract_z
 _atom_site_occupancy
  Hf  Hf0  1  0.755522  0.000000  0.499999  1
  Zr  Zr1  1  0.400902  0.000000  0.000000  1
  Zr  Zr2  1  0.000169  0.398863  0.000000  1
  Zr  Zr3  1  0.601305  0.601137  0.000000  1
  Zr  Zr4  1  0.244039  0.245409  0.499999  1
  Zr  Zr5  1  0.998630  0.754591  0.499999  1
  Ge  Ge6  1  0.998686  0.000000  0.000000  1
  Sb  Sb7  1  0.666442  0.332134  0.499999  1
  Sb  Sb8  1  0.334308  0.667866  0.499999  1
