# generated using pymatgen
data_Dy2Ho3Lu11Cd3InNi4
_symmetry_space_group_name_H-M   'P 1'
_cell_length_a   9.40609832
_cell_length_b   9.39701630
_cell_length_c   9.39701492
_cell_angle_alpha   60.02699194
_cell_angle_beta   60.07703163
_cell_angle_gamma   60.07703859
_symmetry_Int_Tables_number   1
_chemical_formula_structural   Dy2Ho3Lu11Cd3InNi4
_chemical_formula_sum   'Dy2 Ho3 Lu11 Cd3 In1 Ni4'
_cell_volume   588.12255973
_cell_formula_units_Z   1
loop_
 _symmetry_equiv_pos_site_id
 _symmetry_equiv_pos_as_xyz
  1  'x, y, z'
loop_
 _atom_site_type_symbol
 _atom_site_label
 _atom_site_symmetry_multiplicity
 _atom_site_fract_x
 _atom_site_fract_y
 _atom_site_fract_z
 _atom_site_occupancy
  Dy  Dy0  1  0.952245  0.349714  0.349714  1
  Dy  Dy1  1  0.812468  0.187504  0.187504  1
  Ho  Ho2  1  0.348370  0.349401  0.349401  1
  Ho  Ho3  1  0.349482  0.349815  0.951473  1
  Ho  Ho4  1  0.349482  0.951473  0.349815  1
  Lu  Lu5  1  0.188212  0.811662  0.811662  1
  Lu  Lu6  1  0.188236  0.811564  0.187510  1
  Lu  Lu7  1  0.811684  0.188277  0.810705  1
  Lu  Lu8  1  0.188236  0.187510  0.811564  1
  Lu  Lu9  1  0.811684  0.810705  0.188277  1
  Lu  Lu10  1  0.937379  0.564526  0.564526  1
  Lu  Lu11  1  0.564817  0.935951  0.935951  1
  Lu  Lu12  1  0.564083  0.937052  0.564979  1
  Lu  Lu13  1  0.936415  0.565013  0.935857  1
  Lu  Lu14  1  0.564083  0.564979  0.937052  1
  Lu  Lu15  1  0.936415  0.935857  0.565013  1
  Cd  Cd16  1  0.582038  0.582140  0.252173  1
  Cd  Cd17  1  0.582038  0.252173  0.582140  1
  Cd  Cd18  1  0.252282  0.581922  0.581922  1
  In  In19  1  0.582435  0.582726  0.582726  1
  Ni  Ni20  1  0.142137  0.141702  0.141702  1
  Ni  Ni21  1  0.140463  0.141170  0.576163  1
  Ni  Ni22  1  0.140463  0.576163  0.141170  1
  Ni  Ni23  1  0.574851  0.140997  0.140997  1
