# generated using pymatgen
data_LiY9Cd3Tc
_symmetry_space_group_name_H-M   'P 1'
_cell_length_a   9.44455100
_cell_length_b   9.44455067
_cell_length_c   9.89832200
_cell_angle_alpha   90.00000000
_cell_angle_beta   90.00000000
_cell_angle_gamma   119.99999766
_symmetry_Int_Tables_number   1
_chemical_formula_structural   LiY9Cd3Tc
_chemical_formula_sum   'Li2 Y18 Cd6 Tc2'
_cell_volume   764.63616782
_cell_formula_units_Z   2
loop_
 _symmetry_equiv_pos_site_id
 _symmetry_equiv_pos_as_xyz
  1  'x, y, z'
loop_
 _atom_site_type_symbol
 _atom_site_label
 _atom_site_symmetry_multiplicity
 _atom_site_fract_x
 _atom_site_fract_y
 _atom_site_fract_z
 _atom_site_occupancy
  Li  Li0  1  0.000000  0.000000  0.500000  1
  Li  Li1  1  0.000000  0.000000  0.000000  1
  Y  Y2  1  0.208110  0.791890  0.441366  1
  Y  Y3  1  0.208110  0.416222  0.441366  1
  Y  Y4  1  0.583778  0.791890  0.441366  1
  Y  Y5  1  0.791890  0.208110  0.558634  1
  Y  Y6  1  0.791890  0.583778  0.558634  1
  Y  Y7  1  0.416222  0.208110  0.558634  1
  Y  Y8  1  0.791890  0.208110  0.941366  1
  Y  Y9  1  0.791890  0.583778  0.941366  1
  Y  Y10  1  0.416222  0.208110  0.941366  1
  Y  Y11  1  0.208110  0.791890  0.058634  1
  Y  Y12  1  0.208110  0.416222  0.058634  1
  Y  Y13  1  0.583778  0.791890  0.058634  1
  Y  Y14  1  0.541760  0.458240  0.250000  1
  Y  Y15  1  0.541760  0.083521  0.250000  1
  Y  Y16  1  0.916479  0.458240  0.250000  1
  Y  Y17  1  0.458240  0.541760  0.750000  1
  Y  Y18  1  0.458240  0.916479  0.750000  1
  Y  Y19  1  0.083521  0.541760  0.750000  1
  Cd  Cd20  1  0.891722  0.108278  0.250000  1
  Cd  Cd21  1  0.891722  0.783446  0.250000  1
  Cd  Cd22  1  0.216554  0.108278  0.250000  1
  Cd  Cd23  1  0.108278  0.891722  0.750000  1
  Cd  Cd24  1  0.108278  0.216554  0.750000  1
  Cd  Cd25  1  0.783446  0.891722  0.750000  1
  Tc  Tc26  1  0.333333  0.666667  0.250000  1
  Tc  Tc27  1  0.666667  0.333333  0.750000  1
