# generated using pymatgen
data_Hf18ReMo4As2W3
_symmetry_space_group_name_H-M   'P 1'
_cell_length_a   8.70286900
_cell_length_b   8.69241485
_cell_length_c   8.69998694
_cell_angle_alpha   90.08135988
_cell_angle_beta   90.00000000
_cell_angle_gamma   120.03979595
_symmetry_Int_Tables_number   1
_chemical_formula_structural   Hf18ReMo4As2W3
_chemical_formula_sum   'Hf18 Re1 Mo4 As2 W3'
_cell_volume   569.74069795
_cell_formula_units_Z   1
loop_
 _symmetry_equiv_pos_site_id
 _symmetry_equiv_pos_as_xyz
  1  'x, y, z'
loop_
 _atom_site_type_symbol
 _atom_site_label
 _atom_site_symmetry_multiplicity
 _atom_site_fract_x
 _atom_site_fract_y
 _atom_site_fract_z
 _atom_site_occupancy
  Hf  Hf0  1  0.194277  0.388553  0.045597  1
  Hf  Hf1  1  0.805218  0.610438  0.545930  1
  Hf  Hf2  1  0.611026  0.805397  0.045992  1
  Hf  Hf3  1  0.194372  0.805397  0.045992  1
  Hf  Hf4  1  0.804347  0.194835  0.545062  1
  Hf  Hf5  1  0.390487  0.194835  0.545062  1
  Hf  Hf6  1  0.806509  0.613018  0.953435  1
  Hf  Hf7  1  0.805806  0.193525  0.954079  1
  Hf  Hf8  1  0.387718  0.193525  0.954079  1
  Hf  Hf9  1  0.608308  0.804110  0.455167  1
  Hf  Hf10  1  0.195804  0.804110  0.455167  1
  Hf  Hf11  1  0.195850  0.391698  0.455300  1
  Hf  Hf12  1  0.540152  0.080304  0.248866  1
  Hf  Hf13  1  0.460254  0.920509  0.751272  1
  Hf  Hf14  1  0.919583  0.459815  0.248841  1
  Hf  Hf15  1  0.540233  0.459815  0.248841  1
  Hf  Hf16  1  0.460238  0.539860  0.751237  1
  Hf  Hf17  1  0.079621  0.539860  0.751237  1
  Re  Re18  1  0.000008  0.000017  0.000405  1
  Mo  Mo19  1  0.889838  0.779677  0.250289  1
  Mo  Mo20  1  0.110192  0.220384  0.749253  1
  Mo  Mo21  1  0.220168  0.110118  0.250189  1
  Mo  Mo22  1  0.889950  0.110118  0.250189  1
  As  As23  1  0.333238  0.666478  0.248895  1
  As  As24  1  0.666616  0.333231  0.751134  1
  W  W25  1  0.000127  0.000254  0.499059  1
  W  W26  1  0.109854  0.890059  0.749718  1
  W  W27  1  0.780206  0.890059  0.749718  1
