# generated using pymatgen
data_Dy3CdHg4
_symmetry_space_group_name_H-M   'P 1'
_cell_length_a   6.41059372
_cell_length_b   6.41059295
_cell_length_c   10.19727600
_cell_angle_alpha   90.00000000
_cell_angle_beta   90.00000000
_cell_angle_gamma   107.85399303
_symmetry_Int_Tables_number   1
_chemical_formula_structural   Dy3CdHg4
_chemical_formula_sum   'Dy6 Cd2 Hg8'
_cell_volume   398.88250610
_cell_formula_units_Z   2
loop_
 _symmetry_equiv_pos_site_id
 _symmetry_equiv_pos_as_xyz
  1  'x, y, z'
loop_
 _atom_site_type_symbol
 _atom_site_label
 _atom_site_symmetry_multiplicity
 _atom_site_fract_x
 _atom_site_fract_y
 _atom_site_fract_z
 _atom_site_occupancy
  Dy  Dy0  1  0.776966  0.223034  0.000000  1
  Dy  Dy1  1  0.223034  0.776966  0.000000  1
  Dy  Dy2  1  0.223034  0.776966  0.500000  1
  Dy  Dy3  1  0.776966  0.223034  0.500000  1
  Dy  Dy4  1  0.546533  0.546533  0.250000  1
  Dy  Dy5  1  0.453467  0.453467  0.750000  1
  Cd  Cd6  1  0.984525  0.984525  0.250000  1
  Cd  Cd7  1  0.015475  0.015475  0.750000  1
  Hg  Hg8  1  0.026063  0.484394  0.250000  1
  Hg  Hg9  1  0.973937  0.515606  0.750000  1
  Hg  Hg10  1  0.484394  0.026063  0.250000  1
  Hg  Hg11  1  0.515606  0.973937  0.750000  1
  Hg  Hg12  1  0.276876  0.276876  0.021139  1
  Hg  Hg13  1  0.723124  0.723124  0.978861  1
  Hg  Hg14  1  0.723124  0.723124  0.521139  1
  Hg  Hg15  1  0.276876  0.276876  0.478861  1
