# generated using pymatgen
data_Nd4Cd(NiHg)2
_symmetry_space_group_name_H-M   'P 1'
_cell_length_a   3.76323000
_cell_length_b   7.56165764
_cell_length_c   8.23582782
_cell_angle_alpha   72.78292085
_cell_angle_beta   90.00000000
_cell_angle_gamma   90.00000000
_symmetry_Int_Tables_number   1
_chemical_formula_structural   Nd4Cd(NiHg)2
_chemical_formula_sum   'Nd4 Cd1 Ni2 Hg2'
_cell_volume   223.85916376
_cell_formula_units_Z   1
loop_
 _symmetry_equiv_pos_site_id
 _symmetry_equiv_pos_as_xyz
  1  'x, y, z'
loop_
 _atom_site_type_symbol
 _atom_site_label
 _atom_site_symmetry_multiplicity
 _atom_site_fract_x
 _atom_site_fract_y
 _atom_site_fract_z
 _atom_site_occupancy
  Nd  Nd0  1  0.500000  0.609788  0.190337  1
  Nd  Nd1  1  0.500000  0.912571  0.720085  1
  Nd  Nd2  1  0.500000  0.082053  0.277438  1
  Nd  Nd3  1  0.500000  0.392890  0.811363  1
  Cd  Cd4  1  0.000000  0.299823  0.487879  1
  Ni  Ni5  1  0.000000  0.349533  0.113144  1
  Ni  Ni6  1  0.000000  0.649812  0.893733  1
  Hg  Hg7  1  0.000000  0.700230  0.510773  1
  Hg  Hg8  1  0.000000  0.003300  0.995246  1
