# generated using pymatgen
data_Rb6YErBi4
_symmetry_space_group_name_H-M   'P 1'
_cell_length_a   10.38127527
_cell_length_b   10.38127555
_cell_length_c   10.38127495
_cell_angle_alpha   128.11851401
_cell_angle_beta   70.53128185
_cell_angle_gamma   135.72538370
_symmetry_Int_Tables_number   1
_chemical_formula_structural   Rb6YErBi4
_chemical_formula_sum   'Rb6 Y1 Er1 Bi4'
_cell_volume   602.31293668
_cell_formula_units_Z   1
loop_
 _symmetry_equiv_pos_site_id
 _symmetry_equiv_pos_as_xyz
  1  'x, y, z'
loop_
 _atom_site_type_symbol
 _atom_site_label
 _atom_site_symmetry_multiplicity
 _atom_site_fract_x
 _atom_site_fract_y
 _atom_site_fract_z
 _atom_site_occupancy
  Rb  Rb0  1  0.250000  0.250000  0.000000  1
  Rb  Rb1  1  0.750000  0.750000  0.000000  1
  Rb  Rb2  1  0.313999  0.806599  0.120469  1
  Rb  Rb3  1  0.186001  0.306470  0.492599  1
  Rb  Rb4  1  0.813872  0.693402  0.507402  1
  Rb  Rb5  1  0.686128  0.193529  0.879530  1
  Y  Y6  1  0.250000  0.749999  0.499999  1
  Er  Er7  1  0.750000  0.250000  0.500000  1
  Bi  Bi8  1  0.900798  0.303921  0.206261  1
  Bi  Bi9  1  0.599202  0.805465  0.403123  1
  Bi  Bi10  1  0.402342  0.196079  0.596877  1
  Bi  Bi11  1  0.097658  0.694535  0.793738  1
