# generated using pymatgen
data_LiAcCu12
_symmetry_space_group_name_H-M   'P 1'
_cell_length_a   8.27418267
_cell_length_b   8.27418236
_cell_length_c   8.27418200
_cell_angle_alpha   59.99999344
_cell_angle_beta   59.99999467
_cell_angle_gamma   59.99999291
_symmetry_Int_Tables_number   1
_chemical_formula_structural   LiAcCu12
_chemical_formula_sum   'Li2 Ac2 Cu24'
_cell_volume   400.55319673
_cell_formula_units_Z   2
loop_
 _symmetry_equiv_pos_site_id
 _symmetry_equiv_pos_as_xyz
  1  'x, y, z'
loop_
 _atom_site_type_symbol
 _atom_site_label
 _atom_site_symmetry_multiplicity
 _atom_site_fract_x
 _atom_site_fract_y
 _atom_site_fract_z
 _atom_site_occupancy
  Li  Li0  1  0.500000  0.500000  0.500000  1
  Li  Li1  1  0.000000  0.000000  0.000000  1
  Ac  Ac2  1  0.250000  0.250000  0.250000  1
  Ac  Ac3  1  0.750000  0.750000  0.750000  1
  Cu  Cu4  1  0.794669  0.564134  0.205331  1
  Cu  Cu5  1  0.205331  0.435866  0.794669  1
  Cu  Cu6  1  0.564134  0.794669  0.435866  1
  Cu  Cu7  1  0.435866  0.205331  0.564134  1
  Cu  Cu8  1  0.294669  0.935866  0.705331  1
  Cu  Cu9  1  0.705331  0.064134  0.294669  1
  Cu  Cu10  1  0.935866  0.294669  0.064134  1
  Cu  Cu11  1  0.064134  0.705331  0.935866  1
  Cu  Cu12  1  0.205331  0.794669  0.564134  1
  Cu  Cu13  1  0.794669  0.205331  0.435866  1
  Cu  Cu14  1  0.435866  0.564134  0.794669  1
  Cu  Cu15  1  0.564134  0.435866  0.205331  1
  Cu  Cu16  1  0.705331  0.294669  0.935866  1
  Cu  Cu17  1  0.294669  0.705331  0.064134  1
  Cu  Cu18  1  0.064134  0.935866  0.294669  1
  Cu  Cu19  1  0.935866  0.064134  0.705331  1
  Cu  Cu20  1  0.564134  0.205331  0.794669  1
  Cu  Cu21  1  0.435866  0.794669  0.205331  1
  Cu  Cu22  1  0.794669  0.435866  0.564134  1
  Cu  Cu23  1  0.205331  0.564134  0.435866  1
  Cu  Cu24  1  0.935866  0.705331  0.294669  1
  Cu  Cu25  1  0.064134  0.294669  0.705331  1
  Cu  Cu26  1  0.294669  0.064134  0.935866  1
  Cu  Cu27  1  0.705331  0.935866  0.064134  1
