# generated using pymatgen
data_Lu4NiOs3Ru4
_symmetry_space_group_name_H-M   'P 1'
_cell_length_a   5.15783866
_cell_length_b   5.27525870
_cell_length_c   8.74829600
_cell_angle_alpha   90.00000000
_cell_angle_beta   90.00000000
_cell_angle_gamma   120.09198587
_symmetry_Int_Tables_number   1
_chemical_formula_structural   Lu4NiOs3Ru4
_chemical_formula_sum   'Lu4 Ni1 Os3 Ru4'
_cell_volume   205.95024730
_cell_formula_units_Z   1
loop_
 _symmetry_equiv_pos_site_id
 _symmetry_equiv_pos_as_xyz
  1  'x, y, z'
loop_
 _atom_site_type_symbol
 _atom_site_label
 _atom_site_symmetry_multiplicity
 _atom_site_fract_x
 _atom_site_fract_y
 _atom_site_fract_z
 _atom_site_occupancy
  Lu  Lu0  1  0.334591  0.666907  0.435841  1
  Lu  Lu1  1  0.665255  0.331834  0.567244  1
  Lu  Lu2  1  0.665255  0.331834  0.932756  1
  Lu  Lu3  1  0.334591  0.666907  0.064159  1
  Ni  Ni4  1  0.168833  0.337449  0.750000  1
  Os  Os5  1  0.175211  0.833952  0.750000  1
  Os  Os6  1  0.340675  0.170630  0.250000  1
  Os  Os7  1  0.656950  0.833879  0.750000  1
  Ru  Ru8  1  0.828350  0.659852  0.250000  1
  Ru  Ru9  1  0.002381  0.998393  0.998668  1
  Ru  Ru10  1  0.825525  0.169971  0.250000  1
  Ru  Ru11  1  0.002381  0.998393  0.501332  1
