# generated using pymatgen
data_Tb15Y5(Ir3Rh)3
_symmetry_space_group_name_H-M   'P 1'
_cell_length_a   10.92625449
_cell_length_b   10.92837441
_cell_length_c   6.41506330
_cell_angle_alpha   89.97709000
_cell_angle_beta   89.97324790
_cell_angle_gamma   90.02167859
_symmetry_Int_Tables_number   1
_chemical_formula_structural   Tb15Y5(Ir3Rh)3
_chemical_formula_sum   'Tb15 Y5 Ir9 Rh3'
_cell_volume   765.99813247
_cell_formula_units_Z   1
loop_
 _symmetry_equiv_pos_site_id
 _symmetry_equiv_pos_as_xyz
  1  'x, y, z'
loop_
 _atom_site_type_symbol
 _atom_site_label
 _atom_site_symmetry_multiplicity
 _atom_site_fract_x
 _atom_site_fract_y
 _atom_site_fract_z
 _atom_site_occupancy
  Tb  Tb0  1  0.290437  0.089111  0.379868  1
  Tb  Tb1  1  0.290354  0.910408  0.879741  1
  Tb  Tb2  1  0.709612  0.089547  0.879902  1
  Tb  Tb3  1  0.709527  0.910853  0.380062  1
  Tb  Tb4  1  0.589740  0.790359  0.879824  1
  Tb  Tb5  1  0.589196  0.209721  0.380228  1
  Tb  Tb6  1  0.410944  0.790380  0.380280  1
  Tb  Tb7  1  0.410354  0.209751  0.880146  1
  Tb  Tb8  1  0.208344  0.411134  0.618519  1
  Tb  Tb9  1  0.209053  0.589395  0.121547  1
  Tb  Tb10  1  0.791027  0.410885  0.121239  1
  Tb  Tb11  1  0.999876  0.999979  0.500535  1
  Tb  Tb12  1  0.000021  0.000037  0.000315  1
  Tb  Tb13  1  0.500067  0.499974  0.000379  1
  Tb  Tb14  1  0.500232  0.500079  0.500874  1
  Y  Y15  1  0.791563  0.588888  0.618740  1
  Y  Y16  1  0.910699  0.709245  0.121582  1
  Y  Y17  1  0.911163  0.291266  0.618940  1
  Y  Y18  1  0.088449  0.708757  0.618717  1
  Y  Y19  1  0.089081  0.290473  0.121726  1
  Ir  Ir20  1  0.845171  0.152926  0.249175  1
  Ir  Ir21  1  0.845359  0.846959  0.749537  1
  Ir  Ir22  1  0.154632  0.153390  0.749242  1
  Ir  Ir23  1  0.154892  0.847000  0.249197  1
  Ir  Ir24  1  0.653146  0.345364  0.749911  1
  Ir  Ir25  1  0.652607  0.654784  0.249331  1
  Ir  Ir26  1  0.346999  0.345208  0.249970  1
  Ir  Ir27  1  0.346583  0.654522  0.749995  1
  Ir  Ir28  1  0.000355  0.499798  0.374699  1
  Rh  Rh29  1  0.500002  0.000005  0.124428  1
  Rh  Rh30  1  0.500030  0.999969  0.624607  1
  Rh  Rh31  1  0.000485  0.499831  0.876740  1
