# generated using pymatgen
data_ErCr2BiF14
_symmetry_space_group_name_H-M   'P 1'
_cell_length_a   5.56390712
_cell_length_b   5.87535547
_cell_length_c   8.21216500
_cell_angle_alpha   103.04632913
_cell_angle_beta   89.95001467
_cell_angle_gamma   89.81080415
_symmetry_Int_Tables_number   1
_chemical_formula_structural   ErCr2BiF14
_chemical_formula_sum   'Er1 Cr2 Bi1 F14'
_cell_volume   261.52392649
_cell_formula_units_Z   1
loop_
 _symmetry_equiv_pos_site_id
 _symmetry_equiv_pos_as_xyz
  1  'x, y, z'
loop_
 _atom_site_type_symbol
 _atom_site_label
 _atom_site_symmetry_multiplicity
 _atom_site_fract_x
 _atom_site_fract_y
 _atom_site_fract_z
 _atom_site_occupancy
  Er  Er0  1  0.200086  0.342286  0.294018  1
  Cr  Cr1  1  0.709036  0.817315  0.224742  1
  Cr  Cr2  1  0.208674  0.186248  0.777063  1
  Bi  Bi3  1  0.699272  0.648902  0.682341  1
  F  F4  1  0.903833  0.434377  0.471874  1
  F  F5  1  0.391014  0.538561  0.507420  1
  F  F6  1  0.409923  0.936369  0.776658  1
  F  F7  1  0.927111  0.057220  0.232252  1
  F  F8  1  0.945035  0.981842  0.765882  1
  F  F9  1  0.453347  0.042243  0.244153  1
  F  F10  1  0.010446  0.441834  0.797166  1
  F  F11  1  0.497961  0.570887  0.209284  1
  F  F12  1  0.702340  0.773234  0.999135  1
  F  F13  1  0.205509  0.236794  0.010490  1
  F  F14  1  0.711054  0.868991  0.454150  1
  F  F15  1  0.213733  0.129647  0.551382  1
  F  F16  1  0.486033  0.382034  0.792090  1
  F  F17  1  0.978314  0.611216  0.209900  1
