# generated using pymatgen
data_Er2TmPa(ZnRh)4
_symmetry_space_group_name_H-M   'P 1'
_cell_length_a   3.84758700
_cell_length_b   7.05989641
_cell_length_c   8.29627736
_cell_angle_alpha   90.85729777
_cell_angle_beta   90.00000000
_cell_angle_gamma   90.00000000
_symmetry_Int_Tables_number   1
_chemical_formula_structural   Er2TmPa(ZnRh)4
_chemical_formula_sum   'Er2 Tm1 Pa1 Zn4 Rh4'
_cell_volume   225.33124876
_cell_formula_units_Z   1
loop_
 _symmetry_equiv_pos_site_id
 _symmetry_equiv_pos_as_xyz
  1  'x, y, z'
loop_
 _atom_site_type_symbol
 _atom_site_label
 _atom_site_symmetry_multiplicity
 _atom_site_fract_x
 _atom_site_fract_y
 _atom_site_fract_z
 _atom_site_occupancy
  Er  Er0  1  0.750000  0.941298  0.686021  1
  Er  Er1  1  0.250000  0.053238  0.322057  1
  Tm  Tm2  1  0.750000  0.442276  0.809052  1
  Pa  Pa3  1  0.250000  0.553187  0.178336  1
  Zn  Zn4  1  0.250000  0.621246  0.563963  1
  Zn  Zn5  1  0.750000  0.369566  0.443010  1
  Zn  Zn6  1  0.750000  0.894261  0.063000  1
  Zn  Zn7  1  0.250000  0.126962  0.934256  1
  Rh  Rh8  1  0.250000  0.737384  0.888134  1
  Rh  Rh9  1  0.750000  0.280840  0.128738  1
  Rh  Rh10  1  0.750000  0.743368  0.356483  1
  Rh  Rh11  1  0.250000  0.236375  0.626949  1
