# generated using pymatgen
data_La5Pr4NdC4I15
_symmetry_space_group_name_H-M   'P 1'
_cell_length_a   9.89141902
_cell_length_b   10.79986561
_cell_length_c   11.93322435
_cell_angle_alpha   93.59923316
_cell_angle_beta   114.44076711
_cell_angle_gamma   109.29227225
_symmetry_Int_Tables_number   1
_chemical_formula_structural   La5Pr4NdC4I15
_chemical_formula_sum   'La5 Pr4 Nd1 C4 I15'
_cell_volume   1065.45056714
_cell_formula_units_Z   1
loop_
 _symmetry_equiv_pos_site_id
 _symmetry_equiv_pos_as_xyz
  1  'x, y, z'
loop_
 _atom_site_type_symbol
 _atom_site_label
 _atom_site_symmetry_multiplicity
 _atom_site_fract_x
 _atom_site_fract_y
 _atom_site_fract_z
 _atom_site_occupancy
  La  La0  1  0.399491  0.456669  0.653606  1
  La  La1  1  0.471021  0.816692  0.896971  1
  La  La2  1  0.706285  0.568521  0.045655  1
  La  La3  1  0.294374  0.432110  0.956260  1
  La  La4  1  0.658957  0.253848  0.835920  1
  Pr  Pr5  1  0.345036  0.745775  0.164246  1
  Pr  Pr6  1  0.776322  0.882738  0.257805  1
  Pr  Pr7  1  0.527692  0.187434  0.101500  1
  Pr  Pr8  1  0.225090  0.116085  0.745616  1
  Nd  Nd9  1  0.596744  0.542855  0.339271  1
  C  C10  1  0.483948  0.302703  0.937301  1
  C  C11  1  0.517792  0.699835  0.061432  1
  C  C12  1  0.453521  0.362388  0.833070  1
  C  C13  1  0.546620  0.637177  0.163780  1
  I  I14  1  0.206900  0.908634  0.940436  1
  I  I15  1  0.101495  0.183691  0.470116  1
  I  I16  1  0.150483  0.555928  0.703433  1
  I  I17  1  0.403694  0.969733  0.646199  1
  I  I18  1  0.712585  0.733778  0.820483  1
  I  I19  1  0.290298  0.267205  0.181500  1
  I  I20  1  0.845312  0.442816  0.298117  1
  I  I21  1  0.892670  0.809321  0.530014  1
  I  I22  1  0.360650  0.630520  0.410860  1
  I  I23  1  0.053256  0.833205  0.221315  1
  I  I24  1  0.794381  0.095171  0.067154  1
  I  I25  1  0.642624  0.369849  0.586532  1
  I  I26  1  0.946720  0.164849  0.780508  1
  I  I27  1  0.593014  0.028747  0.349076  1
  I  I28  1  0.003024  0.501718  0.001824  1
