# generated using pymatgen
data_InFe2(Sb6Pt)2
_symmetry_space_group_name_H-M   'P 1'
_cell_length_a   8.10208159
_cell_length_b   8.13433141
_cell_length_c   8.10208073
_cell_angle_alpha   109.43640035
_cell_angle_beta   109.37707830
_cell_angle_gamma   109.43922143
_symmetry_Int_Tables_number   1
_chemical_formula_structural   InFe2(Sb6Pt)2
_chemical_formula_sum   'In1 Fe2 Sb12 Pt2'
_cell_volume   411.86297997
_cell_formula_units_Z   1
loop_
 _symmetry_equiv_pos_site_id
 _symmetry_equiv_pos_as_xyz
  1  'x, y, z'
loop_
 _atom_site_type_symbol
 _atom_site_label
 _atom_site_symmetry_multiplicity
 _atom_site_fract_x
 _atom_site_fract_y
 _atom_site_fract_z
 _atom_site_occupancy
  In  In0  1  0.000000  0.000000  0.000000  1
  Fe  Fe1  1  0.000000  0.500000  0.000000  1
  Fe  Fe2  1  0.500000  0.500000  0.500000  1
  Sb  Sb3  1  0.652979  0.804031  0.151053  1
  Sb  Sb4  1  0.853957  0.347486  0.180497  1
  Sb  Sb5  1  0.507456  0.833681  0.653465  1
  Sb  Sb6  1  0.833011  0.652514  0.506471  1
  Sb  Sb7  1  0.492544  0.166319  0.346535  1
  Sb  Sb8  1  0.146043  0.652514  0.819503  1
  Sb  Sb9  1  0.819783  0.166319  0.673775  1
  Sb  Sb10  1  0.180217  0.833681  0.326225  1
  Sb  Sb11  1  0.166989  0.347486  0.493529  1
  Sb  Sb12  1  0.673182  0.512608  0.839427  1
  Sb  Sb13  1  0.326818  0.487392  0.160573  1
  Sb  Sb14  1  0.347021  0.195969  0.848947  1
  Pt  Pt15  1  0.000000  0.000000  0.500000  1
  Pt  Pt16  1  0.500000  0.000000  0.000000  1
