# generated using pymatgen
data_CsBa2Cd2Bi3
_symmetry_space_group_name_H-M   'P 1'
_cell_length_a   5.21526200
_cell_length_b   13.77518900
_cell_length_c   17.59501400
_cell_angle_alpha   90.00000000
_cell_angle_beta   90.00000000
_cell_angle_gamma   90.00000000
_symmetry_Int_Tables_number   1
_chemical_formula_structural   CsBa2Cd2Bi3
_chemical_formula_sum   'Cs4 Ba8 Cd8 Bi12'
_cell_volume   1264.04726701
_cell_formula_units_Z   4
loop_
 _symmetry_equiv_pos_site_id
 _symmetry_equiv_pos_as_xyz
  1  'x, y, z'
loop_
 _atom_site_type_symbol
 _atom_site_label
 _atom_site_symmetry_multiplicity
 _atom_site_fract_x
 _atom_site_fract_y
 _atom_site_fract_z
 _atom_site_occupancy
  Cs  Cs0  1  0.250000  0.403597  0.447284  1
  Cs  Cs1  1  0.250000  0.903597  0.052716  1
  Cs  Cs2  1  0.750000  0.596403  0.552716  1
  Cs  Cs3  1  0.750000  0.096403  0.947284  1
  Ba  Ba4  1  0.250000  0.099351  0.572606  1
  Ba  Ba5  1  0.250000  0.599351  0.927394  1
  Ba  Ba6  1  0.750000  0.900649  0.427394  1
  Ba  Ba7  1  0.750000  0.400649  0.072606  1
  Ba  Ba8  1  0.250000  0.368550  0.714122  1
  Ba  Ba9  1  0.250000  0.868550  0.785878  1
  Ba  Ba10  1  0.750000  0.631450  0.285878  1
  Ba  Ba11  1  0.750000  0.131450  0.214122  1
  Cd  Cd12  1  0.250000  0.308057  0.916516  1
  Cd  Cd13  1  0.250000  0.808057  0.583484  1
  Cd  Cd14  1  0.750000  0.691943  0.083484  1
  Cd  Cd15  1  0.750000  0.191943  0.416516  1
  Cd  Cd16  1  0.250000  0.364329  0.212394  1
  Cd  Cd17  1  0.250000  0.864329  0.287606  1
  Cd  Cd18  1  0.750000  0.635671  0.787606  1
  Cd  Cd19  1  0.750000  0.135671  0.712394  1
  Bi  Bi20  1  0.250000  0.079494  0.362871  1
  Bi  Bi21  1  0.250000  0.579494  0.137129  1
  Bi  Bi22  1  0.750000  0.920506  0.637129  1
  Bi  Bi23  1  0.750000  0.420506  0.862871  1
  Bi  Bi24  1  0.250000  0.132767  0.799520  1
  Bi  Bi25  1  0.250000  0.632767  0.700480  1
  Bi  Bi26  1  0.750000  0.867233  0.200480  1
  Bi  Bi27  1  0.750000  0.367233  0.299520  1
  Bi  Bi28  1  0.250000  0.717515  0.420458  1
  Bi  Bi29  1  0.250000  0.217515  0.079542  1
  Bi  Bi30  1  0.750000  0.282485  0.579542  1
  Bi  Bi31  1  0.750000  0.782485  0.920458  1
