# generated using pymatgen
data_AcDyAlNi9
_symmetry_space_group_name_H-M   'P 1'
_cell_length_a   3.99562100
_cell_length_b   5.07884500
_cell_length_c   8.56240200
_cell_angle_alpha   90.00000000
_cell_angle_beta   90.00000000
_cell_angle_gamma   90.00000000
_symmetry_Int_Tables_number   1
_chemical_formula_structural   AcDyAlNi9
_chemical_formula_sum   'Ac1 Dy1 Al1 Ni9'
_cell_volume   173.75802028
_cell_formula_units_Z   1
loop_
 _symmetry_equiv_pos_site_id
 _symmetry_equiv_pos_as_xyz
  1  'x, y, z'
loop_
 _atom_site_type_symbol
 _atom_site_label
 _atom_site_symmetry_multiplicity
 _atom_site_fract_x
 _atom_site_fract_y
 _atom_site_fract_z
 _atom_site_occupancy
  Ac  Ac0  1  0.000000  0.500000  0.000000  1
  Dy  Dy1  1  0.000000  0.000000  0.500000  1
  Al  Al2  1  0.500000  0.500000  0.500000  1
  Ni  Ni3  1  0.000000  0.500000  0.336481  1
  Ni  Ni4  1  0.000000  0.000000  0.826320  1
  Ni  Ni5  1  0.000000  0.000000  0.173680  1
  Ni  Ni6  1  0.000000  0.500000  0.663519  1
  Ni  Ni7  1  0.500000  0.000000  0.000000  1
  Ni  Ni8  1  0.500000  0.761067  0.260484  1
  Ni  Ni9  1  0.500000  0.238933  0.739516  1
  Ni  Ni10  1  0.500000  0.238933  0.260484  1
  Ni  Ni11  1  0.500000  0.761067  0.739516  1
