# generated using pymatgen
data_Sr6TlCr2InO12
_symmetry_space_group_name_H-M   'P 1'
_cell_length_a   6.82882807
_cell_length_b   6.82877596
_cell_length_c   6.82875400
_cell_angle_alpha   91.75901536
_cell_angle_beta   91.75885206
_cell_angle_gamma   91.75876575
_symmetry_Int_Tables_number   1
_chemical_formula_structural   Sr6TlCr2InO12
_chemical_formula_sum   'Sr6 Tl1 Cr2 In1 O12'
_cell_volume   317.98258512
_cell_formula_units_Z   1
loop_
 _symmetry_equiv_pos_site_id
 _symmetry_equiv_pos_as_xyz
  1  'x, y, z'
loop_
 _atom_site_type_symbol
 _atom_site_label
 _atom_site_symmetry_multiplicity
 _atom_site_fract_x
 _atom_site_fract_y
 _atom_site_fract_z
 _atom_site_occupancy
  Sr  Sr0  1  0.615149  0.884856  0.249989  1
  Sr  Sr1  1  0.884860  0.249987  0.615155  1
  Sr  Sr2  1  0.249990  0.615157  0.884859  1
  Sr  Sr3  1  0.114416  0.749991  0.385592  1
  Sr  Sr4  1  0.749989  0.385598  0.114414  1
  Sr  Sr5  1  0.385598  0.114416  0.749998  1
  Tl  Tl6  1  0.250062  0.250053  0.250057  1
  Cr  Cr7  1  0.502528  0.502514  0.502559  1
  Cr  Cr8  1  0.997260  0.997237  0.997203  1
  In  In9  1  0.750107  0.750085  0.750095  1
  O  O10  1  0.550160  0.217537  0.416072  1
  O  O11  1  0.217532  0.416087  0.550166  1
  O  O12  1  0.416077  0.550177  0.217520  1
  O  O13  1  0.040478  0.908691  0.713525  1
  O  O14  1  0.908695  0.713516  0.040491  1
  O  O15  1  0.713511  0.040475  0.908699  1
  O  O16  1  0.459524  0.786520  0.591314  1
  O  O17  1  0.786513  0.591311  0.459503  1
  O  O18  1  0.591323  0.459518  0.786498  1
  O  O19  1  0.949808  0.083937  0.282521  1
  O  O20  1  0.083924  0.282512  0.949829  1
  O  O21  1  0.282499  0.949828  0.083939  1
