# generated using pymatgen
data_LuTh3(NiB4)4
_symmetry_space_group_name_H-M   'P 1'
_cell_length_a   6.91088698
_cell_length_b   6.91088714
_cell_length_c   6.91088788
_cell_angle_alpha   112.80892828
_cell_angle_beta   112.80892134
_cell_angle_gamma   102.98415475
_symmetry_Int_Tables_number   1
_chemical_formula_structural   LuTh3(NiB4)4
_chemical_formula_sum   'Lu1 Th3 Ni4 B16'
_cell_volume   251.68057614
_cell_formula_units_Z   1
loop_
 _symmetry_equiv_pos_site_id
 _symmetry_equiv_pos_as_xyz
  1  'x, y, z'
loop_
 _atom_site_type_symbol
 _atom_site_label
 _atom_site_symmetry_multiplicity
 _atom_site_fract_x
 _atom_site_fract_y
 _atom_site_fract_z
 _atom_site_occupancy
  Lu  Lu0  1  0.250000  0.750000  0.500000  1
  Th  Th1  1  0.203416  0.203416  0.000000  1
  Th  Th2  1  0.796584  0.796584  0.000000  1
  Th  Th3  1  0.750000  0.250000  0.500000  1
  Ni  Ni4  1  0.497923  0.268696  0.770774  1
  Ni  Ni5  1  0.497923  0.727149  0.229226  1
  Ni  Ni6  1  0.731304  0.502077  0.229226  1
  Ni  Ni7  1  0.272851  0.502077  0.770774  1
  B  B8  1  0.111358  0.274196  0.385790  1
  B  B9  1  0.888406  0.725569  0.614210  1
  B  B10  1  0.888406  0.274196  0.162838  1
  B  B11  1  0.111358  0.725569  0.837162  1
  B  B12  1  0.725804  0.888642  0.614210  1
  B  B13  1  0.274431  0.111594  0.385790  1
  B  B14  1  0.725804  0.111594  0.837162  1
  B  B15  1  0.274431  0.888642  0.162838  1
  B  B16  1  0.417748  0.420407  0.532268  1
  B  B17  1  0.888139  0.885480  0.467732  1
  B  B18  1  0.579593  0.111861  0.997341  1
  B  B19  1  0.114520  0.582252  0.002659  1
  B  B20  1  0.579593  0.582252  0.467732  1
  B  B21  1  0.114520  0.111861  0.532268  1
  B  B22  1  0.888139  0.420407  0.002659  1
  B  B23  1  0.417748  0.885480  0.997341  1
