# generated using pymatgen
data_Dy4Y7Ho5(CdIr)4
_symmetry_space_group_name_H-M   'P 1'
_cell_length_a   9.64022222
_cell_length_b   9.64022126
_cell_length_c   9.63863000
_cell_angle_alpha   60.00546015
_cell_angle_beta   60.00546344
_cell_angle_gamma   60.08197193
_symmetry_Int_Tables_number   1
_chemical_formula_structural   Dy4Y7Ho5(CdIr)4
_chemical_formula_sum   'Dy4 Y7 Ho5 Cd4 Ir4'
_cell_volume   633.83844238
_cell_formula_units_Z   1
loop_
 _symmetry_equiv_pos_site_id
 _symmetry_equiv_pos_as_xyz
  1  'x, y, z'
loop_
 _atom_site_type_symbol
 _atom_site_label
 _atom_site_symmetry_multiplicity
 _atom_site_fract_x
 _atom_site_fract_y
 _atom_site_fract_z
 _atom_site_occupancy
  Dy  Dy0  1  0.348923  0.348923  0.348890  1
  Dy  Dy1  1  0.348923  0.348923  0.953264  1
  Dy  Dy2  1  0.348855  0.953257  0.348945  1
  Dy  Dy3  1  0.953257  0.348855  0.348945  1
  Y  Y4  1  0.810626  0.810626  0.189374  1
  Y  Y5  1  0.938401  0.561619  0.562172  1
  Y  Y6  1  0.561619  0.938401  0.937807  1
  Y  Y7  1  0.561619  0.938401  0.562172  1
  Y  Y8  1  0.938401  0.561619  0.937807  1
  Y  Y9  1  0.561812  0.561812  0.938188  1
  Y  Y10  1  0.938163  0.938163  0.561837  1
  Ho  Ho11  1  0.810601  0.189167  0.189284  1
  Ho  Ho12  1  0.189167  0.810601  0.810948  1
  Ho  Ho13  1  0.189167  0.810601  0.189284  1
  Ho  Ho14  1  0.810601  0.189167  0.810948  1
  Ho  Ho15  1  0.189124  0.189124  0.810876  1
  Cd  Cd16  1  0.580506  0.580506  0.580573  1
  Cd  Cd17  1  0.580506  0.580506  0.258416  1
  Cd  Cd18  1  0.580599  0.258141  0.580631  1
  Cd  Cd19  1  0.258141  0.580599  0.580631  1
  Ir  Ir20  1  0.141465  0.141465  0.141222  1
  Ir  Ir21  1  0.141465  0.141465  0.575849  1
  Ir  Ir22  1  0.143252  0.574811  0.140969  1
  Ir  Ir23  1  0.574811  0.143252  0.140969  1
