# generated using pymatgen
data_Hf8Nb4(Ga3Ge)3
_symmetry_space_group_name_H-M   'P 1'
_cell_length_a   5.52116000
_cell_length_b   8.45140238
_cell_length_c   9.13739947
_cell_angle_alpha   89.93471631
_cell_angle_beta   90.00000000
_cell_angle_gamma   90.00000000
_symmetry_Int_Tables_number   1
_chemical_formula_structural   Hf8Nb4(Ga3Ge)3
_chemical_formula_sum   'Hf8 Nb4 Ga9 Ge3'
_cell_volume   426.36489781
_cell_formula_units_Z   1
loop_
 _symmetry_equiv_pos_site_id
 _symmetry_equiv_pos_as_xyz
  1  'x, y, z'
loop_
 _atom_site_type_symbol
 _atom_site_label
 _atom_site_symmetry_multiplicity
 _atom_site_fract_x
 _atom_site_fract_y
 _atom_site_fract_z
 _atom_site_occupancy
  Hf  Hf0  1  0.750000  0.470555  0.624199  1
  Hf  Hf1  1  0.250000  0.530565  0.376725  1
  Hf  Hf2  1  0.750000  0.970658  0.374290  1
  Hf  Hf3  1  0.250000  0.029036  0.625270  1
  Hf  Hf4  1  0.750000  0.369539  0.185291  1
  Hf  Hf5  1  0.250000  0.629507  0.815494  1
  Hf  Hf6  1  0.750000  0.871402  0.815696  1
  Hf  Hf7  1  0.250000  0.128625  0.183823  1
  Nb  Nb8  1  0.000561  0.750861  0.111370  1
  Nb  Nb9  1  0.499359  0.248771  0.888126  1
  Nb  Nb10  1  0.000641  0.248771  0.888126  1
  Nb  Nb11  1  0.499439  0.750861  0.111370  1
  Ga  Ga12  1  0.999508  0.750254  0.571671  1
  Ga  Ga13  1  0.499019  0.250019  0.428225  1
  Ga  Ga14  1  0.000981  0.250019  0.428225  1
  Ga  Ga15  1  0.500492  0.750254  0.571671  1
  Ga  Ga16  1  0.250000  0.451612  0.080288  1
  Ga  Ga17  1  0.750000  0.134685  0.648580  1
  Ga  Ga18  1  0.250000  0.866234  0.350889  1
  Ga  Ga19  1  0.750000  0.633878  0.349849  1
  Ga  Ga20  1  0.250000  0.366108  0.649730  1
  Ge  Ge21  1  0.750000  0.049698  0.080290  1
  Ge  Ge22  1  0.250000  0.950556  0.919396  1
  Ge  Ge23  1  0.750000  0.547531  0.921404  1
