# generated using pymatgen
data_Ho3Mg3SiHg2
_symmetry_space_group_name_H-M   'P 1'
_cell_length_a   7.45807500
_cell_length_b   7.45807353
_cell_length_c   4.34168100
_cell_angle_alpha   90.00000000
_cell_angle_beta   90.00000000
_cell_angle_gamma   120.00000210
_symmetry_Int_Tables_number   1
_chemical_formula_structural   Ho3Mg3SiHg2
_chemical_formula_sum   'Ho3 Mg3 Si1 Hg2'
_cell_volume   209.14232923
_cell_formula_units_Z   1
loop_
 _symmetry_equiv_pos_site_id
 _symmetry_equiv_pos_as_xyz
  1  'x, y, z'
loop_
 _atom_site_type_symbol
 _atom_site_label
 _atom_site_symmetry_multiplicity
 _atom_site_fract_x
 _atom_site_fract_y
 _atom_site_fract_z
 _atom_site_occupancy
  Ho  Ho0  1  0.579351  0.008643  0.000000  1
  Ho  Ho1  1  0.991357  0.570706  0.000000  1
  Ho  Ho2  1  0.429294  0.420649  0.000000  1
  Mg  Mg3  1  0.250371  0.001748  0.500000  1
  Mg  Mg4  1  0.998252  0.248623  0.500000  1
  Mg  Mg5  1  0.751377  0.749629  0.500000  1
  Si  Si6  1  0.666667  0.333333  0.500000  1
  Hg  Hg7  1  0.333333  0.666667  0.500000  1
  Hg  Hg8  1  0.000000  0.000000  0.000000  1
