# generated using pymatgen
data_Y4Lu4Cr(B8Rh)3
_symmetry_space_group_name_H-M   'P 1'
_cell_length_a   3.60937000
_cell_length_b   9.10235882
_cell_length_c   11.47552171
_cell_angle_alpha   90.12149410
_cell_angle_beta   90.00000000
_cell_angle_gamma   90.00000000
_symmetry_Int_Tables_number   1
_chemical_formula_structural   Y4Lu4Cr(B8Rh)3
_chemical_formula_sum   'Y4 Lu4 Cr1 B24 Rh3'
_cell_volume   377.01342792
_cell_formula_units_Z   1
loop_
 _symmetry_equiv_pos_site_id
 _symmetry_equiv_pos_as_xyz
  1  'x, y, z'
loop_
 _atom_site_type_symbol
 _atom_site_label
 _atom_site_symmetry_multiplicity
 _atom_site_fract_x
 _atom_site_fract_y
 _atom_site_fract_z
 _atom_site_occupancy
  Y  Y0  1  0.500000  0.318348  0.410740  1
  Y  Y1  1  0.500000  0.677908  0.585329  1
  Y  Y2  1  0.500000  0.178343  0.917884  1
  Y  Y3  1  0.500000  0.825186  0.087354  1
  Lu  Lu4  1  0.500000  0.442061  0.126257  1
  Lu  Lu5  1  0.500000  0.556265  0.873180  1
  Lu  Lu6  1  0.500000  0.055891  0.627692  1
  Lu  Lu7  1  0.500000  0.947323  0.371815  1
  Cr  Cr8  1  0.500000  0.139627  0.180280  1
  B  B9  1  0.000000  0.104769  0.472165  1
  B  B10  1  0.000000  0.894950  0.528844  1
  B  B11  1  0.000000  0.395899  0.970871  1
  B  B12  1  0.000000  0.605565  0.028504  1
  B  B13  1  0.000000  0.131435  0.315020  1
  B  B14  1  0.000000  0.867862  0.683555  1
  B  B15  1  0.000000  0.368514  0.816943  1
  B  B16  1  0.000000  0.631860  0.183462  1
  B  B17  1  0.000000  0.053832  0.067620  1
  B  B18  1  0.000000  0.946420  0.933837  1
  B  B19  1  0.000000  0.445024  0.565726  1
  B  B20  1  0.000000  0.553423  0.433000  1
  B  B21  1  0.000000  0.482303  0.285923  1
  B  B22  1  0.000000  0.517560  0.713430  1
  B  B23  1  0.000000  0.017605  0.786758  1
  B  B24  1  0.000000  0.983685  0.213605  1
  B  B25  1  0.000000  0.249608  0.081473  1
  B  B26  1  0.000000  0.749836  0.919836  1
  B  B27  1  0.000000  0.248922  0.579629  1
  B  B28  1  0.000000  0.751156  0.419520  1
  B  B29  1  0.000000  0.292937  0.234344  1
  B  B30  1  0.000000  0.705312  0.764392  1
  B  B31  1  0.000000  0.206533  0.735753  1
  B  B32  1  0.000000  0.794002  0.265485  1
  Rh  Rh33  1  0.500000  0.860015  0.819899  1
  Rh  Rh34  1  0.500000  0.360203  0.680052  1
  Rh  Rh35  1  0.500000  0.639816  0.319825  1
