# generated using pymatgen
data_Er3GaSn3RuRh
_symmetry_space_group_name_H-M   'P 1'
_cell_length_a   7.42913300
_cell_length_b   7.42913320
_cell_length_c   4.05080700
_cell_angle_alpha   90.00000000
_cell_angle_beta   90.00000000
_cell_angle_gamma   119.99998576
_symmetry_Int_Tables_number   1
_chemical_formula_structural   Er3GaSn3RuRh
_chemical_formula_sum   'Er3 Ga1 Sn3 Ru1 Rh1'
_cell_volume   193.61924579
_cell_formula_units_Z   1
loop_
 _symmetry_equiv_pos_site_id
 _symmetry_equiv_pos_as_xyz
  1  'x, y, z'
loop_
 _atom_site_type_symbol
 _atom_site_label
 _atom_site_symmetry_multiplicity
 _atom_site_fract_x
 _atom_site_fract_y
 _atom_site_fract_z
 _atom_site_occupancy
  Er  Er0  1  0.395293  0.408824  0.000000  1
  Er  Er1  1  0.013531  0.604707  0.000000  1
  Er  Er2  1  0.591176  0.986469  0.000000  1
  Ga  Ga3  1  0.666667  0.333333  0.500000  1
  Sn  Sn4  1  0.742704  0.746564  0.500000  1
  Sn  Sn5  1  0.003861  0.257296  0.500000  1
  Sn  Sn6  1  0.253436  0.996139  0.500000  1
  Ru  Ru7  1  0.000000  0.000000  0.000000  1
  Rh  Rh8  1  0.333333  0.666667  0.500000  1
