# generated using pymatgen
data_HoEr7MoOs3C8
_symmetry_space_group_name_H-M   'P 1'
_cell_length_a   5.06434900
_cell_length_b   6.50450893
_cell_length_c   9.74758044
_cell_angle_alpha   89.60167557
_cell_angle_beta   90.00000000
_cell_angle_gamma   90.00000000
_symmetry_Int_Tables_number   1
_chemical_formula_structural   HoEr7MoOs3C8
_chemical_formula_sum   'Ho1 Er7 Mo1 Os3 C8'
_cell_volume   321.08829464
_cell_formula_units_Z   1
loop_
 _symmetry_equiv_pos_site_id
 _symmetry_equiv_pos_as_xyz
  1  'x, y, z'
loop_
 _atom_site_type_symbol
 _atom_site_label
 _atom_site_symmetry_multiplicity
 _atom_site_fract_x
 _atom_site_fract_y
 _atom_site_fract_z
 _atom_site_occupancy
  Ho  Ho0  1  0.750000  0.969314  0.715963  1
  Er  Er1  1  0.250000  0.677451  0.554878  1
  Er  Er2  1  0.750000  0.323426  0.444006  1
  Er  Er3  1  0.750000  0.825721  0.056228  1
  Er  Er4  1  0.250000  0.179027  0.944211  1
  Er  Er5  1  0.250000  0.532799  0.214535  1
  Er  Er6  1  0.750000  0.466099  0.780369  1
  Er  Er7  1  0.250000  0.030690  0.285069  1
  Mo  Mo8  1  0.250000  0.718994  0.869057  1
  Os  Os9  1  0.750000  0.281367  0.134302  1
  Os  Os10  1  0.750000  0.779351  0.365226  1
  Os  Os11  1  0.250000  0.221358  0.631595  1
  C  C12  1  0.250000  0.450255  0.758897  1
  C  C13  1  0.750000  0.545189  0.242072  1
  C  C14  1  0.750000  0.046313  0.259208  1
  C  C15  1  0.250000  0.955751  0.739705  1
  C  C16  1  0.250000  0.826545  0.058330  1
  C  C17  1  0.750000  0.173979  0.948554  1
  C  C18  1  0.750000  0.670916  0.552190  1
  C  C19  1  0.250000  0.325455  0.445605  1
