# generated using pymatgen
data_Ho20Zn6CoRu
_symmetry_space_group_name_H-M   'P 1'
_cell_length_a   9.36738500
_cell_length_b   9.36738579
_cell_length_c   9.59008900
_cell_angle_alpha   90.00000000
_cell_angle_beta   90.00000000
_cell_angle_gamma   120.00000074
_symmetry_Int_Tables_number   1
_chemical_formula_structural   Ho20Zn6CoRu
_chemical_formula_sum   'Ho20 Zn6 Co1 Ru1'
_cell_volume   728.76925565
_cell_formula_units_Z   1
loop_
 _symmetry_equiv_pos_site_id
 _symmetry_equiv_pos_as_xyz
  1  'x, y, z'
loop_
 _atom_site_type_symbol
 _atom_site_label
 _atom_site_symmetry_multiplicity
 _atom_site_fract_x
 _atom_site_fract_y
 _atom_site_fract_z
 _atom_site_occupancy
  Ho  Ho0  1  0.000000  0.000000  0.499800  1
  Ho  Ho1  1  0.000000  0.000000  0.000200  1
  Ho  Ho2  1  0.210040  0.789960  0.437411  1
  Ho  Ho3  1  0.210040  0.420080  0.437411  1
  Ho  Ho4  1  0.579920  0.789960  0.437411  1
  Ho  Ho5  1  0.793103  0.206897  0.558254  1
  Ho  Ho6  1  0.793103  0.586207  0.558254  1
  Ho  Ho7  1  0.413793  0.206897  0.558254  1
  Ho  Ho8  1  0.793103  0.206897  0.941746  1
  Ho  Ho9  1  0.793103  0.586207  0.941746  1
  Ho  Ho10  1  0.413793  0.206897  0.941746  1
  Ho  Ho11  1  0.210040  0.789960  0.062589  1
  Ho  Ho12  1  0.210040  0.420080  0.062589  1
  Ho  Ho13  1  0.579920  0.789960  0.062589  1
  Ho  Ho14  1  0.541744  0.458256  0.250000  1
  Ho  Ho15  1  0.541744  0.083488  0.250000  1
  Ho  Ho16  1  0.916512  0.458256  0.250000  1
  Ho  Ho17  1  0.457998  0.542002  0.750000  1
  Ho  Ho18  1  0.457998  0.915998  0.750000  1
  Ho  Ho19  1  0.084002  0.542002  0.750000  1
  Zn  Zn20  1  0.885661  0.114339  0.250000  1
  Zn  Zn21  1  0.885661  0.771323  0.250000  1
  Zn  Zn22  1  0.228677  0.114339  0.250000  1
  Zn  Zn23  1  0.114311  0.885689  0.750000  1
  Zn  Zn24  1  0.114311  0.228622  0.750000  1
  Zn  Zn25  1  0.771378  0.885689  0.750000  1
  Co  Co26  1  0.333333  0.666667  0.250000  1
  Ru  Ru27  1  0.666667  0.333333  0.750000  1
