# generated using pymatgen
data_Tm4Co16Si7P5Ru4
_symmetry_space_group_name_H-M   'P 1'
_cell_length_a   3.70657200
_cell_length_b   10.39951150
_cell_length_c   11.87782324
_cell_angle_alpha   89.88235589
_cell_angle_beta   90.00000000
_cell_angle_gamma   90.00000000
_symmetry_Int_Tables_number   1
_chemical_formula_structural   Tm4Co16Si7P5Ru4
_chemical_formula_sum   'Tm4 Co16 Si7 P5 Ru4'
_cell_volume   457.84800130
_cell_formula_units_Z   1
loop_
 _symmetry_equiv_pos_site_id
 _symmetry_equiv_pos_as_xyz
  1  'x, y, z'
loop_
 _atom_site_type_symbol
 _atom_site_label
 _atom_site_symmetry_multiplicity
 _atom_site_fract_x
 _atom_site_fract_y
 _atom_site_fract_z
 _atom_site_occupancy
  Tm  Tm0  1  0.250000  0.584140  0.702825  1
  Tm  Tm1  1  0.250000  0.918936  0.202968  1
  Tm  Tm2  1  0.750000  0.419033  0.297310  1
  Tm  Tm3  1  0.750000  0.082335  0.796774  1
  Co  Co4  1  0.250000  0.412519  0.489613  1
  Co  Co5  1  0.250000  0.089002  0.988414  1
  Co  Co6  1  0.750000  0.592874  0.514363  1
  Co  Co7  1  0.750000  0.910625  0.009532  1
  Co  Co8  1  0.250000  0.211752  0.172629  1
  Co  Co9  1  0.250000  0.288031  0.672843  1
  Co  Co10  1  0.750000  0.786571  0.823667  1
  Co  Co11  1  0.750000  0.712198  0.327614  1
  Co  Co12  1  0.250000  0.884241  0.702891  1
  Co  Co13  1  0.250000  0.613279  0.203851  1
  Co  Co14  1  0.750000  0.112585  0.295992  1
  Co  Co15  1  0.750000  0.387857  0.795617  1
  Co  Co16  1  0.250000  0.468612  0.930880  1
  Co  Co17  1  0.250000  0.031127  0.431772  1
  Co  Co18  1  0.750000  0.531702  0.069254  1
  Co  Co19  1  0.750000  0.963356  0.570837  1
  Si  Si20  1  0.250000  0.415902  0.112677  1
  Si  Si21  1  0.250000  0.083779  0.612687  1
  Si  Si22  1  0.750000  0.583626  0.887758  1
  Si  Si23  1  0.750000  0.915999  0.387206  1
  Si  Si24  1  0.250000  0.271191  0.865111  1
  Si  Si25  1  0.250000  0.229032  0.365471  1
  Si  Si26  1  0.750000  0.729494  0.134509  1
  P  P27  1  0.750000  0.771013  0.636526  1
  P  P28  1  0.250000  0.597258  0.390197  1
  P  P29  1  0.250000  0.903176  0.890331  1
  P  P30  1  0.750000  0.403224  0.609379  1
  P  P31  1  0.750000  0.097151  0.108718  1
  Ru  Ru32  1  0.250000  0.711910  0.989793  1
  Ru  Ru33  1  0.250000  0.786532  0.491232  1
  Ru  Ru34  1  0.750000  0.288353  0.008969  1
  Ru  Ru35  1  0.750000  0.211584  0.509791  1
