# generated using pymatgen
data_NdTh3Al13Ga5Ir6
_symmetry_space_group_name_H-M   'P 1'
_cell_length_a   7.64171618
_cell_length_b   7.64259529
_cell_length_c   9.61018900
_cell_angle_alpha   90.00000000
_cell_angle_beta   90.00000000
_cell_angle_gamma   119.63514354
_symmetry_Int_Tables_number   1
_chemical_formula_structural   NdTh3Al13Ga5Ir6
_chemical_formula_sum   'Nd1 Th3 Al13 Ga5 Ir6'
_cell_volume   487.84214144
_cell_formula_units_Z   1
loop_
 _symmetry_equiv_pos_site_id
 _symmetry_equiv_pos_as_xyz
  1  'x, y, z'
loop_
 _atom_site_type_symbol
 _atom_site_label
 _atom_site_symmetry_multiplicity
 _atom_site_fract_x
 _atom_site_fract_y
 _atom_site_fract_z
 _atom_site_occupancy
  Nd  Nd0  1  0.329441  0.004102  0.750000  1
  Th  Th1  1  0.998612  0.673525  0.250000  1
  Th  Th2  1  0.004087  0.329635  0.750000  1
  Th  Th3  1  0.669817  0.993490  0.250000  1
  Al  Al4  1  0.003639  0.335146  0.073407  1
  Al  Al5  1  0.997783  0.667738  0.926387  1
  Al  Al6  1  0.997783  0.667738  0.573613  1
  Al  Al7  1  0.335827  0.004959  0.429935  1
  Al  Al8  1  0.003639  0.335146  0.426593  1
  Al  Al9  1  0.662273  0.995786  0.573493  1
  Al  Al10  1  0.662273  0.995786  0.926507  1
  Al  Al11  1  0.335827  0.004959  0.070065  1
  Al  Al12  1  0.336138  0.334282  0.551108  1
  Al  Al13  1  0.663320  0.662621  0.448798  1
  Al  Al14  1  0.663320  0.662621  0.051202  1
  Al  Al15  1  0.336138  0.334282  0.948892  1
  Al  Al16  1  0.545490  0.339552  0.250000  1
  Ga  Ga17  1  0.136875  0.136543  0.250000  1
  Ga  Ga18  1  0.868610  0.867554  0.750000  1
  Ga  Ga19  1  0.340874  0.541640  0.250000  1
  Ga  Ga20  1  0.657299  0.451933  0.750000  1
  Ga  Ga21  1  0.454983  0.660044  0.750000  1
  Ir  Ir22  1  0.673182  0.329807  0.003628  1
  Ir  Ir23  1  0.327454  0.671040  0.001489  1
  Ir  Ir24  1  0.327454  0.671040  0.498511  1
  Ir  Ir25  1  0.673182  0.329807  0.496372  1
  Ir  Ir26  1  0.997341  0.999611  0.002002  1
  Ir  Ir27  1  0.997341  0.999611  0.497998  1
