# generated using pymatgen
data_TbHf2Fe2Co7
_symmetry_space_group_name_H-M   'P 1'
_cell_length_a   8.37734695
_cell_length_b   8.37734669
_cell_length_c   8.37919274
_cell_angle_alpha   33.98402107
_cell_angle_beta   33.98402429
_cell_angle_gamma   34.54256866
_symmetry_Int_Tables_number   1
_chemical_formula_structural   TbHf2Fe2Co7
_chemical_formula_sum   'Tb1 Hf2 Fe2 Co7'
_cell_volume   165.36959976
_cell_formula_units_Z   1
loop_
 _symmetry_equiv_pos_site_id
 _symmetry_equiv_pos_as_xyz
  1  'x, y, z'
loop_
 _atom_site_type_symbol
 _atom_site_label
 _atom_site_symmetry_multiplicity
 _atom_site_fract_x
 _atom_site_fract_y
 _atom_site_fract_z
 _atom_site_occupancy
  Tb  Tb0  1  0.999900  0.999900  0.999040  1
  Hf  Hf1  1  0.141323  0.141323  0.136604  1
  Hf  Hf2  1  0.859068  0.859068  0.858177  1
  Fe  Fe3  1  0.498084  0.498084  0.502720  1
  Fe  Fe4  1  0.409928  0.409928  0.926435  1
  Co  Co5  1  0.339971  0.339971  0.327706  1
  Co  Co6  1  0.661723  0.661723  0.672352  1
  Co  Co7  1  0.079747  0.589757  0.585824  1
  Co  Co8  1  0.590254  0.590254  0.076858  1
  Co  Co9  1  0.589757  0.079747  0.585824  1
  Co  Co10  1  0.411564  0.918679  0.414231  1
  Co  Co11  1  0.918679  0.411564  0.414231  1
