# generated using pymatgen
data_La4Y12Cd4Ir3Pt
_symmetry_space_group_name_H-M   'P 1'
_cell_length_a   9.79797861
_cell_length_b   9.79797796
_cell_length_c   9.79797911
_cell_angle_alpha   60.12036091
_cell_angle_beta   60.12036448
_cell_angle_gamma   60.12036035
_symmetry_Int_Tables_number   1
_chemical_formula_structural   La4Y12Cd4Ir3Pt
_chemical_formula_sum   'La4 Y12 Cd4 Ir3 Pt1'
_cell_volume   666.92514324
_cell_formula_units_Z   1
loop_
 _symmetry_equiv_pos_site_id
 _symmetry_equiv_pos_as_xyz
  1  'x, y, z'
loop_
 _atom_site_type_symbol
 _atom_site_label
 _atom_site_symmetry_multiplicity
 _atom_site_fract_x
 _atom_site_fract_y
 _atom_site_fract_z
 _atom_site_occupancy
  La  La0  1  0.349030  0.349030  0.349030  1
  La  La1  1  0.353416  0.353416  0.946399  1
  La  La2  1  0.353416  0.946399  0.353416  1
  La  La3  1  0.946399  0.353416  0.353416  1
  Y  Y4  1  0.808048  0.188518  0.188518  1
  Y  Y5  1  0.185387  0.812671  0.812671  1
  Y  Y6  1  0.188518  0.808048  0.188518  1
  Y  Y7  1  0.812671  0.185387  0.812671  1
  Y  Y8  1  0.188518  0.188518  0.808048  1
  Y  Y9  1  0.812671  0.812671  0.185387  1
  Y  Y10  1  0.935837  0.565373  0.565373  1
  Y  Y11  1  0.566269  0.935160  0.935160  1
  Y  Y12  1  0.565373  0.935837  0.565373  1
  Y  Y13  1  0.935160  0.566269  0.935160  1
  Y  Y14  1  0.565373  0.565373  0.935837  1
  Y  Y15  1  0.935160  0.935160  0.566269  1
  Cd  Cd16  1  0.582290  0.582290  0.582290  1
  Cd  Cd17  1  0.582404  0.582404  0.252538  1
  Cd  Cd18  1  0.582404  0.252538  0.582404  1
  Cd  Cd19  1  0.252538  0.582404  0.582404  1
  Ir  Ir20  1  0.140735  0.140735  0.577571  1
  Ir  Ir21  1  0.140735  0.577571  0.140735  1
  Ir  Ir22  1  0.577571  0.140735  0.140735  1
  Pt  Pt23  1  0.140077  0.140077  0.140077  1
