# generated using pymatgen
data_Nd3Tm(MoO6)2
_symmetry_space_group_name_H-M   'P 1'
_cell_length_a   10.18188091
_cell_length_b   10.18188123
_cell_length_c   5.49753196
_cell_angle_alpha   74.96968422
_cell_angle_beta   74.96967466
_cell_angle_gamma   68.51900603
_symmetry_Int_Tables_number   1
_chemical_formula_structural   Nd3Tm(MoO6)2
_chemical_formula_sum   'Nd6 Tm2 Mo4 O24'
_cell_volume   503.56191035
_cell_formula_units_Z   2
loop_
 _symmetry_equiv_pos_site_id
 _symmetry_equiv_pos_as_xyz
  1  'x, y, z'
loop_
 _atom_site_type_symbol
 _atom_site_label
 _atom_site_symmetry_multiplicity
 _atom_site_fract_x
 _atom_site_fract_y
 _atom_site_fract_z
 _atom_site_occupancy
  Nd  Nd0  1  0.551732  0.785814  0.621872  1
  Nd  Nd1  1  0.785814  0.551732  0.121872  1
  Nd  Nd2  1  0.448268  0.214186  0.378128  1
  Nd  Nd3  1  0.214186  0.448268  0.878128  1
  Nd  Nd4  1  0.862640  0.137360  0.250000  1
  Nd  Nd5  1  0.137360  0.862640  0.750000  1
  Tm  Tm6  1  0.400367  0.599633  0.250000  1
  Tm  Tm7  1  0.599633  0.400367  0.750000  1
  Mo  Mo8  1  0.297314  0.007998  0.066873  1
  Mo  Mo9  1  0.992002  0.702686  0.433127  1
  Mo  Mo10  1  0.702686  0.992002  0.933127  1
  Mo  Mo11  1  0.007998  0.297314  0.566873  1
  O  O12  1  0.605638  0.567990  0.925596  1
  O  O13  1  0.432010  0.394362  0.574404  1
  O  O14  1  0.394362  0.432010  0.074404  1
  O  O15  1  0.567990  0.605638  0.425596  1
  O  O16  1  0.338205  0.803517  0.945549  1
  O  O17  1  0.196483  0.661795  0.554451  1
  O  O18  1  0.661795  0.196483  0.054451  1
  O  O19  1  0.803517  0.338205  0.445549  1
  O  O20  1  0.329177  0.890741  0.379321  1
  O  O21  1  0.109259  0.670823  0.120679  1
  O  O22  1  0.670823  0.109259  0.620679  1
  O  O23  1  0.890741  0.329177  0.879321  1
  O  O24  1  0.178869  0.289472  0.632271  1
  O  O25  1  0.710528  0.821131  0.867729  1
  O  O26  1  0.821131  0.710528  0.367729  1
  O  O27  1  0.289472  0.178869  0.132271  1
  O  O28  1  0.044593  0.116121  0.520684  1
  O  O29  1  0.883879  0.955407  0.979316  1
  O  O30  1  0.427216  0.022754  0.763938  1
  O  O31  1  0.116121  0.044593  0.020684  1
  O  O32  1  0.022754  0.427216  0.263938  1
  O  O33  1  0.572784  0.977246  0.236062  1
  O  O34  1  0.977246  0.572784  0.736062  1
  O  O35  1  0.955407  0.883879  0.479316  1
