# generated using pymatgen
data_Dy2CoNiH8
_symmetry_space_group_name_H-M   'P 1'
_cell_length_a   6.02815211
_cell_length_b   6.02815104
_cell_length_c   4.75223200
_cell_angle_alpha   90.00000000
_cell_angle_beta   90.00000000
_cell_angle_gamma   145.44650003
_symmetry_Int_Tables_number   1
_chemical_formula_structural   Dy2CoNiH8
_chemical_formula_sum   'Dy2 Co1 Ni1 H8'
_cell_volume   97.94526344
_cell_formula_units_Z   1
loop_
 _symmetry_equiv_pos_site_id
 _symmetry_equiv_pos_as_xyz
  1  'x, y, z'
loop_
 _atom_site_type_symbol
 _atom_site_label
 _atom_site_symmetry_multiplicity
 _atom_site_fract_x
 _atom_site_fract_y
 _atom_site_fract_z
 _atom_site_occupancy
  Dy  Dy0  1  0.866076  0.133924  0.750000  1
  Dy  Dy1  1  0.131664  0.868336  0.250000  1
  Co  Co2  1  0.404418  0.595582  0.250000  1
  Ni  Ni3  1  0.597105  0.402895  0.750000  1
  H  H4  1  0.087247  0.912753  0.750000  1
  H  H5  1  0.911927  0.088073  0.250000  1
  H  H6  1  0.693342  0.306658  0.495956  1
  H  H7  1  0.307388  0.692612  0.494274  1
  H  H8  1  0.693342  0.306658  0.004044  1
  H  H9  1  0.307388  0.692612  0.005726  1
  H  H10  1  0.500052  0.499948  0.003608  1
  H  H11  1  0.500052  0.499948  0.496392  1
