# generated using pymatgen
data_Ce4MnNb(B2Ru5)2
_symmetry_space_group_name_H-M   'P 1'
_cell_length_a   9.71160400
_cell_length_b   9.71160400
_cell_length_c   3.13239000
_cell_angle_alpha   90.00000000
_cell_angle_beta   90.00000000
_cell_angle_gamma   90.00000000
_symmetry_Int_Tables_number   1
_chemical_formula_structural   Ce4MnNb(B2Ru5)2
_chemical_formula_sum   'Ce4 Mn1 Nb1 B4 Ru10'
_cell_volume   295.43215300
_cell_formula_units_Z   1
loop_
 _symmetry_equiv_pos_site_id
 _symmetry_equiv_pos_as_xyz
  1  'x, y, z'
loop_
 _atom_site_type_symbol
 _atom_site_label
 _atom_site_symmetry_multiplicity
 _atom_site_fract_x
 _atom_site_fract_y
 _atom_site_fract_z
 _atom_site_occupancy
  Ce  Ce0  1  0.820052  0.673108  0.000000  1
  Ce  Ce1  1  0.179948  0.326892  0.000000  1
  Ce  Ce2  1  0.326892  0.820052  0.000000  1
  Ce  Ce3  1  0.673108  0.179948  0.000000  1
  Mn  Mn4  1  0.500000  0.500000  0.000000  1
  Nb  Nb5  1  0.000000  0.000000  0.000000  1
  B  B6  1  0.619973  0.876751  0.000000  1
  B  B7  1  0.380027  0.123249  0.000000  1
  B  B8  1  0.123249  0.619973  0.000000  1
  B  B9  1  0.876751  0.380027  0.000000  1
  Ru  Ru10  1  0.571077  0.719373  0.500000  1
  Ru  Ru11  1  0.428923  0.280627  0.500000  1
  Ru  Ru12  1  0.069708  0.780148  0.500000  1
  Ru  Ru13  1  0.930292  0.219852  0.500000  1
  Ru  Ru14  1  0.280627  0.571077  0.500000  1
  Ru  Ru15  1  0.719373  0.428923  0.500000  1
  Ru  Ru16  1  0.219852  0.069708  0.500000  1
  Ru  Ru17  1  0.780148  0.930292  0.500000  1
  Ru  Ru18  1  0.500000  0.000000  0.500000  1
  Ru  Ru19  1  0.000000  0.500000  0.500000  1
