# generated using pymatgen
data_Ho20Ru11Au
_symmetry_space_group_name_H-M   'P 1'
_cell_length_a   10.80944634
_cell_length_b   10.80944578
_cell_length_c   6.37032500
_cell_angle_alpha   90.05905578
_cell_angle_beta   90.05905227
_cell_angle_gamma   89.68732353
_symmetry_Int_Tables_number   1
_chemical_formula_structural   Ho20Ru11Au
_chemical_formula_sum   'Ho20 Ru11 Au1'
_cell_volume   744.32317492
_cell_formula_units_Z   1
loop_
 _symmetry_equiv_pos_site_id
 _symmetry_equiv_pos_as_xyz
  1  'x, y, z'
loop_
 _atom_site_type_symbol
 _atom_site_label
 _atom_site_symmetry_multiplicity
 _atom_site_fract_x
 _atom_site_fract_y
 _atom_site_fract_z
 _atom_site_occupancy
  Ho  Ho0  1  0.292206  0.086717  0.376810  1
  Ho  Ho1  1  0.291125  0.922668  0.876704  1
  Ho  Ho2  1  0.708542  0.087157  0.876447  1
  Ho  Ho3  1  0.708876  0.913998  0.377419  1
  Ho  Ho4  1  0.593105  0.795781  0.878189  1
  Ho  Ho5  1  0.587076  0.205806  0.375617  1
  Ho  Ho6  1  0.417355  0.797336  0.364746  1
  Ho  Ho7  1  0.413836  0.209972  0.875998  1
  Ho  Ho8  1  0.204219  0.406895  0.621811  1
  Ho  Ho9  1  0.202664  0.582645  0.135254  1
  Ho  Ho10  1  0.794194  0.412924  0.124383  1
  Ho  Ho11  1  0.790028  0.586164  0.624002  1
  Ho  Ho12  1  0.913283  0.707794  0.123190  1
  Ho  Ho13  1  0.912843  0.291458  0.623553  1
  Ho  Ho14  1  0.077332  0.708875  0.623296  1
  Ho  Ho15  1  0.086002  0.291124  0.122581  1
  Ho  Ho16  1  0.000296  0.000146  0.499171  1
  Ho  Ho17  1  0.999854  0.999704  0.000829  1
  Ho  Ho18  1  0.505445  0.496182  0.004516  1
  Ho  Ho19  1  0.503818  0.494555  0.495484  1
  Ru  Ru20  1  0.846979  0.153021  0.250000  1
  Ru  Ru21  1  0.846899  0.846620  0.749557  1
  Ru  Ru22  1  0.153380  0.153101  0.750443  1
  Ru  Ru23  1  0.155048  0.844952  0.250000  1
  Ru  Ru24  1  0.652725  0.347275  0.750000  1
  Ru  Ru25  1  0.650855  0.652879  0.250481  1
  Ru  Ru26  1  0.347121  0.349145  0.249519  1
  Ru  Ru27  1  0.500264  0.999523  0.123378  1
  Ru  Ru28  1  0.499781  0.999915  0.625902  1
  Ru  Ru29  1  0.000085  0.500219  0.874098  1
  Ru  Ru30  1  0.000477  0.499736  0.376622  1
  Au  Au31  1  0.344285  0.655715  0.750000  1
