# generated using pymatgen
data_Yb4Al2(SiNi3)3
_symmetry_space_group_name_H-M   'P 1'
_cell_length_a   5.14100632
_cell_length_b   5.14100661
_cell_length_c   11.67171141
_cell_angle_alpha   77.27725081
_cell_angle_beta   77.27725051
_cell_angle_gamma   59.99998539
_symmetry_Int_Tables_number   1
_chemical_formula_structural   Yb4Al2(SiNi3)3
_chemical_formula_sum   'Yb4 Al2 Si3 Ni9'
_cell_volume   258.37098914
_cell_formula_units_Z   1
loop_
 _symmetry_equiv_pos_site_id
 _symmetry_equiv_pos_as_xyz
  1  'x, y, z'
loop_
 _atom_site_type_symbol
 _atom_site_label
 _atom_site_symmetry_multiplicity
 _atom_site_fract_x
 _atom_site_fract_y
 _atom_site_fract_z
 _atom_site_occupancy
  Yb  Yb0  1  0.951032  0.951032  0.146905  1
  Yb  Yb1  1  0.048968  0.048968  0.853095  1
  Yb  Yb2  1  0.854745  0.854745  0.435765  1
  Yb  Yb3  1  0.145255  0.145255  0.564235  1
  Al  Al4  1  0.610336  0.610336  0.168991  1
  Al  Al5  1  0.389664  0.389664  0.831009  1
  Si  Si6  1  0.500000  0.500000  0.500000  1
  Si  Si7  1  0.722586  0.722586  0.832239  1
  Si  Si8  1  0.277414  0.277414  0.167761  1
  Ni  Ni9  1  0.000000  0.500000  0.000000  1
  Ni  Ni10  1  0.500000  0.000000  0.000000  1
  Ni  Ni11  1  0.500000  0.500000  0.000000  1
  Ni  Ni12  1  0.386327  0.386327  0.333477  1
  Ni  Ni13  1  0.893868  0.386327  0.333477  1
  Ni  Ni14  1  0.386327  0.893868  0.333477  1
  Ni  Ni15  1  0.613673  0.613673  0.666523  1
  Ni  Ni16  1  0.106132  0.613673  0.666523  1
  Ni  Ni17  1  0.613673  0.106132  0.666523  1
