# generated using pymatgen
data_MnCd(S2O7)2
_symmetry_space_group_name_H-M   'P 1'
_cell_length_a   5.19720406
_cell_length_b   7.16896951
_cell_length_c   8.89209105
_cell_angle_alpha   92.78144957
_cell_angle_beta   94.89414407
_cell_angle_gamma   107.35160565
_symmetry_Int_Tables_number   1
_chemical_formula_structural   MnCd(S2O7)2
_chemical_formula_sum   'Mn1 Cd1 S4 O14'
_cell_volume   314.12242513
_cell_formula_units_Z   1
loop_
 _symmetry_equiv_pos_site_id
 _symmetry_equiv_pos_as_xyz
  1  'x, y, z'
loop_
 _atom_site_type_symbol
 _atom_site_label
 _atom_site_symmetry_multiplicity
 _atom_site_fract_x
 _atom_site_fract_y
 _atom_site_fract_z
 _atom_site_occupancy
  Mn  Mn0  1  0.500000  0.000000  0.500000  1
  Cd  Cd1  1  0.000000  0.500000  0.000000  1
  S  S2  1  0.504451  0.646630  0.763730  1
  S  S3  1  0.495549  0.353370  0.236270  1
  S  S4  1  0.134197  0.249624  0.686032  1
  S  S5  1  0.865803  0.750376  0.313968  1
  O  O6  1  0.719433  0.561857  0.806686  1
  O  O7  1  0.280567  0.438143  0.193314  1
  O  O8  1  0.361682  0.690905  0.888706  1
  O  O9  1  0.638318  0.309095  0.111294  1
  O  O10  1  0.584816  0.805031  0.665211  1
  O  O11  1  0.415184  0.194969  0.334789  1
  O  O12  1  0.278163  0.478868  0.646088  1
  O  O13  1  0.721837  0.521132  0.353912  1
  O  O14  1  0.911066  0.192837  0.566251  1
  O  O15  1  0.088934  0.807163  0.433749  1
  O  O16  1  0.337087  0.148545  0.673233  1
  O  O17  1  0.662913  0.851455  0.326767  1
  O  O18  1  0.056635  0.257190  0.839675  1
  O  O19  1  0.943365  0.742810  0.160325  1
