# generated using pymatgen
data_Dy6TcB14Os
_symmetry_space_group_name_H-M   'P 1'
_cell_length_a   8.06510411
_cell_length_b   8.06510458
_cell_length_c   9.33568600
_cell_angle_alpha   90.00000000
_cell_angle_beta   90.00000000
_cell_angle_gamma   154.69867352
_symmetry_Int_Tables_number   1
_chemical_formula_structural   Dy6TcB14Os
_chemical_formula_sum   'Dy6 Tc1 B14 Os1'
_cell_volume   259.52499190
_cell_formula_units_Z   1
loop_
 _symmetry_equiv_pos_site_id
 _symmetry_equiv_pos_as_xyz
  1  'x, y, z'
loop_
 _atom_site_type_symbol
 _atom_site_label
 _atom_site_symmetry_multiplicity
 _atom_site_fract_x
 _atom_site_fract_y
 _atom_site_fract_z
 _atom_site_occupancy
  Dy  Dy0  1  0.894583  0.105417  0.440287  1
  Dy  Dy1  1  0.105406  0.894594  0.561303  1
  Dy  Dy2  1  0.894583  0.105417  0.059713  1
  Dy  Dy3  1  0.105406  0.894594  0.938697  1
  Dy  Dy4  1  0.243448  0.756552  0.250000  1
  Dy  Dy5  1  0.757186  0.242814  0.750000  1
  Tc  Tc6  1  0.946985  0.053015  0.750000  1
  B  B7  1  0.726916  0.273084  0.465257  1
  B  B8  1  0.272475  0.727525  0.533386  1
  B  B9  1  0.726916  0.273084  0.034743  1
  B  B10  1  0.272475  0.727525  0.966614  1
  B  B11  1  0.631718  0.368282  0.151331  1
  B  B12  1  0.367912  0.632088  0.848738  1
  B  B13  1  0.631718  0.368282  0.348669  1
  B  B14  1  0.367912  0.632088  0.651262  1
  B  B15  1  0.520755  0.479245  0.096351  1
  B  B16  1  0.479253  0.520747  0.904107  1
  B  B17  1  0.520755  0.479245  0.403649  1
  B  B18  1  0.479253  0.520747  0.595893  1
  B  B19  1  0.457299  0.542701  0.250000  1
  B  B20  1  0.543055  0.456945  0.750000  1
  Os  Os21  1  0.053993  0.946007  0.250000  1
