# generated using pymatgen
data_K4Hf6MnI18
_symmetry_space_group_name_H-M   'P 1'
_cell_length_a   11.25465948
_cell_length_b   11.40373970
_cell_length_c   11.50224088
_cell_angle_alpha   118.50042042
_cell_angle_beta   100.56768933
_cell_angle_gamma   103.50574311
_symmetry_Int_Tables_number   1
_chemical_formula_structural   K4Hf6MnI18
_chemical_formula_sum   'K4 Hf6 Mn1 I18'
_cell_volume   1184.01157490
_cell_formula_units_Z   1
loop_
 _symmetry_equiv_pos_site_id
 _symmetry_equiv_pos_as_xyz
  1  'x, y, z'
loop_
 _atom_site_type_symbol
 _atom_site_label
 _atom_site_symmetry_multiplicity
 _atom_site_fract_x
 _atom_site_fract_y
 _atom_site_fract_z
 _atom_site_occupancy
  K  K0  1  0.649343  0.537790  0.225979  1
  K  K1  1  0.350657  0.462210  0.774021  1
  K  K2  1  0.682694  0.223721  0.563298  1
  K  K3  1  0.317306  0.776279  0.436702  1
  Hf  Hf4  1  0.141255  0.052303  0.217086  1
  Hf  Hf5  1  0.858745  0.947697  0.782914  1
  Hf  Hf6  1  0.865265  0.124527  0.130856  1
  Hf  Hf7  1  0.134735  0.875473  0.869144  1
  Hf  Hf8  1  0.142059  0.233494  0.043890  1
  Hf  Hf9  1  0.857941  0.766506  0.956110  1
  Mn  Mn10  1  0.000000  0.000000  0.000000  1
  I  I11  1  0.008025  0.412432  0.198475  1
  I  I12  1  0.991975  0.587568  0.801525  1
  I  I13  1  0.329184  0.332821  0.312298  1
  I  I14  1  0.670816  0.667179  0.687702  1
  I  I15  1  0.321882  0.522662  0.099711  1
  I  I16  1  0.678118  0.477338  0.900289  1
  I  I17  1  0.005205  0.795455  0.210683  1
  I  I18  1  0.994795  0.204545  0.789317  1
  I  I19  1  0.702415  0.277893  0.290081  1
  I  I20  1  0.297585  0.722107  0.709919  1
  I  I21  1  0.317910  0.126970  0.902033  1
  I  I22  1  0.682090  0.873030  0.097967  1
  I  I23  1  0.015881  0.205439  0.410270  1
  I  I24  1  0.984119  0.794561  0.589730  1
  I  I25  1  0.321186  0.922410  0.110336  1
  I  I26  1  0.678814  0.077590  0.889664  1
  I  I27  1  0.332855  0.120855  0.502444  1
  I  I28  1  0.667145  0.879145  0.497556  1
