# generated using pymatgen
data_La3Pr3YRh3
_symmetry_space_group_name_H-M   'P 1'
_cell_length_a   6.42799000
_cell_length_b   10.19751296
_cell_length_c   10.19751304
_cell_angle_alpha   119.98571381
_cell_angle_beta   90.00000000
_cell_angle_gamma   90.00000000
_symmetry_Int_Tables_number   1
_chemical_formula_structural   La3Pr3YRh3
_chemical_formula_sum   'La6 Pr6 Y2 Rh6'
_cell_volume   578.97106722
_cell_formula_units_Z   2
loop_
 _symmetry_equiv_pos_site_id
 _symmetry_equiv_pos_as_xyz
  1  'x, y, z'
loop_
 _atom_site_type_symbol
 _atom_site_label
 _atom_site_symmetry_multiplicity
 _atom_site_fract_x
 _atom_site_fract_y
 _atom_site_fract_z
 _atom_site_occupancy
  La  La0  1  0.257240  0.126656  0.873344  1
  La  La1  1  0.257242  0.746701  0.873362  1
  La  La2  1  0.257242  0.126638  0.253299  1
  La  La3  1  0.757240  0.873344  0.126656  1
  La  La4  1  0.757242  0.253299  0.126638  1
  La  La5  1  0.757242  0.873362  0.746701  1
  Pr  Pr6  1  0.441260  0.541574  0.458426  1
  Pr  Pr7  1  0.441275  0.916909  0.458442  1
  Pr  Pr8  1  0.441275  0.541558  0.083091  1
  Pr  Pr9  1  0.941260  0.458426  0.541574  1
  Pr  Pr10  1  0.941275  0.083091  0.541558  1
  Pr  Pr11  1  0.941275  0.458442  0.916909  1
  Y  Y12  1  0.464622  0.333313  0.666687  1
  Y  Y13  1  0.964622  0.666687  0.333313  1
  Rh  Rh14  1  0.177618  0.811096  0.188904  1
  Rh  Rh15  1  0.177614  0.377851  0.188929  1
  Rh  Rh16  1  0.177614  0.811071  0.622149  1
  Rh  Rh17  1  0.677618  0.188904  0.811096  1
  Rh  Rh18  1  0.677614  0.622149  0.811071  1
  Rh  Rh19  1  0.677614  0.188929  0.377851  1
