# generated using pymatgen
data_Er7Tm(B6Os)4
_symmetry_space_group_name_H-M   'P 1'
_cell_length_a   3.62800600
_cell_length_b   9.10163202
_cell_length_c   11.47887603
_cell_angle_alpha   90.00791152
_cell_angle_beta   90.00000000
_cell_angle_gamma   90.00000000
_symmetry_Int_Tables_number   1
_chemical_formula_structural   Er7Tm(B6Os)4
_chemical_formula_sum   'Er7 Tm1 B24 Os4'
_cell_volume   379.04138565
_cell_formula_units_Z   1
loop_
 _symmetry_equiv_pos_site_id
 _symmetry_equiv_pos_as_xyz
  1  'x, y, z'
loop_
 _atom_site_type_symbol
 _atom_site_label
 _atom_site_symmetry_multiplicity
 _atom_site_fract_x
 _atom_site_fract_y
 _atom_site_fract_z
 _atom_site_occupancy
  Er  Er0  1  0.000000  0.322127  0.413871  1
  Er  Er1  1  0.000000  0.677896  0.586247  1
  Er  Er2  1  0.000000  0.821984  0.086049  1
  Er  Er3  1  0.000000  0.178055  0.913787  1
  Er  Er4  1  0.000000  0.944104  0.373150  1
  Er  Er5  1  0.000000  0.055908  0.626951  1
  Er  Er6  1  0.000000  0.444167  0.126667  1
  Tm  Tm7  1  0.000000  0.555892  0.873108  1
  B  B8  1  0.500000  0.553667  0.433499  1
  B  B9  1  0.500000  0.446406  0.566641  1
  B  B10  1  0.500000  0.053635  0.066463  1
  B  B11  1  0.500000  0.946142  0.933451  1
  B  B12  1  0.500000  0.748195  0.420353  1
  B  B13  1  0.500000  0.251897  0.579712  1
  B  B14  1  0.500000  0.248293  0.079575  1
  B  B15  1  0.500000  0.751373  0.920310  1
  B  B16  1  0.500000  0.791668  0.266345  1
  B  B17  1  0.500000  0.208496  0.733697  1
  B  B18  1  0.500000  0.291720  0.233574  1
  B  B19  1  0.500000  0.707945  0.766510  1
  B  B20  1  0.500000  0.631907  0.185078  1
  B  B21  1  0.500000  0.368417  0.814984  1
  B  B22  1  0.500000  0.131973  0.314811  1
  B  B23  1  0.500000  0.867915  0.685253  1
  B  B24  1  0.500000  0.982759  0.213019  1
  B  B25  1  0.500000  0.017128  0.787015  1
  B  B26  1  0.500000  0.482733  0.286926  1
  B  B27  1  0.500000  0.517465  0.713342  1
  B  B28  1  0.500000  0.607413  0.029508  1
  B  B29  1  0.500000  0.392851  0.969932  1
  B  B30  1  0.500000  0.107833  0.470110  1
  B  B31  1  0.500000  0.892168  0.529959  1
  Os  Os32  1  0.000000  0.637516  0.321402  1
  Os  Os33  1  0.000000  0.362722  0.678756  1
  Os  Os34  1  0.000000  0.137564  0.178474  1
  Os  Os35  1  0.000000  0.862064  0.821472  1
