# generated using pymatgen
data_Pr9NdSe10
_symmetry_space_group_name_H-M   'P 1'
_cell_length_a   7.39382698
_cell_length_b   8.46300468
_cell_length_c   9.59289376
_cell_angle_alpha   103.24884175
_cell_angle_beta   96.87310196
_cell_angle_gamma   106.75103163
_symmetry_Int_Tables_number   1
_chemical_formula_structural   Pr9NdSe10
_chemical_formula_sum   'Pr9 Nd1 Se10'
_cell_volume   548.27585260
_cell_formula_units_Z   1
loop_
 _symmetry_equiv_pos_site_id
 _symmetry_equiv_pos_as_xyz
  1  'x, y, z'
loop_
 _atom_site_type_symbol
 _atom_site_label
 _atom_site_symmetry_multiplicity
 _atom_site_fract_x
 _atom_site_fract_y
 _atom_site_fract_z
 _atom_site_occupancy
  Pr  Pr0  1  0.800366  0.599842  0.598299  1
  Pr  Pr1  1  0.596604  0.198525  0.199456  1
  Pr  Pr2  1  0.403396  0.801475  0.800544  1
  Pr  Pr3  1  0.599798  0.700729  0.200769  1
  Pr  Pr4  1  0.199634  0.400158  0.401701  1
  Pr  Pr5  1  0.400202  0.299271  0.799231  1
  Pr  Pr6  1  0.000000  0.000000  0.000000  1
  Pr  Pr7  1  0.201111  0.900467  0.400523  1
  Pr  Pr8  1  0.798889  0.099533  0.599477  1
  Nd  Nd9  1  0.000000  0.500000  0.000000  1
  Se  Se10  1  0.701656  0.648721  0.900167  1
  Se  Se11  1  0.500135  0.250488  0.499917  1
  Se  Se12  1  0.702107  0.152336  0.900926  1
  Se  Se13  1  0.297893  0.847664  0.099074  1
  Se  Se14  1  0.499865  0.749512  0.500083  1
  Se  Se15  1  0.100012  0.450981  0.702117  1
  Se  Se16  1  0.298344  0.351279  0.099833  1
  Se  Se17  1  0.899998  0.050479  0.299826  1
  Se  Se18  1  0.100002  0.949521  0.700174  1
  Se  Se19  1  0.899988  0.549019  0.297883  1
