# generated using pymatgen
data_NiCl13
_symmetry_space_group_name_H-M   'P 1'
_cell_length_a   10.31401413
_cell_length_b   8.95442014
_cell_length_c   12.19767300
_cell_angle_alpha   120.11106609
_cell_angle_beta   88.49200570
_cell_angle_gamma   106.47961870
_symmetry_Int_Tables_number   1
_chemical_formula_structural   NiCl13
_chemical_formula_sum   'Ni2 Cl26'
_cell_volume   925.29490902
_cell_formula_units_Z   2
loop_
 _symmetry_equiv_pos_site_id
 _symmetry_equiv_pos_as_xyz
  1  'x, y, z'
loop_
 _atom_site_type_symbol
 _atom_site_label
 _atom_site_symmetry_multiplicity
 _atom_site_fract_x
 _atom_site_fract_y
 _atom_site_fract_z
 _atom_site_occupancy
  Ni  Ni0  1  0.338221  0.869021  0.929449  1
  Ni  Ni1  1  0.661779  0.130979  0.070551  1
  Cl  Cl2  1  0.373307  0.657760  0.990449  1
  Cl  Cl3  1  0.626693  0.342240  0.009551  1
  Cl  Cl4  1  0.546715  0.794737  0.393396  1
  Cl  Cl5  1  0.453285  0.205263  0.606604  1
  Cl  Cl6  1  0.747472  0.729427  0.031917  1
  Cl  Cl7  1  0.252528  0.270573  0.968083  1
  Cl  Cl8  1  0.713142  0.957746  0.168273  1
  Cl  Cl9  1  0.286858  0.042254  0.831727  1
  Cl  Cl10  1  0.446512  0.108302  0.122132  1
  Cl  Cl11  1  0.553488  0.891698  0.877868  1
  Cl  Cl12  1  0.245808  0.653329  0.731105  1
  Cl  Cl13  1  0.754192  0.346671  0.268895  1
  Cl  Cl14  1  0.137697  0.854754  0.992995  1
  Cl  Cl15  1  0.862303  0.145246  0.007005  1
  Cl  Cl16  1  0.118224  0.114892  0.238787  1
  Cl  Cl17  1  0.881776  0.885108  0.761213  1
  Cl  Cl18  1  0.253580  0.896674  0.451330  1
  Cl  Cl19  1  0.746420  0.103326  0.548670  1
  Cl  Cl20  1  0.363399  0.408703  0.661874  1
  Cl  Cl21  1  0.636601  0.591297  0.338126  1
  Cl  Cl22  1  0.881836  0.348948  0.682726  1
  Cl  Cl23  1  0.118164  0.651052  0.317274  1
  Cl  Cl24  1  0.936357  0.721162  0.590519  1
  Cl  Cl25  1  0.063643  0.278838  0.409481  1
  Cl  Cl26  1  0.253775  0.645312  0.126683  1
  Cl  Cl27  1  0.746225  0.354688  0.873317  1
