# generated using pymatgen
data_SrAg4Pd
_symmetry_space_group_name_H-M   'P 1'
_cell_length_a   5.63208800
_cell_length_b   5.63208825
_cell_length_c   4.73263900
_cell_angle_alpha   90.00000000
_cell_angle_beta   90.00000000
_cell_angle_gamma   120.00001026
_symmetry_Int_Tables_number   1
_chemical_formula_structural   SrAg4Pd
_chemical_formula_sum   'Sr1 Ag4 Pd1'
_cell_volume   130.00882958
_cell_formula_units_Z   1
loop_
 _symmetry_equiv_pos_site_id
 _symmetry_equiv_pos_as_xyz
  1  'x, y, z'
loop_
 _atom_site_type_symbol
 _atom_site_label
 _atom_site_symmetry_multiplicity
 _atom_site_fract_x
 _atom_site_fract_y
 _atom_site_fract_z
 _atom_site_occupancy
  Sr  Sr0  1  0.666667  0.333333  0.000000  1
  Ag  Ag1  1  0.333333  0.666667  0.000000  1
  Ag  Ag2  1  0.668606  0.834302  0.500000  1
  Ag  Ag3  1  0.165698  0.834302  0.500000  1
  Ag  Ag4  1  0.165698  0.331394  0.500000  1
  Pd  Pd5  1  0.000000  0.000000  0.000000  1
