# generated using pymatgen
data_Tm3Co7MoP6Ir
_symmetry_space_group_name_H-M   'P 1'
_cell_length_a   3.70096200
_cell_length_b   10.67897300
_cell_length_c   12.33287700
_cell_angle_alpha   90.00000000
_cell_angle_beta   90.00000000
_cell_angle_gamma   90.00000000
_symmetry_Int_Tables_number   1
_chemical_formula_structural   Tm3Co7MoP6Ir
_chemical_formula_sum   'Tm6 Co14 Mo2 P12 Ir2'
_cell_volume   487.42580160
_cell_formula_units_Z   2
loop_
 _symmetry_equiv_pos_site_id
 _symmetry_equiv_pos_as_xyz
  1  'x, y, z'
loop_
 _atom_site_type_symbol
 _atom_site_label
 _atom_site_symmetry_multiplicity
 _atom_site_fract_x
 _atom_site_fract_y
 _atom_site_fract_z
 _atom_site_occupancy
  Tm  Tm0  1  0.000000  0.500000  0.520259  1
  Tm  Tm1  1  0.500000  0.000000  0.479741  1
  Tm  Tm2  1  0.500000  0.815609  0.203115  1
  Tm  Tm3  1  0.500000  0.184391  0.203115  1
  Tm  Tm4  1  0.000000  0.684391  0.796885  1
  Tm  Tm5  1  0.000000  0.315609  0.796885  1
  Co  Co6  1  0.000000  0.500000  0.988275  1
  Co  Co7  1  0.500000  0.000000  0.011725  1
  Co  Co8  1  0.500000  0.331444  0.991086  1
  Co  Co9  1  0.500000  0.668556  0.991086  1
  Co  Co10  1  0.000000  0.168556  0.008914  1
  Co  Co11  1  0.000000  0.831444  0.008914  1
  Co  Co12  1  0.500000  0.297289  0.431268  1
  Co  Co13  1  0.500000  0.702711  0.431268  1
  Co  Co14  1  0.000000  0.202711  0.568732  1
  Co  Co15  1  0.000000  0.797289  0.568732  1
  Co  Co16  1  0.500000  0.879178  0.707365  1
  Co  Co17  1  0.500000  0.120822  0.707365  1
  Co  Co18  1  0.000000  0.620822  0.292635  1
  Co  Co19  1  0.000000  0.379178  0.292635  1
  Mo  Mo20  1  0.500000  0.500000  0.156961  1
  Mo  Mo21  1  0.000000  0.000000  0.843039  1
  P  P22  1  0.500000  0.500000  0.888814  1
  P  P23  1  0.000000  0.000000  0.111186  1
  P  P24  1  0.500000  0.500000  0.349255  1
  P  P25  1  0.000000  0.000000  0.650745  1
  P  P26  1  0.500000  0.303983  0.614371  1
  P  P27  1  0.500000  0.696017  0.614371  1
  P  P28  1  0.000000  0.196017  0.385629  1
  P  P29  1  0.000000  0.803983  0.385629  1
  P  P30  1  0.500000  0.844416  0.892545  1
  P  P31  1  0.500000  0.155584  0.892545  1
  P  P32  1  0.000000  0.655584  0.107455  1
  P  P33  1  0.000000  0.344416  0.107455  1
  Ir  Ir34  1  0.500000  0.500000  0.701157  1
  Ir  Ir35  1  0.000000  0.000000  0.298843  1
