# generated using pymatgen
data_Lu2Bi2O7
_symmetry_space_group_name_H-M   'P 1'
_cell_length_a   6.52746891
_cell_length_b   6.58377742
_cell_length_c   7.66735465
_cell_angle_alpha   106.90962283
_cell_angle_beta   89.47066516
_cell_angle_gamma   99.13415669
_symmetry_Int_Tables_number   1
_chemical_formula_structural   Lu2Bi2O7
_chemical_formula_sum   'Lu4 Bi4 O14'
_cell_volume   311.02556389
_cell_formula_units_Z   2
loop_
 _symmetry_equiv_pos_site_id
 _symmetry_equiv_pos_as_xyz
  1  'x, y, z'
loop_
 _atom_site_type_symbol
 _atom_site_label
 _atom_site_symmetry_multiplicity
 _atom_site_fract_x
 _atom_site_fract_y
 _atom_site_fract_z
 _atom_site_occupancy
  Lu  Lu0  1  0.464722  0.005387  0.250129  1
  Lu  Lu1  1  0.535278  0.994613  0.749871  1
  Lu  Lu2  1  0.266277  0.537653  0.888487  1
  Lu  Lu3  1  0.733723  0.462347  0.111513  1
  Bi  Bi4  1  0.000000  0.000000  0.500000  1
  Bi  Bi5  1  0.000000  0.000000  0.000000  1
  Bi  Bi6  1  0.729741  0.471357  0.618571  1
  Bi  Bi7  1  0.270259  0.528643  0.381429  1
  O  O8  1  0.454264  0.655970  0.160176  1
  O  O9  1  0.545736  0.344030  0.839824  1
  O  O10  1  0.303538  0.919749  0.947560  1
  O  O11  1  0.696462  0.080251  0.052440  1
  O  O12  1  0.304148  0.923048  0.513834  1
  O  O13  1  0.695852  0.076952  0.486166  1
  O  O14  1  0.544631  0.358822  0.335104  1
  O  O15  1  0.455369  0.641178  0.664896  1
  O  O16  1  0.931938  0.663998  0.962911  1
  O  O17  1  0.068062  0.336002  0.037089  1
  O  O18  1  0.094530  0.331063  0.635351  1
  O  O19  1  0.905470  0.668937  0.364649  1
  O  O20  1  0.865861  0.913815  0.729142  1
  O  O21  1  0.134139  0.086185  0.270858  1
