# generated using pymatgen
data_BaPuN3O11
_symmetry_space_group_name_H-M   'P 1'
_cell_length_a   8.21658064
_cell_length_b   8.21658046
_cell_length_c   8.21658048
_cell_angle_alpha   69.53033702
_cell_angle_beta   110.46966410
_cell_angle_gamma   110.46965788
_symmetry_Int_Tables_number   1
_chemical_formula_structural   BaPuN3O11
_chemical_formula_sum   'Ba2 Pu2 N6 O22'
_cell_volume   470.25153789
_cell_formula_units_Z   2
loop_
 _symmetry_equiv_pos_site_id
 _symmetry_equiv_pos_as_xyz
  1  'x, y, z'
loop_
 _atom_site_type_symbol
 _atom_site_label
 _atom_site_symmetry_multiplicity
 _atom_site_fract_x
 _atom_site_fract_y
 _atom_site_fract_z
 _atom_site_occupancy
  Ba  Ba0  1  0.000000  0.000000  0.000000  1
  Ba  Ba1  1  0.500000  0.499999  0.500001  1
  Pu  Pu2  1  0.750000  0.249999  0.250001  1
  Pu  Pu3  1  0.250000  0.749999  0.750001  1
  N  N4  1  0.570703  0.750000  0.070704  1
  N  N5  1  0.070703  0.570703  0.250000  1
  N  N6  1  0.250000  0.070704  0.429297  1
  N  N7  1  0.750000  0.929296  0.570705  1
  N  N8  1  0.929296  0.429296  0.750000  1
  N  N9  1  0.429297  0.250001  0.929296  1
  O  O10  1  0.420675  0.632108  0.078897  1
  O  O11  1  0.421103  0.132108  0.079325  1
  O  O12  1  0.920675  0.578897  0.132108  1
  O  O13  1  0.847806  0.152193  0.152195  1
  O  O14  1  0.703706  0.750001  0.203706  1
  O  O15  1  0.203705  0.703706  0.250000  1
  O  O16  1  0.250000  0.203706  0.296295  1
  O  O17  1  0.652194  0.347805  0.347807  1
  O  O18  1  0.078897  0.420674  0.367892  1
  O  O19  1  0.632108  0.921103  0.420674  1
  O  O20  1  0.132108  0.920675  0.421103  1
  O  O21  1  0.867893  0.079327  0.578897  1
  O  O22  1  0.367892  0.078897  0.579325  1
  O  O23  1  0.921103  0.579326  0.632108  1
  O  O24  1  0.347806  0.652193  0.652195  1
  O  O25  1  0.750000  0.796295  0.703705  1
  O  O26  1  0.796295  0.296295  0.750000  1
  O  O27  1  0.296295  0.250001  0.796295  1
  O  O28  1  0.152194  0.847805  0.847807  1
  O  O29  1  0.079326  0.421102  0.867893  1
  O  O30  1  0.578897  0.867892  0.920674  1
  O  O31  1  0.579327  0.367892  0.921104  1
