# generated using pymatgen
data_TbDy3Y2(Si3Ru)8
_symmetry_space_group_name_H-M   'P 1'
_cell_length_a   10.12723725
_cell_length_b   10.12723683
_cell_length_c   8.14826117
_cell_angle_alpha   90.06193579
_cell_angle_beta   89.93806436
_cell_angle_gamma   132.60012705
_symmetry_Int_Tables_number   1
_chemical_formula_structural   TbDy3Y2(Si3Ru)8
_chemical_formula_sum   'Tb1 Dy3 Y2 Si24 Ru8'
_cell_volume   615.14967931
_cell_formula_units_Z   1
loop_
 _symmetry_equiv_pos_site_id
 _symmetry_equiv_pos_as_xyz
  1  'x, y, z'
loop_
 _atom_site_type_symbol
 _atom_site_label
 _atom_site_symmetry_multiplicity
 _atom_site_fract_x
 _atom_site_fract_y
 _atom_site_fract_z
 _atom_site_occupancy
  Tb  Tb0  1  0.497371  0.997371  0.250000  1
  Dy  Dy1  1  0.499979  0.499993  0.500025  1
  Dy  Dy2  1  0.999993  0.999979  0.999975  1
  Dy  Dy3  1  0.002566  0.502566  0.750000  1
  Y  Y4  1  0.502185  0.002185  0.750000  1
  Y  Y5  1  0.997714  0.497714  0.250000  1
  Si  Si6  1  0.793756  0.205045  0.500336  1
  Si  Si7  1  0.294863  0.706190  0.999997  1
  Si  Si8  1  0.206190  0.794863  0.500003  1
  Si  Si9  1  0.705045  0.293756  0.999664  1
  Si  Si10  1  0.332674  0.332318  0.833098  1
  Si  Si11  1  0.667410  0.667675  0.166965  1
  Si  Si12  1  0.167675  0.167410  0.333035  1
  Si  Si13  1  0.832318  0.832674  0.666902  1
  Si  Si14  1  0.121957  0.887581  0.727626  1
  Si  Si15  1  0.114015  0.879709  0.271725  1
  Si  Si16  1  0.611665  0.377399  0.227985  1
  Si  Si17  1  0.620719  0.386829  0.771867  1
  Si  Si18  1  0.877399  0.111665  0.272015  1
  Si  Si19  1  0.886829  0.120719  0.728133  1
  Si  Si20  1  0.387581  0.621957  0.772374  1
  Si  Si21  1  0.379709  0.614015  0.228275  1
  Si  Si22  1  0.346288  0.112038  0.504405  1
  Si  Si23  1  0.889432  0.656486  0.496248  1
  Si  Si24  1  0.387847  0.153663  0.004890  1
  Si  Si25  1  0.843657  0.610666  0.995458  1
  Si  Si26  1  0.653663  0.887847  0.495110  1
  Si  Si27  1  0.110666  0.343657  0.504542  1
  Si  Si28  1  0.612038  0.846288  0.995595  1
  Si  Si29  1  0.156486  0.389432  0.003752  1
  Ru  Ru30  1  0.671158  0.333558  0.500019  1
  Ru  Ru31  1  0.166418  0.828935  0.999221  1
  Ru  Ru32  1  0.328935  0.666418  0.500779  1
  Ru  Ru33  1  0.833558  0.171158  0.999981  1
  Ru  Ru34  1  0.126251  0.125645  0.626758  1
  Ru  Ru35  1  0.874200  0.874144  0.373133  1
  Ru  Ru36  1  0.374144  0.374200  0.126867  1
  Ru  Ru37  1  0.625645  0.626251  0.873242  1
