# generated using pymatgen
data_Tb3Dy3V2(Co4P3)4
_symmetry_space_group_name_H-M   'P 1'
_cell_length_a   3.68969200
_cell_length_b   10.54721500
_cell_length_c   12.23160200
_cell_angle_alpha   89.99990970
_cell_angle_beta   90.00000000
_cell_angle_gamma   90.00000000
_symmetry_Int_Tables_number   1
_chemical_formula_structural   Tb3Dy3V2(Co4P3)4
_chemical_formula_sum   'Tb3 Dy3 V2 Co16 P12'
_cell_volume   476.00471529
_cell_formula_units_Z   1
loop_
 _symmetry_equiv_pos_site_id
 _symmetry_equiv_pos_as_xyz
  1  'x, y, z'
loop_
 _atom_site_type_symbol
 _atom_site_label
 _atom_site_symmetry_multiplicity
 _atom_site_fract_x
 _atom_site_fract_y
 _atom_site_fract_z
 _atom_site_occupancy
  Tb  Tb0  1  0.000000  0.499983  0.523275  1
  Tb  Tb1  1  0.500000  0.000046  0.476839  1
  Tb  Tb2  1  0.500000  0.818788  0.204465  1
  Dy  Dy3  1  0.500000  0.181353  0.204359  1
  Dy  Dy4  1  0.000000  0.681209  0.795672  1
  Dy  Dy5  1  0.000000  0.318749  0.795548  1
  V  V6  1  0.500000  0.499853  0.153926  1
  V  V7  1  0.000000  0.000067  0.845986  1
  Co  Co8  1  0.500000  0.499920  0.702590  1
  Co  Co9  1  0.000000  0.000365  0.297557  1
  Co  Co10  1  0.000000  0.499818  0.986843  1
  Co  Co11  1  0.500000  0.000203  0.012810  1
  Co  Co12  1  0.500000  0.332425  0.993102  1
  Co  Co13  1  0.500000  0.667391  0.992973  1
  Co  Co14  1  0.000000  0.167703  0.006690  1
  Co  Co15  1  0.000000  0.832497  0.006557  1
  Co  Co16  1  0.500000  0.295967  0.431061  1
  Co  Co17  1  0.500000  0.703997  0.431352  1
  Co  Co18  1  0.000000  0.204123  0.568978  1
  Co  Co19  1  0.000000  0.795886  0.569210  1
  Co  Co20  1  0.500000  0.878840  0.708107  1
  Co  Co21  1  0.500000  0.121166  0.707989  1
  Co  Co22  1  0.000000  0.620865  0.292195  1
  Co  Co23  1  0.000000  0.378772  0.291937  1
  P  P24  1  0.500000  0.499891  0.882405  1
  P  P25  1  0.000000  0.000376  0.117277  1
  P  P26  1  0.500000  0.500000  0.346548  1
  P  P27  1  0.000000  0.000004  0.653487  1
  P  P28  1  0.500000  0.310778  0.616013  1
  P  P29  1  0.500000  0.689142  0.616198  1
  P  P30  1  0.000000  0.189345  0.384008  1
  P  P31  1  0.000000  0.810742  0.384474  1
  P  P32  1  0.500000  0.845966  0.892057  1
  P  P33  1  0.500000  0.154128  0.891932  1
  P  P34  1  0.000000  0.653699  0.107668  1
  P  P35  1  0.000000  0.345943  0.107909  1
