# generated using pymatgen
data_Hf2Zr8ZnSn3GeSb3
_symmetry_space_group_name_H-M   'P 1'
_cell_length_a   8.68054300
_cell_length_b   8.68054209
_cell_length_c   5.86194100
_cell_angle_alpha   90.00000000
_cell_angle_beta   90.00000000
_cell_angle_gamma   119.99999964
_symmetry_Int_Tables_number   1
_chemical_formula_structural   Hf2Zr8ZnSn3GeSb3
_chemical_formula_sum   'Hf2 Zr8 Zn1 Sn3 Ge1 Sb3'
_cell_volume   382.53027833
_cell_formula_units_Z   1
loop_
 _symmetry_equiv_pos_site_id
 _symmetry_equiv_pos_as_xyz
  1  'x, y, z'
loop_
 _atom_site_type_symbol
 _atom_site_label
 _atom_site_symmetry_multiplicity
 _atom_site_fract_x
 _atom_site_fract_y
 _atom_site_fract_z
 _atom_site_occupancy
  Hf  Hf0  1  0.666667  0.333333  0.001950  1
  Hf  Hf1  1  0.333333  0.666667  0.001950  1
  Zr  Zr2  1  0.333333  0.666667  0.499134  1
  Zr  Zr3  1  0.666667  0.333333  0.499134  1
  Zr  Zr4  1  0.735462  0.735462  0.750325  1
  Zr  Zr5  1  0.264538  0.000000  0.750325  1
  Zr  Zr6  1  0.000000  0.264538  0.750325  1
  Zr  Zr7  1  0.268275  0.268275  0.249784  1
  Zr  Zr8  1  0.731725  0.000000  0.249784  1
  Zr  Zr9  1  0.000000  0.731725  0.249784  1
  Zn  Zn10  1  0.000000  0.000000  0.494682  1
  Sn  Sn11  1  0.613166  0.613166  0.250133  1
  Sn  Sn12  1  0.386834  0.000000  0.250133  1
  Sn  Sn13  1  0.000000  0.386834  0.250133  1
  Ge  Ge14  1  0.000000  0.000000  0.004475  1
  Sb  Sb15  1  0.390963  0.390963  0.749316  1
  Sb  Sb16  1  0.609037  0.000000  0.749316  1
  Sb  Sb17  1  0.000000  0.609037  0.749316  1
