# generated using pymatgen
data_Ho5Er3Nb12Si15As
_symmetry_space_group_name_H-M   'P 1'
_cell_length_a   7.05883000
_cell_length_b   7.05497929
_cell_length_c   13.04095207
_cell_angle_alpha   89.96788314
_cell_angle_beta   89.90164803
_cell_angle_gamma   89.95219253
_symmetry_Int_Tables_number   1
_chemical_formula_structural   Ho5Er3Nb12Si15As
_chemical_formula_sum   'Ho5 Er3 Nb12 Si15 As1'
_cell_volume   649.43681723
_cell_formula_units_Z   1
loop_
 _symmetry_equiv_pos_site_id
 _symmetry_equiv_pos_as_xyz
  1  'x, y, z'
loop_
 _atom_site_type_symbol
 _atom_site_label
 _atom_site_symmetry_multiplicity
 _atom_site_fract_x
 _atom_site_fract_y
 _atom_site_fract_z
 _atom_site_occupancy
  Ho  Ho0  1  0.341933  0.001439  0.467036  1
  Ho  Ho1  1  0.497731  0.843791  0.718563  1
  Ho  Ho2  1  0.501645  0.157496  0.217567  1
  Ho  Ho3  1  0.841547  0.497264  0.282160  1
  Ho  Ho4  1  0.158088  0.501359  0.782277  1
  Er  Er5  1  0.659885  0.996727  0.968834  1
  Er  Er6  1  0.998353  0.344707  0.530966  1
  Er  Er7  1  0.998936  0.657892  0.032093  1
  Nb  Nb8  1  0.328529  0.328619  0.000181  1
  Nb  Nb9  1  0.171972  0.828035  0.249593  1
  Nb  Nb10  1  0.826315  0.172145  0.750011  1
  Nb  Nb11  1  0.671010  0.670961  0.500245  1
  Nb  Nb12  1  0.154814  0.007238  0.874222  1
  Nb  Nb13  1  0.493133  0.652902  0.124019  1
  Nb  Nb14  1  0.507550  0.347636  0.624785  1
  Nb  Nb15  1  0.654544  0.496571  0.876795  1
  Nb  Nb16  1  0.345911  0.505999  0.375968  1
  Nb  Nb17  1  0.846215  0.993877  0.374250  1
  Nb  Nb18  1  0.006813  0.152126  0.125721  1
  Nb  Nb19  1  0.991076  0.842972  0.624677  1
  Si  Si20  1  0.365836  0.704623  0.932311  1
  Si  Si21  1  0.633022  0.295920  0.432450  1
  Si  Si22  1  0.704635  0.365830  0.067811  1
  Si  Si23  1  0.295920  0.633666  0.567421  1
  Si  Si24  1  0.796659  0.865227  0.182228  1
  Si  Si25  1  0.133849  0.203384  0.317835  1
  Si  Si26  1  0.866405  0.796798  0.818129  1
  Si  Si27  1  0.294393  0.954091  0.063116  1
  Si  Si28  1  0.545810  0.792909  0.313344  1
  Si  Si29  1  0.462653  0.207552  0.818197  1
  Si  Si30  1  0.793171  0.545914  0.686723  1
  Si  Si31  1  0.205935  0.454050  0.186286  1
  Si  Si32  1  0.706040  0.046040  0.563202  1
  Si  Si33  1  0.954292  0.293756  0.936877  1
  Si  Si34  1  0.045248  0.706226  0.435731  1
  As  As35  1  0.200130  0.134260  0.678377  1
