# generated using pymatgen
data_K14TaNbP8
_symmetry_space_group_name_H-M   'P 1'
_cell_length_a   8.20781401
_cell_length_b   9.02531601
_cell_length_c   10.13455900
_cell_angle_alpha   90.00000000
_cell_angle_beta   90.00000000
_cell_angle_gamma   89.99545287
_symmetry_Int_Tables_number   1
_chemical_formula_structural   K14TaNbP8
_chemical_formula_sum   'K14 Ta1 Nb1 P8'
_cell_volume   750.74902609
_cell_formula_units_Z   1
loop_
 _symmetry_equiv_pos_site_id
 _symmetry_equiv_pos_as_xyz
  1  'x, y, z'
loop_
 _atom_site_type_symbol
 _atom_site_label
 _atom_site_symmetry_multiplicity
 _atom_site_fract_x
 _atom_site_fract_y
 _atom_site_fract_z
 _atom_site_occupancy
  K  K0  1  0.708956  0.833421  0.717020  1
  K  K1  1  0.209167  0.166595  0.782593  1
  K  K2  1  0.209167  0.166595  0.217407  1
  K  K3  1  0.708956  0.833421  0.282980  1
  K  K4  1  0.872394  0.465553  0.711129  1
  K  K5  1  0.372253  0.534622  0.788861  1
  K  K6  1  0.372253  0.534622  0.211139  1
  K  K7  1  0.872394  0.465553  0.288871  1
  K  K8  1  0.161187  0.659998  0.500000  1
  K  K9  1  0.661159  0.339747  0.000000  1
  K  K10  1  0.877658  0.034885  0.000000  1
  K  K11  1  0.377103  0.964324  0.500000  1
  K  K12  1  0.391476  0.893061  0.000000  1
  K  K13  1  0.891994  0.107139  0.500000  1
  Ta  Ta14  1  0.498777  0.326603  0.500000  1
  Nb  Nb15  1  0.998619  0.673376  0.000000  1
  P  P16  1  0.704352  0.683070  0.000000  1
  P  P17  1  0.205097  0.316964  0.500000  1
  P  P18  1  0.092660  0.805189  0.800478  1
  P  P19  1  0.592593  0.195474  0.698589  1
  P  P20  1  0.592593  0.195474  0.301411  1
  P  P21  1  0.092660  0.805189  0.199522  1
  P  P22  1  0.576770  0.586582  0.500000  1
  P  P23  1  0.076464  0.412545  0.000000  1
