# generated using pymatgen
data_DyTmAs4O9
_symmetry_space_group_name_H-M   'P 1'
_cell_length_a   6.70751603
_cell_length_b   7.50951042
_cell_length_c   9.80857628
_cell_angle_alpha   94.61317856
_cell_angle_beta   104.03522100
_cell_angle_gamma   104.87131229
_symmetry_Int_Tables_number   1
_chemical_formula_structural   DyTmAs4O9
_chemical_formula_sum   'Dy2 Tm2 As8 O18'
_cell_volume   457.86168986
_cell_formula_units_Z   2
loop_
 _symmetry_equiv_pos_site_id
 _symmetry_equiv_pos_as_xyz
  1  'x, y, z'
loop_
 _atom_site_type_symbol
 _atom_site_label
 _atom_site_symmetry_multiplicity
 _atom_site_fract_x
 _atom_site_fract_y
 _atom_site_fract_z
 _atom_site_occupancy
  Dy  Dy0  1  0.242428  0.939206  0.614857  1
  Dy  Dy1  1  0.757572  0.060794  0.385143  1
  Tm  Tm2  1  0.720899  0.528355  0.410228  1
  Tm  Tm3  1  0.279101  0.471645  0.589772  1
  As  As4  1  0.683055  0.773176  0.079782  1
  As  As5  1  0.316945  0.226824  0.920218  1
  As  As6  1  0.169928  0.751241  0.912288  1
  As  As7  1  0.830072  0.248759  0.087712  1
  As  As8  1  0.742743  0.914084  0.709730  1
  As  As9  1  0.257257  0.085916  0.290270  1
  As  As10  1  0.809848  0.352421  0.701255  1
  As  As11  1  0.190152  0.647579  0.298745  1
  O  O12  1  0.722387  0.746071  0.260271  1
  O  O13  1  0.277613  0.253929  0.739729  1
  O  O14  1  0.315829  0.978835  0.869015  1
  O  O15  1  0.684171  0.021165  0.130985  1
  O  O16  1  0.608404  0.326215  0.985359  1
  O  O17  1  0.391596  0.673785  0.014641  1
  O  O18  1  0.126449  0.643831  0.737793  1
  O  O19  1  0.873551  0.356169  0.262207  1
  O  O20  1  0.846728  0.874186  0.559686  1
  O  O21  1  0.153272  0.125814  0.440314  1
  O  O22  1  0.480935  0.765293  0.665811  1
  O  O23  1  0.519065  0.234707  0.334189  1
  O  O24  1  0.373668  0.532632  0.381627  1
  O  O25  1  0.626332  0.467368  0.618373  1
  O  O26  1  0.087479  0.667355  0.453748  1
  O  O27  1  0.912521  0.332645  0.546252  1
  O  O28  1  0.378161  0.899696  0.359021  1
  O  O29  1  0.621839  0.100304  0.640979  1
