# generated using pymatgen
data_Cs3TlSe24
_symmetry_space_group_name_H-M   'P 1'
_cell_length_a   11.63004541
_cell_length_b   11.63004529
_cell_length_c   11.57487809
_cell_angle_alpha   126.95523943
_cell_angle_beta   122.12938681
_cell_angle_gamma   82.66620622
_symmetry_Int_Tables_number   1
_chemical_formula_structural   Cs3TlSe24
_chemical_formula_sum   'Cs3 Tl1 Se24'
_cell_volume   1015.89622819
_cell_formula_units_Z   1
loop_
 _symmetry_equiv_pos_site_id
 _symmetry_equiv_pos_as_xyz
  1  'x, y, z'
loop_
 _atom_site_type_symbol
 _atom_site_label
 _atom_site_symmetry_multiplicity
 _atom_site_fract_x
 _atom_site_fract_y
 _atom_site_fract_z
 _atom_site_occupancy
  Cs  Cs0  1  0.000000  0.000000  0.000000  1
  Cs  Cs1  1  0.747142  0.247142  0.500000  1
  Cs  Cs2  1  0.252858  0.752858  0.500000  1
  Tl  Tl3  1  0.500000  0.500000  0.000000  1
  Se  Se4  1  0.645515  0.749671  0.896977  1
  Se  Se5  1  0.852694  0.748538  0.103023  1
  Se  Se6  1  0.354485  0.250329  0.103023  1
  Se  Se7  1  0.147306  0.251462  0.896977  1
  Se  Se8  1  0.250087  0.158488  0.699517  1
  Se  Se9  1  0.263111  0.947565  0.905444  1
  Se  Se10  1  0.042122  0.357668  0.094556  1
  Se  Se11  1  0.458971  0.550570  0.300483  1
  Se  Se12  1  0.749913  0.841512  0.300483  1
  Se  Se13  1  0.736889  0.052435  0.094556  1
  Se  Se14  1  0.957878  0.642332  0.905444  1
  Se  Se15  1  0.541029  0.449430  0.699517  1
  Se  Se16  1  0.915030  0.816589  0.514278  1
  Se  Se17  1  0.581231  0.102424  0.902988  1
  Se  Se18  1  0.199438  0.678244  0.097012  1
  Se  Se19  1  0.302310  0.400751  0.485722  1
  Se  Se20  1  0.084970  0.183411  0.485722  1
  Se  Se21  1  0.418769  0.897576  0.097012  1
  Se  Se22  1  0.800563  0.321756  0.902988  1
  Se  Se23  1  0.697690  0.599249  0.514278  1
  Se  Se24  1  0.666445  0.076373  0.742816  1
  Se  Se25  1  0.831655  0.571513  0.403168  1
  Se  Se26  1  0.168345  0.428487  0.596832  1
  Se  Se27  1  0.333555  0.923627  0.257184  1
