# generated using pymatgen
data_Th2Zn2CoIr
_symmetry_space_group_name_H-M   'P 1'
_cell_length_a   3.99960900
_cell_length_b   7.07498505
_cell_length_c   8.37415905
_cell_angle_alpha   90.01296444
_cell_angle_beta   89.99998567
_cell_angle_gamma   90.00000810
_symmetry_Int_Tables_number   1
_chemical_formula_structural   Th2Zn2CoIr
_chemical_formula_sum   'Th4 Zn4 Co2 Ir2'
_cell_volume   236.96502864
_cell_formula_units_Z   2
loop_
 _symmetry_equiv_pos_site_id
 _symmetry_equiv_pos_as_xyz
  1  'x, y, z'
loop_
 _atom_site_type_symbol
 _atom_site_label
 _atom_site_symmetry_multiplicity
 _atom_site_fract_x
 _atom_site_fract_y
 _atom_site_fract_z
 _atom_site_occupancy
  Th  Th0  1  0.249999  0.044916  0.309250  1
  Th  Th1  1  0.250001  0.545032  0.190805  1
  Th  Th2  1  0.749999  0.947116  0.681012  1
  Th  Th3  1  0.750000  0.447180  0.818963  1
  Zn  Zn4  1  0.250001  0.628868  0.551886  1
  Zn  Zn5  1  0.250000  0.129019  0.948148  1
  Zn  Zn6  1  0.750000  0.378235  0.437594  1
  Zn  Zn7  1  0.750000  0.878289  0.062355  1
  Co  Co8  1  0.750001  0.759225  0.367161  1
  Co  Co9  1  0.749999  0.259345  0.132860  1
  Ir  Ir10  1  0.250000  0.241345  0.627972  1
  Ir  Ir11  1  0.250000  0.741427  0.871996  1
