# generated using pymatgen
data_Er3ZnCd2PdPt2
_symmetry_space_group_name_H-M   'P 1'
_cell_length_a   7.53411952
_cell_length_b   7.53412035
_cell_length_c   3.82399500
_cell_angle_alpha   90.00000000
_cell_angle_beta   90.00000000
_cell_angle_gamma   119.82770835
_symmetry_Int_Tables_number   1
_chemical_formula_structural   Er3ZnCd2PdPt2
_chemical_formula_sum   'Er3 Zn1 Cd2 Pd1 Pt2'
_cell_volume   188.30609635
_cell_formula_units_Z   1
loop_
 _symmetry_equiv_pos_site_id
 _symmetry_equiv_pos_as_xyz
  1  'x, y, z'
loop_
 _atom_site_type_symbol
 _atom_site_label
 _atom_site_symmetry_multiplicity
 _atom_site_fract_x
 _atom_site_fract_y
 _atom_site_fract_z
 _atom_site_occupancy
  Er  Er0  1  0.593385  0.994683  0.000000  1
  Er  Er1  1  0.994683  0.593385  0.000000  1
  Er  Er2  1  0.426137  0.426137  0.000000  1
  Zn  Zn3  1  0.739129  0.739129  0.500000  1
  Cd  Cd4  1  0.255937  0.005745  0.500000  1
  Cd  Cd5  1  0.005745  0.255937  0.500000  1
  Pd  Pd6  1  0.972438  0.972438  0.000000  1
  Pt  Pt7  1  0.341694  0.670852  0.500000  1
  Pt  Pt8  1  0.670852  0.341694  0.500000  1
