# generated using pymatgen
data_Tm3Mg3Hg2Bi
_symmetry_space_group_name_H-M   'P 1'
_cell_length_a   7.49276900
_cell_length_b   7.49276849
_cell_length_c   4.56164900
_cell_angle_alpha   90.00000000
_cell_angle_beta   90.00000000
_cell_angle_gamma   119.99999783
_symmetry_Int_Tables_number   1
_chemical_formula_structural   Tm3Mg3Hg2Bi
_chemical_formula_sum   'Tm3 Mg3 Hg2 Bi1'
_cell_volume   221.78755028
_cell_formula_units_Z   1
loop_
 _symmetry_equiv_pos_site_id
 _symmetry_equiv_pos_as_xyz
  1  'x, y, z'
loop_
 _atom_site_type_symbol
 _atom_site_label
 _atom_site_symmetry_multiplicity
 _atom_site_fract_x
 _atom_site_fract_y
 _atom_site_fract_z
 _atom_site_occupancy
  Tm  Tm0  1  0.410302  0.979032  0.000000  1
  Tm  Tm1  1  0.020968  0.431270  0.000000  1
  Tm  Tm2  1  0.568729  0.589699  0.000000  1
  Mg  Mg3  1  0.753815  0.984602  0.499999  1
  Mg  Mg4  1  0.230787  0.246185  0.499999  1
  Mg  Mg5  1  0.015398  0.769213  0.499999  1
  Hg  Hg6  1  0.000000  0.000000  0.000000  1
  Hg  Hg7  1  0.333333  0.666666  0.499999  1
  Bi  Bi8  1  0.666666  0.333334  0.499999  1
