# generated using pymatgen
data_TbSmZn2(Co3B)2
_symmetry_space_group_name_H-M   'P 1'
_cell_length_a   5.13151600
_cell_length_b   5.13281417
_cell_length_c   6.81330200
_cell_angle_alpha   90.00000000
_cell_angle_beta   90.00000000
_cell_angle_gamma   119.99165972
_symmetry_Int_Tables_number   1
_chemical_formula_structural   TbSmZn2(Co3B)2
_chemical_formula_sum   'Tb1 Sm1 Zn2 Co6 B2'
_cell_volume   155.42683126
_cell_formula_units_Z   1
loop_
 _symmetry_equiv_pos_site_id
 _symmetry_equiv_pos_as_xyz
  1  'x, y, z'
loop_
 _atom_site_type_symbol
 _atom_site_label
 _atom_site_symmetry_multiplicity
 _atom_site_fract_x
 _atom_site_fract_y
 _atom_site_fract_z
 _atom_site_occupancy
  Tb  Tb0  1  0.999989  0.000000  0.500000  1
  Sm  Sm1  1  0.999980  0.000000  0.000000  1
  Zn  Zn2  1  0.333345  0.666733  0.000000  1
  Zn  Zn3  1  0.666613  0.333267  0.000000  1
  Co  Co4  1  0.499987  0.000000  0.298539  1
  Co  Co5  1  0.499985  0.500002  0.298489  1
  Co  Co6  1  0.999982  0.499998  0.298489  1
  Co  Co7  1  0.499987  0.000000  0.701461  1
  Co  Co8  1  0.499985  0.500002  0.701511  1
  Co  Co9  1  0.999982  0.499998  0.701511  1
  B  B10  1  0.333281  0.666596  0.500000  1
  B  B11  1  0.666684  0.333404  0.500000  1
