# generated using pymatgen
data_Zr4Zn4PdAu3
_symmetry_space_group_name_H-M   'P 1'
_cell_length_a   4.63051100
_cell_length_b   5.73345457
_cell_length_c   8.00653636
_cell_angle_alpha   89.98992004
_cell_angle_beta   90.00000000
_cell_angle_gamma   90.00000000
_symmetry_Int_Tables_number   1
_chemical_formula_structural   Zr4Zn4PdAu3
_chemical_formula_sum   'Zr4 Zn4 Pd1 Au3'
_cell_volume   212.56412518
_cell_formula_units_Z   1
loop_
 _symmetry_equiv_pos_site_id
 _symmetry_equiv_pos_as_xyz
  1  'x, y, z'
loop_
 _atom_site_type_symbol
 _atom_site_label
 _atom_site_symmetry_multiplicity
 _atom_site_fract_x
 _atom_site_fract_y
 _atom_site_fract_z
 _atom_site_occupancy
  Zr  Zr0  1  0.250000  0.004308  0.246995  1
  Zr  Zr1  1  0.250000  0.496691  0.246856  1
  Zr  Zr2  1  0.750000  0.001772  0.753168  1
  Zr  Zr3  1  0.750000  0.496669  0.753673  1
  Zn  Zn4  1  0.250000  0.748420  0.582451  1
  Zn  Zn5  1  0.250000  0.248877  0.919690  1
  Zn  Zn6  1  0.750000  0.250537  0.413260  1
  Zn  Zn7  1  0.750000  0.752992  0.083994  1
  Pd  Pd8  1  0.750000  0.251262  0.083349  1
  Au  Au9  1  0.250000  0.249036  0.583482  1
  Au  Au10  1  0.250000  0.748959  0.916595  1
  Au  Au11  1  0.750000  0.750477  0.416486  1
