# generated using pymatgen
data_KRb3(UBr6)2
_symmetry_space_group_name_H-M   'P 1'
_cell_length_a   7.95692467
_cell_length_b   7.77990240
_cell_length_c   13.59732400
_cell_angle_alpha   54.94562260
_cell_angle_beta   90.06206323
_cell_angle_gamma   89.57887620
_symmetry_Int_Tables_number   1
_chemical_formula_structural   KRb3(UBr6)2
_chemical_formula_sum   'K1 Rb3 U2 Br12'
_cell_volume   689.01331104
_cell_formula_units_Z   1
loop_
 _symmetry_equiv_pos_site_id
 _symmetry_equiv_pos_as_xyz
  1  'x, y, z'
loop_
 _atom_site_type_symbol
 _atom_site_label
 _atom_site_symmetry_multiplicity
 _atom_site_fract_x
 _atom_site_fract_y
 _atom_site_fract_z
 _atom_site_occupancy
  K  K0  1  0.555770  0.263662  0.749277  1
  Rb  Rb1  1  0.449150  0.735309  0.250829  1
  Rb  Rb2  1  0.947786  0.265766  0.249314  1
  Rb  Rb3  1  0.051525  0.734881  0.750643  1
  U  U4  1  0.999245  0.001360  0.998468  1
  U  U5  1  0.500394  0.998671  0.501629  1
  Br  Br6  1  0.797839  0.322554  0.968198  1
  Br  Br7  1  0.501908  0.188794  0.254962  1
  Br  Br8  1  0.497552  0.817579  0.746911  1
  Br  Br9  1  0.289153  0.225509  0.969519  1
  Br  Br10  1  0.305042  0.667274  0.538692  1
  Br  Br11  1  0.210757  0.224849  0.473888  1
  Br  Br12  1  0.199556  0.678168  0.030107  1
  Br  Br13  1  0.788788  0.772291  0.527199  1
  Br  Br14  1  0.711446  0.777668  0.023845  1
  Br  Br15  1  0.005648  0.812922  0.244918  1
  Br  Br16  1  0.987908  0.190309  0.752491  1
  Br  Br17  1  0.700534  0.322434  0.469111  1
