# generated using pymatgen
data_U2Ta3Co9As7
_symmetry_space_group_name_H-M   'P 1'
_cell_length_a   3.82421500
_cell_length_b   9.53042771
_cell_length_c   9.53042700
_cell_angle_alpha   119.99999406
_cell_angle_beta   90.00000000
_cell_angle_gamma   90.00000000
_symmetry_Int_Tables_number   1
_chemical_formula_structural   U2Ta3Co9As7
_chemical_formula_sum   'U2 Ta3 Co9 As7'
_cell_volume   300.81376751
_cell_formula_units_Z   1
loop_
 _symmetry_equiv_pos_site_id
 _symmetry_equiv_pos_as_xyz
  1  'x, y, z'
loop_
 _atom_site_type_symbol
 _atom_site_label
 _atom_site_symmetry_multiplicity
 _atom_site_fract_x
 _atom_site_fract_y
 _atom_site_fract_z
 _atom_site_occupancy
  U  U0  1  0.000000  0.666667  0.333333  1
  U  U1  1  0.500000  0.333333  0.666667  1
  Ta  Ta2  1  0.500000  0.776081  0.897056  1
  Ta  Ta3  1  0.500000  0.120975  0.223919  1
  Ta  Ta4  1  0.500000  0.102944  0.879025  1
  Co  Co5  1  0.000000  0.572438  0.937049  1
  Co  Co6  1  0.000000  0.364612  0.427562  1
  Co  Co7  1  0.000000  0.062951  0.635388  1
  Co  Co8  1  0.000000  0.876133  0.159024  1
  Co  Co9  1  0.000000  0.282892  0.123867  1
  Co  Co10  1  0.000000  0.840976  0.717108  1
  Co  Co11  1  0.500000  0.949043  0.383870  1
  Co  Co12  1  0.500000  0.434826  0.050957  1
  Co  Co13  1  0.500000  0.616130  0.565174  1
  As  As14  1  0.000000  0.000000  0.000000  1
  As  As15  1  0.500000  0.707760  0.123825  1
  As  As16  1  0.500000  0.416065  0.292240  1
  As  As17  1  0.500000  0.876175  0.583935  1
  As  As18  1  0.000000  0.580583  0.691325  1
  As  As19  1  0.000000  0.110742  0.419417  1
  As  As20  1  0.000000  0.308675  0.889258  1
