# generated using pymatgen
data_Th6Co17ReP12
_symmetry_space_group_name_H-M   'P 1'
_cell_length_a   3.82846000
_cell_length_b   10.59858500
_cell_length_c   12.45791000
_cell_angle_alpha   90.00000000
_cell_angle_beta   90.00000000
_cell_angle_gamma   90.00000000
_symmetry_Int_Tables_number   1
_chemical_formula_structural   Th6Co17ReP12
_chemical_formula_sum   'Th6 Co17 Re1 P12'
_cell_volume   505.49537938
_cell_formula_units_Z   1
loop_
 _symmetry_equiv_pos_site_id
 _symmetry_equiv_pos_as_xyz
  1  'x, y, z'
loop_
 _atom_site_type_symbol
 _atom_site_label
 _atom_site_symmetry_multiplicity
 _atom_site_fract_x
 _atom_site_fract_y
 _atom_site_fract_z
 _atom_site_occupancy
  Th  Th0  1  0.000000  0.500000  0.523207  1
  Th  Th1  1  0.500000  0.000000  0.480022  1
  Th  Th2  1  0.500000  0.817427  0.208257  1
  Th  Th3  1  0.500000  0.182573  0.208257  1
  Th  Th4  1  0.000000  0.685561  0.793295  1
  Th  Th5  1  0.000000  0.314439  0.793295  1
  Co  Co6  1  0.000000  0.000000  0.842401  1
  Co  Co7  1  0.500000  0.500000  0.703336  1
  Co  Co8  1  0.000000  0.000000  0.296741  1
  Co  Co9  1  0.000000  0.500000  0.986428  1
  Co  Co10  1  0.500000  0.000000  0.017135  1
  Co  Co11  1  0.500000  0.333013  0.991757  1
  Co  Co12  1  0.500000  0.666987  0.991757  1
  Co  Co13  1  0.000000  0.166312  0.005159  1
  Co  Co14  1  0.000000  0.833688  0.005159  1
  Co  Co15  1  0.500000  0.301435  0.427171  1
  Co  Co16  1  0.500000  0.698565  0.427171  1
  Co  Co17  1  0.000000  0.198518  0.572420  1
  Co  Co18  1  0.000000  0.801482  0.572420  1
  Co  Co19  1  0.500000  0.881604  0.714907  1
  Co  Co20  1  0.500000  0.118396  0.714907  1
  Co  Co21  1  0.000000  0.618340  0.284682  1
  Co  Co22  1  0.000000  0.381660  0.284682  1
  Re  Re23  1  0.500000  0.500000  0.152882  1
  P  P24  1  0.500000  0.500000  0.883915  1
  P  P25  1  0.000000  0.000000  0.114239  1
  P  P26  1  0.500000  0.500000  0.341978  1
  P  P27  1  0.000000  0.000000  0.662330  1
  P  P28  1  0.500000  0.305208  0.612254  1
  P  P29  1  0.500000  0.694792  0.612254  1
  P  P30  1  0.000000  0.194379  0.388680  1
  P  P31  1  0.000000  0.805621  0.388680  1
  P  P32  1  0.500000  0.852278  0.897053  1
  P  P33  1  0.500000  0.147722  0.897053  1
  P  P34  1  0.000000  0.653436  0.102060  1
  P  P35  1  0.000000  0.346564  0.102060  1
