# generated using pymatgen
data_Nd2Co4Tc6Ni2P7
_symmetry_space_group_name_H-M   'P 1'
_cell_length_a   9.36499703
_cell_length_b   9.34387547
_cell_length_c   3.80426500
_cell_angle_alpha   90.00000000
_cell_angle_beta   90.00000000
_cell_angle_gamma   119.94449883
_symmetry_Int_Tables_number   1
_chemical_formula_structural   Nd2Co4Tc6Ni2P7
_chemical_formula_sum   'Nd2 Co4 Tc6 Ni2 P7'
_cell_volume   288.45541348
_cell_formula_units_Z   1
loop_
 _symmetry_equiv_pos_site_id
 _symmetry_equiv_pos_as_xyz
  1  'x, y, z'
loop_
 _atom_site_type_symbol
 _atom_site_label
 _atom_site_symmetry_multiplicity
 _atom_site_fract_x
 _atom_site_fract_y
 _atom_site_fract_z
 _atom_site_occupancy
  Nd  Nd0  1  0.000658  0.999844  0.000000  1
  Nd  Nd1  1  0.333542  0.667517  0.500000  1
  Co  Co2  1  0.307570  0.910644  0.000000  1
  Co  Co3  1  0.821320  0.601175  0.000000  1
  Co  Co4  1  0.399006  0.218575  0.000000  1
  Co  Co5  1  0.780635  0.178526  0.000000  1
  Tc  Tc6  1  0.057741  0.768603  0.500000  1
  Tc  Tc7  1  0.230972  0.289676  0.500000  1
  Tc  Tc8  1  0.707566  0.939452  0.500000  1
  Tc  Tc9  1  0.876418  0.423267  0.500000  1
  Tc  Tc10  1  0.577485  0.452797  0.500000  1
  Tc  Tc11  1  0.547895  0.126299  0.500000  1
  Ni  Ni12  1  0.088367  0.397768  0.000000  1
  Ni  Ni13  1  0.602524  0.690165  0.000000  1
  P  P14  1  0.785117  0.730825  0.500000  1
  P  P15  1  0.270145  0.051310  0.500000  1
  P  P16  1  0.944194  0.213436  0.500000  1
  P  P17  1  0.667791  0.333702  0.000000  1
  P  P18  1  0.076693  0.636946  0.000000  1
  P  P19  1  0.368818  0.439624  0.000000  1
  P  P20  1  0.555545  0.929847  0.000000  1
