# generated using pymatgen
data_Er7Tm3(Ga2Bi)2
_symmetry_space_group_name_H-M   'P 1'
_cell_length_a   8.65037804
_cell_length_b   8.68125264
_cell_length_c   6.50626700
_cell_angle_alpha   89.99750423
_cell_angle_beta   90.00151251
_cell_angle_gamma   120.11813378
_symmetry_Int_Tables_number   1
_chemical_formula_structural   Er7Tm3(Ga2Bi)2
_chemical_formula_sum   'Er7 Tm3 Ga4 Bi2'
_cell_volume   422.63142105
_cell_formula_units_Z   1
loop_
 _symmetry_equiv_pos_site_id
 _symmetry_equiv_pos_as_xyz
  1  'x, y, z'
loop_
 _atom_site_type_symbol
 _atom_site_label
 _atom_site_symmetry_multiplicity
 _atom_site_fract_x
 _atom_site_fract_y
 _atom_site_fract_z
 _atom_site_occupancy
  Er  Er0  1  0.982372  0.748963  0.749986  1
  Er  Er1  1  0.982367  0.233403  0.250018  1
  Er  Er2  1  0.768743  0.769322  0.250065  1
  Er  Er3  1  0.768747  0.999431  0.749953  1
  Er  Er4  1  0.233390  0.250664  0.749932  1
  Er  Er5  1  0.233376  0.982725  0.250070  1
  Er  Er6  1  0.329865  0.664935  0.999992  1
  Tm  Tm7  1  0.329797  0.664901  0.500003  1
  Tm  Tm8  1  0.692419  0.346210  0.999997  1
  Tm  Tm9  1  0.692293  0.346146  0.499999  1
  Ga  Ga10  1  0.001468  0.601080  0.250117  1
  Ga  Ga11  1  0.001474  0.400385  0.749892  1
  Ga  Ga12  1  0.596360  0.601050  0.749842  1
  Ga  Ga13  1  0.596353  0.995308  0.250139  1
  Bi  Bi14  1  0.395492  0.006351  0.749832  1
  Bi  Bi15  1  0.395487  0.389127  0.250162  1
