# generated using pymatgen
data_Dy3Y5(LuGa5)4
_symmetry_space_group_name_H-M   'P 1'
_cell_length_a   6.05484100
_cell_length_b   9.56962600
_cell_length_c   11.53572200
_cell_angle_alpha   89.99963067
_cell_angle_beta   89.99728639
_cell_angle_gamma   90.00363350
_symmetry_Int_Tables_number   1
_chemical_formula_structural   Dy3Y5(LuGa5)4
_chemical_formula_sum   'Dy3 Y5 Lu4 Ga20'
_cell_volume   668.40930760
_cell_formula_units_Z   1
loop_
 _symmetry_equiv_pos_site_id
 _symmetry_equiv_pos_as_xyz
  1  'x, y, z'
loop_
 _atom_site_type_symbol
 _atom_site_label
 _atom_site_symmetry_multiplicity
 _atom_site_fract_x
 _atom_site_fract_y
 _atom_site_fract_z
 _atom_site_occupancy
  Dy  Dy0  1  0.390705  0.006579  0.148975  1
  Dy  Dy1  1  0.890732  0.993410  0.351013  1
  Dy  Dy2  1  0.609297  0.506584  0.851037  1
  Y  Y3  1  0.890628  0.506568  0.351040  1
  Y  Y4  1  0.609306  0.993452  0.851106  1
  Y  Y5  1  0.109314  0.006567  0.648897  1
  Y  Y6  1  0.390663  0.493438  0.148889  1
  Y  Y7  1  0.109354  0.493404  0.649010  1
  Lu  Lu8  1  0.849816  0.750061  0.074415  1
  Lu  Lu9  1  0.650098  0.750021  0.574394  1
  Lu  Lu10  1  0.150154  0.250033  0.925590  1
  Lu  Lu11  1  0.349853  0.249907  0.425561  1
  Ga  Ga12  1  0.876507  0.053154  0.089563  1
  Ga  Ga13  1  0.623420  0.446787  0.589490  1
  Ga  Ga14  1  0.123515  0.553188  0.910617  1
  Ga  Ga15  1  0.376516  0.946847  0.410453  1
  Ga  Ga16  1  0.123475  0.946788  0.910774  1
  Ga  Ga17  1  0.376601  0.553240  0.410648  1
  Ga  Ga18  1  0.876518  0.446791  0.089240  1
  Ga  Ga19  1  0.623460  0.053221  0.589243  1
  Ga  Ga20  1  0.166895  0.750305  0.254050  1
  Ga  Ga21  1  0.333249  0.749843  0.754123  1
  Ga  Ga22  1  0.832922  0.250167  0.746026  1
  Ga  Ga23  1  0.666894  0.249675  0.245960  1
  Ga  Ga24  1  0.379137  0.750103  0.001258  1
  Ga  Ga25  1  0.120859  0.750083  0.501145  1
  Ga  Ga26  1  0.620886  0.250090  0.998730  1
  Ga  Ga27  1  0.879004  0.249820  0.498638  1
  Ga  Ga28  1  0.604095  0.750284  0.298724  1
  Ga  Ga29  1  0.895852  0.749807  0.798777  1
  Ga  Ga30  1  0.396190  0.250073  0.701334  1
  Ga  Ga31  1  0.104085  0.249711  0.201281  1
