# generated using pymatgen
data_ErPuOsC2
_symmetry_space_group_name_H-M   'P 1'
_cell_length_a   5.12446200
_cell_length_b   6.34080500
_cell_length_c   9.78031200
_cell_angle_alpha   90.00000000
_cell_angle_beta   90.00000000
_cell_angle_gamma   90.00000000
_symmetry_Int_Tables_number   1
_chemical_formula_structural   ErPuOsC2
_chemical_formula_sum   'Er4 Pu4 Os4 C8'
_cell_volume   317.79377346
_cell_formula_units_Z   4
loop_
 _symmetry_equiv_pos_site_id
 _symmetry_equiv_pos_as_xyz
  1  'x, y, z'
loop_
 _atom_site_type_symbol
 _atom_site_label
 _atom_site_symmetry_multiplicity
 _atom_site_fract_x
 _atom_site_fract_y
 _atom_site_fract_z
 _atom_site_occupancy
  Er  Er0  1  0.250000  0.685916  0.551629  1
  Er  Er1  1  0.750000  0.314084  0.448371  1
  Er  Er2  1  0.750000  0.814084  0.051629  1
  Er  Er3  1  0.250000  0.185916  0.948371  1
  Pu  Pu4  1  0.250000  0.526191  0.220477  1
  Pu  Pu5  1  0.750000  0.473809  0.779523  1
  Pu  Pu6  1  0.750000  0.973809  0.720477  1
  Pu  Pu7  1  0.250000  0.026191  0.279523  1
  Os  Os8  1  0.250000  0.721821  0.868394  1
  Os  Os9  1  0.750000  0.278179  0.131606  1
  Os  Os10  1  0.750000  0.778179  0.368394  1
  Os  Os11  1  0.250000  0.221821  0.631606  1
  C  C12  1  0.250000  0.457707  0.757797  1
  C  C13  1  0.750000  0.542293  0.242203  1
  C  C14  1  0.750000  0.042293  0.257797  1
  C  C15  1  0.250000  0.957707  0.742203  1
  C  C16  1  0.250000  0.824661  0.057930  1
  C  C17  1  0.750000  0.175339  0.942070  1
  C  C18  1  0.750000  0.675339  0.557930  1
  C  C19  1  0.250000  0.324661  0.442070  1
