# generated using pymatgen
data_Dy3Sc3MnBiPb
_symmetry_space_group_name_H-M   'P 1'
_cell_length_a   4.30387300
_cell_length_b   7.91119525
_cell_length_c   7.91119500
_cell_angle_alpha   119.99998641
_cell_angle_beta   90.00000000
_cell_angle_gamma   90.00000000
_symmetry_Int_Tables_number   1
_chemical_formula_structural   Dy3Sc3MnBiPb
_chemical_formula_sum   'Dy3 Sc3 Mn1 Bi1 Pb1'
_cell_volume   233.27829439
_cell_formula_units_Z   1
loop_
 _symmetry_equiv_pos_site_id
 _symmetry_equiv_pos_as_xyz
  1  'x, y, z'
loop_
 _atom_site_type_symbol
 _atom_site_label
 _atom_site_symmetry_multiplicity
 _atom_site_fract_x
 _atom_site_fract_y
 _atom_site_fract_z
 _atom_site_occupancy
  Dy  Dy0  1  0.000000  0.396943  0.392689  1
  Dy  Dy1  1  0.000000  0.995746  0.603057  1
  Dy  Dy2  1  0.000000  0.607311  0.004254  1
  Sc  Sc3  1  0.500000  0.774396  0.772169  1
  Sc  Sc4  1  0.500000  0.997774  0.225604  1
  Sc  Sc5  1  0.500000  0.227831  0.002226  1
  Mn  Mn6  1  0.000000  0.000000  0.000000  1
  Bi  Bi7  1  0.500000  0.333333  0.666667  1
  Pb  Pb8  1  0.500000  0.666667  0.333333  1
