# generated using pymatgen
data_Er2MnCo5P4
_symmetry_space_group_name_H-M   'P 1'
_cell_length_a   3.68479000
_cell_length_b   10.52839500
_cell_length_c   12.10888700
_cell_angle_alpha   90.00000000
_cell_angle_beta   90.00000000
_cell_angle_gamma   90.00000000
_symmetry_Int_Tables_number   1
_chemical_formula_structural   Er2MnCo5P4
_chemical_formula_sum   'Er6 Mn3 Co15 P12'
_cell_volume   469.76335830
_cell_formula_units_Z   3
loop_
 _symmetry_equiv_pos_site_id
 _symmetry_equiv_pos_as_xyz
  1  'x, y, z'
loop_
 _atom_site_type_symbol
 _atom_site_label
 _atom_site_symmetry_multiplicity
 _atom_site_fract_x
 _atom_site_fract_y
 _atom_site_fract_z
 _atom_site_occupancy
  Er  Er0  1  0.000000  0.500000  0.523523  1
  Er  Er1  1  0.500000  0.000000  0.476948  1
  Er  Er2  1  0.500000  0.818410  0.204923  1
  Er  Er3  1  0.500000  0.181590  0.204923  1
  Er  Er4  1  0.000000  0.680369  0.795659  1
  Er  Er5  1  0.000000  0.319631  0.795659  1
  Mn  Mn6  1  0.500000  0.500000  0.155674  1
  Mn  Mn7  1  0.000000  0.000000  0.841164  1
  Mn  Mn8  1  0.000000  0.500000  0.988468  1
  Co  Co9  1  0.500000  0.500000  0.699331  1
  Co  Co10  1  0.000000  0.000000  0.298094  1
  Co  Co11  1  0.500000  0.000000  0.013741  1
  Co  Co12  1  0.500000  0.330250  0.994094  1
  Co  Co13  1  0.500000  0.669750  0.994094  1
  Co  Co14  1  0.000000  0.165138  0.005363  1
  Co  Co15  1  0.000000  0.834862  0.005363  1
  Co  Co16  1  0.500000  0.296096  0.430602  1
  Co  Co17  1  0.500000  0.703904  0.430602  1
  Co  Co18  1  0.000000  0.203327  0.569942  1
  Co  Co19  1  0.000000  0.796673  0.569942  1
  Co  Co20  1  0.500000  0.879470  0.709474  1
  Co  Co21  1  0.500000  0.120530  0.709474  1
  Co  Co22  1  0.000000  0.621461  0.291545  1
  Co  Co23  1  0.000000  0.378539  0.291545  1
  P  P24  1  0.500000  0.500000  0.882052  1
  P  P25  1  0.000000  0.000000  0.118058  1
  P  P26  1  0.500000  0.500000  0.346102  1
  P  P27  1  0.000000  0.000000  0.654412  1
  P  P28  1  0.500000  0.311071  0.616809  1
  P  P29  1  0.500000  0.688929  0.616809  1
  P  P30  1  0.000000  0.188198  0.383738  1
  P  P31  1  0.000000  0.811802  0.383738  1
  P  P32  1  0.500000  0.846835  0.892390  1
  P  P33  1  0.500000  0.153165  0.892390  1
  P  P34  1  0.000000  0.654917  0.106677  1
  P  P35  1  0.000000  0.345083  0.106677  1
