# generated using pymatgen
data_Hf3Cr5(Ni2P3)2
_symmetry_space_group_name_H-M   'P 1'
_cell_length_a   3.60879400
_cell_length_b   10.62879500
_cell_length_c   12.19996700
_cell_angle_alpha   90.00000000
_cell_angle_beta   90.00000000
_cell_angle_gamma   90.00000000
_symmetry_Int_Tables_number   1
_chemical_formula_structural   Hf3Cr5(Ni2P3)2
_chemical_formula_sum   'Hf6 Cr10 Ni8 P12'
_cell_volume   467.95574002
_cell_formula_units_Z   2
loop_
 _symmetry_equiv_pos_site_id
 _symmetry_equiv_pos_as_xyz
  1  'x, y, z'
loop_
 _atom_site_type_symbol
 _atom_site_label
 _atom_site_symmetry_multiplicity
 _atom_site_fract_x
 _atom_site_fract_y
 _atom_site_fract_z
 _atom_site_occupancy
  Hf  Hf0  1  0.751916  0.000000  0.466776  1
  Hf  Hf1  1  0.251916  0.500000  0.533224  1
  Hf  Hf2  1  0.251840  0.677902  0.797338  1
  Hf  Hf3  1  0.251840  0.322098  0.797338  1
  Hf  Hf4  1  0.751840  0.822098  0.202662  1
  Hf  Hf5  1  0.751840  0.177902  0.202662  1
  Cr  Cr6  1  0.251882  0.204793  0.567318  1
  Cr  Cr7  1  0.251882  0.795207  0.567318  1
  Cr  Cr8  1  0.751882  0.295207  0.432682  1
  Cr  Cr9  1  0.751882  0.704793  0.432682  1
  Cr  Cr10  1  0.251843  0.619841  0.300290  1
  Cr  Cr11  1  0.251843  0.380159  0.300290  1
  Cr  Cr12  1  0.751843  0.880159  0.699710  1
  Cr  Cr13  1  0.751843  0.119841  0.699710  1
  Cr  Cr14  1  0.251793  0.000000  0.839457  1
  Cr  Cr15  1  0.751793  0.500000  0.160543  1
  Ni  Ni16  1  0.751689  0.000000  0.010234  1
  Ni  Ni17  1  0.251689  0.500000  0.989766  1
  Ni  Ni18  1  0.251679  0.169634  0.008878  1
  Ni  Ni19  1  0.251679  0.830366  0.008878  1
  Ni  Ni20  1  0.751679  0.330366  0.991122  1
  Ni  Ni21  1  0.751679  0.669634  0.991122  1
  Ni  Ni22  1  0.251895  0.000000  0.291991  1
  Ni  Ni23  1  0.751895  0.500000  0.708009  1
  P  P24  1  0.251905  0.175219  0.378025  1
  P  P25  1  0.251905  0.824781  0.378025  1
  P  P26  1  0.751905  0.324781  0.621975  1
  P  P27  1  0.751905  0.675219  0.621975  1
  P  P28  1  0.251751  0.000000  0.117908  1
  P  P29  1  0.751751  0.500000  0.882092  1
  P  P30  1  0.251805  0.656378  0.114585  1
  P  P31  1  0.251805  0.343622  0.114585  1
  P  P32  1  0.751805  0.843622  0.885415  1
  P  P33  1  0.751805  0.156378  0.885415  1
  P  P34  1  0.251850  0.000000  0.636335  1
  P  P35  1  0.751850  0.500000  0.363665  1
