# generated using pymatgen
data_Ta3Nb3Ga4(IrC)2
_symmetry_space_group_name_H-M   'P 1'
_cell_length_a   8.33490294
_cell_length_b   8.33508840
_cell_length_c   8.33490300
_cell_angle_alpha   59.99927491
_cell_angle_beta   59.99328900
_cell_angle_gamma   59.99927548
_symmetry_Int_Tables_number   1
_chemical_formula_structural   Ta3Nb3Ga4(IrC)2
_chemical_formula_sum   'Ta6 Nb6 Ga8 Ir4 C4'
_cell_volume   409.42043935
_cell_formula_units_Z   2
loop_
 _symmetry_equiv_pos_site_id
 _symmetry_equiv_pos_as_xyz
  1  'x, y, z'
loop_
 _atom_site_type_symbol
 _atom_site_label
 _atom_site_symmetry_multiplicity
 _atom_site_fract_x
 _atom_site_fract_y
 _atom_site_fract_z
 _atom_site_occupancy
  Ta  Ta0  1  0.687814  0.312186  0.687814  1
  Ta  Ta1  1  0.938038  0.562919  0.562194  1
  Ta  Ta2  1  0.562194  0.936849  0.938038  1
  Ta  Ta3  1  0.936681  0.563319  0.936681  1
  Ta  Ta4  1  0.562194  0.562919  0.938038  1
  Ta  Ta5  1  0.938038  0.936849  0.562194  1
  Nb  Nb6  1  0.686608  0.686700  0.313708  1
  Nb  Nb7  1  0.313708  0.686700  0.686608  1
  Nb  Nb8  1  0.686608  0.312984  0.313708  1
  Nb  Nb9  1  0.313708  0.312984  0.686608  1
  Nb  Nb10  1  0.564037  0.935963  0.564037  1
  Nb  Nb11  1  0.312601  0.687399  0.312601  1
  Ga  Ga12  1  0.336820  0.333768  0.336820  1
  Ga  Ga13  1  0.257038  0.915383  0.912194  1
  Ga  Ga14  1  0.915082  0.257831  0.915082  1
  Ga  Ga15  1  0.912194  0.915383  0.257038  1
  Ga  Ga16  1  0.336820  0.992593  0.336820  1
  Ga  Ga17  1  0.333934  0.337023  0.992020  1
  Ga  Ga18  1  0.992020  0.337023  0.333934  1
  Ga  Ga19  1  0.915082  0.912005  0.915082  1
  Ir  Ir20  1  0.125725  0.123926  0.125725  1
  Ir  Ir21  1  0.625486  0.128347  0.117821  1
  Ir  Ir22  1  0.125725  0.624623  0.125725  1
  Ir  Ir23  1  0.117821  0.128347  0.625486  1
  C  C24  1  0.627704  0.621467  0.627704  1
  C  C25  1  0.122232  0.625692  0.626384  1
  C  C26  1  0.627704  0.123125  0.627704  1
  C  C27  1  0.626384  0.625692  0.122232  1
