# generated using pymatgen
data_Na2Eu(SiPt)4
_symmetry_space_group_name_H-M   'P 1'
_cell_length_a   6.54395893
_cell_length_b   6.54395868
_cell_length_c   6.54395888
_cell_angle_alpha   111.31322946
_cell_angle_beta   111.31322359
_cell_angle_gamma   105.84687732
_symmetry_Int_Tables_number   1
_chemical_formula_structural   Na2Eu(SiPt)4
_chemical_formula_sum   'Na2 Eu1 Si4 Pt4'
_cell_volume   215.08253473
_cell_formula_units_Z   1
loop_
 _symmetry_equiv_pos_site_id
 _symmetry_equiv_pos_as_xyz
  1  'x, y, z'
loop_
 _atom_site_type_symbol
 _atom_site_label
 _atom_site_symmetry_multiplicity
 _atom_site_fract_x
 _atom_site_fract_y
 _atom_site_fract_z
 _atom_site_occupancy
  Na  Na0  1  0.500000  0.000000  0.500000  1
  Na  Na1  1  0.000000  0.500000  0.500000  1
  Eu  Eu2  1  0.500000  0.500000  0.000000  1
  Si  Si3  1  0.359498  0.994764  0.000000  1
  Si  Si4  1  0.994764  0.359498  0.000000  1
  Si  Si5  1  0.005236  0.005236  0.364735  1
  Si  Si6  1  0.640502  0.640502  0.635265  1
  Pt  Pt7  1  0.717689  0.016375  0.000000  1
  Pt  Pt8  1  0.016375  0.717689  0.000000  1
  Pt  Pt9  1  0.282312  0.282312  0.298687  1
  Pt  Pt10  1  0.983625  0.983625  0.701314  1
