# generated using pymatgen
data_Tb3Dy9(TmRh3)2
_symmetry_space_group_name_H-M   'P 1'
_cell_length_a   9.80231300
_cell_length_b   9.80231145
_cell_length_c   6.17839600
_cell_angle_alpha   90.00000000
_cell_angle_beta   90.00000000
_cell_angle_gamma   120.00000859
_symmetry_Int_Tables_number   1
_chemical_formula_structural   Tb3Dy9(TmRh3)2
_chemical_formula_sum   'Tb3 Dy9 Tm2 Rh6'
_cell_volume   514.11869700
_cell_formula_units_Z   1
loop_
 _symmetry_equiv_pos_site_id
 _symmetry_equiv_pos_as_xyz
  1  'x, y, z'
loop_
 _atom_site_type_symbol
 _atom_site_label
 _atom_site_symmetry_multiplicity
 _atom_site_fract_x
 _atom_site_fract_y
 _atom_site_fract_z
 _atom_site_occupancy
  Tb  Tb0  1  0.875799  0.751596  0.741427  1
  Tb  Tb1  1  0.248404  0.124201  0.741427  1
  Tb  Tb2  1  0.875799  0.124201  0.741427  1
  Dy  Dy3  1  0.124180  0.248360  0.241322  1
  Dy  Dy4  1  0.751640  0.875820  0.241322  1
  Dy  Dy5  1  0.124180  0.875820  0.241322  1
  Dy  Dy6  1  0.459001  0.918002  0.547755  1
  Dy  Dy7  1  0.081998  0.540999  0.547755  1
  Dy  Dy8  1  0.459001  0.540999  0.547755  1
  Dy  Dy9  1  0.540980  0.081958  0.047871  1
  Dy  Dy10  1  0.918042  0.459020  0.047871  1
  Dy  Dy11  1  0.540980  0.459020  0.047871  1
  Tm  Tm12  1  0.666667  0.333333  0.533239  1
  Tm  Tm13  1  0.333333  0.666667  0.033269  1
  Rh  Rh14  1  0.190415  0.380830  0.813368  1
  Rh  Rh15  1  0.619170  0.809585  0.813368  1
  Rh  Rh16  1  0.190415  0.809585  0.813368  1
  Rh  Rh17  1  0.809633  0.619266  0.313235  1
  Rh  Rh18  1  0.380734  0.190367  0.313235  1
  Rh  Rh19  1  0.809633  0.190367  0.313235  1
