# generated using pymatgen
data_Nb4Zn2Fe3Co7B4
_symmetry_space_group_name_H-M   'P 1'
_cell_length_a   8.67156241
_cell_length_b   8.63891741
_cell_length_c   2.95861800
_cell_angle_alpha   90.00000000
_cell_angle_beta   90.00000000
_cell_angle_gamma   89.87188043
_symmetry_Int_Tables_number   1
_chemical_formula_structural   Nb4Zn2Fe3Co7B4
_chemical_formula_sum   'Nb4 Zn2 Fe3 Co7 B4'
_cell_volume   221.63813419
_cell_formula_units_Z   1
loop_
 _symmetry_equiv_pos_site_id
 _symmetry_equiv_pos_as_xyz
  1  'x, y, z'
loop_
 _atom_site_type_symbol
 _atom_site_label
 _atom_site_symmetry_multiplicity
 _atom_site_fract_x
 _atom_site_fract_y
 _atom_site_fract_z
 _atom_site_occupancy
  Nb  Nb0  1  0.674225  0.175340  0.000000  1
  Nb  Nb1  1  0.323761  0.827953  0.000000  1
  Nb  Nb2  1  0.175164  0.322148  0.000000  1
  Nb  Nb3  1  0.825452  0.674884  0.000000  1
  Zn  Zn4  1  0.998732  0.999209  0.000000  1
  Zn  Zn5  1  0.499964  0.500756  0.000000  1
  Fe  Fe6  1  0.501756  0.000390  0.500000  1
  Fe  Fe7  1  0.000898  0.498695  0.500000  1
  Fe  Fe8  1  0.220788  0.071355  0.500000  1
  Co  Co9  1  0.779185  0.928397  0.500000  1
  Co  Co10  1  0.070237  0.778147  0.500000  1
  Co  Co11  1  0.721413  0.430172  0.500000  1
  Co  Co12  1  0.927395  0.220473  0.500000  1
  Co  Co13  1  0.278821  0.571230  0.500000  1
  Co  Co14  1  0.570868  0.721247  0.500000  1
  Co  Co15  1  0.430544  0.279955  0.500000  1
  B  B16  1  0.122024  0.621896  0.000000  1
  B  B17  1  0.877770  0.377644  0.000000  1
  B  B18  1  0.622324  0.877959  0.000000  1
  B  B19  1  0.378678  0.122152  0.000000  1
