# generated using pymatgen
data_Tb12Al3GaPd20
_symmetry_space_group_name_H-M   'P 1'
_cell_length_a   8.23526400
_cell_length_b   8.23526335
_cell_length_c   13.14930100
_cell_angle_alpha   90.00000000
_cell_angle_beta   90.00000000
_cell_angle_gamma   127.45755252
_symmetry_Int_Tables_number   1
_chemical_formula_structural   Tb12Al3GaPd20
_chemical_formula_sum   'Tb12 Al3 Ga1 Pd20'
_cell_volume   707.89856975
_cell_formula_units_Z   1
loop_
 _symmetry_equiv_pos_site_id
 _symmetry_equiv_pos_as_xyz
  1  'x, y, z'
loop_
 _atom_site_type_symbol
 _atom_site_label
 _atom_site_symmetry_multiplicity
 _atom_site_fract_x
 _atom_site_fract_y
 _atom_site_fract_z
 _atom_site_occupancy
  Tb  Tb0  1  0.933129  0.066871  0.250000  1
  Tb  Tb1  1  0.067495  0.932505  0.750000  1
  Tb  Tb2  1  0.317440  0.682560  0.250000  1
  Tb  Tb3  1  0.679687  0.320313  0.750000  1
  Tb  Tb4  1  0.629001  0.370999  0.467199  1
  Tb  Tb5  1  0.372535  0.627465  0.534866  1
  Tb  Tb6  1  0.629001  0.370999  0.032801  1
  Tb  Tb7  1  0.372535  0.627465  0.965134  1
  Tb  Tb8  1  0.878828  0.121172  0.946357  1
  Tb  Tb9  1  0.120712  0.879288  0.053787  1
  Tb  Tb10  1  0.878828  0.121172  0.553643  1
  Tb  Tb11  1  0.120712  0.879288  0.446213  1
  Al  Al12  1  0.722952  0.277048  0.250000  1
  Al  Al13  1  0.277532  0.722468  0.750000  1
  Al  Al14  1  0.529857  0.470143  0.250000  1
  Ga  Ga15  1  0.470024  0.529976  0.750000  1
  Pd  Pd16  1  0.331469  0.076681  0.250000  1
  Pd  Pd17  1  0.072029  0.328907  0.750000  1
  Pd  Pd18  1  0.671093  0.927971  0.750000  1
  Pd  Pd19  1  0.923319  0.668531  0.250000  1
  Pd  Pd20  1  0.570870  0.006623  0.394342  1
  Pd  Pd21  1  0.007698  0.571206  0.606011  1
  Pd  Pd22  1  0.570870  0.006623  0.105658  1
  Pd  Pd23  1  0.007698  0.571206  0.893989  1
  Pd  Pd24  1  0.428794  0.992302  0.606011  1
  Pd  Pd25  1  0.993377  0.429130  0.394342  1
  Pd  Pd26  1  0.428794  0.992302  0.893989  1
  Pd  Pd27  1  0.993377  0.429130  0.105658  1
  Pd  Pd28  1  0.687473  0.741604  0.391564  1
  Pd  Pd29  1  0.747089  0.692787  0.606366  1
  Pd  Pd30  1  0.687473  0.741604  0.108436  1
  Pd  Pd31  1  0.747089  0.692787  0.893634  1
  Pd  Pd32  1  0.307213  0.252911  0.606366  1
  Pd  Pd33  1  0.258396  0.312527  0.391564  1
  Pd  Pd34  1  0.307213  0.252911  0.893634  1
  Pd  Pd35  1  0.258396  0.312527  0.108436  1
