# generated using pymatgen
data_PrTi(NbS2)8
_symmetry_space_group_name_H-M   'P 1'
_cell_length_a   6.70400000
_cell_length_b   6.70399887
_cell_length_c   13.46493900
_cell_angle_alpha   90.00000000
_cell_angle_beta   90.00000000
_cell_angle_gamma   120.00000559
_symmetry_Int_Tables_number   1
_chemical_formula_structural   PrTi(NbS2)8
_chemical_formula_sum   'Pr1 Ti1 Nb8 S16'
_cell_volume   524.08645492
_cell_formula_units_Z   1
loop_
 _symmetry_equiv_pos_site_id
 _symmetry_equiv_pos_as_xyz
  1  'x, y, z'
loop_
 _atom_site_type_symbol
 _atom_site_label
 _atom_site_symmetry_multiplicity
 _atom_site_fract_x
 _atom_site_fract_y
 _atom_site_fract_z
 _atom_site_occupancy
  Pr  Pr0  1  0.000000  0.000000  0.500000  1
  Ti  Ti1  1  0.000000  0.000000  0.000000  1
  Nb  Nb2  1  0.000000  0.000000  0.233111  1
  Nb  Nb3  1  0.000000  0.000000  0.766889  1
  Nb  Nb4  1  0.504772  0.495228  0.230902  1
  Nb  Nb5  1  0.504772  0.009545  0.230902  1
  Nb  Nb6  1  0.990455  0.495228  0.230902  1
  Nb  Nb7  1  0.495228  0.504772  0.769098  1
  Nb  Nb8  1  0.495228  0.990455  0.769098  1
  Nb  Nb9  1  0.009545  0.504772  0.769098  1
  S  S10  1  0.333333  0.666667  0.887379  1
  S  S11  1  0.666667  0.333333  0.112621  1
  S  S12  1  0.666667  0.333333  0.351112  1
  S  S13  1  0.333333  0.666667  0.648888  1
  S  S14  1  0.169894  0.830106  0.348661  1
  S  S15  1  0.169894  0.339787  0.348661  1
  S  S16  1  0.660213  0.830106  0.348661  1
  S  S17  1  0.830106  0.169894  0.651339  1
  S  S18  1  0.830106  0.660213  0.651339  1
  S  S19  1  0.339787  0.169894  0.651339  1
  S  S20  1  0.834170  0.165830  0.886118  1
  S  S21  1  0.834170  0.668341  0.886118  1
  S  S22  1  0.331659  0.165830  0.886118  1
  S  S23  1  0.165830  0.834170  0.113882  1
  S  S24  1  0.165830  0.331659  0.113882  1
  S  S25  1  0.668341  0.834170  0.113882  1
