# generated using pymatgen
data_Ho2Al6(SiRu)3
_symmetry_space_group_name_H-M   'P 1'
_cell_length_a   7.42696709
_cell_length_b   7.39109528
_cell_length_c   9.43423473
_cell_angle_alpha   90.07910926
_cell_angle_beta   90.01596536
_cell_angle_gamma   119.83644514
_symmetry_Int_Tables_number   1
_chemical_formula_structural   Ho2Al6(SiRu)3
_chemical_formula_sum   'Ho4 Al12 Si6 Ru6'
_cell_volume   449.23162828
_cell_formula_units_Z   2
loop_
 _symmetry_equiv_pos_site_id
 _symmetry_equiv_pos_as_xyz
  1  'x, y, z'
loop_
 _atom_site_type_symbol
 _atom_site_label
 _atom_site_symmetry_multiplicity
 _atom_site_fract_x
 _atom_site_fract_y
 _atom_site_fract_z
 _atom_site_occupancy
  Ho  Ho0  1  0.000162  0.663279  0.254882  1
  Ho  Ho1  1  0.999838  0.336721  0.745118  1
  Ho  Ho2  1  0.674856  0.007932  0.258166  1
  Ho  Ho3  1  0.325144  0.992068  0.741834  1
  Al  Al4  1  0.126652  0.126402  0.250536  1
  Al  Al5  1  0.873348  0.873598  0.749464  1
  Al  Al6  1  0.662455  0.995491  0.929564  1
  Al  Al7  1  0.337545  0.004509  0.070436  1
  Al  Al8  1  0.335819  0.334462  0.556622  1
  Al  Al9  1  0.664181  0.665538  0.443378  1
  Al  Al10  1  0.664564  0.667665  0.057191  1
  Al  Al11  1  0.335436  0.332335  0.942809  1
  Al  Al12  1  0.338151  0.549196  0.250303  1
  Al  Al13  1  0.661849  0.450804  0.749697  1
  Al  Al14  1  0.546948  0.341494  0.251190  1
  Al  Al15  1  0.453052  0.658506  0.748810  1
  Si  Si16  1  0.003098  0.328957  0.066057  1
  Si  Si17  1  0.996902  0.671043  0.933943  1
  Si  Si18  1  0.989313  0.664500  0.570953  1
  Si  Si19  1  0.334449  0.008633  0.423176  1
  Si  Si20  1  0.010687  0.335500  0.429047  1
  Si  Si21  1  0.665551  0.991367  0.576824  1
  Ru  Ru22  1  0.688987  0.336554  0.002270  1
  Ru  Ru23  1  0.311013  0.663446  0.997730  1
  Ru  Ru24  1  0.318502  0.681549  0.500068  1
  Ru  Ru25  1  0.681498  0.318451  0.499932  1
  Ru  Ru26  1  0.000000  0.000000  0.000000  1
  Ru  Ru27  1  0.000000  0.000000  0.500000  1
