# generated using pymatgen
data_Y3Lu2Zr3(As3Rh4)4
_symmetry_space_group_name_H-M   'P 1'
_cell_length_a   13.33232314
_cell_length_b   13.32901027
_cell_length_c   4.00208600
_cell_angle_alpha   90.00000000
_cell_angle_beta   90.00000000
_cell_angle_gamma   119.99178316
_symmetry_Int_Tables_number   1
_chemical_formula_structural   Y3Lu2Zr3(As3Rh4)4
_chemical_formula_sum   'Y3 Lu2 Zr3 As12 Rh16'
_cell_volume   615.96599213
_cell_formula_units_Z   1
loop_
 _symmetry_equiv_pos_site_id
 _symmetry_equiv_pos_as_xyz
  1  'x, y, z'
loop_
 _atom_site_type_symbol
 _atom_site_label
 _atom_site_symmetry_multiplicity
 _atom_site_fract_x
 _atom_site_fract_y
 _atom_site_fract_z
 _atom_site_occupancy
  Y  Y0  1  0.000000  0.813467  0.500000  1
  Y  Y1  1  0.333152  0.666724  0.000000  1
  Y  Y2  1  0.666848  0.333571  0.000000  1
  Lu  Lu3  1  0.187215  0.186865  0.500000  1
  Lu  Lu4  1  0.812785  0.999650  0.500000  1
  Zr  Zr5  1  0.554641  0.554930  0.000000  1
  Zr  Zr6  1  0.445359  0.000290  0.000000  1
  Zr  Zr7  1  0.000000  0.444212  0.000000  1
  As  As8  1  0.824720  0.825994  0.000000  1
  As  As9  1  0.175280  0.001274  0.000000  1
  As  As10  1  0.000000  0.174819  0.000000  1
  As  As11  1  0.170342  0.485403  0.500000  1
  As  As12  1  0.514028  0.684567  0.500000  1
  As  As13  1  0.315519  0.830156  0.500000  1
  As  As14  1  0.684481  0.514637  0.500000  1
  As  As15  1  0.829658  0.315061  0.500000  1
  As  As16  1  0.485972  0.170539  0.500000  1
  As  As17  1  0.351952  0.351881  0.000000  1
  As  As18  1  0.648048  0.999929  0.000000  1
  As  As19  1  0.000000  0.646744  0.000000  1
  Rh  Rh20  1  0.718847  0.719604  0.500000  1
  Rh  Rh21  1  0.281153  0.000757  0.500000  1
  Rh  Rh22  1  0.000000  0.280325  0.500000  1
  Rh  Rh23  1  0.175886  0.371650  0.000000  1
  Rh  Rh24  1  0.627469  0.803767  0.000000  1
  Rh  Rh25  1  0.197787  0.824281  0.000000  1
  Rh  Rh26  1  0.802213  0.626493  0.000000  1
  Rh  Rh27  1  0.824114  0.195764  0.000000  1
  Rh  Rh28  1  0.372531  0.176298  0.000000  1
  Rh  Rh29  1  0.354396  0.481894  0.500000  1
  Rh  Rh30  1  0.517747  0.872488  0.500000  1
  Rh  Rh31  1  0.127837  0.645397  0.500000  1
  Rh  Rh32  1  0.872163  0.517559  0.500000  1
  Rh  Rh33  1  0.645604  0.127497  0.500000  1
  Rh  Rh34  1  0.482253  0.354740  0.500000  1
  Rh  Rh35  1  0.000000  0.000772  0.000000  1
