# generated using pymatgen
data_Ta3MnB3Os2
_symmetry_space_group_name_H-M   'P 1'
_cell_length_a   3.13118800
_cell_length_b   6.34478200
_cell_length_c   10.86409800
_cell_angle_alpha   90.00000000
_cell_angle_beta   90.00000000
_cell_angle_gamma   90.00000000
_symmetry_Int_Tables_number   1
_chemical_formula_structural   Ta3MnB3Os2
_chemical_formula_sum   'Ta6 Mn2 B6 Os4'
_cell_volume   215.83383289
_cell_formula_units_Z   2
loop_
 _symmetry_equiv_pos_site_id
 _symmetry_equiv_pos_as_xyz
  1  'x, y, z'
loop_
 _atom_site_type_symbol
 _atom_site_label
 _atom_site_symmetry_multiplicity
 _atom_site_fract_x
 _atom_site_fract_y
 _atom_site_fract_z
 _atom_site_occupancy
  Ta  Ta0  1  0.000000  0.221322  0.950790  1
  Ta  Ta1  1  0.000000  0.778678  0.049210  1
  Ta  Ta2  1  0.000000  0.221322  0.549210  1
  Ta  Ta3  1  0.000000  0.778678  0.450790  1
  Ta  Ta4  1  0.000000  0.136795  0.250000  1
  Ta  Ta5  1  0.000000  0.863205  0.750000  1
  Mn  Mn6  1  0.500000  0.802016  0.250000  1
  Mn  Mn7  1  0.500000  0.197984  0.750000  1
  B  B8  1  0.500000  0.050079  0.086042  1
  B  B9  1  0.500000  0.949921  0.913958  1
  B  B10  1  0.500000  0.050079  0.413958  1
  B  B11  1  0.500000  0.949921  0.586042  1
  B  B12  1  0.000000  0.565596  0.250000  1
  B  B13  1  0.000000  0.434404  0.750000  1
  Os  Os14  1  0.500000  0.426559  0.123591  1
  Os  Os15  1  0.500000  0.573441  0.876409  1
  Os  Os16  1  0.500000  0.426559  0.376409  1
  Os  Os17  1  0.500000  0.573441  0.623591  1
