# generated using pymatgen
data_La2Al20CrIr3
_symmetry_space_group_name_H-M   'P 1'
_cell_length_a   6.89978262
_cell_length_b   6.92038923
_cell_length_c   9.22182181
_cell_angle_alpha   90.13477945
_cell_angle_beta   90.13645171
_cell_angle_gamma   96.95892351
_symmetry_Int_Tables_number   1
_chemical_formula_structural   La2Al20CrIr3
_chemical_formula_sum   'La2 Al20 Cr1 Ir3'
_cell_volume   437.08782918
_cell_formula_units_Z   1
loop_
 _symmetry_equiv_pos_site_id
 _symmetry_equiv_pos_as_xyz
  1  'x, y, z'
loop_
 _atom_site_type_symbol
 _atom_site_label
 _atom_site_symmetry_multiplicity
 _atom_site_fract_x
 _atom_site_fract_y
 _atom_site_fract_z
 _atom_site_occupancy
  La  La0  1  0.872228  0.121386  0.747475  1
  La  La1  1  0.127772  0.878614  0.252525  1
  Al  Al2  1  0.617557  0.373061  0.548768  1
  Al  Al3  1  0.382443  0.626939  0.451232  1
  Al  Al4  1  0.379864  0.620672  0.051793  1
  Al  Al5  1  0.620136  0.379328  0.948207  1
  Al  Al6  1  0.228930  0.221267  0.497162  1
  Al  Al7  1  0.771070  0.778733  0.502838  1
  Al  Al8  1  0.775436  0.776465  0.001693  1
  Al  Al9  1  0.224564  0.223535  0.998307  1
  Al  Al10  1  0.839360  0.162605  0.105127  1
  Al  Al11  1  0.160640  0.837395  0.894873  1
  Al  Al12  1  0.165094  0.841386  0.601316  1
  Al  Al13  1  0.834906  0.158614  0.398684  1
  Al  Al14  1  0.859016  0.592720  0.749785  1
  Al  Al15  1  0.140984  0.407280  0.250215  1
  Al  Al16  1  0.411345  0.140189  0.746184  1
  Al  Al17  1  0.588655  0.859811  0.253816  1
  Al  Al18  1  0.224090  0.482131  0.751566  1
  Al  Al19  1  0.775910  0.517869  0.248434  1
  Al  Al20  1  0.517119  0.778841  0.745056  1
  Al  Al21  1  0.482881  0.221159  0.254944  1
  Cr  Cr22  1  0.500000  0.000000  0.500000  1
  Ir  Ir23  1  0.000000  0.500000  0.500000  1
  Ir  Ir24  1  0.000000  0.500000  0.000000  1
  Ir  Ir25  1  0.500000  0.000000  0.000000  1
