# generated using pymatgen
data_Rb2LiNbSe4
_symmetry_space_group_name_H-M   'P 1'
_cell_length_a   14.32700131
_cell_length_b   12.81295034
_cell_length_c   7.78498135
_cell_angle_alpha   84.38639423
_cell_angle_beta   62.87736977
_cell_angle_gamma   32.73623367
_symmetry_Int_Tables_number   1
_chemical_formula_structural   Rb2LiNbSe4
_chemical_formula_sum   'Rb4 Li2 Nb2 Se8'
_cell_volume   553.57799490
_cell_formula_units_Z   2
loop_
 _symmetry_equiv_pos_site_id
 _symmetry_equiv_pos_as_xyz
  1  'x, y, z'
loop_
 _atom_site_type_symbol
 _atom_site_label
 _atom_site_symmetry_multiplicity
 _atom_site_fract_x
 _atom_site_fract_y
 _atom_site_fract_z
 _atom_site_occupancy
  Rb  Rb0  1  0.070736  0.070736  0.429264  1
  Rb  Rb1  1  0.179264  0.179264  0.820736  1
  Rb  Rb2  1  0.429264  0.429264  0.070736  1
  Rb  Rb3  1  0.820736  0.820736  0.179264  1
  Li  Li4  1  0.500000  0.500000  0.500000  1
  Li  Li5  1  0.750000  0.750000  0.750000  1
  Nb  Nb6  1  0.000000  0.000000  0.000000  1
  Nb  Nb7  1  0.250000  0.250000  0.250000  1
  Se  Se8  1  0.073203  0.815850  0.730388  1
  Se  Se9  1  0.380560  0.730388  0.815850  1
  Se  Se10  1  0.730388  0.380560  0.073203  1
  Se  Se11  1  0.815850  0.073203  0.380560  1
  Se  Se12  1  0.176797  0.434150  0.519612  1
  Se  Se13  1  0.434150  0.176797  0.869440  1
  Se  Se14  1  0.519612  0.869440  0.176797  1
  Se  Se15  1  0.869440  0.519612  0.434150  1
