# generated using pymatgen
data_CePr3CdRu
_symmetry_space_group_name_H-M   'P 1'
_cell_length_a   9.92106720
_cell_length_b   9.92106610
_cell_length_c   9.92106600
_cell_angle_alpha   59.99999366
_cell_angle_beta   59.99999734
_cell_angle_gamma   59.99999647
_symmetry_Int_Tables_number   1
_chemical_formula_structural   CePr3CdRu
_chemical_formula_sum   'Ce4 Pr12 Cd4 Ru4'
_cell_volume   690.49419921
_cell_formula_units_Z   4
loop_
 _symmetry_equiv_pos_site_id
 _symmetry_equiv_pos_as_xyz
  1  'x, y, z'
loop_
 _atom_site_type_symbol
 _atom_site_label
 _atom_site_symmetry_multiplicity
 _atom_site_fract_x
 _atom_site_fract_y
 _atom_site_fract_z
 _atom_site_occupancy
  Ce  Ce0  1  0.342788  0.342788  0.971636  1
  Ce  Ce1  1  0.342788  0.971636  0.342788  1
  Ce  Ce2  1  0.971636  0.342788  0.342788  1
  Ce  Ce3  1  0.342788  0.342788  0.342788  1
  Pr  Pr4  1  0.559385  0.559385  0.940615  1
  Pr  Pr5  1  0.940615  0.559385  0.940615  1
  Pr  Pr6  1  0.559385  0.940615  0.940615  1
  Pr  Pr7  1  0.940615  0.940615  0.559385  1
  Pr  Pr8  1  0.559385  0.940615  0.559385  1
  Pr  Pr9  1  0.940615  0.559385  0.559385  1
  Pr  Pr10  1  0.192407  0.192407  0.807593  1
  Pr  Pr11  1  0.807593  0.192407  0.807593  1
  Pr  Pr12  1  0.192406  0.807594  0.807593  1
  Pr  Pr13  1  0.807593  0.807594  0.192407  1
  Pr  Pr14  1  0.192406  0.807593  0.192406  1
  Pr  Pr15  1  0.807593  0.192407  0.192407  1
  Cd  Cd16  1  0.579255  0.579255  0.262234  1
  Cd  Cd17  1  0.579255  0.262234  0.579255  1
  Cd  Cd18  1  0.262234  0.579255  0.579255  1
  Cd  Cd19  1  0.579255  0.579255  0.579255  1
  Ru  Ru20  1  0.146708  0.146708  0.559876  1
  Ru  Ru21  1  0.146708  0.559876  0.146708  1
  Ru  Ru22  1  0.559876  0.146708  0.146708  1
  Ru  Ru23  1  0.146708  0.146708  0.146708  1
