# generated using pymatgen
data_Ho12Fe2TcAg2
_symmetry_space_group_name_H-M   'P 1'
_cell_length_a   8.22176535
_cell_length_b   8.22170135
_cell_length_c   8.22176600
_cell_angle_alpha   108.83286315
_cell_angle_beta   108.90283586
_cell_angle_gamma   110.68515144
_symmetry_Int_Tables_number   1
_chemical_formula_structural   Ho12Fe2TcAg2
_chemical_formula_sum   'Ho12 Fe2 Tc1 Ag2'
_cell_volume   427.68257614
_cell_formula_units_Z   1
loop_
 _symmetry_equiv_pos_site_id
 _symmetry_equiv_pos_as_xyz
  1  'x, y, z'
loop_
 _atom_site_type_symbol
 _atom_site_label
 _atom_site_symmetry_multiplicity
 _atom_site_fract_x
 _atom_site_fract_y
 _atom_site_fract_z
 _atom_site_occupancy
  Ho  Ho0  1  0.310628  0.310654  0.621298  1
  Ho  Ho1  1  0.689372  0.689346  0.378702  1
  Ho  Ho2  1  0.689357  0.310654  0.000026  1
  Ho  Ho3  1  0.310643  0.689346  0.999974  1
  Ho  Ho4  1  0.190410  0.434908  0.244498  1
  Ho  Ho5  1  0.809590  0.565092  0.755502  1
  Ho  Ho6  1  0.190389  0.945884  0.755496  1
  Ho  Ho7  1  0.945972  0.190322  0.755654  1
  Ho  Ho8  1  0.809611  0.054116  0.244504  1
  Ho  Ho9  1  0.054028  0.809678  0.244346  1
  Ho  Ho10  1  0.434667  0.190322  0.244349  1
  Ho  Ho11  1  0.565333  0.809678  0.755651  1
  Fe  Fe12  1  0.378126  0.378118  0.999992  1
  Fe  Fe13  1  0.621874  0.621882  0.000008  1
  Tc  Tc14  1  0.000000  0.000000  0.000000  1
  Ag  Ag15  1  0.000000  0.500000  0.500000  1
  Ag  Ag16  1  0.500000  0.000000  0.500000  1
