# generated using pymatgen
data_Er2TmSi2Ag3Sn
_symmetry_space_group_name_H-M   'P 1'
_cell_length_a   7.13377100
_cell_length_b   7.13182113
_cell_length_c   4.28006500
_cell_angle_alpha   90.00000000
_cell_angle_beta   90.00000000
_cell_angle_gamma   120.00904920
_symmetry_Int_Tables_number   1
_chemical_formula_structural   Er2TmSi2Ag3Sn
_chemical_formula_sum   'Er2 Tm1 Si2 Ag3 Sn1'
_cell_volume   188.56496015
_cell_formula_units_Z   1
loop_
 _symmetry_equiv_pos_site_id
 _symmetry_equiv_pos_as_xyz
  1  'x, y, z'
loop_
 _atom_site_type_symbol
 _atom_site_label
 _atom_site_symmetry_multiplicity
 _atom_site_fract_x
 _atom_site_fract_y
 _atom_site_fract_z
 _atom_site_occupancy
  Er  Er0  1  0.999953  0.434701  0.000000  1
  Er  Er1  1  0.565253  0.565299  0.000000  1
  Tm  Tm2  1  0.434790  0.000000  0.000000  1
  Si  Si3  1  0.333445  0.666927  0.500000  1
  Si  Si4  1  0.666520  0.333073  0.500000  1
  Ag  Ag5  1  0.264330  0.264285  0.500000  1
  Ag  Ag6  1  0.735458  0.000000  0.500000  1
  Ag  Ag7  1  0.000044  0.735715  0.500000  1
  Sn  Sn8  1  0.000207  0.000000  0.000000  1
