# generated using pymatgen
data_NaCr2GaO8
_symmetry_space_group_name_H-M   'P 1'
_cell_length_a   5.12055339
_cell_length_b   5.12055341
_cell_length_c   7.05217400
_cell_angle_alpha   89.51470343
_cell_angle_beta   89.51470834
_cell_angle_gamma   65.37690013
_symmetry_Int_Tables_number   1
_chemical_formula_structural   NaCr2GaO8
_chemical_formula_sum   'Na1 Cr2 Ga1 O8'
_cell_volume   168.08590325
_cell_formula_units_Z   1
loop_
 _symmetry_equiv_pos_site_id
 _symmetry_equiv_pos_as_xyz
  1  'x, y, z'
loop_
 _atom_site_type_symbol
 _atom_site_label
 _atom_site_symmetry_multiplicity
 _atom_site_fract_x
 _atom_site_fract_y
 _atom_site_fract_z
 _atom_site_occupancy
  Na  Na0  1  0.000000  0.000000  0.500000  1
  Cr  Cr1  1  0.637887  0.637887  0.221092  1
  Cr  Cr2  1  0.362113  0.362113  0.778908  1
  Ga  Ga3  1  0.000000  0.000000  0.000000  1
  O  O4  1  0.717889  0.717889  0.427078  1
  O  O5  1  0.282111  0.282111  0.572922  1
  O  O6  1  0.273387  0.780974  0.202497  1
  O  O7  1  0.726613  0.219026  0.797503  1
  O  O8  1  0.219026  0.726613  0.797503  1
  O  O9  1  0.780974  0.273387  0.202497  1
  O  O10  1  0.771667  0.771667  0.050906  1
  O  O11  1  0.228333  0.228333  0.949094  1
