# generated using pymatgen
data_Dy4Lu4B24Ru3W
_symmetry_space_group_name_H-M   'P 1'
_cell_length_a   3.61305600
_cell_length_b   9.10965842
_cell_length_c   11.51028209
_cell_angle_alpha   89.86405769
_cell_angle_beta   90.00000000
_cell_angle_gamma   90.00000000
_symmetry_Int_Tables_number   1
_chemical_formula_structural   Dy4Lu4B24Ru3W
_chemical_formula_sum   'Dy4 Lu4 B24 Ru3 W1'
_cell_volume   378.84497440
_cell_formula_units_Z   1
loop_
 _symmetry_equiv_pos_site_id
 _symmetry_equiv_pos_as_xyz
  1  'x, y, z'
loop_
 _atom_site_type_symbol
 _atom_site_label
 _atom_site_symmetry_multiplicity
 _atom_site_fract_x
 _atom_site_fract_y
 _atom_site_fract_z
 _atom_site_occupancy
  Dy  Dy0  1  0.000000  0.320724  0.413838  1
  Dy  Dy1  1  0.000000  0.678255  0.585374  1
  Dy  Dy2  1  0.000000  0.820358  0.086328  1
  Dy  Dy3  1  0.000000  0.177348  0.914899  1
  Lu  Lu4  1  0.000000  0.946425  0.373223  1
  Lu  Lu5  1  0.000000  0.057488  0.628771  1
  Lu  Lu6  1  0.000000  0.442691  0.126036  1
  Lu  Lu7  1  0.000000  0.556616  0.870971  1
  B  B8  1  0.500000  0.550405  0.436286  1
  B  B9  1  0.500000  0.445137  0.568839  1
  B  B10  1  0.500000  0.054722  0.067012  1
  B  B11  1  0.500000  0.945588  0.932735  1
  B  B12  1  0.500000  0.753867  0.421882  1
  B  B13  1  0.500000  0.250150  0.581887  1
  B  B14  1  0.500000  0.249690  0.080555  1
  B  B15  1  0.500000  0.750027  0.918470  1
  B  B16  1  0.500000  0.796575  0.263772  1
  B  B17  1  0.500000  0.208018  0.734743  1
  B  B18  1  0.500000  0.290866  0.232877  1
  B  B19  1  0.500000  0.708727  0.765432  1
  B  B20  1  0.500000  0.631000  0.181107  1
  B  B21  1  0.500000  0.368798  0.815798  1
  B  B22  1  0.500000  0.130859  0.314983  1
  B  B23  1  0.500000  0.870076  0.684694  1
  B  B24  1  0.500000  0.984037  0.213048  1
  B  B25  1  0.500000  0.017097  0.787518  1
  B  B26  1  0.500000  0.476638  0.285691  1
  B  B27  1  0.500000  0.516495  0.713690  1
  B  B28  1  0.500000  0.602812  0.026319  1
  B  B29  1  0.500000  0.396194  0.970664  1
  B  B30  1  0.500000  0.104337  0.472374  1
  B  B31  1  0.500000  0.899382  0.529654  1
  Ru  Ru32  1  0.000000  0.360637  0.681125  1
  Ru  Ru33  1  0.000000  0.138410  0.179101  1
  Ru  Ru34  1  0.000000  0.861334  0.819695  1
  W  W35  1  0.000000  0.638217  0.320611  1
