# generated using pymatgen
data_Ce4PuU3(TcB6)4
_symmetry_space_group_name_H-M   'P 1'
_cell_length_a   3.69647400
_cell_length_b   9.33278912
_cell_length_c   11.43434029
_cell_angle_alpha   89.94474224
_cell_angle_beta   90.00000000
_cell_angle_gamma   90.00000000
_symmetry_Int_Tables_number   1
_chemical_formula_structural   Ce4PuU3(TcB6)4
_chemical_formula_sum   'Ce4 Pu1 U3 Tc4 B24'
_cell_volume   394.46640249
_cell_formula_units_Z   1
loop_
 _symmetry_equiv_pos_site_id
 _symmetry_equiv_pos_as_xyz
  1  'x, y, z'
loop_
 _atom_site_type_symbol
 _atom_site_label
 _atom_site_symmetry_multiplicity
 _atom_site_fract_x
 _atom_site_fract_y
 _atom_site_fract_z
 _atom_site_occupancy
  Ce  Ce0  1  0.000000  0.336196  0.408367  1
  Ce  Ce1  1  0.000000  0.663559  0.592872  1
  Ce  Ce2  1  0.000000  0.836638  0.091463  1
  Ce  Ce3  1  0.000000  0.163704  0.907233  1
  Pu  Pu4  1  0.000000  0.542028  0.897548  1
  U  U5  1  0.000000  0.957399  0.396213  1
  U  U6  1  0.000000  0.042746  0.604133  1
  U  U7  1  0.000000  0.457306  0.103921  1
  Tc  Tc8  1  0.000000  0.647128  0.318309  1
  Tc  Tc9  1  0.000000  0.351439  0.680155  1
  Tc  Tc10  1  0.000000  0.147032  0.181585  1
  Tc  Tc11  1  0.000000  0.855132  0.818083  1
  B  B12  1  0.500000  0.553636  0.429774  1
  B  B13  1  0.500000  0.446452  0.570596  1
  B  B14  1  0.500000  0.053839  0.070097  1
  B  B15  1  0.500000  0.946496  0.929989  1
  B  B16  1  0.500000  0.744326  0.422127  1
  B  B17  1  0.500000  0.255409  0.577704  1
  B  B18  1  0.500000  0.244624  0.077772  1
  B  B19  1  0.500000  0.756191  0.922384  1
  B  B20  1  0.500000  0.803268  0.274264  1
  B  B21  1  0.500000  0.196870  0.725817  1
  B  B22  1  0.500000  0.303412  0.225561  1
  B  B23  1  0.500000  0.696756  0.774773  1
  B  B24  1  0.500000  0.644718  0.188073  1
  B  B25  1  0.500000  0.354832  0.811649  1
  B  B26  1  0.500000  0.144549  0.311571  1
  B  B27  1  0.500000  0.855019  0.688621  1
  B  B28  1  0.500000  0.990159  0.219608  1
  B  B29  1  0.500000  0.010068  0.780057  1
  B  B30  1  0.500000  0.490065  0.279890  1
  B  B31  1  0.500000  0.509651  0.720172  1
  B  B32  1  0.500000  0.640609  0.038524  1
  B  B33  1  0.500000  0.359376  0.961080  1
  B  B34  1  0.500000  0.138776  0.461628  1
  B  B35  1  0.500000  0.860596  0.538385  1
