# generated using pymatgen
data_La3Er2P12Ru16Rh3
_symmetry_space_group_name_H-M   'P 1'
_cell_length_a   12.63348100
_cell_length_b   12.63348120
_cell_length_c   4.01551700
_cell_angle_alpha   90.00000000
_cell_angle_beta   90.00000000
_cell_angle_gamma   119.99999687
_symmetry_Int_Tables_number   1
_chemical_formula_structural   La3Er2P12Ru16Rh3
_chemical_formula_sum   'La3 Er2 P12 Ru16 Rh3'
_cell_volume   555.03220615
_cell_formula_units_Z   1
loop_
 _symmetry_equiv_pos_site_id
 _symmetry_equiv_pos_as_xyz
  1  'x, y, z'
loop_
 _atom_site_type_symbol
 _atom_site_label
 _atom_site_symmetry_multiplicity
 _atom_site_fract_x
 _atom_site_fract_y
 _atom_site_fract_z
 _atom_site_occupancy
  La  La0  1  0.183000  0.183000  0.500000  1
  La  La1  1  0.817000  0.000000  0.500000  1
  La  La2  1  0.000000  0.817000  0.500000  1
  Er  Er3  1  0.333333  0.666667  0.000000  1
  Er  Er4  1  0.666667  0.333333  0.000000  1
  P  P5  1  0.808792  0.808792  0.000000  1
  P  P6  1  0.191208  0.000000  0.000000  1
  P  P7  1  0.000000  0.191208  0.000000  1
  P  P8  1  0.179068  0.480299  0.500000  1
  P  P9  1  0.519701  0.698768  0.500000  1
  P  P10  1  0.301232  0.820932  0.500000  1
  P  P11  1  0.698768  0.519701  0.500000  1
  P  P12  1  0.820932  0.301232  0.500000  1
  P  P13  1  0.480299  0.179068  0.500000  1
  P  P14  1  0.373650  0.373650  0.000000  1
  P  P15  1  0.626350  0.000000  0.000000  1
  P  P16  1  0.000000  0.626350  0.000000  1
  Ru  Ru17  1  0.709037  0.709037  0.500000  1
  Ru  Ru18  1  0.290963  0.000000  0.500000  1
  Ru  Ru19  1  0.000000  0.290963  0.500000  1
  Ru  Ru20  1  0.187009  0.382971  0.000000  1
  Ru  Ru21  1  0.617029  0.804037  0.000000  1
  Ru  Ru22  1  0.195963  0.812991  0.000000  1
  Ru  Ru23  1  0.804037  0.617029  0.000000  1
  Ru  Ru24  1  0.812991  0.195963  0.000000  1
  Ru  Ru25  1  0.382971  0.187009  0.000000  1
  Ru  Ru26  1  0.370319  0.495392  0.500000  1
  Ru  Ru27  1  0.504608  0.874928  0.500000  1
  Ru  Ru28  1  0.125072  0.629681  0.500000  1
  Ru  Ru29  1  0.874928  0.504608  0.500000  1
  Ru  Ru30  1  0.629681  0.125072  0.500000  1
  Ru  Ru31  1  0.495392  0.370319  0.500000  1
  Ru  Ru32  1  0.000000  0.000000  0.000000  1
  Rh  Rh33  1  0.553160  0.553160  0.000000  1
  Rh  Rh34  1  0.446840  0.000000  0.000000  1
  Rh  Rh35  1  0.000000  0.446840  0.000000  1
