# generated using pymatgen
data_Dy5Er11(In3Os)2
_symmetry_space_group_name_H-M   'P 1'
_cell_length_a   10.32715319
_cell_length_b   10.32715253
_cell_length_c   7.04464311
_cell_angle_alpha   90.01740416
_cell_angle_beta   89.98259154
_cell_angle_gamma   120.01348563
_symmetry_Int_Tables_number   1
_chemical_formula_structural   Dy5Er11(In3Os)2
_chemical_formula_sum   'Dy5 Er11 In6 Os2'
_cell_volume   650.56662480
_cell_formula_units_Z   1
loop_
 _symmetry_equiv_pos_site_id
 _symmetry_equiv_pos_as_xyz
  1  'x, y, z'
loop_
 _atom_site_type_symbol
 _atom_site_label
 _atom_site_symmetry_multiplicity
 _atom_site_fract_x
 _atom_site_fract_y
 _atom_site_fract_z
 _atom_site_occupancy
  Dy  Dy0  1  0.532603  0.065220  0.793733  1
  Dy  Dy1  1  0.934780  0.467397  0.793733  1
  Dy  Dy2  1  0.532496  0.467504  0.793865  1
  Dy  Dy3  1  0.467364  0.934596  0.293690  1
  Dy  Dy4  1  0.065404  0.532636  0.293690  1
  Er  Er5  1  0.467146  0.532854  0.293995  1
  Er  Er6  1  0.822564  0.645598  0.498886  1
  Er  Er7  1  0.354402  0.177436  0.498886  1
  Er  Er8  1  0.822878  0.177122  0.499139  1
  Er  Er9  1  0.177467  0.354522  0.999365  1
  Er  Er10  1  0.645478  0.822533  0.999365  1
  Er  Er11  1  0.177089  0.822911  0.999256  1
  Er  Er12  1  0.666492  0.333508  0.171561  1
  Er  Er13  1  0.333518  0.666482  0.671409  1
  Er  Er14  1  0.999974  0.000026  0.778160  1
  Er  Er15  1  0.999966  0.000034  0.278052  1
  In  In16  1  0.837159  0.674431  0.040371  1
  In  In17  1  0.325569  0.162841  0.040371  1
  In  In18  1  0.837204  0.162796  0.040402  1
  In  In19  1  0.163184  0.325864  0.540104  1
  In  In20  1  0.674136  0.836816  0.540104  1
  In  In21  1  0.162802  0.837198  0.540336  1
  Os  Os22  1  0.666698  0.333302  0.568517  1
  Os  Os23  1  0.333627  0.666373  0.068915  1
