# generated using pymatgen
data_DyY(NbS2)6
_symmetry_space_group_name_H-M   'P 1'
_cell_length_a   5.84217700
_cell_length_b   5.84217888
_cell_length_c   13.84125600
_cell_angle_alpha   90.00000000
_cell_angle_beta   90.00000000
_cell_angle_gamma   120.00000634
_symmetry_Int_Tables_number   1
_chemical_formula_structural   DyY(NbS2)6
_chemical_formula_sum   'Dy1 Y1 Nb6 S12'
_cell_volume   409.12466821
_cell_formula_units_Z   1
loop_
 _symmetry_equiv_pos_site_id
 _symmetry_equiv_pos_as_xyz
  1  'x, y, z'
loop_
 _atom_site_type_symbol
 _atom_site_label
 _atom_site_symmetry_multiplicity
 _atom_site_fract_x
 _atom_site_fract_y
 _atom_site_fract_z
 _atom_site_occupancy
  Dy  Dy0  1  0.000000  0.000000  0.500000  1
  Y  Y1  1  0.000000  0.000000  0.000000  1
  Nb  Nb2  1  0.333333  0.666667  0.249986  1
  Nb  Nb3  1  0.000000  0.000000  0.249982  1
  Nb  Nb4  1  0.000000  0.000000  0.750018  1
  Nb  Nb5  1  0.333333  0.666667  0.750014  1
  Nb  Nb6  1  0.666667  0.333333  0.750014  1
  Nb  Nb7  1  0.666667  0.333333  0.249986  1
  S  S8  1  0.000000  0.662465  0.635625  1
  S  S9  1  0.000000  0.662273  0.864302  1
  S  S10  1  0.000000  0.337727  0.135698  1
  S  S11  1  0.000000  0.337535  0.364375  1
  S  S12  1  0.337535  0.337535  0.635625  1
  S  S13  1  0.337727  0.337727  0.864302  1
  S  S14  1  0.662273  0.662273  0.135698  1
  S  S15  1  0.662465  0.662465  0.364375  1
  S  S16  1  0.337727  0.000000  0.135698  1
  S  S17  1  0.337535  0.000000  0.364375  1
  S  S18  1  0.662465  0.000000  0.635625  1
  S  S19  1  0.662273  0.000000  0.864302  1
