# generated using pymatgen
data_YLuU8(Re3C8)2
_symmetry_space_group_name_H-M   'P 1'
_cell_length_a   11.36330396
_cell_length_b   11.36330396
_cell_length_c   3.26631200
_cell_angle_alpha   90.00000000
_cell_angle_beta   90.00000000
_cell_angle_gamma   90.04719477
_symmetry_Int_Tables_number   1
_chemical_formula_structural   YLuU8(Re3C8)2
_chemical_formula_sum   'Y1 Lu1 U8 Re6 C16'
_cell_volume   421.76133881
_cell_formula_units_Z   1
loop_
 _symmetry_equiv_pos_site_id
 _symmetry_equiv_pos_as_xyz
  1  'x, y, z'
loop_
 _atom_site_type_symbol
 _atom_site_label
 _atom_site_symmetry_multiplicity
 _atom_site_fract_x
 _atom_site_fract_y
 _atom_site_fract_z
 _atom_site_occupancy
  Y  Y0  1  0.500000  0.000000  0.000000  1
  Lu  Lu1  1  0.000000  0.500000  0.000000  1
  U  U2  1  0.270010  0.542084  0.500000  1
  U  U3  1  0.729990  0.457916  0.500000  1
  U  U4  1  0.542477  0.728224  0.500000  1
  U  U5  1  0.771776  0.957523  0.500000  1
  U  U6  1  0.228224  0.042477  0.500000  1
  U  U7  1  0.957916  0.229990  0.500000  1
  U  U8  1  0.457523  0.271776  0.500000  1
  U  U9  1  0.042084  0.770010  0.500000  1
  Re  Re10  1  0.201799  0.298201  0.000000  1
  Re  Re11  1  0.703738  0.203738  0.000000  1
  Re  Re12  1  0.296262  0.796262  0.000000  1
  Re  Re13  1  0.500000  0.500000  0.000000  1
  Re  Re14  1  0.798201  0.701799  0.000000  1
  Re  Re15  1  0.000000  0.000000  0.000000  1
  C  C16  1  0.346578  0.403286  0.000000  1
  C  C17  1  0.619509  0.119509  0.500000  1
  C  C18  1  0.903286  0.846578  0.000000  1
  C  C19  1  0.656397  0.843603  0.000000  1
  C  C20  1  0.343603  0.156397  0.000000  1
  C  C21  1  0.115904  0.384096  0.500000  1
  C  C22  1  0.152428  0.902264  0.000000  1
  C  C23  1  0.846720  0.346720  0.000000  1
  C  C24  1  0.653422  0.596714  0.000000  1
  C  C25  1  0.597736  0.347572  0.000000  1
  C  C26  1  0.884096  0.615904  0.500000  1
  C  C27  1  0.847572  0.097736  0.000000  1
  C  C28  1  0.380491  0.880491  0.500000  1
  C  C29  1  0.153280  0.653280  0.000000  1
  C  C30  1  0.096714  0.153422  0.000000  1
  C  C31  1  0.402264  0.652428  0.000000  1
