# generated using pymatgen
data_Nd6Zn4Cu2Pd10Rh
_symmetry_space_group_name_H-M   'P 1'
_cell_length_a   8.32258767
_cell_length_b   8.24991822
_cell_length_c   8.39095656
_cell_angle_alpha   109.33897556
_cell_angle_beta   109.87534739
_cell_angle_gamma   109.18964558
_symmetry_Int_Tables_number   1
_chemical_formula_structural   Nd6Zn4Cu2Pd10Rh
_chemical_formula_sum   'Nd6 Zn4 Cu2 Pd10 Rh1'
_cell_volume   443.54391703
_cell_formula_units_Z   1
loop_
 _symmetry_equiv_pos_site_id
 _symmetry_equiv_pos_as_xyz
  1  'x, y, z'
loop_
 _atom_site_type_symbol
 _atom_site_label
 _atom_site_symmetry_multiplicity
 _atom_site_fract_x
 _atom_site_fract_y
 _atom_site_fract_z
 _atom_site_occupancy
  Nd  Nd0  1  0.705493  0.702679  0.000028  1
  Nd  Nd1  1  0.294507  0.997186  0.294535  1
  Nd  Nd2  1  0.000000  0.299134  0.293823  1
  Nd  Nd3  1  0.298145  0.297177  0.001813  1
  Nd  Nd4  1  0.701855  0.999033  0.703669  1
  Nd  Nd5  1  0.000000  0.703515  0.701060  1
  Zn  Zn6  1  0.000000  0.001425  0.497765  1
  Zn  Zn7  1  0.000000  0.499082  0.996842  1
  Zn  Zn8  1  0.500354  0.999005  0.998699  1
  Zn  Zn9  1  0.499646  0.498651  0.498345  1
  Cu  Cu10  1  0.328691  0.329780  0.660488  1
  Cu  Cu11  1  0.671309  0.001089  0.331798  1
  Pd  Pd12  1  0.000000  0.670637  0.331384  1
  Pd  Pd13  1  0.669562  0.333428  0.003884  1
  Pd  Pd14  1  0.330438  0.663865  0.334322  1
  Pd  Pd15  1  0.000000  0.327192  0.662723  1
  Pd  Pd16  1  0.340489  0.675304  0.009880  1
  Pd  Pd17  1  0.332477  0.007285  0.668751  1
  Pd  Pd18  1  0.662189  0.323459  0.333183  1
  Pd  Pd19  1  0.667523  0.674808  0.336276  1
  Pd  Pd20  1  0.659511  0.334816  0.669391  1
  Pd  Pd21  1  0.337811  0.661269  0.670993  1
  Rh  Rh22  1  0.000000  0.000182  0.000347  1
