# generated using pymatgen
data_YEr2Tm5(WO6)4
_symmetry_space_group_name_H-M   'P 1'
_cell_length_a   5.35107900
_cell_length_b   7.64655419
_cell_length_c   11.38387717
_cell_angle_alpha   75.30206792
_cell_angle_beta   90.00000000
_cell_angle_gamma   90.00000000
_symmetry_Int_Tables_number   1
_chemical_formula_structural   YEr2Tm5(WO6)4
_chemical_formula_sum   'Y1 Er2 Tm5 W4 O24'
_cell_volume   450.55535477
_cell_formula_units_Z   1
loop_
 _symmetry_equiv_pos_site_id
 _symmetry_equiv_pos_as_xyz
  1  'x, y, z'
loop_
 _atom_site_type_symbol
 _atom_site_label
 _atom_site_symmetry_multiplicity
 _atom_site_fract_x
 _atom_site_fract_y
 _atom_site_fract_z
 _atom_site_occupancy
  Y  Y0  1  0.684426  0.500000  0.250000  1
  Er  Er1  1  0.740962  0.000000  0.250000  1
  Er  Er2  1  0.315484  0.500000  0.750000  1
  Tm  Tm3  1  0.184640  0.795847  0.077799  1
  Tm  Tm4  1  0.260629  0.000000  0.750000  1
  Tm  Tm5  1  0.184640  0.204153  0.422201  1
  Tm  Tm6  1  0.815975  0.205111  0.921166  1
  Tm  Tm7  1  0.815975  0.794889  0.578834  1
  W  W8  1  0.744562  0.723708  0.884808  1
  W  W9  1  0.255389  0.724265  0.386006  1
  W  W10  1  0.744562  0.276292  0.615192  1
  W  W11  1  0.255389  0.275735  0.113994  1
  O  O12  1  0.852707  0.365130  0.451649  1
  O  O13  1  0.464097  0.848155  0.930544  1
  O  O14  1  0.852707  0.634870  0.048351  1
  O  O15  1  0.020906  0.289514  0.729349  1
  O  O16  1  0.980959  0.286262  0.229929  1
  O  O17  1  0.149424  0.364490  0.949708  1
  O  O18  1  0.637871  0.488361  0.885364  1
  O  O19  1  0.536887  0.152522  0.068825  1
  O  O20  1  0.149424  0.635510  0.550292  1
  O  O21  1  0.020906  0.710486  0.770651  1
  O  O22  1  0.457648  0.206861  0.274008  1
  O  O23  1  0.041931  0.940974  0.396639  1
  O  O24  1  0.464097  0.151845  0.569456  1
  O  O25  1  0.980959  0.713738  0.270071  1
  O  O26  1  0.958154  0.058198  0.605479  1
  O  O27  1  0.540374  0.207687  0.774241  1
  O  O28  1  0.540374  0.792313  0.725759  1
  O  O29  1  0.041931  0.059026  0.103361  1
  O  O30  1  0.637871  0.511639  0.614636  1
  O  O31  1  0.357728  0.511826  0.113195  1
  O  O32  1  0.457648  0.793139  0.225992  1
  O  O33  1  0.357728  0.488174  0.386805  1
  O  O34  1  0.536887  0.847478  0.431175  1
  O  O35  1  0.958154  0.941802  0.894521  1
