# generated using pymatgen
data_NdDyHo4Ta2O14
_symmetry_space_group_name_H-M   'P 1'
_cell_length_a   6.49745281
_cell_length_b   6.49745338
_cell_length_c   7.51594111
_cell_angle_alpha   89.90078954
_cell_angle_beta   90.09920765
_cell_angle_gamma   108.69787730
_symmetry_Int_Tables_number   1
_chemical_formula_structural   NdDyHo4Ta2O14
_chemical_formula_sum   'Nd1 Dy1 Ho4 Ta2 O14'
_cell_volume   300.55263226
_cell_formula_units_Z   1
loop_
 _symmetry_equiv_pos_site_id
 _symmetry_equiv_pos_as_xyz
  1  'x, y, z'
loop_
 _atom_site_type_symbol
 _atom_site_label
 _atom_site_symmetry_multiplicity
 _atom_site_fract_x
 _atom_site_fract_y
 _atom_site_fract_z
 _atom_site_occupancy
  Nd  Nd0  1  0.520668  0.520668  0.500000  1
  Dy  Dy1  1  0.460565  0.460565  0.000000  1
  Ho  Ho2  1  0.999945  0.534792  0.239280  1
  Ho  Ho3  1  0.998790  0.465588  0.744651  1
  Ho  Ho4  1  0.534792  0.999945  0.760720  1
  Ho  Ho5  1  0.465588  0.998790  0.255349  1
  Ta  Ta6  1  0.001663  0.001663  0.500000  1
  Ta  Ta7  1  0.997270  0.997270  0.000000  1
  O  O8  1  0.932135  0.068197  0.749659  1
  O  O9  1  0.068197  0.932135  0.250341  1
  O  O10  1  0.357662  0.642666  0.240941  1
  O  O11  1  0.642666  0.357662  0.759059  1
  O  O12  1  0.366660  0.632353  0.758947  1
  O  O13  1  0.632353  0.366660  0.241053  1
  O  O14  1  0.327623  0.081170  0.975075  1
  O  O15  1  0.673417  0.923998  0.474209  1
  O  O16  1  0.312443  0.057242  0.543537  1
  O  O17  1  0.692755  0.952397  0.044191  1
  O  O18  1  0.057242  0.312443  0.456463  1
  O  O19  1  0.952397  0.692755  0.955809  1
  O  O20  1  0.923998  0.673417  0.525791  1
  O  O21  1  0.081170  0.327623  0.024925  1
