# generated using pymatgen
data_Dy2Al20Ru3Rh
_symmetry_space_group_name_H-M   'P 1'
_cell_length_a   6.85183877
_cell_length_b   6.84582264
_cell_length_c   9.14443148
_cell_angle_alpha   90.15318142
_cell_angle_beta   90.13053723
_cell_angle_gamma   96.81772845
_symmetry_Int_Tables_number   1
_chemical_formula_structural   Dy2Al20Ru3Rh
_chemical_formula_sum   'Dy2 Al20 Ru3 Rh1'
_cell_volume   425.89699021
_cell_formula_units_Z   1
loop_
 _symmetry_equiv_pos_site_id
 _symmetry_equiv_pos_as_xyz
  1  'x, y, z'
loop_
 _atom_site_type_symbol
 _atom_site_label
 _atom_site_symmetry_multiplicity
 _atom_site_fract_x
 _atom_site_fract_y
 _atom_site_fract_z
 _atom_site_occupancy
  Dy  Dy0  1  0.873479  0.128880  0.749417  1
  Dy  Dy1  1  0.126521  0.871120  0.250583  1
  Al  Al2  1  0.775227  0.773619  0.000781  1
  Al  Al3  1  0.775353  0.774854  0.499872  1
  Al  Al4  1  0.224773  0.226381  0.999219  1
  Al  Al5  1  0.224647  0.225146  0.500128  1
  Al  Al6  1  0.623635  0.379485  0.949002  1
  Al  Al7  1  0.376365  0.620515  0.050998  1
  Al  Al8  1  0.623061  0.377605  0.549603  1
  Al  Al9  1  0.376939  0.622395  0.450397  1
  Al  Al10  1  0.842919  0.156469  0.399958  1
  Al  Al11  1  0.157081  0.843531  0.600042  1
  Al  Al12  1  0.843831  0.158057  0.101485  1
  Al  Al13  1  0.156169  0.841943  0.898515  1
  Al  Al14  1  0.412200  0.142513  0.749084  1
  Al  Al15  1  0.141475  0.411924  0.250474  1
  Al  Al16  1  0.587800  0.857487  0.250916  1
  Al  Al17  1  0.858525  0.588076  0.749526  1
  Al  Al18  1  0.519289  0.778222  0.747428  1
  Al  Al19  1  0.779697  0.518789  0.249812  1
  Al  Al20  1  0.480711  0.221778  0.252572  1
  Al  Al21  1  0.220303  0.481211  0.750188  1
  Ru  Ru22  1  0.000000  0.500000  0.000000  1
  Ru  Ru23  1  0.500000  0.000000  0.500000  1
  Ru  Ru24  1  0.000000  0.500000  0.500000  1
  Rh  Rh25  1  0.500000  0.000000  0.000000  1
