# generated using pymatgen
data_Hf2Zr4Zn6O
_symmetry_space_group_name_H-M   'P 1'
_cell_length_a   8.52521454
_cell_length_b   8.50505091
_cell_length_c   8.54125200
_cell_angle_alpha   59.85910631
_cell_angle_beta   59.93775929
_cell_angle_gamma   59.93119229
_symmetry_Int_Tables_number   1
_chemical_formula_structural   Hf2Zr4Zn6O
_chemical_formula_sum   'Hf4 Zr8 Zn12 O2'
_cell_volume   437.01291999
_cell_formula_units_Z   2
loop_
 _symmetry_equiv_pos_site_id
 _symmetry_equiv_pos_as_xyz
  1  'x, y, z'
loop_
 _atom_site_type_symbol
 _atom_site_label
 _atom_site_symmetry_multiplicity
 _atom_site_fract_x
 _atom_site_fract_y
 _atom_site_fract_z
 _atom_site_occupancy
  Hf  Hf0  1  0.193165  0.192177  0.807329  1
  Hf  Hf1  1  0.807402  0.192417  0.193669  1
  Hf  Hf2  1  0.807402  0.192417  0.806513  1
  Hf  Hf3  1  0.057474  0.057929  0.442299  1
  Zr  Zr4  1  0.193503  0.808534  0.193452  1
  Zr  Zr5  1  0.442958  0.056673  0.444186  1
  Zr  Zr6  1  0.442958  0.056673  0.056182  1
  Zr  Zr7  1  0.444003  0.442149  0.056924  1
  Zr  Zr8  1  0.193503  0.808534  0.804509  1
  Zr  Zr9  1  0.056355  0.442312  0.055928  1
  Zr  Zr10  1  0.805316  0.808121  0.193281  1
  Zr  Zr11  1  0.056355  0.442312  0.445404  1
  Zn  Zn12  1  0.832987  0.501256  0.832878  1
  Zn  Zn13  1  0.418922  0.417027  0.745727  1
  Zn  Zn14  1  0.747317  0.415425  0.418628  1
  Zn  Zn15  1  0.418922  0.417027  0.418321  1
  Zn  Zn16  1  0.832652  0.833304  0.503121  1
  Zn  Zn17  1  0.417517  0.744949  0.418767  1
  Zn  Zn18  1  0.832652  0.833304  0.830925  1
  Zn  Zn19  1  0.504168  0.832362  0.831736  1
  Zn  Zn20  1  0.625015  0.124552  0.625216  1
  Zn  Zn21  1  0.625475  0.624806  0.124684  1
  Zn  Zn22  1  0.124831  0.624796  0.625187  1
  Zn  Zn23  1  0.625475  0.624806  0.625034  1
  O  O24  1  0.996737  0.010206  0.996529  1
  O  O25  1  0.246933  0.245930  0.253569  1
