# generated using pymatgen
data_Pr3Er5Cd2RuPt
_symmetry_space_group_name_H-M   'P 1'
_cell_length_a   9.73306167
_cell_length_b   9.73306162
_cell_length_c   9.75127600
_cell_angle_alpha   59.93806869
_cell_angle_beta   59.93806888
_cell_angle_gamma   60.07794612
_symmetry_Int_Tables_number   1
_chemical_formula_structural   Pr3Er5Cd2RuPt
_chemical_formula_sum   'Pr6 Er10 Cd4 Ru2 Pt2'
_cell_volume   652.96954356
_cell_formula_units_Z   2
loop_
 _symmetry_equiv_pos_site_id
 _symmetry_equiv_pos_as_xyz
  1  'x, y, z'
loop_
 _atom_site_type_symbol
 _atom_site_label
 _atom_site_symmetry_multiplicity
 _atom_site_fract_x
 _atom_site_fract_y
 _atom_site_fract_z
 _atom_site_occupancy
  Pr  Pr0  1  0.940146  0.555683  0.562240  1
  Pr  Pr1  1  0.555683  0.940146  0.941932  1
  Pr  Pr2  1  0.555683  0.940146  0.562240  1
  Pr  Pr3  1  0.940146  0.555683  0.941932  1
  Pr  Pr4  1  0.559616  0.559616  0.940384  1
  Pr  Pr5  1  0.940994  0.940994  0.559006  1
  Er  Er6  1  0.347113  0.347113  0.351557  1
  Er  Er7  1  0.347113  0.347113  0.954216  1
  Er  Er8  1  0.343713  0.962224  0.347031  1
  Er  Er9  1  0.962224  0.343713  0.347031  1
  Er  Er10  1  0.818037  0.185068  0.187342  1
  Er  Er11  1  0.185068  0.818037  0.809553  1
  Er  Er12  1  0.185068  0.818037  0.187342  1
  Er  Er13  1  0.818037  0.185068  0.809553  1
  Er  Er14  1  0.185311  0.185311  0.814689  1
  Er  Er15  1  0.811360  0.811360  0.188640  1
  Cd  Cd16  1  0.578863  0.578863  0.578933  1
  Cd  Cd17  1  0.578863  0.578863  0.263338  1
  Cd  Cd18  1  0.579747  0.261565  0.579343  1
  Cd  Cd19  1  0.261565  0.579747  0.579343  1
  Ru  Ru20  1  0.143082  0.143082  0.137895  1
  Ru  Ru21  1  0.143082  0.143082  0.575940  1
  Pt  Pt22  1  0.144283  0.575199  0.140259  1
  Pt  Pt23  1  0.575199  0.144283  0.140259  1
