# generated using pymatgen
data_Fe3Se4(ClO5)2
_symmetry_space_group_name_H-M   'P 1'
_cell_length_a   7.56794561
_cell_length_b   9.38540054
_cell_length_c   9.43286529
_cell_angle_alpha   79.26642245
_cell_angle_beta   101.71522967
_cell_angle_gamma   78.36506903
_symmetry_Int_Tables_number   1
_chemical_formula_structural   Fe3Se4(ClO5)2
_chemical_formula_sum   'Fe6 Se8 Cl4 O20'
_cell_volume   624.27249584
_cell_formula_units_Z   2
loop_
 _symmetry_equiv_pos_site_id
 _symmetry_equiv_pos_as_xyz
  1  'x, y, z'
loop_
 _atom_site_type_symbol
 _atom_site_label
 _atom_site_symmetry_multiplicity
 _atom_site_fract_x
 _atom_site_fract_y
 _atom_site_fract_z
 _atom_site_occupancy
  Fe  Fe0  1  0.500145  0.499870  0.499966  1
  Fe  Fe1  1  0.999965  0.000211  0.000169  1
  Fe  Fe2  1  0.750382  0.121008  0.620873  1
  Fe  Fe3  1  0.249357  0.621810  0.121020  1
  Fe  Fe4  1  0.250220  0.878894  0.379712  1
  Fe  Fe5  1  0.749970  0.378784  0.879052  1
  Se  Se6  1  0.271157  0.225918  0.451812  1
  Se  Se7  1  0.770437  0.725974  0.952203  1
  Se  Se8  1  0.771949  0.047557  0.275256  1
  Se  Se9  1  0.271858  0.547385  0.775526  1
  Se  Se10  1  0.728569  0.774479  0.548025  1
  Se  Se11  1  0.229265  0.274045  0.047691  1
  Se  Se12  1  0.228350  0.952579  0.724851  1
  Se  Se13  1  0.728419  0.452230  0.224726  1
  Cl  Cl14  1  0.329626  0.877595  0.123800  1
  Cl  Cl15  1  0.829773  0.377736  0.623932  1
  Cl  Cl16  1  0.170333  0.622166  0.375936  1
  Cl  Cl17  1  0.670329  0.122340  0.876239  1
  O  O18  1  0.250489  0.137437  0.635886  1
  O  O19  1  0.750596  0.637489  0.136375  1
  O  O20  1  0.749504  0.862545  0.363960  1
  O  O21  1  0.249478  0.362079  0.863327  1
  O  O22  1  0.481061  0.270456  0.511013  1
  O  O23  1  0.980027  0.771113  0.011120  1
  O  O24  1  0.982055  0.988228  0.232731  1
  O  O25  1  0.481618  0.488397  0.732314  1
  O  O26  1  0.518912  0.729334  0.488958  1
  O  O27  1  0.019459  0.229170  0.988907  1
  O  O28  1  0.018349  0.011935  0.767478  1
  O  O29  1  0.518621  0.511407  0.267515  1
  O  O30  1  0.329717  0.084959  0.369387  1
  O  O31  1  0.829632  0.584880  0.870009  1
  O  O32  1  0.827965  0.131653  0.415174  1
  O  O33  1  0.328712  0.630375  0.916191  1
  O  O34  1  0.668986  0.915723  0.629740  1
  O  O35  1  0.170521  0.415316  0.129688  1
  O  O36  1  0.172094  0.868330  0.585017  1
  O  O37  1  0.672098  0.368593  0.084418  1
