# generated using pymatgen
data_HfSeO5
_symmetry_space_group_name_H-M   'P 1'
_cell_length_a   5.23457800
_cell_length_b   9.31692400
_cell_length_c   9.81217200
_cell_angle_alpha   90.00000000
_cell_angle_beta   90.00000000
_cell_angle_gamma   90.00000000
_symmetry_Int_Tables_number   1
_chemical_formula_structural   HfSeO5
_chemical_formula_sum   'Hf4 Se4 O20'
_cell_volume   478.54125135
_cell_formula_units_Z   4
loop_
 _symmetry_equiv_pos_site_id
 _symmetry_equiv_pos_as_xyz
  1  'x, y, z'
loop_
 _atom_site_type_symbol
 _atom_site_label
 _atom_site_symmetry_multiplicity
 _atom_site_fract_x
 _atom_site_fract_y
 _atom_site_fract_z
 _atom_site_occupancy
  Hf  Hf0  1  0.618641  0.342552  0.596615  1
  Hf  Hf1  1  0.118641  0.157448  0.403385  1
  Hf  Hf2  1  0.881359  0.657448  0.096615  1
  Hf  Hf3  1  0.381359  0.842552  0.903385  1
  Se  Se4  1  0.892292  0.027877  0.709225  1
  Se  Se5  1  0.392292  0.472123  0.290775  1
  Se  Se6  1  0.607708  0.972123  0.209225  1
  Se  Se7  1  0.107708  0.527877  0.790775  1
  O  O8  1  0.319415  0.405094  0.744067  1
  O  O9  1  0.220628  0.693317  0.758469  1
  O  O10  1  0.835032  0.510060  0.705797  1
  O  O11  1  0.948834  0.004977  0.541892  1
  O  O12  1  0.400404  0.190531  0.526750  1
  O  O13  1  0.900404  0.309469  0.473250  1
  O  O14  1  0.448834  0.495023  0.458108  1
  O  O15  1  0.335032  0.989940  0.294203  1
  O  O16  1  0.720628  0.806683  0.241531  1
  O  O17  1  0.819415  0.094906  0.255933  1
  O  O18  1  0.180585  0.594906  0.244067  1
  O  O19  1  0.279372  0.306683  0.258469  1
  O  O20  1  0.664968  0.489940  0.205797  1
  O  O21  1  0.551166  0.995023  0.041892  1
  O  O22  1  0.099596  0.809469  0.026750  1
  O  O23  1  0.599596  0.690531  0.973250  1
  O  O24  1  0.051166  0.504977  0.958108  1
  O  O25  1  0.164968  0.010060  0.794203  1
  O  O26  1  0.779372  0.193317  0.741531  1
  O  O27  1  0.680585  0.905094  0.755933  1
