# generated using pymatgen
data_Hf18Nb2Si15Sb
_symmetry_space_group_name_H-M   'P 1'
_cell_length_a   7.09436631
_cell_length_b   7.06833311
_cell_length_c   12.88943015
_cell_angle_alpha   89.87549479
_cell_angle_beta   89.68125770
_cell_angle_gamma   90.02210389
_symmetry_Int_Tables_number   1
_chemical_formula_structural   Hf18Nb2Si15Sb
_chemical_formula_sum   'Hf18 Nb2 Si15 Sb1'
_cell_volume   646.33333385
_cell_formula_units_Z   1
loop_
 _symmetry_equiv_pos_site_id
 _symmetry_equiv_pos_as_xyz
  1  'x, y, z'
loop_
 _atom_site_type_symbol
 _atom_site_label
 _atom_site_symmetry_multiplicity
 _atom_site_fract_x
 _atom_site_fract_y
 _atom_site_fract_z
 _atom_site_occupancy
  Hf  Hf0  1  0.824702  0.825614  0.500687  1
  Hf  Hf1  1  0.180460  0.173148  0.998229  1
  Hf  Hf2  1  0.497540  0.152418  0.532888  1
  Hf  Hf3  1  0.495300  0.839822  0.029145  1
  Hf  Hf4  1  0.648726  0.997453  0.287506  1
  Hf  Hf5  1  0.344399  0.994770  0.779026  1
  Hf  Hf6  1  0.848645  0.513076  0.964061  1
  Hf  Hf7  1  0.154256  0.497553  0.467953  1
  Hf  Hf8  1  0.000658  0.651428  0.717225  1
  Hf  Hf9  1  0.014119  0.358265  0.226154  1
  Hf  Hf10  1  0.488923  0.363573  0.126234  1
  Hf  Hf11  1  0.501227  0.643574  0.626777  1
  Hf  Hf12  1  0.851657  0.000692  0.872097  1
  Hf  Hf13  1  0.149342  0.998530  0.376605  1
  Hf  Hf14  1  0.645530  0.502882  0.373689  1
  Hf  Hf15  1  0.353448  0.499351  0.871244  1
  Hf  Hf16  1  0.013206  0.841136  0.127137  1
  Hf  Hf17  1  0.998006  0.146991  0.623941  1
  Nb  Nb18  1  0.675834  0.324422  0.749123  1
  Nb  Nb19  1  0.325862  0.675459  0.250850  1
  Si  Si20  1  0.203724  0.853960  0.573307  1
  Si  Si21  1  0.644187  0.703647  0.820933  1
  Si  Si22  1  0.358782  0.295424  0.324975  1
  Si  Si23  1  0.855014  0.204561  0.427360  1
  Si  Si24  1  0.143728  0.796517  0.925867  1
  Si  Si25  1  0.703555  0.648054  0.177654  1
  Si  Si26  1  0.295529  0.352947  0.676099  1
  Si  Si27  1  0.539513  0.195802  0.928145  1
  Si  Si28  1  0.448337  0.798702  0.437430  1
  Si  Si29  1  0.695907  0.953824  0.684749  1
  Si  Si30  1  0.304660  0.047985  0.186127  1
  Si  Si31  1  0.800973  0.450283  0.564407  1
  Si  Si32  1  0.197171  0.547297  0.061608  1
  Si  Si33  1  0.952368  0.701144  0.317202  1
  Si  Si34  1  0.045864  0.302413  0.813466  1
  Sb  Sb35  1  0.798848  0.147281  0.080103  1
