# generated using pymatgen
data_LiEr5(Co3P2)6
_symmetry_space_group_name_H-M   'P 1'
_cell_length_a   11.94537392
_cell_length_b   11.94537491
_cell_length_c   3.65843500
_cell_angle_alpha   90.00000000
_cell_angle_beta   90.00000000
_cell_angle_gamma   120.09609524
_symmetry_Int_Tables_number   1
_chemical_formula_structural   LiEr5(Co3P2)6
_chemical_formula_sum   'Li1 Er5 Co18 P12'
_cell_volume   451.65222876
_cell_formula_units_Z   1
loop_
 _symmetry_equiv_pos_site_id
 _symmetry_equiv_pos_as_xyz
  1  'x, y, z'
loop_
 _atom_site_type_symbol
 _atom_site_label
 _atom_site_symmetry_multiplicity
 _atom_site_fract_x
 _atom_site_fract_y
 _atom_site_fract_z
 _atom_site_occupancy
  Li  Li0  1  0.561021  0.561021  0.000000  1
  Er  Er1  1  0.186443  0.186443  0.500000  1
  Er  Er2  1  0.812370  0.000060  0.500000  1
  Er  Er3  1  0.000060  0.812370  0.500000  1
  Er  Er4  1  0.332466  0.666916  0.000000  1
  Er  Er5  1  0.666916  0.332466  0.000000  1
  Co  Co6  1  0.447314  0.001441  0.000000  1
  Co  Co7  1  0.001441  0.447314  0.000000  1
  Co  Co8  1  0.716087  0.716087  0.500000  1
  Co  Co9  1  0.283605  0.998829  0.500000  1
  Co  Co10  1  0.998829  0.283605  0.500000  1
  Co  Co11  1  0.176526  0.375744  0.000000  1
  Co  Co12  1  0.621840  0.802741  0.000000  1
  Co  Co13  1  0.199679  0.821809  0.000000  1
  Co  Co14  1  0.802741  0.621840  0.000000  1
  Co  Co15  1  0.821809  0.199679  0.000000  1
  Co  Co16  1  0.375744  0.176526  0.000000  1
  Co  Co17  1  0.355750  0.482724  0.500000  1
  Co  Co18  1  0.516379  0.877081  0.500000  1
  Co  Co19  1  0.126462  0.641259  0.500000  1
  Co  Co20  1  0.877081  0.516379  0.500000  1
  Co  Co21  1  0.641259  0.126462  0.500000  1
  Co  Co22  1  0.482724  0.355750  0.500000  1
  Co  Co23  1  0.998185  0.998185  0.000000  1
  P  P24  1  0.817738  0.817738  0.000000  1
  P  P25  1  0.179233  0.998990  0.000000  1
  P  P26  1  0.998990  0.179233  0.000000  1
  P  P27  1  0.166136  0.478928  0.500000  1
  P  P28  1  0.518095  0.688762  0.500000  1
  P  P29  1  0.314355  0.834018  0.500000  1
  P  P30  1  0.688762  0.518095  0.500000  1
  P  P31  1  0.834018  0.314355  0.500000  1
  P  P32  1  0.478928  0.166136  0.500000  1
  P  P33  1  0.367247  0.367247  0.000000  1
  P  P34  1  0.632278  0.001487  0.000000  1
  P  P35  1  0.001487  0.632278  0.000000  1
