# generated using pymatgen
data_Dy19YSi15Ir
_symmetry_space_group_name_H-M   'P 1'
_cell_length_a   7.44316969
_cell_length_b   7.68475003
_cell_length_c   14.60298804
_cell_angle_alpha   89.77339864
_cell_angle_beta   89.70846837
_cell_angle_gamma   90.21189098
_symmetry_Int_Tables_number   1
_chemical_formula_structural   Dy19YSi15Ir
_chemical_formula_sum   'Dy19 Y1 Si15 Ir1'
_cell_volume   835.25171133
_cell_formula_units_Z   1
loop_
 _symmetry_equiv_pos_site_id
 _symmetry_equiv_pos_as_xyz
  1  'x, y, z'
loop_
 _atom_site_type_symbol
 _atom_site_label
 _atom_site_symmetry_multiplicity
 _atom_site_fract_x
 _atom_site_fract_y
 _atom_site_fract_z
 _atom_site_occupancy
  Dy  Dy0  1  0.147896  0.511095  0.247579  1
  Dy  Dy1  1  0.847659  0.488432  0.758867  1
  Dy  Dy2  1  0.352750  0.010724  0.752603  1
  Dy  Dy3  1  0.972857  0.814458  0.096949  1
  Dy  Dy4  1  0.471176  0.682758  0.401399  1
  Dy  Dy5  1  0.530975  0.324016  0.901417  1
  Dy  Dy6  1  0.029558  0.184725  0.599414  1
  Dy  Dy7  1  0.027661  0.186978  0.902512  1
  Dy  Dy8  1  0.529996  0.317827  0.598773  1
  Dy  Dy9  1  0.475451  0.680906  0.098441  1
  Dy  Dy10  1  0.970240  0.817030  0.400698  1
  Dy  Dy11  1  0.684100  0.811739  0.882687  1
  Dy  Dy12  1  0.178867  0.681691  0.621749  1
  Dy  Dy13  1  0.817531  0.332915  0.118892  1
  Dy  Dy14  1  0.316277  0.178220  0.376140  1
  Dy  Dy15  1  0.320246  0.178506  0.123428  1
  Dy  Dy16  1  0.819300  0.319149  0.377272  1
  Dy  Dy17  1  0.175812  0.675721  0.878461  1
  Dy  Dy18  1  0.682617  0.818946  0.622411  1
  Y  Y19  1  0.648446  0.992611  0.248495  1
  Si  Si20  1  0.764086  0.628942  0.252120  1
  Si  Si21  1  0.265751  0.872552  0.250719  1
  Si  Si22  1  0.733305  0.123546  0.748199  1
  Si  Si23  1  0.235862  0.373726  0.746337  1
  Si  Si24  1  0.020292  0.104894  0.249119  1
  Si  Si25  1  0.522821  0.396845  0.251370  1
  Si  Si26  1  0.471624  0.605999  0.746001  1
  Si  Si27  1  0.977022  0.898356  0.748090  1
  Si  Si28  1  0.354387  0.971992  0.539667  1
  Si  Si29  1  0.645672  0.026740  0.042108  1
  Si  Si30  1  0.147257  0.470397  0.460063  1
  Si  Si31  1  0.155254  0.472399  0.041242  1
  Si  Si32  1  0.643870  0.028389  0.459697  1
  Si  Si33  1  0.353520  0.969314  0.961398  1
  Si  Si34  1  0.854587  0.528784  0.538724  1
  Ir  Ir35  1  0.855278  0.518676  0.956961  1
