# generated using pymatgen
data_DySc4Si10P2Ir19
_symmetry_space_group_name_H-M   'P 1'
_cell_length_a   12.76758637
_cell_length_b   12.73304608
_cell_length_c   3.91676900
_cell_angle_alpha   90.00000000
_cell_angle_beta   90.00000000
_cell_angle_gamma   119.95561740
_symmetry_Int_Tables_number   1
_chemical_formula_structural   DySc4Si10P2Ir19
_chemical_formula_sum   'Dy1 Sc4 Si10 P2 Ir19'
_cell_volume   551.68828399
_cell_formula_units_Z   1
loop_
 _symmetry_equiv_pos_site_id
 _symmetry_equiv_pos_as_xyz
  1  'x, y, z'
loop_
 _atom_site_type_symbol
 _atom_site_label
 _atom_site_symmetry_multiplicity
 _atom_site_fract_x
 _atom_site_fract_y
 _atom_site_fract_z
 _atom_site_occupancy
  Dy  Dy0  1  0.666953  0.333358  0.500000  1
  Sc  Sc1  1  0.332912  0.666296  0.500000  1
  Sc  Sc2  1  0.000370  0.811738  0.000000  1
  Sc  Sc3  1  0.185286  0.187688  0.000000  1
  Sc  Sc4  1  0.814919  0.002715  0.000000  1
  Si  Si5  1  0.000417  0.635234  0.500000  1
  Si  Si6  1  0.364714  0.365518  0.500000  1
  Si  Si7  1  0.634758  0.000024  0.500000  1
  Si  Si8  1  0.517413  0.687043  0.000000  1
  Si  Si9  1  0.313132  0.830114  0.000000  1
  Si  Si10  1  0.170056  0.482640  0.000000  1
  Si  Si11  1  0.479497  0.165506  0.000000  1
  Si  Si12  1  0.686146  0.520239  0.000000  1
  Si  Si13  1  0.833807  0.313158  0.000000  1
  Si  Si14  1  0.000902  0.175307  0.500000  1
  P  P15  1  0.821365  0.823606  0.500000  1
  P  P16  1  0.177227  0.999398  0.500000  1
  Ir  Ir17  1  0.511138  0.870959  0.000000  1
  Ir  Ir18  1  0.128658  0.640220  0.000000  1
  Ir  Ir19  1  0.361084  0.488896  0.000000  1
  Ir  Ir20  1  0.486325  0.358819  0.000000  1
  Ir  Ir21  1  0.872888  0.514056  0.000000  1
  Ir  Ir22  1  0.639866  0.126316  0.000000  1
  Ir  Ir23  1  0.999315  0.447072  0.500000  1
  Ir  Ir24  1  0.554081  0.552537  0.500000  1
  Ir  Ir25  1  0.446598  0.999709  0.500000  1
  Ir  Ir26  1  0.001126  0.279371  0.000000  1
  Ir  Ir27  1  0.723120  0.724473  0.000000  1
  Ir  Ir28  1  0.275888  0.999049  0.000000  1
  Ir  Ir29  1  0.628092  0.808708  0.500000  1
  Ir  Ir30  1  0.191423  0.819883  0.500000  1
  Ir  Ir31  1  0.181950  0.374251  0.500000  1
  Ir  Ir32  1  0.369236  0.179324  0.500000  1
  Ir  Ir33  1  0.809922  0.631083  0.500000  1
  Ir  Ir34  1  0.819346  0.190927  0.500000  1
  Ir  Ir35  1  0.000068  0.994763  0.500000  1
