# generated using pymatgen
data_Ta6Si2Ni4C
_symmetry_space_group_name_H-M   'P 1'
_cell_length_a   7.94152851
_cell_length_b   7.94152822
_cell_length_c   7.94152800
_cell_angle_alpha   59.99999259
_cell_angle_beta   59.99999378
_cell_angle_gamma   59.99999226
_symmetry_Int_Tables_number   1
_chemical_formula_structural   Ta6Si2Ni4C
_chemical_formula_sum   'Ta12 Si4 Ni8 C2'
_cell_volume   354.15810585
_cell_formula_units_Z   2
loop_
 _symmetry_equiv_pos_site_id
 _symmetry_equiv_pos_as_xyz
  1  'x, y, z'
loop_
 _atom_site_type_symbol
 _atom_site_label
 _atom_site_symmetry_multiplicity
 _atom_site_fract_x
 _atom_site_fract_y
 _atom_site_fract_z
 _atom_site_occupancy
  Ta  Ta0  1  0.053776  0.053776  0.446224  1
  Ta  Ta1  1  0.446224  0.053776  0.446224  1
  Ta  Ta2  1  0.053776  0.446224  0.446224  1
  Ta  Ta3  1  0.446224  0.446224  0.053776  1
  Ta  Ta4  1  0.053776  0.446224  0.053776  1
  Ta  Ta5  1  0.446224  0.053776  0.053776  1
  Ta  Ta6  1  0.196224  0.196224  0.803776  1
  Ta  Ta7  1  0.803776  0.196224  0.803776  1
  Ta  Ta8  1  0.196224  0.803776  0.803776  1
  Ta  Ta9  1  0.803776  0.803776  0.196224  1
  Ta  Ta10  1  0.196224  0.803776  0.196224  1
  Ta  Ta11  1  0.803776  0.196224  0.196224  1
  Si  Si12  1  0.625000  0.625000  0.125000  1
  Si  Si13  1  0.625000  0.125000  0.625000  1
  Si  Si14  1  0.125000  0.625000  0.625000  1
  Si  Si15  1  0.625000  0.625000  0.625000  1
  Ni  Ni16  1  0.418496  0.418496  0.744515  1
  Ni  Ni17  1  0.418496  0.744515  0.418496  1
  Ni  Ni18  1  0.744515  0.418496  0.418496  1
  Ni  Ni19  1  0.418496  0.418496  0.418496  1
  Ni  Ni20  1  0.831504  0.831504  0.505485  1
  Ni  Ni21  1  0.831504  0.505485  0.831504  1
  Ni  Ni22  1  0.505485  0.831504  0.831504  1
  Ni  Ni23  1  0.831504  0.831504  0.831504  1
  C  C24  1  0.250000  0.250000  0.250000  1
  C  C25  1  0.000000  0.000000  0.000000  1
