# generated using pymatgen
data_Yb5CeOs2
_symmetry_space_group_name_H-M   'P 1'
_cell_length_a   7.60491886
_cell_length_b   9.45356400
_cell_length_c   6.30160387
_cell_angle_alpha   90.00000000
_cell_angle_beta   86.28081808
_cell_angle_gamma   90.00000000
_symmetry_Int_Tables_number   1
_chemical_formula_structural   Yb5CeOs2
_chemical_formula_sum   'Yb10 Ce2 Os4'
_cell_volume   452.09077553
_cell_formula_units_Z   2
loop_
 _symmetry_equiv_pos_site_id
 _symmetry_equiv_pos_as_xyz
  1  'x, y, z'
loop_
 _atom_site_type_symbol
 _atom_site_label
 _atom_site_symmetry_multiplicity
 _atom_site_fract_x
 _atom_site_fract_y
 _atom_site_fract_z
 _atom_site_occupancy
  Yb  Yb0  1  0.461323  0.750000  0.130817  1
  Yb  Yb1  1  0.538677  0.250000  0.869183  1
  Yb  Yb2  1  0.166612  0.066624  0.165433  1
  Yb  Yb3  1  0.833388  0.933376  0.834567  1
  Yb  Yb4  1  0.329546  0.931091  0.656501  1
  Yb  Yb5  1  0.833388  0.566624  0.834567  1
  Yb  Yb6  1  0.670454  0.068909  0.343499  1
  Yb  Yb7  1  0.166612  0.433376  0.165433  1
  Yb  Yb8  1  0.670454  0.431091  0.343499  1
  Yb  Yb9  1  0.329546  0.568909  0.656501  1
  Ce  Ce10  1  0.059471  0.250000  0.656423  1
  Ce  Ce11  1  0.940529  0.750000  0.343577  1
  Os  Os12  1  0.352905  0.250000  0.482665  1
  Os  Os13  1  0.647095  0.750000  0.517335  1
  Os  Os14  1  0.109667  0.750000  0.003682  1
  Os  Os15  1  0.890333  0.250000  0.996318  1
