# generated using pymatgen
data_Er3Zr(NiAs)4
_symmetry_space_group_name_H-M   'P 1'
_cell_length_a   4.01212700
_cell_length_b   4.01212733
_cell_length_c   15.09181700
_cell_angle_alpha   90.00000000
_cell_angle_beta   90.00000000
_cell_angle_gamma   120.00000551
_symmetry_Int_Tables_number   1
_chemical_formula_structural   Er3Zr(NiAs)4
_chemical_formula_sum   'Er3 Zr1 Ni4 As4'
_cell_volume   210.38826755
_cell_formula_units_Z   1
loop_
 _symmetry_equiv_pos_site_id
 _symmetry_equiv_pos_as_xyz
  1  'x, y, z'
loop_
 _atom_site_type_symbol
 _atom_site_label
 _atom_site_symmetry_multiplicity
 _atom_site_fract_x
 _atom_site_fract_y
 _atom_site_fract_z
 _atom_site_occupancy
  Er  Er0  1  0.000000  0.000000  0.750000  1
  Er  Er1  1  0.000000  0.000000  0.004652  1
  Er  Er2  1  0.000000  0.000000  0.495348  1
  Zr  Zr3  1  0.000000  0.000000  0.250000  1
  Ni  Ni4  1  0.333333  0.666667  0.156334  1
  Ni  Ni5  1  0.666667  0.333333  0.868401  1
  Ni  Ni6  1  0.666667  0.333333  0.631599  1
  Ni  Ni7  1  0.333333  0.666667  0.343666  1
  As  As8  1  0.333333  0.666667  0.618277  1
  As  As9  1  0.666667  0.333333  0.377984  1
  As  As10  1  0.666667  0.333333  0.122016  1
  As  As11  1  0.333333  0.666667  0.881723  1
