# generated using pymatgen
data_La2Co17Si8Os
_symmetry_space_group_name_H-M   'P 1'
_cell_length_a   8.01572282
_cell_length_b   8.01572303
_cell_length_c   7.98186973
_cell_angle_alpha   121.60289309
_cell_angle_beta   121.25815225
_cell_angle_gamma   87.79246078
_symmetry_Int_Tables_number   1
_chemical_formula_structural   La2Co17Si8Os
_chemical_formula_sum   'La2 Co17 Si8 Os1'
_cell_volume   353.68262421
_cell_formula_units_Z   1
loop_
 _symmetry_equiv_pos_site_id
 _symmetry_equiv_pos_as_xyz
  1  'x, y, z'
loop_
 _atom_site_type_symbol
 _atom_site_label
 _atom_site_symmetry_multiplicity
 _atom_site_fract_x
 _atom_site_fract_y
 _atom_site_fract_z
 _atom_site_occupancy
  La  La0  1  0.749350  0.748280  0.000367  1
  La  La1  1  0.252087  0.251017  0.000367  1
  Co  Co2  1  0.807218  0.311636  0.758010  1
  Co  Co3  1  0.308472  0.548777  0.499321  1
  Co  Co4  1  0.191977  0.690193  0.243453  1
  Co  Co5  1  0.691150  0.449814  0.500571  1
  Co  Co6  1  0.950544  0.190849  0.499321  1
  Co  Co7  1  0.069062  0.194298  0.263359  1
  Co  Co8  1  0.298698  0.428684  0.727381  1
  Co  Co9  1  0.050757  0.809421  0.500571  1
  Co  Co10  1  0.564191  0.302493  0.866684  1
  Co  Co11  1  0.446374  0.950792  0.758010  1
  Co  Co12  1  0.793232  0.078515  0.871747  1
  Co  Co13  1  0.432010  0.700710  0.132721  1
  Co  Co14  1  0.697332  0.565248  0.262580  1
  Co  Co15  1  0.209813  0.930483  0.140296  1
  Co  Co16  1  0.000067  0.496009  0.496076  1
  Co  Co17  1  0.553260  0.051477  0.243453  1
  Co  Co18  1  0.501897  0.001511  0.503409  1
  Si  Si19  1  0.295930  0.786983  0.838948  1
  Si  Si20  1  0.787244  0.955896  0.496118  1
  Si  Si21  1  0.953529  0.453248  0.163653  1
  Si  Si22  1  0.451647  0.288165  0.497059  1
  Si  Si23  1  0.051965  0.543018  0.838948  1
  Si  Si24  1  0.208894  0.045412  0.497059  1
  Si  Si25  1  0.710405  0.210124  0.163653  1
  Si  Si26  1  0.540222  0.708874  0.496118  1
  Os  Os27  1  0.932672  0.808076  0.740748  1
