# generated using pymatgen
data_Zr10SiAgBi5Pb
_symmetry_space_group_name_H-M   'P 1'
_cell_length_a   8.87014784
_cell_length_b   8.85286533
_cell_length_c   6.00346362
_cell_angle_alpha   89.94778705
_cell_angle_beta   90.02605390
_cell_angle_gamma   119.93556966
_symmetry_Int_Tables_number   1
_chemical_formula_structural   Zr10SiAgBi5Pb
_chemical_formula_sum   'Zr10 Si1 Ag1 Bi5 Pb1'
_cell_volume   408.53441446
_cell_formula_units_Z   1
loop_
 _symmetry_equiv_pos_site_id
 _symmetry_equiv_pos_as_xyz
  1  'x, y, z'
loop_
 _atom_site_type_symbol
 _atom_site_label
 _atom_site_symmetry_multiplicity
 _atom_site_fract_x
 _atom_site_fract_y
 _atom_site_fract_z
 _atom_site_occupancy
  Zr  Zr0  1  0.667162  0.333714  0.500474  1
  Zr  Zr1  1  0.332838  0.666553  0.500474  1
  Zr  Zr2  1  0.332847  0.666403  0.999222  1
  Zr  Zr3  1  0.667153  0.333556  0.999222  1
  Zr  Zr4  1  0.734214  0.734230  0.232083  1
  Zr  Zr5  1  0.265786  0.000017  0.232083  1
  Zr  Zr6  1  0.000000  0.265535  0.232088  1
  Zr  Zr7  1  0.265449  0.266152  0.767822  1
  Zr  Zr8  1  0.734551  0.000702  0.767822  1
  Zr  Zr9  1  0.000000  0.733722  0.768501  1
  Si  Si10  1  0.000000  0.000215  0.999436  1
  Ag  Ag11  1  0.000000  0.000408  0.500502  1
  Bi  Bi12  1  0.386867  0.387386  0.257079  1
  Bi  Bi13  1  0.613133  0.000519  0.257079  1
  Bi  Bi14  1  0.000000  0.611882  0.257879  1
  Bi  Bi15  1  0.612717  0.612883  0.742845  1
  Bi  Bi16  1  0.387283  0.000166  0.742845  1
  Pb  Pb17  1  0.000000  0.385956  0.742545  1
