# generated using pymatgen
data_Lu2Al20Os3Rh
_symmetry_space_group_name_H-M   'P 1'
_cell_length_a   6.85871886
_cell_length_b   6.85078318
_cell_length_c   9.13213585
_cell_angle_alpha   90.38497975
_cell_angle_beta   90.44494416
_cell_angle_gamma   96.55286082
_symmetry_Int_Tables_number   1
_chemical_formula_structural   Lu2Al20Os3Rh
_chemical_formula_sum   'Lu2 Al20 Os3 Rh1'
_cell_volume   426.26846698
_cell_formula_units_Z   1
loop_
 _symmetry_equiv_pos_site_id
 _symmetry_equiv_pos_as_xyz
  1  'x, y, z'
loop_
 _atom_site_type_symbol
 _atom_site_label
 _atom_site_symmetry_multiplicity
 _atom_site_fract_x
 _atom_site_fract_y
 _atom_site_fract_z
 _atom_site_occupancy
  Lu  Lu0  1  0.870279  0.132010  0.749083  1
  Lu  Lu1  1  0.129721  0.867990  0.250917  1
  Al  Al2  1  0.518265  0.780951  0.748449  1
  Al  Al3  1  0.782414  0.518390  0.249553  1
  Al  Al4  1  0.481735  0.219049  0.251551  1
  Al  Al5  1  0.217586  0.481610  0.750447  1
  Al  Al6  1  0.624133  0.377992  0.952456  1
  Al  Al7  1  0.375867  0.622008  0.047544  1
  Al  Al8  1  0.623761  0.376432  0.546449  1
  Al  Al9  1  0.376239  0.623568  0.453551  1
  Al  Al10  1  0.417761  0.149328  0.749871  1
  Al  Al11  1  0.148256  0.417457  0.250164  1
  Al  Al12  1  0.582239  0.850672  0.250129  1
  Al  Al13  1  0.851744  0.582543  0.749836  1
  Al  Al14  1  0.845631  0.153637  0.399129  1
  Al  Al15  1  0.154369  0.846363  0.600871  1
  Al  Al16  1  0.846568  0.154841  0.102210  1
  Al  Al17  1  0.153432  0.845159  0.897790  1
  Al  Al18  1  0.775962  0.775416  0.000408  1
  Al  Al19  1  0.776936  0.776919  0.499620  1
  Al  Al20  1  0.224038  0.224584  0.999592  1
  Al  Al21  1  0.223064  0.223081  0.500380  1
  Os  Os22  1  0.000000  0.500000  0.000000  1
  Os  Os23  1  0.500000  0.000000  0.500000  1
  Os  Os24  1  0.000000  0.500000  0.500000  1
  Rh  Rh25  1  0.500000  0.000000  0.000000  1
