# generated using pymatgen
data_InAgBi2(Rh2O7)2
_symmetry_space_group_name_H-M   'P 1'
_cell_length_a   7.28091465
_cell_length_b   7.09863605
_cell_length_c   7.28091546
_cell_angle_alpha   59.72457521
_cell_angle_beta   60.72659581
_cell_angle_gamma   59.72458545
_symmetry_Int_Tables_number   1
_chemical_formula_structural   InAgBi2(Rh2O7)2
_chemical_formula_sum   'In1 Ag1 Bi2 Rh4 O14'
_cell_volume   266.39072825
_cell_formula_units_Z   1
loop_
 _symmetry_equiv_pos_site_id
 _symmetry_equiv_pos_as_xyz
  1  'x, y, z'
loop_
 _atom_site_type_symbol
 _atom_site_label
 _atom_site_symmetry_multiplicity
 _atom_site_fract_x
 _atom_site_fract_y
 _atom_site_fract_z
 _atom_site_occupancy
  In  In0  1  0.125000  0.125000  0.125000  1
  Ag  Ag1  1  0.125000  0.625000  0.125000  1
  Bi  Bi2  1  0.625000  0.125000  0.125000  1
  Bi  Bi3  1  0.125000  0.125000  0.625000  1
  Rh  Rh4  1  0.625000  0.625000  0.625000  1
  Rh  Rh5  1  0.625000  0.625000  0.125000  1
  Rh  Rh6  1  0.125000  0.625000  0.625000  1
  Rh  Rh7  1  0.625000  0.125000  0.625000  1
  O  O8  1  0.243168  0.258966  0.243168  1
  O  O9  1  0.295704  0.719865  0.295704  1
  O  O10  1  0.959401  0.966458  0.533130  1
  O  O11  1  0.538317  0.964305  0.538317  1
  O  O12  1  0.698561  0.710724  0.295448  1
  O  O13  1  0.954552  0.539276  0.551439  1
  O  O14  1  0.711683  0.285695  0.711683  1
  O  O15  1  0.290599  0.283542  0.716870  1
  O  O16  1  0.716870  0.283542  0.290599  1
  O  O17  1  0.295448  0.710724  0.698561  1
  O  O18  1  0.954296  0.530135  0.954296  1
  O  O19  1  0.551439  0.539276  0.954552  1
  O  O20  1  0.006832  0.991034  0.006832  1
  O  O21  1  0.533130  0.966458  0.959401  1
