# generated using pymatgen
data_Tb3Mg2CdAg2Ir
_symmetry_space_group_name_H-M   'P 1'
_cell_length_a   7.91143943
_cell_length_b   7.86730322
_cell_length_c   3.86681200
_cell_angle_alpha   90.00000000
_cell_angle_beta   90.00000000
_cell_angle_gamma   119.96783782
_symmetry_Int_Tables_number   1
_chemical_formula_structural   Tb3Mg2CdAg2Ir
_chemical_formula_sum   'Tb3 Mg2 Cd1 Ag2 Ir1'
_cell_volume   208.49984870
_cell_formula_units_Z   1
loop_
 _symmetry_equiv_pos_site_id
 _symmetry_equiv_pos_as_xyz
  1  'x, y, z'
loop_
 _atom_site_type_symbol
 _atom_site_label
 _atom_site_symmetry_multiplicity
 _atom_site_fract_x
 _atom_site_fract_y
 _atom_site_fract_z
 _atom_site_occupancy
  Tb  Tb0  1  0.564510  0.967303  0.000000  1
  Tb  Tb1  1  0.039548  0.610934  0.000000  1
  Tb  Tb2  1  0.394611  0.419600  0.000000  1
  Mg  Mg3  1  0.997699  0.256208  0.500000  1
  Mg  Mg4  1  0.742155  0.742582  0.500000  1
  Cd  Cd5  1  0.261027  0.006066  0.500000  1
  Ag  Ag6  1  0.675363  0.340128  0.500000  1
  Ag  Ag7  1  0.989252  0.999181  0.000000  1
  Ir  Ir8  1  0.335835  0.657998  0.500000  1
