# generated using pymatgen
data_Rb4NdPaO6
_symmetry_space_group_name_H-M   'P 1'
_cell_length_a   6.45782659
_cell_length_b   6.45782642
_cell_length_c   6.98831199
_cell_angle_alpha   99.03000597
_cell_angle_beta   99.03000176
_cell_angle_gamma   119.81002427
_symmetry_Int_Tables_number   1
_chemical_formula_structural   Rb4NdPaO6
_chemical_formula_sum   'Rb4 Nd1 Pa1 O6'
_cell_volume   240.16728416
_cell_formula_units_Z   1
loop_
 _symmetry_equiv_pos_site_id
 _symmetry_equiv_pos_as_xyz
  1  'x, y, z'
loop_
 _atom_site_type_symbol
 _atom_site_label
 _atom_site_symmetry_multiplicity
 _atom_site_fract_x
 _atom_site_fract_y
 _atom_site_fract_z
 _atom_site_occupancy
  Rb  Rb0  1  0.500364  0.499636  0.000000  1
  Rb  Rb1  1  0.998816  0.001182  0.499999  1
  Rb  Rb2  1  0.656550  0.343450  0.500001  1
  Rb  Rb3  1  0.341761  0.658239  0.500001  1
  Nd  Nd4  1  0.833148  0.166851  0.000000  1
  Pa  Pa5  1  0.167359  0.832640  0.000000  1
  O  O6  1  0.973180  0.587090  0.186650  1
  O  O7  1  0.540439  0.948545  0.187026  1
  O  O8  1  0.179283  0.155266  0.184080  1
  O  O9  1  0.844736  0.820719  0.815921  1
  O  O10  1  0.051456  0.459562  0.812974  1
  O  O11  1  0.412911  0.026822  0.813351  1
