# generated using pymatgen
data_Dy3Co2Sn3Hg
_symmetry_space_group_name_H-M   'P 1'
_cell_length_a   7.60929100
_cell_length_b   7.60929308
_cell_length_c   3.82909800
_cell_angle_alpha   90.00000000
_cell_angle_beta   90.00000000
_cell_angle_gamma   119.99998662
_symmetry_Int_Tables_number   1
_chemical_formula_structural   Dy3Co2Sn3Hg
_chemical_formula_sum   'Dy3 Co2 Sn3 Hg1'
_cell_volume   192.00638746
_cell_formula_units_Z   1
loop_
 _symmetry_equiv_pos_site_id
 _symmetry_equiv_pos_as_xyz
  1  'x, y, z'
loop_
 _atom_site_type_symbol
 _atom_site_label
 _atom_site_symmetry_multiplicity
 _atom_site_fract_x
 _atom_site_fract_y
 _atom_site_fract_z
 _atom_site_occupancy
  Dy  Dy0  1  0.388331  0.413795  0.500000  1
  Dy  Dy1  1  0.586205  0.974536  0.500000  1
  Dy  Dy2  1  0.025464  0.611669  0.500000  1
  Co  Co3  1  0.333333  0.666667  0.000000  1
  Co  Co4  1  0.000000  0.000000  0.500000  1
  Sn  Sn5  1  0.745975  0.755935  0.000000  1
  Sn  Sn6  1  0.244065  0.990040  0.000000  1
  Sn  Sn7  1  0.009960  0.254025  0.000000  1
  Hg  Hg8  1  0.666667  0.333333  0.000000  1
