# generated using pymatgen
data_Li3Ac2TbGe3
_symmetry_space_group_name_H-M   'P 1'
_cell_length_a   7.48419139
_cell_length_b   7.60874039
_cell_length_c   4.49147900
_cell_angle_alpha   90.00000000
_cell_angle_beta   90.00000000
_cell_angle_gamma   120.55205133
_symmetry_Int_Tables_number   1
_chemical_formula_structural   Li3Ac2TbGe3
_chemical_formula_sum   'Li3 Ac2 Tb1 Ge3'
_cell_volume   220.25956049
_cell_formula_units_Z   1
loop_
 _symmetry_equiv_pos_site_id
 _symmetry_equiv_pos_as_xyz
  1  'x, y, z'
loop_
 _atom_site_type_symbol
 _atom_site_label
 _atom_site_symmetry_multiplicity
 _atom_site_fract_x
 _atom_site_fract_y
 _atom_site_fract_z
 _atom_site_occupancy
  Li  Li0  1  0.778037  0.767304  0.500000  1
  Li  Li1  1  0.221963  0.989267  0.500000  1
  Li  Li2  1  0.000000  0.236341  0.500000  1
  Ac  Ac3  1  0.417665  0.421249  0.000000  1
  Ac  Ac4  1  0.582335  0.003584  0.000000  1
  Tb  Tb5  1  0.000000  0.590815  0.000000  1
  Ge  Ge6  1  0.000000  0.981220  0.000000  1
  Ge  Ge7  1  0.692271  0.351244  0.500000  1
  Ge  Ge8  1  0.307729  0.658974  0.500000  1
