# generated using pymatgen
data_Te(O2F7)2
_symmetry_space_group_name_H-M   'P 1'
_cell_length_a   13.21310300
_cell_length_b   6.66399700
_cell_length_c   8.95121733
_cell_angle_alpha   69.28698644
_cell_angle_beta   90.00000000
_cell_angle_gamma   90.00000000
_symmetry_Int_Tables_number   1
_chemical_formula_structural   Te(O2F7)2
_chemical_formula_sum   'Te2 O8 F28'
_cell_volume   737.22870543
_cell_formula_units_Z   2
loop_
 _symmetry_equiv_pos_site_id
 _symmetry_equiv_pos_as_xyz
  1  'x, y, z'
loop_
 _atom_site_type_symbol
 _atom_site_label
 _atom_site_symmetry_multiplicity
 _atom_site_fract_x
 _atom_site_fract_y
 _atom_site_fract_z
 _atom_site_occupancy
  Te  Te0  1  0.500000  0.500000  0.500000  1
  Te  Te1  1  0.000000  0.500000  0.000000  1
  O  O2  1  0.366855  0.789357  0.906460  1
  O  O3  1  0.633145  0.210643  0.093540  1
  O  O4  1  0.866855  0.210643  0.593540  1
  O  O5  1  0.133145  0.789357  0.406460  1
  O  O6  1  0.730019  0.760312  0.875792  1
  O  O7  1  0.269981  0.239688  0.124208  1
  O  O8  1  0.230019  0.239688  0.624208  1
  O  O9  1  0.769981  0.760312  0.375792  1
  F  F10  1  0.446344  0.850694  0.790357  1
  F  F11  1  0.553656  0.149306  0.209643  1
  F  F12  1  0.946344  0.149306  0.709643  1
  F  F13  1  0.053656  0.850694  0.290357  1
  F  F14  1  0.440798  0.759597  0.487511  1
  F  F15  1  0.559202  0.240403  0.512489  1
  F  F16  1  0.940798  0.240403  0.012489  1
  F  F17  1  0.059202  0.759597  0.987511  1
  F  F18  1  0.432242  0.361808  0.691965  1
  F  F19  1  0.567758  0.638192  0.308035  1
  F  F20  1  0.932242  0.638192  0.808035  1
  F  F21  1  0.067758  0.361808  0.191965  1
  F  F22  1  0.089444  0.807188  0.547052  1
  F  F23  1  0.910556  0.192812  0.452948  1
  F  F24  1  0.589444  0.192812  0.952948  1
  F  F25  1  0.410556  0.807188  0.047052  1
  F  F26  1  0.348949  0.286694  0.007659  1
  F  F27  1  0.651051  0.713306  0.992341  1
  F  F28  1  0.848949  0.713306  0.492341  1
  F  F29  1  0.151051  0.286694  0.507659  1
  F  F30  1  0.108998  0.446512  0.886901  1
  F  F31  1  0.891002  0.553488  0.113099  1
  F  F32  1  0.608998  0.553488  0.613099  1
  F  F33  1  0.391002  0.446512  0.386901  1
  F  F34  1  0.184145  0.099223  0.768048  1
  F  F35  1  0.815855  0.900777  0.231952  1
  F  F36  1  0.684145  0.900777  0.731952  1
  F  F37  1  0.315855  0.099223  0.268048  1
