# generated using pymatgen
data_La2Yb14Mg3InRu4
_symmetry_space_group_name_H-M   'P 1'
_cell_length_a   9.96660469
_cell_length_b   9.96660507
_cell_length_c   9.84999117
_cell_angle_alpha   60.49946867
_cell_angle_beta   60.49946740
_cell_angle_gamma   59.76650612
_symmetry_Int_Tables_number   1
_chemical_formula_structural   La2Yb14Mg3InRu4
_chemical_formula_sum   'La2 Yb14 Mg3 In1 Ru4'
_cell_volume   695.77619291
_cell_formula_units_Z   1
loop_
 _symmetry_equiv_pos_site_id
 _symmetry_equiv_pos_as_xyz
  1  'x, y, z'
loop_
 _atom_site_type_symbol
 _atom_site_label
 _atom_site_symmetry_multiplicity
 _atom_site_fract_x
 _atom_site_fract_y
 _atom_site_fract_z
 _atom_site_occupancy
  La  La0  1  0.062899  0.062899  0.437084  1
  La  La1  1  0.436067  0.436067  0.063865  1
  Yb  Yb2  1  0.793959  0.205180  0.204820  1
  Yb  Yb3  1  0.198970  0.198970  0.800330  1
  Yb  Yb4  1  0.798473  0.798473  0.198473  1
  Yb  Yb5  1  0.202570  0.794503  0.796095  1
  Yb  Yb6  1  0.591942  0.591942  0.226416  1
  Yb  Yb7  1  0.444822  0.057195  0.056338  1
  Yb  Yb8  1  0.057195  0.444822  0.056338  1
  Yb  Yb9  1  0.441708  0.058919  0.440905  1
  Yb  Yb10  1  0.226721  0.589923  0.592174  1
  Yb  Yb11  1  0.058919  0.441708  0.440905  1
  Yb  Yb12  1  0.589923  0.226721  0.592174  1
  Yb  Yb13  1  0.591526  0.591526  0.589771  1
  Yb  Yb14  1  0.205180  0.793959  0.204820  1
  Yb  Yb15  1  0.794503  0.202570  0.796095  1
  Mg  Mg16  1  0.517759  0.826379  0.828884  1
  Mg  Mg17  1  0.826379  0.517759  0.828884  1
  Mg  Mg18  1  0.828823  0.828823  0.518173  1
  In  In19  1  0.830528  0.830528  0.829813  1
  Ru  Ru20  1  0.858004  0.357286  0.392094  1
  Ru  Ru21  1  0.392955  0.392955  0.357462  1
  Ru  Ru22  1  0.357286  0.858004  0.392094  1
  Ru  Ru23  1  0.392890  0.392890  0.855991  1
