# generated using pymatgen
data_HfZr2PbC2
_symmetry_space_group_name_H-M   'P 1'
_cell_length_a   3.38325100
_cell_length_b   3.38325134
_cell_length_c   20.28736800
_cell_angle_alpha   90.00000000
_cell_angle_beta   90.00000000
_cell_angle_gamma   119.99998685
_symmetry_Int_Tables_number   1
_chemical_formula_structural   HfZr2PbC2
_chemical_formula_sum   'Hf2 Zr4 Pb2 C4'
_cell_volume   201.10593068
_cell_formula_units_Z   2
loop_
 _symmetry_equiv_pos_site_id
 _symmetry_equiv_pos_as_xyz
  1  'x, y, z'
loop_
 _atom_site_type_symbol
 _atom_site_label
 _atom_site_symmetry_multiplicity
 _atom_site_fract_x
 _atom_site_fract_y
 _atom_site_fract_z
 _atom_site_occupancy
  Hf  Hf0  1  0.000000  0.000000  0.000000  1
  Hf  Hf1  1  0.000000  0.000000  0.500000  1
  Zr  Zr2  1  0.666668  0.333335  0.124442  1
  Zr  Zr3  1  0.666668  0.333335  0.375558  1
  Zr  Zr4  1  0.333333  0.666666  0.624442  1
  Zr  Zr5  1  0.333333  0.666666  0.875558  1
  Pb  Pb6  1  0.000000  0.000000  0.250000  1
  Pb  Pb7  1  0.000000  0.000000  0.750000  1
  C  C8  1  0.333333  0.666666  0.066663  1
  C  C9  1  0.333333  0.666666  0.433337  1
  C  C10  1  0.666668  0.333335  0.566663  1
  C  C11  1  0.666668  0.333335  0.933337  1
