# generated using pymatgen
data_Tb3LuCo18(P6Os)2
_symmetry_space_group_name_H-M   'P 1'
_cell_length_a   3.68529000
_cell_length_b   10.34263018
_cell_length_c   11.74716774
_cell_angle_alpha   89.89703096
_cell_angle_beta   90.00000000
_cell_angle_gamma   90.00000000
_symmetry_Int_Tables_number   1
_chemical_formula_structural   Tb3LuCo18(P6Os)2
_chemical_formula_sum   'Tb3 Lu1 Co18 P12 Os2'
_cell_volume   447.74952460
_cell_formula_units_Z   1
loop_
 _symmetry_equiv_pos_site_id
 _symmetry_equiv_pos_as_xyz
  1  'x, y, z'
loop_
 _atom_site_type_symbol
 _atom_site_label
 _atom_site_symmetry_multiplicity
 _atom_site_fract_x
 _atom_site_fract_y
 _atom_site_fract_z
 _atom_site_occupancy
  Tb  Tb0  1  0.250000  0.582437  0.701920  1
  Tb  Tb1  1  0.250000  0.917325  0.201903  1
  Tb  Tb2  1  0.750000  0.086997  0.795298  1
  Lu  Lu3  1  0.750000  0.413257  0.295793  1
  Co  Co4  1  0.750000  0.283814  0.008865  1
  Co  Co5  1  0.750000  0.216547  0.508368  1
  Co  Co6  1  0.250000  0.405395  0.485931  1
  Co  Co7  1  0.250000  0.094105  0.988565  1
  Co  Co8  1  0.750000  0.590878  0.508616  1
  Co  Co9  1  0.750000  0.908206  0.009416  1
  Co  Co10  1  0.250000  0.221411  0.177509  1
  Co  Co11  1  0.250000  0.280521  0.676573  1
  Co  Co12  1  0.750000  0.777384  0.822911  1
  Co  Co13  1  0.750000  0.721825  0.322538  1
  Co  Co14  1  0.250000  0.887291  0.701290  1
  Co  Co15  1  0.250000  0.610534  0.203014  1
  Co  Co16  1  0.750000  0.117066  0.300998  1
  Co  Co17  1  0.750000  0.384642  0.801674  1
  Co  Co18  1  0.250000  0.465223  0.934374  1
  Co  Co19  1  0.250000  0.035796  0.432344  1
  Co  Co20  1  0.750000  0.532220  0.070594  1
  Co  Co21  1  0.750000  0.966909  0.568232  1
  P  P22  1  0.250000  0.416177  0.114411  1
  P  P23  1  0.250000  0.084216  0.611576  1
  P  P24  1  0.750000  0.578532  0.888060  1
  P  P25  1  0.750000  0.921617  0.386674  1
  P  P26  1  0.250000  0.271784  0.869805  1
  P  P27  1  0.250000  0.230879  0.368484  1
  P  P28  1  0.750000  0.728242  0.132302  1
  P  P29  1  0.750000  0.771523  0.631900  1
  P  P30  1  0.250000  0.592178  0.389781  1
  P  P31  1  0.250000  0.905653  0.890375  1
  P  P32  1  0.750000  0.396672  0.608365  1
  P  P33  1  0.750000  0.103384  0.108339  1
  Os  Os34  1  0.250000  0.715007  0.992455  1
  Os  Os35  1  0.250000  0.784355  0.490748  1
