# generated using pymatgen
data_La4PrGa3Co2
_symmetry_space_group_name_H-M   'P 1'
_cell_length_a   7.77466603
_cell_length_b   7.76723918
_cell_length_c   10.65187100
_cell_angle_alpha   90.00000000
_cell_angle_beta   90.00000000
_cell_angle_gamma   129.26330850
_symmetry_Int_Tables_number   1
_chemical_formula_structural   La4PrGa3Co2
_chemical_formula_sum   'La8 Pr2 Ga6 Co4'
_cell_volume   498.02724235
_cell_formula_units_Z   2
loop_
 _symmetry_equiv_pos_site_id
 _symmetry_equiv_pos_as_xyz
  1  'x, y, z'
loop_
 _atom_site_type_symbol
 _atom_site_label
 _atom_site_symmetry_multiplicity
 _atom_site_fract_x
 _atom_site_fract_y
 _atom_site_fract_z
 _atom_site_occupancy
  La  La0  1  0.878885  0.121266  0.000658  1
  La  La1  1  0.121115  0.878734  0.500658  1
  La  La2  1  0.121115  0.878734  0.999342  1
  La  La3  1  0.878885  0.121266  0.499342  1
  La  La4  1  0.405741  0.405147  0.750000  1
  La  La5  1  0.936733  0.519226  0.750000  1
  La  La6  1  0.063267  0.480774  0.250000  1
  La  La7  1  0.594259  0.594853  0.250000  1
  Pr  Pr8  1  0.482725  0.065637  0.250000  1
  Pr  Pr9  1  0.517275  0.934363  0.750000  1
  Ga  Ga10  1  0.897996  0.900028  0.750000  1
  Ga  Ga11  1  0.349148  0.651999  0.999253  1
  Ga  Ga12  1  0.349148  0.651999  0.500747  1
  Ga  Ga13  1  0.102004  0.099972  0.250000  1
  Ga  Ga14  1  0.650852  0.348001  0.000747  1
  Ga  Ga15  1  0.650852  0.348001  0.499253  1
  Co  Co16  1  0.666314  0.666375  0.565734  1
  Co  Co17  1  0.666314  0.666375  0.934266  1
  Co  Co18  1  0.333686  0.333625  0.065734  1
  Co  Co19  1  0.333686  0.333625  0.434266  1
