# generated using pymatgen
data_Cs3CuF5
_symmetry_space_group_name_H-M   'P 1'
_cell_length_a   7.98058900
_cell_length_b   7.98058900
_cell_length_c   6.71199600
_cell_angle_alpha   90.00000000
_cell_angle_beta   90.00000000
_cell_angle_gamma   90.00000000
_symmetry_Int_Tables_number   1
_chemical_formula_structural   Cs3CuF5
_chemical_formula_sum   'Cs6 Cu2 F10'
_cell_volume   427.48568812
_cell_formula_units_Z   2
loop_
 _symmetry_equiv_pos_site_id
 _symmetry_equiv_pos_as_xyz
  1  'x, y, z'
loop_
 _atom_site_type_symbol
 _atom_site_label
 _atom_site_symmetry_multiplicity
 _atom_site_fract_x
 _atom_site_fract_y
 _atom_site_fract_z
 _atom_site_occupancy
  Cs  Cs0  1  0.500000  0.500000  0.000000  1
  Cs  Cs1  1  0.000000  0.000000  0.000000  1
  Cs  Cs2  1  0.178198  0.321802  0.500000  1
  Cs  Cs3  1  0.678198  0.178198  0.500000  1
  Cs  Cs4  1  0.821802  0.678198  0.500000  1
  Cs  Cs5  1  0.321802  0.821802  0.500000  1
  Cu  Cu6  1  0.000000  0.500000  0.000000  1
  Cu  Cu7  1  0.500000  0.000000  0.000000  1
  F  F8  1  0.120727  0.620727  0.803067  1
  F  F9  1  0.879273  0.379273  0.803067  1
  F  F10  1  0.379273  0.120727  0.803067  1
  F  F11  1  0.620727  0.879273  0.803067  1
  F  F12  1  0.120727  0.620727  0.196933  1
  F  F13  1  0.620727  0.879273  0.196933  1
  F  F14  1  0.379273  0.120727  0.196933  1
  F  F15  1  0.879273  0.379273  0.196933  1
  F  F16  1  0.000000  0.000000  0.500000  1
  F  F17  1  0.500000  0.500000  0.500000  1
