# generated using pymatgen
data_Y5Sc5(GaSb)4
_symmetry_space_group_name_H-M   'P 1'
_cell_length_a   8.05975375
_cell_length_b   8.64512236
_cell_length_c   7.69712083
_cell_angle_alpha   90.14857793
_cell_angle_beta   90.24497037
_cell_angle_gamma   125.32169711
_symmetry_Int_Tables_number   1
_chemical_formula_structural   Y5Sc5(GaSb)4
_chemical_formula_sum   'Y5 Sc5 Ga4 Sb4'
_cell_volume   437.57829621
_cell_formula_units_Z   1
loop_
 _symmetry_equiv_pos_site_id
 _symmetry_equiv_pos_as_xyz
  1  'x, y, z'
loop_
 _atom_site_type_symbol
 _atom_site_label
 _atom_site_symmetry_multiplicity
 _atom_site_fract_x
 _atom_site_fract_y
 _atom_site_fract_z
 _atom_site_occupancy
  Y  Y0  1  0.843161  0.558343  0.183788  1
  Y  Y1  1  0.527216  0.774243  0.163024  1
  Y  Y2  1  0.159812  0.443101  0.815988  1
  Y  Y3  1  0.661199  0.942709  0.679298  1
  Y  Y4  1  0.337701  0.056372  0.320529  1
  Sc  Sc5  1  0.027226  0.269979  0.338310  1
  Sc  Sc6  1  0.967278  0.725757  0.662400  1
  Sc  Sc7  1  0.474195  0.229016  0.838934  1
  Sc  Sc8  1  0.005170  0.004592  0.996954  1
  Sc  Sc9  1  0.497910  0.495722  0.502180  1
  Ga  Ga10  1  0.374803  0.368105  0.126479  1
  Ga  Ga11  1  0.625403  0.623612  0.867830  1
  Ga  Ga12  1  0.125789  0.127066  0.627577  1
  Ga  Ga13  1  0.880616  0.875786  0.377270  1
  Sb  Sb14  1  0.772130  0.188663  0.033122  1
  Sb  Sb15  1  0.229993  0.822100  0.959875  1
  Sb  Sb16  1  0.734160  0.318104  0.536957  1
  Sb  Sb17  1  0.256239  0.676730  0.469484  1
