# generated using pymatgen
data_YbEr2Co9(SiB2)2
_symmetry_space_group_name_H-M   'P 1'
_cell_length_a   5.10339601
_cell_length_b   5.10326623
_cell_length_c   9.33840600
_cell_angle_alpha   90.00000000
_cell_angle_beta   90.00000000
_cell_angle_gamma   119.99405403
_symmetry_Int_Tables_number   1
_chemical_formula_structural   YbEr2Co9(SiB2)2
_chemical_formula_sum   'Yb1 Er2 Co9 Si2 B4'
_cell_volume   210.63808438
_cell_formula_units_Z   1
loop_
 _symmetry_equiv_pos_site_id
 _symmetry_equiv_pos_as_xyz
  1  'x, y, z'
loop_
 _atom_site_type_symbol
 _atom_site_label
 _atom_site_symmetry_multiplicity
 _atom_site_fract_x
 _atom_site_fract_y
 _atom_site_fract_z
 _atom_site_occupancy
  Yb  Yb0  1  0.000000  0.000000  0.000000  1
  Er  Er1  1  0.000000  0.000000  0.664190  1
  Er  Er2  1  0.000000  0.000000  0.335810  1
  Co  Co3  1  0.500000  0.500000  0.500000  1
  Co  Co4  1  0.500000  0.000000  0.500000  1
  Co  Co5  1  0.000000  0.500000  0.500000  1
  Co  Co6  1  0.500000  0.500000  0.802603  1
  Co  Co7  1  0.500000  0.000000  0.802579  1
  Co  Co8  1  0.000000  0.500000  0.802602  1
  Co  Co9  1  0.500000  0.500000  0.197397  1
  Co  Co10  1  0.500000  0.000000  0.197421  1
  Co  Co11  1  0.000000  0.500000  0.197398  1
  Si  Si12  1  0.666543  0.333210  0.000000  1
  Si  Si13  1  0.333457  0.666790  0.000000  1
  B  B14  1  0.666706  0.333339  0.654013  1
  B  B15  1  0.333294  0.666661  0.654013  1
  B  B16  1  0.333294  0.666661  0.345987  1
  B  B17  1  0.666706  0.333339  0.345987  1
