# generated using pymatgen
data_Er2Tm6B24RuW3
_symmetry_space_group_name_H-M   'P 1'
_cell_length_a   3.58134700
_cell_length_b   9.22360042
_cell_length_c   11.61139406
_cell_angle_alpha   89.89759537
_cell_angle_beta   90.00000000
_cell_angle_gamma   90.00000000
_symmetry_Int_Tables_number   1
_chemical_formula_structural   Er2Tm6B24RuW3
_chemical_formula_sum   'Er2 Tm6 B24 Ru1 W3'
_cell_volume   383.55756497
_cell_formula_units_Z   1
loop_
 _symmetry_equiv_pos_site_id
 _symmetry_equiv_pos_as_xyz
  1  'x, y, z'
loop_
 _atom_site_type_symbol
 _atom_site_label
 _atom_site_symmetry_multiplicity
 _atom_site_fract_x
 _atom_site_fract_y
 _atom_site_fract_z
 _atom_site_occupancy
  Er  Er0  1  0.000000  0.320610  0.413143  1
  Er  Er1  1  0.000000  0.678494  0.585645  1
  Tm  Tm2  1  0.000000  0.820926  0.085410  1
  Tm  Tm3  1  0.000000  0.178323  0.913408  1
  Tm  Tm4  1  0.000000  0.944042  0.373162  1
  Tm  Tm5  1  0.000000  0.054357  0.630313  1
  Tm  Tm6  1  0.000000  0.445500  0.126436  1
  Tm  Tm7  1  0.000000  0.559407  0.871064  1
  B  B8  1  0.500000  0.550904  0.435026  1
  B  B9  1  0.500000  0.448068  0.565500  1
  B  B10  1  0.500000  0.050012  0.063035  1
  B  B11  1  0.500000  0.945098  0.932108  1
  B  B12  1  0.500000  0.751447  0.422618  1
  B  B13  1  0.500000  0.247618  0.578920  1
  B  B14  1  0.500000  0.252768  0.076962  1
  B  B15  1  0.500000  0.751793  0.918559  1
  B  B16  1  0.500000  0.795373  0.264430  1
  B  B17  1  0.500000  0.203937  0.737926  1
  B  B18  1  0.500000  0.294790  0.235582  1
  B  B19  1  0.500000  0.709434  0.765409  1
  B  B20  1  0.500000  0.632174  0.182445  1
  B  B21  1  0.500000  0.369422  0.818223  1
  B  B22  1  0.500000  0.130602  0.316684  1
  B  B23  1  0.500000  0.868740  0.686135  1
  B  B24  1  0.500000  0.977793  0.212416  1
  B  B25  1  0.500000  0.016109  0.788471  1
  B  B26  1  0.500000  0.478278  0.286785  1
  B  B27  1  0.500000  0.522954  0.712665  1
  B  B28  1  0.500000  0.604031  0.027152  1
  B  B29  1  0.500000  0.400358  0.971229  1
  B  B30  1  0.500000  0.100960  0.472794  1
  B  B31  1  0.500000  0.897127  0.530315  1
  Ru  Ru32  1  0.000000  0.861086  0.820738  1
  W  W33  1  0.000000  0.638936  0.320286  1
  W  W34  1  0.000000  0.360223  0.681047  1
  W  W35  1  0.000000  0.138305  0.177962  1
