# generated using pymatgen
data_ThP2Pd2Pb
_symmetry_space_group_name_H-M   'P 1'
_cell_length_a   4.17452600
_cell_length_b   4.17452688
_cell_length_c   8.34502000
_cell_angle_alpha   90.00000000
_cell_angle_beta   90.00000000
_cell_angle_gamma   120.00000890
_symmetry_Int_Tables_number   1
_chemical_formula_structural   ThP2Pd2Pb
_chemical_formula_sum   'Th1 P2 Pd2 Pb1'
_cell_volume   125.94252798
_cell_formula_units_Z   1
loop_
 _symmetry_equiv_pos_site_id
 _symmetry_equiv_pos_as_xyz
  1  'x, y, z'
loop_
 _atom_site_type_symbol
 _atom_site_label
 _atom_site_symmetry_multiplicity
 _atom_site_fract_x
 _atom_site_fract_y
 _atom_site_fract_z
 _atom_site_occupancy
  Th  Th0  1  0.000000  0.000000  0.500000  1
  P  P1  1  0.666667  0.333333  0.288035  1
  P  P2  1  0.333333  0.666667  0.711965  1
  Pd  Pd3  1  0.333333  0.666667  0.242716  1
  Pd  Pd4  1  0.666667  0.333333  0.757284  1
  Pb  Pb5  1  0.000000  0.000000  0.000000  1
