# generated using pymatgen
data_Nd3AlSn2Pt3
_symmetry_space_group_name_H-M   'P 1'
_cell_length_a   7.59394247
_cell_length_b   7.48880889
_cell_length_c   4.13015300
_cell_angle_alpha   90.00000000
_cell_angle_beta   90.00000000
_cell_angle_gamma   119.54307769
_symmetry_Int_Tables_number   1
_chemical_formula_structural   Nd3AlSn2Pt3
_chemical_formula_sum   'Nd3 Al1 Sn2 Pt3'
_cell_volume   204.34220088
_cell_formula_units_Z   1
loop_
 _symmetry_equiv_pos_site_id
 _symmetry_equiv_pos_as_xyz
  1  'x, y, z'
loop_
 _atom_site_type_symbol
 _atom_site_label
 _atom_site_symmetry_multiplicity
 _atom_site_fract_x
 _atom_site_fract_y
 _atom_site_fract_z
 _atom_site_occupancy
  Nd  Nd0  1  0.591513  0.586683  0.000000  1
  Nd  Nd1  1  0.408487  0.995171  0.000000  1
  Nd  Nd2  1  0.000000  0.418815  0.000000  1
  Al  Al3  1  0.000000  0.754545  0.500000  1
  Sn  Sn4  1  0.250360  0.246198  0.500000  1
  Sn  Sn5  1  0.749640  0.995838  0.500000  1
  Pt  Pt6  1  0.000000  0.979311  0.000000  1
  Pt  Pt7  1  0.317076  0.670258  0.500000  1
  Pt  Pt8  1  0.682924  0.353181  0.500000  1
