# generated using pymatgen
data_DyHo3B16OsRu3
_symmetry_space_group_name_H-M   'P 1'
_cell_length_a   3.55614700
_cell_length_b   5.95348414
_cell_length_c   11.52003901
_cell_angle_alpha   90.01527974
_cell_angle_beta   90.00000000
_cell_angle_gamma   90.00000000
_symmetry_Int_Tables_number   1
_chemical_formula_structural   DyHo3B16OsRu3
_chemical_formula_sum   'Dy1 Ho3 B16 Os1 Ru3'
_cell_volume   243.89609149
_cell_formula_units_Z   1
loop_
 _symmetry_equiv_pos_site_id
 _symmetry_equiv_pos_as_xyz
  1  'x, y, z'
loop_
 _atom_site_type_symbol
 _atom_site_label
 _atom_site_symmetry_multiplicity
 _atom_site_fract_x
 _atom_site_fract_y
 _atom_site_fract_z
 _atom_site_occupancy
  Dy  Dy0  1  0.000000  0.628642  0.649586  1
  Ho  Ho1  1  0.000000  0.371346  0.350381  1
  Ho  Ho2  1  0.000000  0.128796  0.849737  1
  Ho  Ho3  1  0.000000  0.871099  0.150193  1
  B  B4  1  0.500000  0.976806  0.691927  1
  B  B5  1  0.500000  0.023704  0.307991  1
  B  B6  1  0.500000  0.475648  0.808089  1
  B  B7  1  0.500000  0.523957  0.192049  1
  B  B8  1  0.500000  0.789389  0.813971  1
  B  B9  1  0.500000  0.210723  0.185997  1
  B  B10  1  0.500000  0.289056  0.685735  1
  B  B11  1  0.500000  0.710695  0.314377  1
  B  B12  1  0.500000  0.864076  0.970225  1
  B  B13  1  0.500000  0.135904  0.030019  1
  B  B14  1  0.500000  0.364018  0.530068  1
  B  B15  1  0.500000  0.635828  0.469695  1
  B  B16  1  0.500000  0.887979  0.546660  1
  B  B17  1  0.500000  0.112261  0.453135  1
  B  B18  1  0.500000  0.387621  0.953071  1
  B  B19  1  0.500000  0.612327  0.046974  1
  Os  Os20  1  0.000000  0.641325  0.907171  1
  Ru  Ru21  1  0.000000  0.358654  0.092926  1
  Ru  Ru22  1  0.000000  0.140434  0.592883  1
  Ru  Ru23  1  0.000000  0.859712  0.407140  1
