# generated using pymatgen
data_Ta3Co2GeN
_symmetry_space_group_name_H-M   'P 1'
_cell_length_a   8.03662886
_cell_length_b   8.03662868
_cell_length_c   8.03662900
_cell_angle_alpha   60.00000280
_cell_angle_beta   60.00000353
_cell_angle_gamma   60.00000162
_symmetry_Int_Tables_number   1
_chemical_formula_structural   Ta3Co2GeN
_chemical_formula_sum   'Ta12 Co8 Ge4 N4'
_cell_volume   367.03439476
_cell_formula_units_Z   4
loop_
 _symmetry_equiv_pos_site_id
 _symmetry_equiv_pos_as_xyz
  1  'x, y, z'
loop_
 _atom_site_type_symbol
 _atom_site_label
 _atom_site_symmetry_multiplicity
 _atom_site_fract_x
 _atom_site_fract_y
 _atom_site_fract_z
 _atom_site_occupancy
  Ta  Ta0  1  0.804105  0.804105  0.195895  1
  Ta  Ta1  1  0.195895  0.195895  0.804105  1
  Ta  Ta2  1  0.804105  0.195895  0.804105  1
  Ta  Ta3  1  0.195895  0.804105  0.195895  1
  Ta  Ta4  1  0.195895  0.804105  0.804105  1
  Ta  Ta5  1  0.804105  0.195895  0.195895  1
  Ta  Ta6  1  0.445895  0.445895  0.054105  1
  Ta  Ta7  1  0.054105  0.054105  0.445895  1
  Ta  Ta8  1  0.445895  0.054105  0.445895  1
  Ta  Ta9  1  0.054105  0.445895  0.054105  1
  Ta  Ta10  1  0.054105  0.445895  0.445895  1
  Ta  Ta11  1  0.445895  0.054105  0.054105  1
  Co  Co12  1  0.752957  0.415682  0.415682  1
  Co  Co13  1  0.415682  0.752957  0.415682  1
  Co  Co14  1  0.415682  0.415682  0.752957  1
  Co  Co15  1  0.415682  0.415682  0.415682  1
  Co  Co16  1  0.497043  0.834318  0.834318  1
  Co  Co17  1  0.834318  0.497043  0.834318  1
  Co  Co18  1  0.834318  0.834318  0.497043  1
  Co  Co19  1  0.834318  0.834318  0.834318  1
  Ge  Ge20  1  0.125000  0.625000  0.625000  1
  Ge  Ge21  1  0.625000  0.125000  0.625000  1
  Ge  Ge22  1  0.625000  0.625000  0.125000  1
  Ge  Ge23  1  0.625000  0.625000  0.625000  1
  N  N24  1  0.625000  0.125000  0.125000  1
  N  N25  1  0.125000  0.625000  0.125000  1
  N  N26  1  0.125000  0.125000  0.625000  1
  N  N27  1  0.125000  0.125000  0.125000  1
