# generated using pymatgen
data_Dy16Tm4Si15Ag
_symmetry_space_group_name_H-M   'P 1'
_cell_length_a   7.41843465
_cell_length_b   7.66390906
_cell_length_c   14.62078718
_cell_angle_alpha   89.81408699
_cell_angle_beta   89.39800400
_cell_angle_gamma   90.18179544
_symmetry_Int_Tables_number   1
_chemical_formula_structural   Dy16Tm4Si15Ag
_chemical_formula_sum   'Dy16 Tm4 Si15 Ag1'
_cell_volume   831.19875045
_cell_formula_units_Z   1
loop_
 _symmetry_equiv_pos_site_id
 _symmetry_equiv_pos_as_xyz
  1  'x, y, z'
loop_
 _atom_site_type_symbol
 _atom_site_label
 _atom_site_symmetry_multiplicity
 _atom_site_fract_x
 _atom_site_fract_y
 _atom_site_fract_z
 _atom_site_occupancy
  Dy  Dy0  1  0.975954  0.822780  0.101619  1
  Dy  Dy1  1  0.471728  0.683710  0.401110  1
  Dy  Dy2  1  0.520626  0.315442  0.898611  1
  Dy  Dy3  1  0.029801  0.182228  0.598559  1
  Dy  Dy4  1  0.029169  0.176545  0.899686  1
  Dy  Dy5  1  0.529533  0.316575  0.598388  1
  Dy  Dy6  1  0.474124  0.682693  0.100971  1
  Dy  Dy7  1  0.969523  0.816696  0.399854  1
  Dy  Dy8  1  0.675501  0.825094  0.876024  1
  Dy  Dy9  1  0.181694  0.679723  0.621726  1
  Dy  Dy10  1  0.820477  0.324753  0.124454  1
  Dy  Dy11  1  0.317665  0.177897  0.377048  1
  Dy  Dy12  1  0.322959  0.178609  0.123803  1
  Dy  Dy13  1  0.819241  0.321119  0.377186  1
  Dy  Dy14  1  0.181895  0.675062  0.877677  1
  Dy  Dy15  1  0.682036  0.821305  0.622353  1
  Tm  Tm16  1  0.648403  0.991290  0.250017  1
  Tm  Tm17  1  0.150380  0.511095  0.248369  1
  Tm  Tm18  1  0.848607  0.488608  0.749253  1
  Tm  Tm19  1  0.349643  0.011326  0.749832  1
  Si  Si20  1  0.767304  0.630486  0.251756  1
  Si  Si21  1  0.268016  0.871289  0.251335  1
  Si  Si22  1  0.732893  0.127074  0.748618  1
  Si  Si23  1  0.230080  0.371635  0.747447  1
  Si  Si24  1  0.020296  0.104341  0.250589  1
  Si  Si25  1  0.522056  0.396746  0.252220  1
  Si  Si26  1  0.476833  0.603634  0.748060  1
  Si  Si27  1  0.978691  0.893087  0.748471  1
  Si  Si28  1  0.354816  0.972204  0.540637  1
  Si  Si29  1  0.650946  0.028925  0.041660  1
  Si  Si30  1  0.146649  0.470809  0.459637  1
  Si  Si31  1  0.158069  0.471557  0.043196  1
  Si  Si32  1  0.645345  0.028272  0.458825  1
  Si  Si33  1  0.350754  0.969382  0.961057  1
  Si  Si34  1  0.854941  0.529162  0.539567  1
  Ag  Ag35  1  0.843348  0.528846  0.960385  1
