# generated using pymatgen
data_Nd2Re14(NiC)3
_symmetry_space_group_name_H-M   'P 1'
_cell_length_a   6.93110840
_cell_length_b   6.93110906
_cell_length_c   6.93110880
_cell_angle_alpha   83.05188941
_cell_angle_beta   83.05188999
_cell_angle_gamma   83.05188388
_symmetry_Int_Tables_number   1
_chemical_formula_structural   Nd2Re14(NiC)3
_chemical_formula_sum   'Nd2 Re14 Ni3 C3'
_cell_volume   326.18357054
_cell_formula_units_Z   1
loop_
 _symmetry_equiv_pos_site_id
 _symmetry_equiv_pos_as_xyz
  1  'x, y, z'
loop_
 _atom_site_type_symbol
 _atom_site_label
 _atom_site_symmetry_multiplicity
 _atom_site_fract_x
 _atom_site_fract_y
 _atom_site_fract_z
 _atom_site_occupancy
  Nd  Nd0  1  0.653915  0.653915  0.653915  1
  Nd  Nd1  1  0.346085  0.346085  0.346085  1
  Re  Re2  1  0.722986  0.277014  0.000000  1
  Re  Re3  1  0.000000  0.722986  0.277014  1
  Re  Re4  1  0.277014  0.000000  0.722986  1
  Re  Re5  1  0.000000  0.277014  0.722986  1
  Re  Re6  1  0.722986  0.000000  0.277014  1
  Re  Re7  1  0.277014  0.722986  0.000000  1
  Re  Re8  1  0.346529  0.856386  0.346529  1
  Re  Re9  1  0.346529  0.346529  0.856386  1
  Re  Re10  1  0.856386  0.346529  0.346529  1
  Re  Re11  1  0.653471  0.143614  0.653471  1
  Re  Re12  1  0.653471  0.653471  0.143614  1
  Re  Re13  1  0.143614  0.653471  0.653471  1
  Re  Re14  1  0.899422  0.899422  0.899422  1
  Re  Re15  1  0.100578  0.100578  0.100578  1
  Ni  Ni16  1  0.000000  0.000000  0.500000  1
  Ni  Ni17  1  0.500000  0.000000  0.000000  1
  Ni  Ni18  1  0.000000  0.500000  0.000000  1
  C  C19  1  0.500000  0.500000  0.000000  1
  C  C20  1  0.000000  0.500000  0.500000  1
  C  C21  1  0.500000  0.000000  0.500000  1
