# generated using pymatgen
data_SmDyCd3Ga5Ni2
_symmetry_space_group_name_H-M   'P 1'
_cell_length_a   4.18069484
_cell_length_b   6.66586100
_cell_length_c   8.33621701
_cell_angle_alpha   90.00000000
_cell_angle_beta   104.52220410
_cell_angle_gamma   90.00000000
_symmetry_Int_Tables_number   1
_chemical_formula_structural   SmDyCd3Ga5Ni2
_chemical_formula_sum   'Sm1 Dy1 Cd3 Ga5 Ni2'
_cell_volume   224.89083846
_cell_formula_units_Z   1
loop_
 _symmetry_equiv_pos_site_id
 _symmetry_equiv_pos_as_xyz
  1  'x, y, z'
loop_
 _atom_site_type_symbol
 _atom_site_label
 _atom_site_symmetry_multiplicity
 _atom_site_fract_x
 _atom_site_fract_y
 _atom_site_fract_z
 _atom_site_occupancy
  Sm  Sm0  1  0.127055  0.250000  0.254110  1
  Dy  Dy1  1  0.868744  0.750000  0.737487  1
  Cd  Cd2  1  0.496621  0.495018  0.993241  1
  Cd  Cd3  1  0.496621  0.004982  0.993241  1
  Cd  Cd4  1  0.070482  0.750000  0.140965  1
  Ga  Ga5  1  0.925845  0.250000  0.851689  1
  Ga  Ga6  1  0.690688  0.551304  0.381376  1
  Ga  Ga7  1  0.311971  0.446722  0.623942  1
  Ga  Ga8  1  0.690688  0.948696  0.381376  1
  Ga  Ga9  1  0.311971  0.053278  0.623942  1
  Ni  Ni10  1  0.230332  0.750000  0.460665  1
  Ni  Ni11  1  0.778982  0.250000  0.557965  1
