# generated using pymatgen
data_TmGaPRh3
_symmetry_space_group_name_H-M   'P 1'
_cell_length_a   6.63459535
_cell_length_b   6.63459476
_cell_length_c   6.63459500
_cell_angle_alpha   130.03205428
_cell_angle_beta   113.88867974
_cell_angle_gamma   87.23859128
_symmetry_Int_Tables_number   1
_chemical_formula_structural   TmGaPRh3
_chemical_formula_sum   'Tm2 Ga2 P2 Rh6'
_cell_volume   194.82780999
_cell_formula_units_Z   2
loop_
 _symmetry_equiv_pos_site_id
 _symmetry_equiv_pos_as_xyz
  1  'x, y, z'
loop_
 _atom_site_type_symbol
 _atom_site_label
 _atom_site_symmetry_multiplicity
 _atom_site_fract_x
 _atom_site_fract_y
 _atom_site_fract_z
 _atom_site_occupancy
  Tm  Tm0  1  0.750000  0.068707  0.318707  1
  Tm  Tm1  1  0.250000  0.966555  0.716555  1
  Ga  Ga2  1  0.605692  0.409496  0.803804  1
  Ga  Ga3  1  0.894308  0.698112  0.803804  1
  P  P4  1  0.441226  0.638157  0.196933  1
  P  P5  1  0.058774  0.255707  0.196933  1
  Rh  Rh6  1  0.216794  0.502572  0.716351  1
  Rh  Rh7  1  0.786221  0.502572  0.285777  1
  Rh  Rh8  1  0.452517  0.479503  0.432020  1
  Rh  Rh9  1  0.047483  0.479503  0.026988  1
  Rh  Rh10  1  0.713779  0.999557  0.716351  1
  Rh  Rh11  1  0.283206  0.999557  0.285777  1
