# generated using pymatgen
data_ErTm6Sn23Os6
_symmetry_space_group_name_H-M   'P 1'
_cell_length_a   9.82488800
_cell_length_b   9.82488885
_cell_length_c   10.08748000
_cell_angle_alpha   90.00000000
_cell_angle_beta   90.00000000
_cell_angle_gamma   120.00000388
_symmetry_Int_Tables_number   1
_chemical_formula_structural   ErTm6Sn23Os6
_chemical_formula_sum   'Er1 Tm6 Sn23 Os6'
_cell_volume   843.27369945
_cell_formula_units_Z   1
loop_
 _symmetry_equiv_pos_site_id
 _symmetry_equiv_pos_as_xyz
  1  'x, y, z'
loop_
 _atom_site_type_symbol
 _atom_site_label
 _atom_site_symmetry_multiplicity
 _atom_site_fract_x
 _atom_site_fract_y
 _atom_site_fract_z
 _atom_site_occupancy
  Er  Er0  1  0.000000  0.000000  0.000000  1
  Tm  Tm1  1  0.486944  0.513056  0.301000  1
  Tm  Tm2  1  0.513056  0.486944  0.699000  1
  Tm  Tm3  1  0.486944  0.973890  0.301000  1
  Tm  Tm4  1  0.513056  0.026110  0.699000  1
  Tm  Tm5  1  0.026110  0.513056  0.301000  1
  Tm  Tm6  1  0.973890  0.486944  0.699000  1
  Sn  Sn7  1  0.117970  0.882030  0.277239  1
  Sn  Sn8  1  0.882030  0.117970  0.722761  1
  Sn  Sn9  1  0.117970  0.235940  0.277239  1
  Sn  Sn10  1  0.882030  0.764060  0.722761  1
  Sn  Sn11  1  0.764060  0.882030  0.277239  1
  Sn  Sn12  1  0.235940  0.117970  0.722761  1
  Sn  Sn13  1  0.779105  0.220895  0.464312  1
  Sn  Sn14  1  0.220895  0.779105  0.535688  1
  Sn  Sn15  1  0.779105  0.558209  0.464312  1
  Sn  Sn16  1  0.220895  0.441791  0.535688  1
  Sn  Sn17  1  0.441791  0.220895  0.464312  1
  Sn  Sn18  1  0.558209  0.779105  0.535688  1
  Sn  Sn19  1  0.349916  0.000000  0.000000  1
  Sn  Sn20  1  0.650084  0.000000  0.000000  1
  Sn  Sn21  1  0.000000  0.349916  0.000000  1
  Sn  Sn22  1  0.000000  0.650084  0.000000  1
  Sn  Sn23  1  0.650084  0.650084  0.000000  1
  Sn  Sn24  1  0.349916  0.349916  0.000000  1
  Sn  Sn25  1  0.333333  0.666667  0.134265  1
  Sn  Sn26  1  0.666667  0.333333  0.865735  1
  Sn  Sn27  1  0.333333  0.666667  0.828121  1
  Sn  Sn28  1  0.666667  0.333333  0.171879  1
  Sn  Sn29  1  0.000000  0.000000  0.500000  1
  Os  Os30  1  0.829328  0.170672  0.202594  1
  Os  Os31  1  0.170672  0.829328  0.797406  1
  Os  Os32  1  0.829328  0.658659  0.202594  1
  Os  Os33  1  0.170672  0.341341  0.797406  1
  Os  Os34  1  0.341341  0.170672  0.202594  1
  Os  Os35  1  0.658659  0.829328  0.797406  1
