# generated using pymatgen
data_ZrFe(ClO)2
_symmetry_space_group_name_H-M   'P 1'
_cell_length_a   5.29059500
_cell_length_b   5.34452398
_cell_length_c   9.54296468
_cell_angle_alpha   75.53279704
_cell_angle_beta   75.72800265
_cell_angle_gamma   96.25545890
_symmetry_Int_Tables_number   1
_chemical_formula_structural   ZrFe(ClO)2
_chemical_formula_sum   'Zr2 Fe2 Cl4 O4'
_cell_volume   248.99682997
_cell_formula_units_Z   2
loop_
 _symmetry_equiv_pos_site_id
 _symmetry_equiv_pos_as_xyz
  1  'x, y, z'
loop_
 _atom_site_type_symbol
 _atom_site_label
 _atom_site_symmetry_multiplicity
 _atom_site_fract_x
 _atom_site_fract_y
 _atom_site_fract_z
 _atom_site_occupancy
  Zr  Zr0  1  0.195095  0.195081  0.109898  1
  Zr  Zr1  1  0.304908  0.804928  0.890087  1
  Fe  Fe2  1  0.689836  0.689852  0.120392  1
  Fe  Fe3  1  0.810160  0.310113  0.879633  1
  Cl  Cl4  1  0.344206  0.335574  0.315040  1
  Cl  Cl5  1  0.840863  0.849538  0.315007  1
  Cl  Cl6  1  0.155777  0.664433  0.684955  1
  Cl  Cl7  1  0.659164  0.150461  0.684986  1
  O  O8  1  0.037557  0.042462  0.954629  1
  O  O9  1  0.507809  0.502913  0.954614  1
  O  O10  1  0.462422  0.957546  0.045367  1
  O  O11  1  0.992203  0.497104  0.045390  1
