# generated using pymatgen
data_Ca2MnPt3
_symmetry_space_group_name_H-M   'P 1'
_cell_length_a   5.29676367
_cell_length_b   5.60083511
_cell_length_c   5.60083500
_cell_angle_alpha   60.00000657
_cell_angle_beta   58.08210893
_cell_angle_gamma   58.08210663
_symmetry_Int_Tables_number   1
_chemical_formula_structural   Ca2MnPt3
_chemical_formula_sum   'Ca2 Mn1 Pt3'
_cell_volume   113.96812182
_cell_formula_units_Z   1
loop_
 _symmetry_equiv_pos_site_id
 _symmetry_equiv_pos_as_xyz
  1  'x, y, z'
loop_
 _atom_site_type_symbol
 _atom_site_label
 _atom_site_symmetry_multiplicity
 _atom_site_fract_x
 _atom_site_fract_y
 _atom_site_fract_z
 _atom_site_occupancy
  Ca  Ca0  1  0.998223  0.000592  0.000592  1
  Ca  Ca1  1  0.251777  0.249408  0.249408  1
  Mn  Mn2  1  0.125000  0.625000  0.625000  1
  Pt  Pt3  1  0.625000  0.625000  0.625000  1
  Pt  Pt4  1  0.625000  0.625000  0.125000  1
  Pt  Pt5  1  0.625000  0.125000  0.625000  1
