# generated using pymatgen
data_YbDyHo2(SiPt2)4
_symmetry_space_group_name_H-M   'P 1'
_cell_length_a   5.52135000
_cell_length_b   6.96272100
_cell_length_c   7.31785624
_cell_angle_alpha   90.00000000
_cell_angle_beta   89.98724930
_cell_angle_gamma   90.00000000
_symmetry_Int_Tables_number   1
_chemical_formula_structural   YbDyHo2(SiPt2)4
_chemical_formula_sum   'Yb1 Dy1 Ho2 Si4 Pt8'
_cell_volume   281.32487482
_cell_formula_units_Z   1
loop_
 _symmetry_equiv_pos_site_id
 _symmetry_equiv_pos_as_xyz
  1  'x, y, z'
loop_
 _atom_site_type_symbol
 _atom_site_label
 _atom_site_symmetry_multiplicity
 _atom_site_fract_x
 _atom_site_fract_y
 _atom_site_fract_z
 _atom_site_occupancy
  Yb  Yb0  1  0.866139  0.250000  0.522951  1
  Dy  Dy1  1  0.133438  0.750000  0.475568  1
  Ho  Ho2  1  0.366255  0.750000  0.976170  1
  Ho  Ho3  1  0.634656  0.250000  0.024846  1
  Si  Si4  1  0.133269  0.250000  0.877108  1
  Si  Si5  1  0.367611  0.250000  0.380451  1
  Si  Si6  1  0.632593  0.750000  0.621256  1
  Si  Si7  1  0.866977  0.750000  0.121480  1
  Pt  Pt8  1  0.098906  0.051141  0.178948  1
  Pt  Pt9  1  0.098906  0.448859  0.178948  1
  Pt  Pt10  1  0.404350  0.050417  0.679312  1
  Pt  Pt11  1  0.404350  0.449583  0.679312  1
  Pt  Pt12  1  0.593256  0.550647  0.318587  1
  Pt  Pt13  1  0.593256  0.949353  0.318587  1
  Pt  Pt14  1  0.903019  0.551432  0.823238  1
  Pt  Pt15  1  0.903019  0.948568  0.823238  1
