# generated using pymatgen
data_Er3Tm2Pb3
_symmetry_space_group_name_H-M   'P 1'
_cell_length_a   8.97346700
_cell_length_b   8.97346481
_cell_length_c   6.53524200
_cell_angle_alpha   90.00000000
_cell_angle_beta   90.00000000
_cell_angle_gamma   119.99962311
_symmetry_Int_Tables_number   1
_chemical_formula_structural   Er3Tm2Pb3
_chemical_formula_sum   'Er6 Tm4 Pb6'
_cell_volume   455.73710510
_cell_formula_units_Z   2
loop_
 _symmetry_equiv_pos_site_id
 _symmetry_equiv_pos_as_xyz
  1  'x, y, z'
loop_
 _atom_site_type_symbol
 _atom_site_label
 _atom_site_symmetry_multiplicity
 _atom_site_fract_x
 _atom_site_fract_y
 _atom_site_fract_z
 _atom_site_occupancy
  Er  Er0  1  0.763284  0.763285  0.250016  1
  Er  Er1  1  0.236721  0.999991  0.249997  1
  Er  Er2  1  0.999991  0.236722  0.249997  1
  Er  Er3  1  0.236716  0.236716  0.750016  1
  Er  Er4  1  0.763278  0.000009  0.749998  1
  Er  Er5  1  0.000009  0.763279  0.749998  1
  Tm  Tm6  1  0.666661  0.333335  0.000003  1
  Tm  Tm7  1  0.333334  0.666661  0.000003  1
  Tm  Tm8  1  0.666666  0.333340  0.500004  1
  Tm  Tm9  1  0.333339  0.666666  0.500004  1
  Pb  Pb10  1  0.605181  0.999993  0.249992  1
  Pb  Pb11  1  0.999993  0.605181  0.249992  1
  Pb  Pb12  1  0.394833  0.394832  0.249998  1
  Pb  Pb13  1  0.394819  0.000007  0.749992  1
  Pb  Pb14  1  0.000007  0.394819  0.749992  1
  Pb  Pb15  1  0.605166  0.605167  0.749997  1
