# generated using pymatgen
data_Nd6InCoTc
_symmetry_space_group_name_H-M   'P 1'
_cell_length_a   8.69576517
_cell_length_b   8.69576458
_cell_length_c   8.69576585
_cell_angle_alpha   112.96114538
_cell_angle_beta   110.68252273
_cell_angle_gamma   104.87456671
_symmetry_Int_Tables_number   1
_chemical_formula_structural   Nd6InCoTc
_chemical_formula_sum   'Nd12 In2 Co2 Tc2'
_cell_volume   503.54095329
_cell_formula_units_Z   2
loop_
 _symmetry_equiv_pos_site_id
 _symmetry_equiv_pos_as_xyz
  1  'x, y, z'
loop_
 _atom_site_type_symbol
 _atom_site_label
 _atom_site_symmetry_multiplicity
 _atom_site_fract_x
 _atom_site_fract_y
 _atom_site_fract_z
 _atom_site_occupancy
  Nd  Nd0  1  0.439946  0.241562  0.198384  1
  Nd  Nd1  1  0.560054  0.758438  0.801616  1
  Nd  Nd2  1  0.043176  0.241562  0.801616  1
  Nd  Nd3  1  0.956824  0.758438  0.198384  1
  Nd  Nd4  1  0.184543  0.285150  0.469694  1
  Nd  Nd5  1  0.815457  0.714850  0.530306  1
  Nd  Nd6  1  0.184543  0.714850  0.899393  1
  Nd  Nd7  1  0.815457  0.285150  0.100607  1
  Nd  Nd8  1  0.325488  0.643164  0.317675  1
  Nd  Nd9  1  0.674512  0.356836  0.682325  1
  Nd  Nd10  1  0.325488  0.007814  0.682325  1
  Nd  Nd11  1  0.674512  0.992186  0.317675  1
  In  In12  1  0.500000  0.500000  0.000000  1
  In  In13  1  0.000000  0.000000  0.000000  1
  Co  Co14  1  0.106996  0.606996  0.500000  1
  Co  Co15  1  0.893004  0.393004  0.500000  1
  Tc  Tc16  1  0.322174  0.000000  0.322174  1
  Tc  Tc17  1  0.677826  0.000000  0.677826  1
