# generated using pymatgen
data_Sc3InNi3Sn2
_symmetry_space_group_name_H-M   'P 1'
_cell_length_a   7.30700900
_cell_length_b   7.32661838
_cell_length_c   3.45907400
_cell_angle_alpha   90.00000000
_cell_angle_beta   90.00000000
_cell_angle_gamma   119.91150745
_symmetry_Int_Tables_number   1
_chemical_formula_structural   Sc3InNi3Sn2
_chemical_formula_sum   'Sc3 In1 Ni3 Sn2'
_cell_volume   160.51671833
_cell_formula_units_Z   1
loop_
 _symmetry_equiv_pos_site_id
 _symmetry_equiv_pos_as_xyz
  1  'x, y, z'
loop_
 _atom_site_type_symbol
 _atom_site_label
 _atom_site_symmetry_multiplicity
 _atom_site_fract_x
 _atom_site_fract_y
 _atom_site_fract_z
 _atom_site_occupancy
  Sc  Sc0  1  0.596594  0.000000  0.000000  1
  Sc  Sc1  1  0.004163  0.604204  0.000000  1
  Sc  Sc2  1  0.399959  0.395796  0.000000  1
  In  In3  1  0.270374  0.000000  0.500000  1
  Ni  Ni4  1  0.991963  0.000000  0.000000  1
  Ni  Ni5  1  0.334345  0.662522  0.500000  1
  Ni  Ni6  1  0.671824  0.337478  0.500000  1
  Sn  Sn7  1  0.000838  0.270899  0.500000  1
  Sn  Sn8  1  0.729939  0.729101  0.500000  1
