# generated using pymatgen
data_YEr15In4IrPt3
_symmetry_space_group_name_H-M   'P 1'
_cell_length_a   9.62524554
_cell_length_b   9.63534546
_cell_length_c   9.61667000
_cell_angle_alpha   60.06410213
_cell_angle_beta   60.02947465
_cell_angle_gamma   60.11601715
_symmetry_Int_Tables_number   1
_chemical_formula_structural   YEr15In4IrPt3
_chemical_formula_sum   'Y1 Er15 In4 Ir1 Pt3'
_cell_volume   631.64839927
_cell_formula_units_Z   1
loop_
 _symmetry_equiv_pos_site_id
 _symmetry_equiv_pos_as_xyz
  1  'x, y, z'
loop_
 _atom_site_type_symbol
 _atom_site_label
 _atom_site_symmetry_multiplicity
 _atom_site_fract_x
 _atom_site_fract_y
 _atom_site_fract_z
 _atom_site_occupancy
  Y  Y0  1  0.062023  0.061712  0.438132  1
  Er  Er1  1  0.647666  0.056403  0.647966  1
  Er  Er2  1  0.190872  0.807328  0.191196  1
  Er  Er3  1  0.439183  0.061592  0.438061  1
  Er  Er4  1  0.186631  0.193053  0.810158  1
  Er  Er5  1  0.651549  0.647452  0.651932  1
  Er  Er6  1  0.051629  0.646245  0.651063  1
  Er  Er7  1  0.439183  0.061592  0.061164  1
  Er  Er8  1  0.651549  0.647452  0.049067  1
  Er  Er9  1  0.190872  0.807328  0.810603  1
  Er  Er10  1  0.809076  0.192948  0.811028  1
  Er  Er11  1  0.809076  0.192948  0.186948  1
  Er  Er12  1  0.809890  0.808854  0.190628  1
  Er  Er13  1  0.061679  0.437291  0.440546  1
  Er  Er14  1  0.439246  0.435703  0.062526  1
  Er  Er15  1  0.061679  0.437291  0.060485  1
  In  In16  1  0.749014  0.417869  0.416558  1
  In  In17  1  0.416164  0.416882  0.750446  1
  In  In18  1  0.417326  0.749071  0.416801  1
  In  In19  1  0.416164  0.416882  0.416509  1
  Ir  Ir20  1  0.858743  0.426371  0.857444  1
  Pt  Pt21  1  0.856894  0.858881  0.856441  1
  Pt  Pt22  1  0.427001  0.859969  0.856516  1
  Pt  Pt23  1  0.856894  0.858881  0.427786  1
