# generated using pymatgen
data_KNd6RhI12
_symmetry_space_group_name_H-M   'P 1'
_cell_length_a   10.06429912
_cell_length_b   10.06429731
_cell_length_c   10.06429737
_cell_angle_alpha   105.53761870
_cell_angle_beta   105.53760227
_cell_angle_gamma   105.53760775
_symmetry_Int_Tables_number   1
_chemical_formula_structural   KNd6RhI12
_chemical_formula_sum   'K1 Nd6 Rh1 I12'
_cell_volume   880.65398727
_cell_formula_units_Z   1
loop_
 _symmetry_equiv_pos_site_id
 _symmetry_equiv_pos_as_xyz
  1  'x, y, z'
loop_
 _atom_site_type_symbol
 _atom_site_label
 _atom_site_symmetry_multiplicity
 _atom_site_fract_x
 _atom_site_fract_y
 _atom_site_fract_z
 _atom_site_occupancy
  K  K0  1  0.500000  0.500000  0.500000  1
  Nd  Nd1  1  0.900783  0.976162  0.697237  1
  Nd  Nd2  1  0.976162  0.697237  0.900783  1
  Nd  Nd3  1  0.697237  0.900783  0.976162  1
  Nd  Nd4  1  0.099217  0.023838  0.302763  1
  Nd  Nd5  1  0.023838  0.302763  0.099217  1
  Nd  Nd6  1  0.302763  0.099217  0.023838  1
  Rh  Rh7  1  0.000000  0.000000  0.000000  1
  I  I8  1  0.560313  0.881065  0.644317  1
  I  I9  1  0.881065  0.644317  0.560313  1
  I  I10  1  0.644317  0.560313  0.881065  1
  I  I11  1  0.439687  0.118935  0.355683  1
  I  I12  1  0.118935  0.355683  0.439687  1
  I  I13  1  0.355683  0.439687  0.118935  1
  I  I14  1  0.678572  0.222974  0.074184  1
  I  I15  1  0.222974  0.074184  0.678572  1
  I  I16  1  0.074184  0.678572  0.222974  1
  I  I17  1  0.321428  0.777026  0.925816  1
  I  I18  1  0.777026  0.925816  0.321428  1
  I  I19  1  0.925816  0.321428  0.777026  1
