# generated using pymatgen
data_SrGaSn5Ir4
_symmetry_space_group_name_H-M   'P 1'
_cell_length_a   6.93941718
_cell_length_b   7.01607840
_cell_length_c   6.90724203
_cell_angle_alpha   119.34426968
_cell_angle_beta   118.96726363
_cell_angle_gamma   92.03324498
_symmetry_Int_Tables_number   1
_chemical_formula_structural   SrGaSn5Ir4
_chemical_formula_sum   'Sr1 Ga1 Sn5 Ir4'
_cell_volume   239.50081368
_cell_formula_units_Z   1
loop_
 _symmetry_equiv_pos_site_id
 _symmetry_equiv_pos_as_xyz
  1  'x, y, z'
loop_
 _atom_site_type_symbol
 _atom_site_label
 _atom_site_symmetry_multiplicity
 _atom_site_fract_x
 _atom_site_fract_y
 _atom_site_fract_z
 _atom_site_occupancy
  Sr  Sr0  1  0.994655  0.986455  0.000000  1
  Ga  Ga1  1  0.878301  0.528289  0.000000  1
  Sn  Sn2  1  0.526251  0.879981  0.000000  1
  Sn  Sn3  1  0.462481  0.468497  0.338796  1
  Sn  Sn4  1  0.505114  0.002147  0.502592  1
  Sn  Sn5  1  0.002523  0.499555  0.497408  1
  Sn  Sn6  1  0.123683  0.129699  0.661203  1
  Ir  Ir7  1  0.602508  0.244922  0.000000  1
  Ir  Ir8  1  0.232347  0.599135  0.000000  1
  Ir  Ir9  1  0.751689  0.746281  0.331243  1
  Ir  Ir10  1  0.420446  0.415038  0.668757  1
