# generated using pymatgen
data_K2Tb2EuHo3F20
_symmetry_space_group_name_H-M   'P 1'
_cell_length_a   8.26410690
_cell_length_b   8.26928422
_cell_length_c   8.29077277
_cell_angle_alpha   59.87266450
_cell_angle_beta   59.93457855
_cell_angle_gamma   60.19277437
_symmetry_Int_Tables_number   1
_chemical_formula_structural   K2Tb2EuHo3F20
_chemical_formula_sum   'K2 Tb2 Eu1 Ho3 F20'
_cell_volume   400.62336683
_cell_formula_units_Z   1
loop_
 _symmetry_equiv_pos_site_id
 _symmetry_equiv_pos_as_xyz
  1  'x, y, z'
loop_
 _atom_site_type_symbol
 _atom_site_label
 _atom_site_symmetry_multiplicity
 _atom_site_fract_x
 _atom_site_fract_y
 _atom_site_fract_z
 _atom_site_occupancy
  K  K0  1  0.250195  0.249805  0.250195  1
  K  K1  1  0.750195  0.749805  0.750195  1
  Tb  Tb2  1  0.759825  0.240175  0.240834  1
  Tb  Tb3  1  0.240834  0.759166  0.759825  1
  Eu  Eu4  1  0.239011  0.760989  0.239011  1
  Ho  Ho5  1  0.759850  0.240150  0.759850  1
  Ho  Ho6  1  0.240627  0.239993  0.760007  1
  Ho  Ho7  1  0.760007  0.759373  0.240627  1
  F  F8  1  0.828364  0.499994  0.500006  1
  F  F9  1  0.169257  0.494409  0.505591  1
  F  F10  1  0.505591  0.830743  0.169257  1
  F  F11  1  0.500006  0.171636  0.828364  1
  F  F12  1  0.502122  0.830160  0.497977  1
  F  F13  1  0.169840  0.497878  0.830259  1
  F  F14  1  0.497977  0.169741  0.502122  1
  F  F15  1  0.830259  0.502023  0.169840  1
  F  F16  1  0.502105  0.497895  0.830259  1
  F  F17  1  0.503538  0.496462  0.167249  1
  F  F18  1  0.167249  0.832751  0.503538  1
  F  F19  1  0.830259  0.169741  0.502105  1
  F  F20  1  0.111608  0.116124  0.108832  1
  F  F21  1  0.886699  0.889606  0.889306  1
  F  F22  1  0.110394  0.113301  0.665612  1
  F  F23  1  0.108832  0.663438  0.111608  1
  F  F24  1  0.883876  0.888392  0.336562  1
  F  F25  1  0.889306  0.334388  0.886699  1
  F  F26  1  0.665612  0.110694  0.110394  1
  F  F27  1  0.336562  0.891168  0.883876  1
