# generated using pymatgen
data_Dy3Ho(ScSb5)4
_symmetry_space_group_name_H-M   'P 1'
_cell_length_a   4.20042000
_cell_length_b   13.04316902
_cell_length_c   14.21519900
_cell_angle_alpha   78.84977601
_cell_angle_beta   90.00000000
_cell_angle_gamma   90.00000000
_symmetry_Int_Tables_number   1
_chemical_formula_structural   Dy3Ho(ScSb5)4
_chemical_formula_sum   'Dy3 Ho1 Sc4 Sb20'
_cell_volume   764.10400134
_cell_formula_units_Z   1
loop_
 _symmetry_equiv_pos_site_id
 _symmetry_equiv_pos_as_xyz
  1  'x, y, z'
loop_
 _atom_site_type_symbol
 _atom_site_label
 _atom_site_symmetry_multiplicity
 _atom_site_fract_x
 _atom_site_fract_y
 _atom_site_fract_z
 _atom_site_occupancy
  Dy  Dy0  1  0.750000  0.330717  0.423905  1
  Dy  Dy1  1  0.250000  0.953403  0.354554  1
  Dy  Dy2  1  0.750000  0.046393  0.645404  1
  Ho  Ho3  1  0.250000  0.669422  0.576338  1
  Sc  Sc4  1  0.250000  0.397089  0.772817  1
  Sc  Sc5  1  0.750000  0.603000  0.227344  1
  Sc  Sc6  1  0.250000  0.657298  0.858546  1
  Sc  Sc7  1  0.750000  0.342709  0.141197  1
  Sb  Sb8  1  0.250000  0.148224  0.780522  1
  Sb  Sb9  1  0.750000  0.851748  0.219395  1
  Sb  Sb10  1  0.250000  0.142568  0.482802  1
  Sb  Sb11  1  0.750000  0.856660  0.517228  1
  Sb  Sb12  1  0.250000  0.163120  0.160413  1
  Sb  Sb13  1  0.750000  0.836837  0.839548  1
  Sb  Sb14  1  0.250000  0.422114  0.975007  1
  Sb  Sb15  1  0.750000  0.577886  0.024982  1
  Sb  Sb16  1  0.750000  0.028577  0.913618  1
  Sb  Sb17  1  0.250000  0.971419  0.086399  1
  Sb  Sb18  1  0.750000  0.142856  0.315187  1
  Sb  Sb19  1  0.250000  0.856831  0.684689  1
  Sb  Sb20  1  0.750000  0.280176  0.936526  1
  Sb  Sb21  1  0.250000  0.719768  0.063518  1
  Sb  Sb22  1  0.750000  0.289614  0.659180  1
  Sb  Sb23  1  0.250000  0.710577  0.340990  1
  Sb  Sb24  1  0.750000  0.573727  0.740915  1
  Sb  Sb25  1  0.250000  0.426661  0.258522  1
  Sb  Sb26  1  0.750000  0.570581  0.444072  1
  Sb  Sb27  1  0.250000  0.430026  0.556378  1
