# generated using pymatgen
data_Cr2(MoN2)3
_symmetry_space_group_name_H-M   'P 1'
_cell_length_a   5.02195400
_cell_length_b   5.02195286
_cell_length_c   10.28695600
_cell_angle_alpha   90.00000000
_cell_angle_beta   90.00000000
_cell_angle_gamma   119.99999434
_symmetry_Int_Tables_number   1
_chemical_formula_structural   Cr2(MoN2)3
_chemical_formula_sum   'Cr4 Mo6 N12'
_cell_volume   224.67921648
_cell_formula_units_Z   2
loop_
 _symmetry_equiv_pos_site_id
 _symmetry_equiv_pos_as_xyz
  1  'x, y, z'
loop_
 _atom_site_type_symbol
 _atom_site_label
 _atom_site_symmetry_multiplicity
 _atom_site_fract_x
 _atom_site_fract_y
 _atom_site_fract_z
 _atom_site_occupancy
  Cr  Cr0  1  0.666667  0.333334  0.000000  1
  Cr  Cr1  1  0.333334  0.666668  0.000000  1
  Cr  Cr2  1  0.666667  0.333334  0.500000  1
  Cr  Cr3  1  0.333334  0.666668  0.500000  1
  Mo  Mo4  1  0.326147  0.000000  0.250000  1
  Mo  Mo5  1  0.000000  0.326146  0.250000  1
  Mo  Mo6  1  0.673852  0.673853  0.250000  1
  Mo  Mo7  1  0.673854  0.000000  0.750000  1
  Mo  Mo8  1  0.326147  0.326146  0.750000  1
  Mo  Mo9  1  0.000000  0.673853  0.750000  1
  N  N10  1  0.650423  0.000000  0.124200  1
  N  N11  1  0.349577  0.349577  0.124200  1
  N  N12  1  0.000000  0.650424  0.124200  1
  N  N13  1  0.650423  0.000000  0.375800  1
  N  N14  1  0.349577  0.349577  0.375800  1
  N  N15  1  0.000000  0.650424  0.375800  1
  N  N16  1  0.349577  0.000000  0.624200  1
  N  N17  1  0.000000  0.349577  0.624200  1
  N  N18  1  0.650424  0.650424  0.624200  1
  N  N19  1  0.349577  0.000000  0.875799  1
  N  N20  1  0.000000  0.349577  0.875799  1
  N  N21  1  0.650424  0.650424  0.875799  1
