# generated using pymatgen
data_Tb12TlCo4Pt
_symmetry_space_group_name_H-M   'P 1'
_cell_length_a   8.38290145
_cell_length_b   8.38290126
_cell_length_c   8.38290200
_cell_angle_alpha   111.18606400
_cell_angle_beta   110.25794696
_cell_angle_gamma   106.99900016
_symmetry_Int_Tables_number   1
_chemical_formula_structural   Tb12TlCo4Pt
_chemical_formula_sum   'Tb12 Tl1 Co4 Pt1'
_cell_volume   452.82230371
_cell_formula_units_Z   1
loop_
 _symmetry_equiv_pos_site_id
 _symmetry_equiv_pos_as_xyz
  1  'x, y, z'
loop_
 _atom_site_type_symbol
 _atom_site_label
 _atom_site_symmetry_multiplicity
 _atom_site_fract_x
 _atom_site_fract_y
 _atom_site_fract_z
 _atom_site_occupancy
  Tb  Tb0  1  0.814078  0.705632  0.519710  1
  Tb  Tb1  1  0.185922  0.294368  0.480290  1
  Tb  Tb2  1  0.185922  0.705632  0.891557  1
  Tb  Tb3  1  0.814078  0.294368  0.108443  1
  Tb  Tb4  1  0.684698  0.379001  0.694301  1
  Tb  Tb5  1  0.315302  0.620999  0.305699  1
  Tb  Tb6  1  0.684698  0.990397  0.305699  1
  Tb  Tb7  1  0.315302  0.009603  0.694301  1
  Tb  Tb8  1  0.590547  0.788266  0.802281  1
  Tb  Tb9  1  0.409453  0.211734  0.197719  1
  Tb  Tb10  1  0.985984  0.788266  0.197719  1
  Tb  Tb11  1  0.014016  0.211734  0.802281  1
  Tl  Tl12  1  0.500000  0.500000  0.000000  1
  Co  Co13  1  0.619569  0.000000  0.619569  1
  Co  Co14  1  0.380431  0.000000  0.380431  1
  Co  Co15  1  0.111634  0.611634  0.500000  1
  Co  Co16  1  0.888366  0.388366  0.500000  1
  Pt  Pt17  1  0.000000  0.000000  0.000000  1
