# generated using pymatgen
data_Er12InFe3Rh
_symmetry_space_group_name_H-M   'P 1'
_cell_length_a   8.10435011
_cell_length_b   8.10434965
_cell_length_c   8.10435000
_cell_angle_alpha   107.28376983
_cell_angle_beta   110.44302343
_cell_angle_gamma   110.70887632
_symmetry_Int_Tables_number   1
_chemical_formula_structural   Er12InFe3Rh
_chemical_formula_sum   'Er12 In1 Fe3 Rh1'
_cell_volume   409.31484056
_cell_formula_units_Z   1
loop_
 _symmetry_equiv_pos_site_id
 _symmetry_equiv_pos_as_xyz
  1  'x, y, z'
loop_
 _atom_site_type_symbol
 _atom_site_label
 _atom_site_symmetry_multiplicity
 _atom_site_fract_x
 _atom_site_fract_y
 _atom_site_fract_z
 _atom_site_occupancy
  Er  Er0  1  0.188730  0.406637  0.217907  1
  Er  Er1  1  0.811270  0.593363  0.782093  1
  Er  Er2  1  0.188730  0.970823  0.782093  1
  Er  Er3  1  0.914193  0.188496  0.725697  1
  Er  Er4  1  0.811270  0.029177  0.217907  1
  Er  Er5  1  0.085807  0.811504  0.274303  1
  Er  Er6  1  0.462798  0.188496  0.274303  1
  Er  Er7  1  0.537202  0.811504  0.725697  1
  Er  Er8  1  0.308207  0.309834  0.618043  1
  Er  Er9  1  0.691793  0.690166  0.381957  1
  Er  Er10  1  0.691793  0.309834  0.001627  1
  Er  Er11  1  0.308207  0.690166  0.998373  1
  In  In12  1  0.000000  0.500000  0.500000  1
  Fe  Fe13  1  0.380954  0.380954  0.000000  1
  Fe  Fe14  1  0.619046  0.619046  0.000000  1
  Fe  Fe15  1  0.000000  0.000000  0.000000  1
  Rh  Rh16  1  0.500000  0.000000  0.500000  1
