# generated using pymatgen
data_Ho2Tm2Si4OsRh3
_symmetry_space_group_name_H-M   'P 1'
_cell_length_a   4.27763400
_cell_length_b   6.86346434
_cell_length_c   7.30369013
_cell_angle_alpha   89.78304158
_cell_angle_beta   90.00000000
_cell_angle_gamma   90.00000000
_symmetry_Int_Tables_number   1
_chemical_formula_structural   Ho2Tm2Si4OsRh3
_chemical_formula_sum   'Ho2 Tm2 Si4 Os1 Rh3'
_cell_volume   214.43033829
_cell_formula_units_Z   1
loop_
 _symmetry_equiv_pos_site_id
 _symmetry_equiv_pos_as_xyz
  1  'x, y, z'
loop_
 _atom_site_type_symbol
 _atom_site_label
 _atom_site_symmetry_multiplicity
 _atom_site_fract_x
 _atom_site_fract_y
 _atom_site_fract_z
 _atom_site_occupancy
  Ho  Ho0  1  0.750000  0.506539  0.311410  1
  Ho  Ho1  1  0.750000  0.001745  0.185680  1
  Tm  Tm2  1  0.250000  0.495755  0.691219  1
  Tm  Tm3  1  0.250000  0.996408  0.811995  1
  Si  Si4  1  0.250000  0.296863  0.106826  1
  Si  Si5  1  0.750000  0.704097  0.883957  1
  Si  Si6  1  0.250000  0.797668  0.402340  1
  Si  Si7  1  0.750000  0.199516  0.607337  1
  Os  Os8  1  0.750000  0.844343  0.568147  1
  Rh  Rh9  1  0.250000  0.157207  0.434127  1
  Rh  Rh10  1  0.750000  0.343360  0.931125  1
  Rh  Rh11  1  0.250000  0.656500  0.065837  1
