# generated using pymatgen
data_Zr3Be2Al3Ni
_symmetry_space_group_name_H-M   'P 1'
_cell_length_a   6.45713600
_cell_length_b   6.45713703
_cell_length_c   3.92066900
_cell_angle_alpha   90.00000000
_cell_angle_beta   90.00000000
_cell_angle_gamma   119.99999473
_symmetry_Int_Tables_number   1
_chemical_formula_structural   Zr3Be2Al3Ni
_chemical_formula_sum   'Zr3 Be2 Al3 Ni1'
_cell_volume   141.56984938
_cell_formula_units_Z   1
loop_
 _symmetry_equiv_pos_site_id
 _symmetry_equiv_pos_as_xyz
  1  'x, y, z'
loop_
 _atom_site_type_symbol
 _atom_site_label
 _atom_site_symmetry_multiplicity
 _atom_site_fract_x
 _atom_site_fract_y
 _atom_site_fract_z
 _atom_site_occupancy
  Zr  Zr0  1  0.000000  0.413357  0.500000  1
  Zr  Zr1  1  0.586643  0.586643  0.500000  1
  Zr  Zr2  1  0.413357  0.000000  0.500000  1
  Be  Be3  1  0.333333  0.666667  0.000000  1
  Be  Be4  1  0.666667  0.333333  0.000000  1
  Al  Al5  1  0.000000  0.750545  0.000000  1
  Al  Al6  1  0.249455  0.249455  0.000000  1
  Al  Al7  1  0.750545  0.000000  0.000000  1
  Ni  Ni8  1  0.000000  0.000000  0.500000  1
