# generated using pymatgen
data_Na2CdPd3
_symmetry_space_group_name_H-M   'P 1'
_cell_length_a   5.51415096
_cell_length_b   5.51415102
_cell_length_c   5.51415026
_cell_angle_alpha   60.38476919
_cell_angle_beta   60.38476746
_cell_angle_gamma   60.38477101
_symmetry_Int_Tables_number   1
_chemical_formula_structural   Na2CdPd3
_chemical_formula_sum   'Na2 Cd1 Pd3'
_cell_volume   119.58698081
_cell_formula_units_Z   1
loop_
 _symmetry_equiv_pos_site_id
 _symmetry_equiv_pos_as_xyz
  1  'x, y, z'
loop_
 _atom_site_type_symbol
 _atom_site_label
 _atom_site_symmetry_multiplicity
 _atom_site_fract_x
 _atom_site_fract_y
 _atom_site_fract_z
 _atom_site_occupancy
  Na  Na0  1  0.879929  0.879929  0.879929  1
  Na  Na1  1  0.120071  0.120071  0.120071  1
  Cd  Cd2  1  0.500000  0.500000  0.500000  1
  Pd  Pd3  1  0.500000  0.500000  0.000000  1
  Pd  Pd4  1  0.000000  0.500000  0.500000  1
  Pd  Pd5  1  0.500000  0.000000  0.500000  1
