# generated using pymatgen
data_TbLu(Zn4Rh)2
_symmetry_space_group_name_H-M   'P 1'
_cell_length_a   5.07166300
_cell_length_b   5.07166275
_cell_length_c   8.36380800
_cell_angle_alpha   90.00000000
_cell_angle_beta   90.00000000
_cell_angle_gamma   119.99999509
_symmetry_Int_Tables_number   1
_chemical_formula_structural   TbLu(Zn4Rh)2
_chemical_formula_sum   'Tb1 Lu1 Zn8 Rh2'
_cell_volume   186.30969828
_cell_formula_units_Z   1
loop_
 _symmetry_equiv_pos_site_id
 _symmetry_equiv_pos_as_xyz
  1  'x, y, z'
loop_
 _atom_site_type_symbol
 _atom_site_label
 _atom_site_symmetry_multiplicity
 _atom_site_fract_x
 _atom_site_fract_y
 _atom_site_fract_z
 _atom_site_occupancy
  Tb  Tb0  1  0.666667  0.333333  0.437023  1
  Lu  Lu1  1  0.333333  0.666667  0.933247  1
  Zn  Zn2  1  0.000000  0.000000  0.999045  1
  Zn  Zn3  1  0.000000  0.000000  0.502412  1
  Zn  Zn4  1  0.169834  0.339667  0.242677  1
  Zn  Zn5  1  0.830031  0.169969  0.750776  1
  Zn  Zn6  1  0.339936  0.169969  0.750776  1
  Zn  Zn7  1  0.660333  0.830166  0.242677  1
  Zn  Zn8  1  0.169834  0.830166  0.242677  1
  Zn  Zn9  1  0.830031  0.660064  0.750776  1
  Rh  Rh10  1  0.333333  0.666667  0.580014  1
  Rh  Rh11  1  0.666667  0.333333  0.067901  1
