# generated using pymatgen
data_PuTiF7
_symmetry_space_group_name_H-M   'P 1'
_cell_length_a   5.65196600
_cell_length_b   6.00852806
_cell_length_c   8.20208600
_cell_angle_alpha   102.47940660
_cell_angle_beta   90.00000000
_cell_angle_gamma   90.00000000
_symmetry_Int_Tables_number   1
_chemical_formula_structural   PuTiF7
_chemical_formula_sum   'Pu2 Ti2 F14'
_cell_volume   271.96188476
_cell_formula_units_Z   2
loop_
 _symmetry_equiv_pos_site_id
 _symmetry_equiv_pos_as_xyz
  1  'x, y, z'
loop_
 _atom_site_type_symbol
 _atom_site_label
 _atom_site_symmetry_multiplicity
 _atom_site_fract_x
 _atom_site_fract_y
 _atom_site_fract_z
 _atom_site_occupancy
  Pu  Pu0  1  0.698757  0.671819  0.687160  1
  Pu  Pu1  1  0.198757  0.328181  0.312840  1
  Ti  Ti2  1  0.711113  0.800390  0.220064  1
  Ti  Ti3  1  0.211113  0.199610  0.779936  1
  F  F4  1  0.868585  0.420482  0.476313  1
  F  F5  1  0.368585  0.579518  0.523687  1
  F  F6  1  0.418338  0.950291  0.786674  1
  F  F7  1  0.918338  0.049709  0.213326  1
  F  F8  1  0.951816  0.993067  0.763495  1
  F  F9  1  0.451816  0.006933  0.236505  1
  F  F10  1  0.014331  0.455219  0.789889  1
  F  F11  1  0.514331  0.544781  0.210111  1
  F  F12  1  0.705735  0.746644  0.986266  1
  F  F13  1  0.205735  0.253356  0.013734  1
  F  F14  1  0.720902  0.862982  0.458068  1
  F  F15  1  0.220902  0.137018  0.541932  1
  F  F16  1  0.486783  0.382282  0.779519  1
  F  F17  1  0.986783  0.617718  0.220481  1
