# generated using pymatgen
data_Cr3(BiO4)2
_symmetry_space_group_name_H-M   'P 1'
_cell_length_a   6.42181799
_cell_length_b   6.42181824
_cell_length_c   5.18788534
_cell_angle_alpha   71.70921707
_cell_angle_beta   71.70921887
_cell_angle_gamma   57.17864854
_symmetry_Int_Tables_number   1
_chemical_formula_structural   Cr3(BiO4)2
_chemical_formula_sum   'Cr3 Bi2 O8'
_cell_volume   167.91715006
_cell_formula_units_Z   1
loop_
 _symmetry_equiv_pos_site_id
 _symmetry_equiv_pos_as_xyz
  1  'x, y, z'
loop_
 _atom_site_type_symbol
 _atom_site_label
 _atom_site_symmetry_multiplicity
 _atom_site_fract_x
 _atom_site_fract_y
 _atom_site_fract_z
 _atom_site_occupancy
  Cr  Cr0  1  0.000000  0.000000  0.500000  1
  Cr  Cr1  1  0.745523  0.254477  0.000000  1
  Cr  Cr2  1  0.254477  0.745523  0.000000  1
  Bi  Bi3  1  0.715038  0.715038  0.329937  1
  Bi  Bi4  1  0.284962  0.284962  0.670063  1
  O  O5  1  0.393946  0.393946  0.954671  1
  O  O6  1  0.606054  0.606054  0.045329  1
  O  O7  1  0.903131  0.903131  0.910451  1
  O  O8  1  0.096869  0.096869  0.089549  1
  O  O9  1  0.329326  0.888002  0.599767  1
  O  O10  1  0.888002  0.329326  0.599767  1
  O  O11  1  0.111998  0.670674  0.400233  1
  O  O12  1  0.670674  0.111998  0.400233  1
