# generated using pymatgen
data_Pr3Tm3Al24Os7Au
_symmetry_space_group_name_H-M   'P 1'
_cell_length_a   8.88487264
_cell_length_b   8.87148717
_cell_length_c   9.64008547
_cell_angle_alpha   90.09597597
_cell_angle_beta   89.86907173
_cell_angle_gamma   119.81022411
_symmetry_Int_Tables_number   1
_chemical_formula_structural   Pr3Tm3Al24Os7Au
_chemical_formula_sum   'Pr3 Tm3 Al24 Os7 Au1'
_cell_volume   659.30332591
_cell_formula_units_Z   1
loop_
 _symmetry_equiv_pos_site_id
 _symmetry_equiv_pos_as_xyz
  1  'x, y, z'
loop_
 _atom_site_type_symbol
 _atom_site_label
 _atom_site_symmetry_multiplicity
 _atom_site_fract_x
 _atom_site_fract_y
 _atom_site_fract_z
 _atom_site_occupancy
  Pr  Pr0  1  0.187680  0.381077  0.249765  1
  Pr  Pr1  1  0.811388  0.619774  0.750568  1
  Pr  Pr2  1  0.617591  0.810489  0.249508  1
  Tm  Tm3  1  0.391119  0.191416  0.748162  1
  Tm  Tm4  1  0.196338  0.802415  0.253279  1
  Tm  Tm5  1  0.802748  0.195956  0.746370  1
  Al  Al6  1  0.327452  0.672022  0.019316  1
  Al  Al7  1  0.670765  0.328234  0.975737  1
  Al  Al8  1  0.666493  0.332549  0.521160  1
  Al  Al9  1  0.332378  0.666772  0.482727  1
  Al  Al10  1  0.163036  0.325978  0.576892  1
  Al  Al11  1  0.838091  0.671772  0.425674  1
  Al  Al12  1  0.671545  0.837637  0.576075  1
  Al  Al13  1  0.851191  0.677082  0.080025  1
  Al  Al14  1  0.327181  0.161506  0.428408  1
  Al  Al15  1  0.149854  0.322018  0.918258  1
  Al  Al16  1  0.164997  0.837755  0.574357  1
  Al  Al17  1  0.322433  0.149497  0.076880  1
  Al  Al18  1  0.835073  0.164212  0.427614  1
  Al  Al19  1  0.676955  0.851587  0.918564  1
  Al  Al20  1  0.834687  0.164972  0.071578  1
  Al  Al21  1  0.165418  0.837973  0.925736  1
  Al  Al22  1  0.558832  0.122426  0.249186  1
  Al  Al23  1  0.439268  0.879200  0.750417  1
  Al  Al24  1  0.876277  0.439180  0.249566  1
  Al  Al25  1  0.122503  0.559618  0.750669  1
  Al  Al26  1  0.565017  0.432828  0.256725  1
  Al  Al27  1  0.433196  0.562728  0.744861  1
  Al  Al28  1  0.002960  0.995797  0.250563  1
  Al  Al29  1  0.005935  0.008403  0.749895  1
  Os  Os30  1  0.498679  0.001725  0.997684  1
  Os  Os31  1  0.999135  0.499790  0.999597  1
  Os  Os32  1  0.498601  0.001177  0.501985  1
  Os  Os33  1  0.999419  0.499437  0.500679  1
  Os  Os34  1  0.498830  0.497422  0.501937  1
  Os  Os35  1  0.999411  0.000083  0.999710  1
  Os  Os36  1  0.999084  0.999577  0.500753  1
  Au  Au37  1  0.498439  0.497917  0.999120  1
