# generated using pymatgen
data_Y5Ho2P12Pd17
_symmetry_space_group_name_H-M   'P 1'
_cell_length_a   12.30395210
_cell_length_b   12.30395034
_cell_length_c   13.57142703
_cell_angle_alpha   68.30160893
_cell_angle_beta   68.30160737
_cell_angle_gamma   18.72704426
_symmetry_Int_Tables_number   1
_chemical_formula_structural   Y5Ho2P12Pd17
_chemical_formula_sum   'Y5 Ho2 P12 Pd17'
_cell_volume   611.57064599
_cell_formula_units_Z   1
loop_
 _symmetry_equiv_pos_site_id
 _symmetry_equiv_pos_as_xyz
  1  'x, y, z'
loop_
 _atom_site_type_symbol
 _atom_site_label
 _atom_site_symmetry_multiplicity
 _atom_site_fract_x
 _atom_site_fract_y
 _atom_site_fract_z
 _atom_site_occupancy
  Y  Y0  1  0.365025  0.365025  0.001036  1
  Y  Y1  1  0.634982  0.634982  0.998917  1
  Y  Y2  1  0.234291  0.234291  0.312454  1
  Y  Y3  1  0.765679  0.765679  0.687579  1
  Y  Y4  1  0.418423  0.418423  0.260744  1
  Ho  Ho5  1  0.500007  0.500007  0.500019  1
  Ho  Ho6  1  0.581446  0.581446  0.739356  1
  P  P7  1  0.061960  0.061960  0.923219  1
  P  P8  1  0.938049  0.938049  0.076288  1
  P  P9  1  0.887155  0.887155  0.829032  1
  P  P10  1  0.112866  0.112866  0.170963  1
  P  P11  1  0.188609  0.188609  0.622194  1
  P  P12  1  0.811192  0.811192  0.377945  1
  P  P13  1  0.364790  0.364790  0.581312  1
  P  P14  1  0.635208  0.635208  0.418613  1
  P  P15  1  0.012758  0.012758  0.667749  1
  P  P16  1  0.987503  0.987503  0.332627  1
  P  P17  1  0.231262  0.231262  0.881917  1
  P  P18  1  0.768654  0.768654  0.118037  1
  Pd  Pd19  1  0.839355  0.839355  0.194008  1
  Pd  Pd20  1  0.160534  0.160534  0.805879  1
  Pd  Pd21  1  0.026481  0.026481  0.123952  1
  Pd  Pd22  1  0.973632  0.973632  0.875870  1
  Pd  Pd23  1  0.888472  0.888472  0.455975  1
  Pd  Pd24  1  0.111501  0.111501  0.544320  1
  Pd  Pd25  1  0.500041  0.500041  0.999864  1
  Pd  Pd26  1  0.545580  0.545580  0.255389  1
  Pd  Pd27  1  0.454568  0.454568  0.744624  1
  Pd  Pd28  1  0.295745  0.295745  0.490926  1
  Pd  Pd29  1  0.704204  0.704204  0.509139  1
  Pd  Pd30  1  0.667750  0.667750  0.225655  1
  Pd  Pd31  1  0.332257  0.332257  0.774341  1
  Pd  Pd32  1  0.910149  0.910149  0.640038  1
  Pd  Pd33  1  0.089866  0.089866  0.360036  1
  Pd  Pd34  1  0.215983  0.215983  0.068375  1
  Pd  Pd35  1  0.784026  0.784026  0.931608  1
