# generated using pymatgen
data_Hf2Zr8Zn2Bi5Pb
_symmetry_space_group_name_H-M   'P 1'
_cell_length_a   8.85277200
_cell_length_b   8.85077094
_cell_length_c   5.91827058
_cell_angle_alpha   89.95637784
_cell_angle_beta   90.00000000
_cell_angle_gamma   120.00747924
_symmetry_Int_Tables_number   1
_chemical_formula_structural   Hf2Zr8Zn2Bi5Pb
_chemical_formula_sum   'Hf2 Zr8 Zn2 Bi5 Pb1'
_cell_volume   401.56229280
_cell_formula_units_Z   1
loop_
 _symmetry_equiv_pos_site_id
 _symmetry_equiv_pos_as_xyz
  1  'x, y, z'
loop_
 _atom_site_type_symbol
 _atom_site_label
 _atom_site_symmetry_multiplicity
 _atom_site_fract_x
 _atom_site_fract_y
 _atom_site_fract_z
 _atom_site_occupancy
  Hf  Hf0  1  0.333559  0.667279  0.999281  1
  Hf  Hf1  1  0.666281  0.332721  0.500719  1
  Zr  Zr2  1  0.666663  0.333100  0.999562  1
  Zr  Zr3  1  0.333562  0.666900  0.500438  1
  Zr  Zr4  1  0.265069  0.000000  0.250000  1
  Zr  Zr5  1  0.265940  0.265532  0.750050  1
  Zr  Zr6  1  0.000408  0.734468  0.749950  1
  Zr  Zr7  1  0.000384  0.265957  0.249875  1
  Zr  Zr8  1  0.734428  0.734043  0.250125  1
  Zr  Zr9  1  0.733896  0.000000  0.750000  1
  Zn  Zn10  1  0.000290  0.000006  0.999559  1
  Zn  Zn11  1  0.000284  0.999994  0.500441  1
  Bi  Bi12  1  0.614160  0.000000  0.250000  1
  Bi  Bi13  1  0.614415  0.614455  0.749971  1
  Bi  Bi14  1  0.999960  0.385545  0.750029  1
  Bi  Bi15  1  0.000514  0.614869  0.250069  1
  Bi  Bi16  1  0.385645  0.385131  0.249931  1
  Pb  Pb17  1  0.384541  0.000000  0.750000  1
