# generated using pymatgen
data_Er2Sc2Si4OsRh3
_symmetry_space_group_name_H-M   'P 1'
_cell_length_a   4.17839400
_cell_length_b   6.72503324
_cell_length_c   7.28041635
_cell_angle_alpha   89.93296300
_cell_angle_beta   90.00000000
_cell_angle_gamma   90.00000000
_symmetry_Int_Tables_number   1
_chemical_formula_structural   Er2Sc2Si4OsRh3
_chemical_formula_sum   'Er2 Sc2 Si4 Os1 Rh3'
_cell_volume   204.57838364
_cell_formula_units_Z   1
loop_
 _symmetry_equiv_pos_site_id
 _symmetry_equiv_pos_as_xyz
  1  'x, y, z'
loop_
 _atom_site_type_symbol
 _atom_site_label
 _atom_site_symmetry_multiplicity
 _atom_site_fract_x
 _atom_site_fract_y
 _atom_site_fract_z
 _atom_site_occupancy
  Er  Er0  1  0.750000  0.497951  0.315259  1
  Er  Er1  1  0.750000  0.993417  0.182142  1
  Sc  Sc2  1  0.250000  0.501117  0.693904  1
  Sc  Sc3  1  0.250000  0.998636  0.806295  1
  Si  Si4  1  0.250000  0.290765  0.101775  1
  Si  Si5  1  0.750000  0.705194  0.877152  1
  Si  Si6  1  0.250000  0.793910  0.405080  1
  Si  Si7  1  0.750000  0.204647  0.617838  1
  Os  Os8  1  0.750000  0.847913  0.571259  1
  Rh  Rh9  1  0.250000  0.161251  0.441333  1
  Rh  Rh10  1  0.750000  0.347100  0.928793  1
  Rh  Rh11  1  0.250000  0.658098  0.059171  1
