# generated using pymatgen
data_Sr6LaTm13Sn16
_symmetry_space_group_name_H-M   'P 1'
_cell_length_a   7.98397607
_cell_length_b   8.40990799
_cell_length_c   15.85528300
_cell_angle_alpha   89.97162431
_cell_angle_beta   90.19036012
_cell_angle_gamma   89.26245317
_symmetry_Int_Tables_number   1
_chemical_formula_structural   Sr6LaTm13Sn16
_chemical_formula_sum   'Sr6 La1 Tm13 Sn16'
_cell_volume   1064.50088191
_cell_formula_units_Z   1
loop_
 _symmetry_equiv_pos_site_id
 _symmetry_equiv_pos_as_xyz
  1  'x, y, z'
loop_
 _atom_site_type_symbol
 _atom_site_label
 _atom_site_symmetry_multiplicity
 _atom_site_fract_x
 _atom_site_fract_y
 _atom_site_fract_z
 _atom_site_occupancy
  Sr  Sr0  1  0.997444  0.823787  0.902608  1
  Sr  Sr1  1  0.501939  0.323943  0.091648  1
  Sr  Sr2  1  0.999847  0.177403  0.411200  1
  Sr  Sr3  1  0.501076  0.322778  0.411309  1
  Sr  Sr4  1  0.001095  0.176235  0.091869  1
  Sr  Sr5  1  0.496672  0.675419  0.904883  1
  La  La6  1  0.998727  0.820526  0.595619  1
  Tm  Tm7  1  0.670116  0.161606  0.626351  1
  Tm  Tm8  1  0.172794  0.337943  0.871375  1
  Tm  Tm9  1  0.329897  0.838268  0.124420  1
  Tm  Tm10  1  0.831977  0.661644  0.376791  1
  Tm  Tm11  1  0.332162  0.836699  0.376194  1
  Tm  Tm12  1  0.830773  0.663129  0.124450  1
  Tm  Tm13  1  0.671680  0.161910  0.870487  1
  Tm  Tm14  1  0.170171  0.338887  0.624722  1
  Tm  Tm15  1  0.498252  0.685369  0.598438  1
  Tm  Tm16  1  0.833085  0.503072  0.748703  1
  Tm  Tm17  1  0.334391  0.996688  0.748428  1
  Tm  Tm18  1  0.168742  0.496647  0.250683  1
  Tm  Tm19  1  0.666825  0.002544  0.250522  1
  Sn  Sn20  1  0.666957  0.948204  0.463132  1
  Sn  Sn21  1  0.165391  0.542604  0.042239  1
  Sn  Sn22  1  0.334823  0.041650  0.954917  1
  Sn  Sn23  1  0.820201  0.468425  0.547389  1
  Sn  Sn24  1  0.329790  0.029804  0.546642  1
  Sn  Sn25  1  0.835533  0.457908  0.955049  1
  Sn  Sn26  1  0.665463  0.958135  0.041839  1
  Sn  Sn27  1  0.173579  0.549805  0.462555  1
  Sn  Sn28  1  0.473473  0.373174  0.746606  1
  Sn  Sn29  1  0.975366  0.132553  0.747255  1
  Sn  Sn30  1  0.531062  0.630005  0.250173  1
  Sn  Sn31  1  0.029407  0.865454  0.250971  1
  Sn  Sn32  1  0.692430  0.853175  0.743560  1
  Sn  Sn33  1  0.200912  0.641204  0.743634  1
  Sn  Sn34  1  0.299635  0.137387  0.251351  1
  Sn  Sn35  1  0.798315  0.366017  0.251990  1
