# generated using pymatgen
data_La2TeF4
_symmetry_space_group_name_H-M   'P 1'
_cell_length_a   8.55890377
_cell_length_b   8.55890392
_cell_length_c   8.55890479
_cell_angle_alpha   28.71988321
_cell_angle_beta   28.71988002
_cell_angle_gamma   28.71987801
_symmetry_Int_Tables_number   1
_chemical_formula_structural   La2TeF4
_chemical_formula_sum   'La2 Te1 F4'
_cell_volume   128.00023529
_cell_formula_units_Z   1
loop_
 _symmetry_equiv_pos_site_id
 _symmetry_equiv_pos_as_xyz
  1  'x, y, z'
loop_
 _atom_site_type_symbol
 _atom_site_label
 _atom_site_symmetry_multiplicity
 _atom_site_fract_x
 _atom_site_fract_y
 _atom_site_fract_z
 _atom_site_occupancy
  La  La0  1  0.760851  0.760851  0.760851  1
  La  La1  1  0.239149  0.239149  0.239149  1
  Te  Te2  1  0.000000  0.000000  0.000000  1
  F  F3  1  0.860027  0.860027  0.860027  1
  F  F4  1  0.139973  0.139973  0.139973  1
  F  F5  1  0.567318  0.567318  0.567318  1
  F  F6  1  0.432682  0.432682  0.432682  1
