# generated using pymatgen
data_Li6CePr5(WO6)4
_symmetry_space_group_name_H-M   'P 1'
_cell_length_a   10.98834000
_cell_length_b   10.98012892
_cell_length_c   10.98496501
_cell_angle_alpha   109.44791947
_cell_angle_beta   109.47825294
_cell_angle_gamma   109.48498835
_symmetry_Int_Tables_number   1
_chemical_formula_structural   Li6CePr5(WO6)4
_chemical_formula_sum   'Li12 Ce2 Pr10 W8 O48'
_cell_volume   1020.30421546
_cell_formula_units_Z   2
loop_
 _symmetry_equiv_pos_site_id
 _symmetry_equiv_pos_as_xyz
  1  'x, y, z'
loop_
 _atom_site_type_symbol
 _atom_site_label
 _atom_site_symmetry_multiplicity
 _atom_site_fract_x
 _atom_site_fract_y
 _atom_site_fract_z
 _atom_site_occupancy
  Li  Li0  1  0.249937  0.874870  0.125073  1
  Li  Li1  1  0.375135  0.250203  0.125070  1
  Li  Li2  1  0.124859  0.374976  0.249896  1
  Li  Li3  1  0.625036  0.874919  0.249893  1
  Li  Li4  1  0.124744  0.749924  0.374875  1
  Li  Li5  1  0.750132  0.624953  0.374879  1
  Li  Li6  1  0.249921  0.374909  0.624982  1
  Li  Li7  1  0.875064  0.250074  0.624986  1
  Li  Li8  1  0.375012  0.125101  0.750059  1
  Li  Li9  1  0.875047  0.624957  0.750057  1
  Li  Li10  1  0.625113  0.749860  0.875147  1
  Li  Li11  1  0.750031  0.125283  0.875144  1
  Ce  Ce12  1  0.749794  0.375051  0.124908  1
  Ce  Ce13  1  0.875113  0.749857  0.124909  1
  Pr  Pr14  1  0.374960  0.624960  0.249919  1
  Pr  Pr15  1  0.875092  0.125093  0.250184  1
  Pr  Pr16  1  0.249864  0.124903  0.375076  1
  Pr  Pr17  1  0.625212  0.250173  0.375076  1
  Pr  Pr18  1  0.750029  0.875060  0.624852  1
  Pr  Pr19  1  0.374823  0.749792  0.624851  1
  Pr  Pr20  1  0.124797  0.874796  0.749594  1
  Pr  Pr21  1  0.625137  0.375138  0.750275  1
  Pr  Pr22  1  0.249585  0.624634  0.874701  1
  Pr  Pr23  1  0.125116  0.250067  0.874702  1
  W  W24  1  0.000061  0.999789  0.999935  1
  W  W25  1  0.499873  0.000146  0.999935  1
  W  W26  1  0.500611  0.500464  0.000434  1
  W  W27  1  0.999821  0.499970  0.000434  1
  W  W28  1  0.999583  0.999327  0.499334  1
  W  W29  1  0.499957  0.000005  0.499997  1
  W  W30  1  0.999752  0.500009  0.499334  1
  W  W31  1  0.500041  0.499993  0.499998  1
  O  O32  1  0.828480  0.906884  0.023498  1
  O  O33  1  0.695018  0.116614  0.023499  1
  O  O34  1  0.194406  0.671825  0.079742  1
  O  O35  1  0.385335  0.407917  0.079743  1
  O  O36  1  0.477818  0.671825  0.092383  1
  O  O37  1  0.114565  0.420557  0.092381  1
  O  O38  1  0.523347  0.195032  0.114506  1
  O  O39  1  0.091158  0.919474  0.114506  1
  O  O40  1  0.975827  0.592714  0.171859  1
  O  O41  1  0.696033  0.579145  0.171858  1
  O  O42  1  0.079445  0.171438  0.194018  1
  O  O43  1  0.614573  0.022579  0.194018  1
  O  O44  1  0.827767  0.919327  0.304679  1
  O  O45  1  0.976912  0.385354  0.304679  1
  O  O46  1  0.407907  0.022613  0.328245  1
  O  O47  1  0.420338  0.305633  0.328246  1
  O  O48  1  0.078715  0.906886  0.383400  1
  O  O49  1  0.804684  0.476514  0.383399  1
  O  O50  1  0.328308  0.522536  0.407928  1
  O  O51  1  0.579619  0.885393  0.407929  1
  O  O52  1  0.592132  0.614698  0.420347  1
  O  O53  1  0.328215  0.805651  0.420348  1
  O  O54  1  0.091725  0.171295  0.476819  1
  O  O55  1  0.885093  0.305524  0.476818  1
  O  O56  1  0.114890  0.694736  0.522699  1
  O  O57  1  0.907808  0.827963  0.522698  1
  O  O58  1  0.408047  0.385335  0.579789  1
  O  O59  1  0.671742  0.194455  0.579790  1
  O  O60  1  0.671798  0.477416  0.592081  1
  O  O61  1  0.420284  0.114666  0.592080  1
  O  O62  1  0.194381  0.522722  0.614706  1
  O  O63  1  0.920326  0.091984  0.614707  1
  O  O64  1  0.579687  0.694293  0.671806  1
  O  O65  1  0.592119  0.977514  0.671806  1
  O  O66  1  0.171716  0.079393  0.694228  1
  O  O67  1  0.022512  0.614834  0.694229  1
  O  O68  1  0.385582  0.977667  0.805818  1
  O  O69  1  0.920236  0.828151  0.805818  1
  O  O70  1  0.306100  0.420576  0.828405  1
  O  O71  1  0.022304  0.407827  0.828404  1
  O  O72  1  0.477987  0.806278  0.885620  1
  O  O73  1  0.907632  0.079341  0.885620  1
  O  O74  1  0.523853  0.328772  0.909141  1
  O  O75  1  0.885289  0.580368  0.909142  1
  O  O76  1  0.616400  0.592856  0.921311  1
  O  O77  1  0.804911  0.328455  0.921311  1
  O  O78  1  0.306079  0.885850  0.977720  1
  O  O79  1  0.171641  0.091872  0.977721  1
