# generated using pymatgen
data_Ta2Nb3Pb3WO18
_symmetry_space_group_name_H-M   'P 1'
_cell_length_a   7.34762795
_cell_length_b   7.34321014
_cell_length_c   7.31879017
_cell_angle_alpha   94.33421419
_cell_angle_beta   94.55951935
_cell_angle_gamma   94.59682657
_symmetry_Int_Tables_number   1
_chemical_formula_structural   Ta2Nb3Pb3WO18
_chemical_formula_sum   'Ta2 Nb3 Pb3 W1 O18'
_cell_volume   391.03409493
_cell_formula_units_Z   1
loop_
 _symmetry_equiv_pos_site_id
 _symmetry_equiv_pos_as_xyz
  1  'x, y, z'
loop_
 _atom_site_type_symbol
 _atom_site_label
 _atom_site_symmetry_multiplicity
 _atom_site_fract_x
 _atom_site_fract_y
 _atom_site_fract_z
 _atom_site_occupancy
  Ta  Ta0  1  0.831235  0.188169  0.538314  1
  Ta  Ta1  1  0.193826  0.538973  0.832263  1
  Nb  Nb2  1  0.162697  0.820133  0.507013  1
  Nb  Nb3  1  0.820537  0.508151  0.155268  1
  Nb  Nb4  1  0.510420  0.155493  0.821249  1
  Pb  Pb5  1  0.987930  0.991501  0.990147  1
  Pb  Pb6  1  0.359381  0.360362  0.364581  1
  Pb  Pb7  1  0.731666  0.647498  0.646282  1
  W  W8  1  0.539771  0.826279  0.187652  1
  O  O9  1  0.389332  0.683036  0.976420  1
  O  O10  1  0.670336  0.964804  0.388312  1
  O  O11  1  0.959511  0.397846  0.678459  1
  O  O12  1  0.947856  0.674833  0.400907  1
  O  O13  1  0.676417  0.388386  0.956871  1
  O  O14  1  0.375629  0.965138  0.676077  1
  O  O15  1  0.764426  0.059727  0.765153  1
  O  O16  1  0.055027  0.767458  0.772585  1
  O  O17  1  0.770042  0.767900  0.063085  1
  O  O18  1  0.052754  0.512756  0.050370  1
  O  O19  1  0.506734  0.052100  0.050783  1
  O  O20  1  0.042811  0.052067  0.512751  1
  O  O21  1  0.585584  0.295286  0.580322  1
  O  O22  1  0.287688  0.586784  0.586567  1
  O  O23  1  0.582621  0.580961  0.296240  1
  O  O24  1  0.294352  0.843951  0.299241  1
  O  O25  1  0.838779  0.300583  0.303050  1
  O  O26  1  0.302434  0.309626  0.839835  1
