# generated using pymatgen
data_Sc6AlIn5(CuAu2)2
_symmetry_space_group_name_H-M   'P 1'
_cell_length_a   7.54693394
_cell_length_b   7.53416951
_cell_length_c   7.22335617
_cell_angle_alpha   90.00000358
_cell_angle_beta   89.88756866
_cell_angle_gamma   119.94407487
_symmetry_Int_Tables_number   1
_chemical_formula_structural   Sc6AlIn5(CuAu2)2
_chemical_formula_sum   'Sc6 Al1 In5 Cu2 Au4'
_cell_volume   355.89259300
_cell_formula_units_Z   1
loop_
 _symmetry_equiv_pos_site_id
 _symmetry_equiv_pos_as_xyz
  1  'x, y, z'
loop_
 _atom_site_type_symbol
 _atom_site_label
 _atom_site_symmetry_multiplicity
 _atom_site_fract_x
 _atom_site_fract_y
 _atom_site_fract_z
 _atom_site_occupancy
  Sc  Sc0  1  0.596446  0.986247  0.749759  1
  Sc  Sc1  1  0.015793  0.605931  0.748933  1
  Sc  Sc2  1  0.388790  0.403426  0.747608  1
  Sc  Sc3  1  0.984207  0.590138  0.251067  1
  Sc  Sc4  1  0.611210  0.014636  0.252392  1
  Sc  Sc5  1  0.403554  0.389801  0.250241  1
  Al  Al6  1  0.000000  0.257948  0.500000  1
  In  In7  1  0.747465  0.746209  0.999161  1
  In  In8  1  0.252535  0.998745  0.000839  1
  In  In9  1  0.000000  0.258574  0.000000  1
  In  In10  1  0.738568  0.739915  0.500035  1
  In  In11  1  0.261432  0.001348  0.499965  1
  Cu  Cu12  1  0.000806  0.012703  0.739152  1
  Cu  Cu13  1  0.999194  0.011897  0.260848  1
  Au  Au14  1  0.664586  0.332538  0.973855  1
  Au  Au15  1  0.678989  0.330491  0.523952  1
  Au  Au16  1  0.321011  0.651503  0.476048  1
  Au  Au17  1  0.335414  0.667953  0.026145  1
