# generated using pymatgen
data_Gd3Pt4
_symmetry_space_group_name_H-M   'P 1'
_cell_length_a   7.95889324
_cell_length_b   7.95889273
_cell_length_c   7.95889300
_cell_angle_alpha   114.48518276
_cell_angle_beta   114.48518110
_cell_angle_gamma   114.48519595
_symmetry_Int_Tables_number   1
_chemical_formula_structural   Gd3Pt4
_chemical_formula_sum   'Gd6 Pt8'
_cell_volume   294.95300735
_cell_formula_units_Z   2
loop_
 _symmetry_equiv_pos_site_id
 _symmetry_equiv_pos_as_xyz
  1  'x, y, z'
loop_
 _atom_site_type_symbol
 _atom_site_label
 _atom_site_symmetry_multiplicity
 _atom_site_fract_x
 _atom_site_fract_y
 _atom_site_fract_z
 _atom_site_occupancy
  Gd  Gd0  1  0.281313  0.405217  0.027448  1
  Gd  Gd1  1  0.405217  0.027448  0.281313  1
  Gd  Gd2  1  0.027448  0.281313  0.405217  1
  Gd  Gd3  1  0.718687  0.594783  0.972552  1
  Gd  Gd4  1  0.594783  0.972552  0.718687  1
  Gd  Gd5  1  0.972552  0.718687  0.594783  1
  Pt  Pt6  1  0.000000  0.000000  0.000000  1
  Pt  Pt7  1  0.500000  0.500000  0.500000  1
  Pt  Pt8  1  0.552324  0.223916  0.059419  1
  Pt  Pt9  1  0.223916  0.059419  0.552324  1
  Pt  Pt10  1  0.059419  0.552324  0.223916  1
  Pt  Pt11  1  0.447676  0.776084  0.940581  1
  Pt  Pt12  1  0.776084  0.940581  0.447676  1
  Pt  Pt13  1  0.940581  0.447676  0.776084  1
