# generated using pymatgen
data_Pr12Ga3SnI12
_symmetry_space_group_name_H-M   'P 1'
_cell_length_a   11.03785908
_cell_length_b   11.03785922
_cell_length_c   10.90894900
_cell_angle_alpha   109.23480941
_cell_angle_beta   109.23480967
_cell_angle_gamma   109.70659317
_symmetry_Int_Tables_number   1
_chemical_formula_structural   Pr12Ga3SnI12
_chemical_formula_sum   'Pr12 Ga3 Sn1 I12'
_cell_volume   1026.09960253
_cell_formula_units_Z   1
loop_
 _symmetry_equiv_pos_site_id
 _symmetry_equiv_pos_as_xyz
  1  'x, y, z'
loop_
 _atom_site_type_symbol
 _atom_site_label
 _atom_site_symmetry_multiplicity
 _atom_site_fract_x
 _atom_site_fract_y
 _atom_site_fract_z
 _atom_site_occupancy
  Pr  Pr0  1  0.029072  0.264537  0.014537  1
  Pr  Pr1  1  0.761644  0.018383  0.495379  1
  Pr  Pr2  1  0.256739  0.738356  0.233736  1
  Pr  Pr3  1  0.481617  0.738356  0.004621  1
  Pr  Pr4  1  0.761644  0.243261  0.266264  1
  Pr  Pr5  1  0.015331  0.484669  0.750000  1
  Pr  Pr6  1  0.235463  0.264537  0.750000  1
  Pr  Pr7  1  0.481617  0.243261  0.476998  1
  Pr  Pr8  1  0.469340  0.484669  0.234669  1
  Pr  Pr9  1  0.256739  0.018383  0.023002  1
  Pr  Pr10  1  0.015331  0.030660  0.265331  1
  Pr  Pr11  1  0.235463  0.470928  0.485463  1
  Ga  Ga12  1  0.250117  0.500234  0.000117  1
  Ga  Ga13  1  0.250117  0.249883  0.250000  1
  Ga  Ga14  1  0.999766  0.249883  0.499883  1
  Sn  Sn15  1  0.500000  0.000000  0.250000  1
  I  I16  1  0.756334  0.743666  0.250000  1
  I  I17  1  0.992882  0.507118  0.250000  1
  I  I18  1  0.249880  0.756226  0.743244  1
  I  I19  1  0.756334  0.512669  0.506334  1
  I  I20  1  0.506346  0.250120  0.993364  1
  I  I21  1  0.743774  0.993654  0.987017  1
  I  I22  1  0.992882  0.985763  0.742882  1
  I  I23  1  0.514237  0.507118  0.757118  1
  I  I24  1  0.249880  0.993654  0.506636  1
  I  I25  1  0.743774  0.250120  0.756756  1
  I  I26  1  0.506346  0.756226  0.512983  1
  I  I27  1  0.987331  0.743666  0.993666  1
