# generated using pymatgen
data_Ce6Mg4Cd19As
_symmetry_space_group_name_H-M   'P 1'
_cell_length_a   10.15791745
_cell_length_b   10.15791734
_cell_length_c   10.17013300
_cell_angle_alpha   60.03972630
_cell_angle_beta   60.03972665
_cell_angle_gamma   60.00000516
_symmetry_Int_Tables_number   1
_chemical_formula_structural   Ce6Mg4Cd19As
_chemical_formula_sum   'Ce6 Mg4 Cd19 As1'
_cell_volume   742.47446734
_cell_formula_units_Z   1
loop_
 _symmetry_equiv_pos_site_id
 _symmetry_equiv_pos_as_xyz
  1  'x, y, z'
loop_
 _atom_site_type_symbol
 _atom_site_label
 _atom_site_symmetry_multiplicity
 _atom_site_fract_x
 _atom_site_fract_y
 _atom_site_fract_z
 _atom_site_occupancy
  Ce  Ce0  1  0.791571  0.791571  0.206974  1
  Ce  Ce1  1  0.209885  0.791571  0.206974  1
  Ce  Ce2  1  0.791571  0.209885  0.206974  1
  Ce  Ce3  1  0.208429  0.208429  0.793026  1
  Ce  Ce4  1  0.790115  0.208429  0.793026  1
  Ce  Ce5  1  0.208429  0.790115  0.793026  1
  Mg  Mg6  1  0.000000  0.000000  0.500000  1
  Mg  Mg7  1  0.500000  0.000000  0.500000  1
  Mg  Mg8  1  0.000000  0.500000  0.500000  1
  Mg  Mg9  1  0.500000  0.500000  0.500000  1
  Cd  Cd10  1  0.831900  0.831900  0.504301  1
  Cd  Cd11  1  0.833032  0.504096  0.829842  1
  Cd  Cd12  1  0.504096  0.833032  0.829842  1
  Cd  Cd13  1  0.833032  0.833032  0.829842  1
  Cd  Cd14  1  0.168100  0.168100  0.495699  1
  Cd  Cd15  1  0.166968  0.495904  0.170158  1
  Cd  Cd16  1  0.495904  0.166968  0.170158  1
  Cd  Cd17  1  0.166968  0.166968  0.170158  1
  Cd  Cd18  1  0.620023  0.620023  0.139930  1
  Cd  Cd19  1  0.622219  0.138605  0.616956  1
  Cd  Cd20  1  0.138605  0.622219  0.616956  1
  Cd  Cd21  1  0.622219  0.622219  0.616956  1
  Cd  Cd22  1  0.379977  0.379977  0.860070  1
  Cd  Cd23  1  0.377781  0.861395  0.383044  1
  Cd  Cd24  1  0.861395  0.377781  0.383044  1
  Cd  Cd25  1  0.377781  0.377781  0.383044  1
  Cd  Cd26  1  0.500000  0.500000  0.000000  1
  Cd  Cd27  1  0.000000  0.500000  0.000000  1
  Cd  Cd28  1  0.500000  0.000000  0.000000  1
  As  As29  1  0.000000  0.000000  0.000000  1
