# generated using pymatgen
data_YbPu3(AlSi2)2
_symmetry_space_group_name_H-M   'P 1'
_cell_length_a   6.80626988
_cell_length_b   6.79655594
_cell_length_c   4.43170200
_cell_angle_alpha   90.00000000
_cell_angle_beta   90.00000000
_cell_angle_gamma   89.75213728
_symmetry_Int_Tables_number   1
_chemical_formula_structural   YbPu3(AlSi2)2
_chemical_formula_sum   'Yb1 Pu3 Al2 Si4'
_cell_volume   205.00504423
_cell_formula_units_Z   1
loop_
 _symmetry_equiv_pos_site_id
 _symmetry_equiv_pos_as_xyz
  1  'x, y, z'
loop_
 _atom_site_type_symbol
 _atom_site_label
 _atom_site_symmetry_multiplicity
 _atom_site_fract_x
 _atom_site_fract_y
 _atom_site_fract_z
 _atom_site_occupancy
  Yb  Yb0  1  0.675137  0.175144  0.500000  1
  Pu  Pu1  1  0.324387  0.824387  0.500000  1
  Pu  Pu2  1  0.827863  0.673392  0.500000  1
  Pu  Pu3  1  0.173418  0.327882  0.500000  1
  Al  Al4  1  0.500084  0.500961  0.000000  1
  Al  Al5  1  0.000965  0.000097  0.000000  1
  Si  Si6  1  0.623370  0.872751  0.000000  1
  Si  Si7  1  0.877223  0.377203  0.000000  1
  Si  Si8  1  0.372735  0.123382  0.000000  1
  Si  Si9  1  0.124819  0.624801  0.000000  1
