# generated using pymatgen
data_Tb12Dy4MgCo4Au3
_symmetry_space_group_name_H-M   'P 1'
_cell_length_a   9.39661047
_cell_length_b   9.45840173
_cell_length_c   9.45971000
_cell_angle_alpha   59.99543137
_cell_angle_beta   59.77762238
_cell_angle_gamma   59.74249819
_symmetry_Int_Tables_number   1
_chemical_formula_structural   Tb12Dy4MgCo4Au3
_chemical_formula_sum   'Tb12 Dy4 Mg1 Co4 Au3'
_cell_volume   592.31431418
_cell_formula_units_Z   1
loop_
 _symmetry_equiv_pos_site_id
 _symmetry_equiv_pos_as_xyz
  1  'x, y, z'
loop_
 _atom_site_type_symbol
 _atom_site_label
 _atom_site_symmetry_multiplicity
 _atom_site_fract_x
 _atom_site_fract_y
 _atom_site_fract_z
 _atom_site_occupancy
  Tb  Tb0  1  0.186170  0.186116  0.813857  1
  Tb  Tb1  1  0.807543  0.811226  0.190616  1
  Tb  Tb2  1  0.936980  0.562119  0.562206  1
  Tb  Tb3  1  0.562382  0.937105  0.937093  1
  Tb  Tb4  1  0.562383  0.937105  0.563419  1
  Tb  Tb5  1  0.936980  0.562119  0.938695  1
  Tb  Tb6  1  0.562487  0.563404  0.937055  1
  Tb  Tb7  1  0.937037  0.938678  0.562143  1
  Tb  Tb8  1  0.348229  0.346600  0.346623  1
  Tb  Tb9  1  0.348229  0.346600  0.958546  1
  Tb  Tb10  1  0.348301  0.958593  0.346552  1
  Tb  Tb11  1  0.933158  0.355746  0.355547  1
  Dy  Dy12  1  0.807418  0.190916  0.190667  1
  Dy  Dy13  1  0.186463  0.813708  0.813653  1
  Dy  Dy14  1  0.186463  0.813708  0.186176  1
  Dy  Dy15  1  0.807418  0.190916  0.811000  1
  Mg  Mg16  1  0.311835  0.562749  0.562707  1
  Co  Co17  1  0.134479  0.144035  0.144331  1
  Co  Co18  1  0.134479  0.144035  0.577155  1
  Co  Co19  1  0.134408  0.577215  0.144188  1
  Co  Co20  1  0.575321  0.141496  0.141592  1
  Au  Au21  1  0.583987  0.591702  0.591866  1
  Au  Au22  1  0.583987  0.591702  0.232445  1
  Au  Au23  1  0.583864  0.232403  0.591867  1
