# generated using pymatgen
data_Ca2HoSi5AsPd20
_symmetry_space_group_name_H-M   'P 1'
_cell_length_a   8.73270579
_cell_length_b   8.77177292
_cell_length_c   8.77177161
_cell_angle_alpha   59.70556656
_cell_angle_beta   60.14721578
_cell_angle_gamma   60.14721799
_symmetry_Int_Tables_number   1
_chemical_formula_structural   Ca2HoSi5AsPd20
_chemical_formula_sum   'Ca2 Ho1 Si5 As1 Pd20'
_cell_volume   475.10694131
_cell_formula_units_Z   1
loop_
 _symmetry_equiv_pos_site_id
 _symmetry_equiv_pos_as_xyz
  1  'x, y, z'
loop_
 _atom_site_type_symbol
 _atom_site_label
 _atom_site_symmetry_multiplicity
 _atom_site_fract_x
 _atom_site_fract_y
 _atom_site_fract_z
 _atom_site_occupancy
  Ca  Ca0  1  0.250238  0.249762  0.249762  1
  Ca  Ca1  1  0.750238  0.749762  0.749762  1
  Ho  Ho2  1  0.001295  0.998705  0.998705  1
  Si  Si3  1  0.268594  0.731406  0.731406  1
  Si  Si4  1  0.268396  0.731604  0.268048  1
  Si  Si5  1  0.731952  0.268048  0.731604  1
  Si  Si6  1  0.268396  0.268048  0.731604  1
  Si  Si7  1  0.731952  0.731604  0.268048  1
  As  As8  1  0.733041  0.266959  0.266959  1
  Pd  Pd9  1  0.378333  0.387076  0.387076  1
  Pd  Pd10  1  0.614413  0.615914  0.615914  1
  Pd  Pd11  1  0.384086  0.385587  0.846242  1
  Pd  Pd12  1  0.384086  0.846242  0.385587  1
  Pd  Pd13  1  0.612924  0.621667  0.152485  1
  Pd  Pd14  1  0.612924  0.152485  0.621667  1
  Pd  Pd15  1  0.847515  0.387076  0.387076  1
  Pd  Pd16  1  0.153758  0.615914  0.615914  1
  Pd  Pd17  1  0.344398  0.999596  0.999596  1
  Pd  Pd18  1  0.656409  0.999596  0.999596  1
  Pd  Pd19  1  0.000404  0.343591  0.655602  1
  Pd  Pd20  1  0.000404  0.655602  0.343591  1
  Pd  Pd21  1  0.006153  0.345754  0.993847  1
  Pd  Pd22  1  0.654246  0.993847  0.345754  1
  Pd  Pd23  1  0.999693  0.656968  0.000307  1
  Pd  Pd24  1  0.343032  0.000307  0.656968  1
  Pd  Pd25  1  0.006153  0.993847  0.345754  1
  Pd  Pd26  1  0.999693  0.000307  0.656968  1
  Pd  Pd27  1  0.654246  0.345754  0.993847  1
  Pd  Pd28  1  0.343032  0.656968  0.000307  1
