# generated using pymatgen
data_Pr19Sm(Ga2Sn)4
_symmetry_space_group_name_H-M   'P 1'
_cell_length_a   8.10717100
_cell_length_b   8.10717100
_cell_length_c   14.77747200
_cell_angle_alpha   90.00000000
_cell_angle_beta   90.00000000
_cell_angle_gamma   90.00000000
_symmetry_Int_Tables_number   1
_chemical_formula_structural   Pr19Sm(Ga2Sn)4
_chemical_formula_sum   'Pr19 Sm1 Ga8 Sn4'
_cell_volume   971.26739970
_cell_formula_units_Z   1
loop_
 _symmetry_equiv_pos_site_id
 _symmetry_equiv_pos_as_xyz
  1  'x, y, z'
loop_
 _atom_site_type_symbol
 _atom_site_label
 _atom_site_symmetry_multiplicity
 _atom_site_fract_x
 _atom_site_fract_y
 _atom_site_fract_z
 _atom_site_occupancy
  Pr  Pr0  1  0.822381  0.838808  0.607311  1
  Pr  Pr1  1  0.178112  0.839542  0.106819  1
  Pr  Pr2  1  0.160276  0.821918  0.393144  1
  Pr  Pr3  1  0.839724  0.178082  0.393144  1
  Pr  Pr4  1  0.678082  0.660276  0.393144  1
  Pr  Pr5  1  0.661192  0.322381  0.607311  1
  Pr  Pr6  1  0.338808  0.677619  0.607311  1
  Pr  Pr7  1  0.000000  0.500000  0.224801  1
  Pr  Pr8  1  0.660458  0.678112  0.106819  1
  Pr  Pr9  1  0.677882  0.339551  0.892550  1
  Pr  Pr10  1  0.839551  0.822118  0.892550  1
  Pr  Pr11  1  0.321918  0.339724  0.393144  1
  Pr  Pr12  1  0.177619  0.161192  0.607311  1
  Pr  Pr13  1  0.821888  0.160458  0.106819  1
  Pr  Pr14  1  0.322118  0.660449  0.892550  1
  Pr  Pr15  1  0.339542  0.321888  0.106819  1
  Pr  Pr16  1  0.500000  0.000000  0.274769  1
  Pr  Pr17  1  0.160449  0.177882  0.892550  1
  Pr  Pr18  1  0.500000  0.000000  0.774639  1
  Sm  Sm19  1  0.000000  0.500000  0.727223  1
  Ga  Ga20  1  0.622173  0.377885  0.250097  1
  Ga  Ga21  1  0.121381  0.874783  0.749370  1
  Ga  Ga22  1  0.374783  0.378619  0.749370  1
  Ga  Ga23  1  0.377827  0.622115  0.250097  1
  Ga  Ga24  1  0.877885  0.877827  0.250097  1
  Ga  Ga25  1  0.625217  0.621381  0.749370  1
  Ga  Ga26  1  0.878619  0.125217  0.749370  1
  Ga  Ga27  1  0.122115  0.122173  0.250097  1
  Sn  Sn28  1  0.000000  0.500000  0.505832  1
  Sn  Sn29  1  0.500000  0.000000  0.496531  1
  Sn  Sn30  1  0.500000  0.000000  0.996168  1
  Sn  Sn31  1  0.000000  0.500000  0.002876  1
