# generated using pymatgen
data_SrCuGePd3
_symmetry_space_group_name_H-M   'P 1'
_cell_length_a   5.71121800
_cell_length_b   5.71121761
_cell_length_c   3.97369000
_cell_angle_alpha   90.00000000
_cell_angle_beta   90.00000000
_cell_angle_gamma   119.99999068
_symmetry_Int_Tables_number   1
_chemical_formula_structural   SrCuGePd3
_chemical_formula_sum   'Sr1 Cu1 Ge1 Pd3'
_cell_volume   112.24890202
_cell_formula_units_Z   1
loop_
 _symmetry_equiv_pos_site_id
 _symmetry_equiv_pos_as_xyz
  1  'x, y, z'
loop_
 _atom_site_type_symbol
 _atom_site_label
 _atom_site_symmetry_multiplicity
 _atom_site_fract_x
 _atom_site_fract_y
 _atom_site_fract_z
 _atom_site_occupancy
  Sr  Sr0  1  0.000000  0.000000  0.000000  1
  Cu  Cu1  1  0.333333  0.666666  0.000000  1
  Ge  Ge2  1  0.666668  0.333334  0.000000  1
  Pd  Pd3  1  0.499993  0.999984  0.499999  1
  Pd  Pd4  1  0.000016  0.500009  0.499999  1
  Pd  Pd5  1  0.499992  0.500009  0.499999  1
