# generated using pymatgen
data_Sc6Al12V3MoOs7
_symmetry_space_group_name_H-M   'P 1'
_cell_length_a   8.76085497
_cell_length_b   8.76085525
_cell_length_c   8.75850584
_cell_angle_alpha   59.99112424
_cell_angle_beta   59.99112334
_cell_angle_gamma   60.00000091
_symmetry_Int_Tables_number   1
_chemical_formula_structural   Sc6Al12V3MoOs7
_chemical_formula_sum   'Sc6 Al12 V3 Mo1 Os7'
_cell_volume   475.28022508
_cell_formula_units_Z   1
loop_
 _symmetry_equiv_pos_site_id
 _symmetry_equiv_pos_as_xyz
  1  'x, y, z'
loop_
 _atom_site_type_symbol
 _atom_site_label
 _atom_site_symmetry_multiplicity
 _atom_site_fract_x
 _atom_site_fract_y
 _atom_site_fract_z
 _atom_site_occupancy
  Sc  Sc0  1  0.711634  0.711634  0.286132  1
  Sc  Sc1  1  0.290601  0.711634  0.286132  1
  Sc  Sc2  1  0.711634  0.290601  0.286132  1
  Sc  Sc3  1  0.286865  0.286865  0.712189  1
  Sc  Sc4  1  0.714082  0.286865  0.712189  1
  Sc  Sc5  1  0.286865  0.714082  0.712189  1
  Al  Al6  1  0.120418  0.120418  0.638747  1
  Al  Al7  1  0.121289  0.638963  0.118461  1
  Al  Al8  1  0.638963  0.121289  0.118461  1
  Al  Al9  1  0.121289  0.121289  0.118461  1
  Al  Al10  1  0.664258  0.664258  0.007226  1
  Al  Al11  1  0.661009  0.012745  0.665238  1
  Al  Al12  1  0.012745  0.661009  0.665238  1
  Al  Al13  1  0.661009  0.661009  0.665238  1
  Al  Al14  1  0.335536  0.335536  0.993390  1
  Al  Al15  1  0.335112  0.993652  0.336124  1
  Al  Al16  1  0.993652  0.335112  0.336124  1
  Al  Al17  1  0.335112  0.335112  0.336124  1
  V  V18  1  0.880293  0.360880  0.878534  1
  V  V19  1  0.360880  0.880293  0.878534  1
  V  V20  1  0.880293  0.880293  0.878534  1
  Mo  Mo21  1  0.879102  0.879102  0.362695  1
  Os  Os22  1  0.000444  0.000444  0.998668  1
  Os  Os23  1  0.996200  0.996200  0.505099  1
  Os  Os24  1  0.502502  0.996200  0.505099  1
  Os  Os25  1  0.996200  0.502502  0.505099  1
  Os  Os26  1  0.502893  0.502893  0.997983  1
  Os  Os27  1  0.996231  0.502893  0.997983  1
  Os  Os28  1  0.502893  0.996231  0.997983  1
