# generated using pymatgen
data_Er3Lu5Hg4
_symmetry_space_group_name_H-M   'P 1'
_cell_length_a   6.93536027
_cell_length_b   5.03495700
_cell_length_c   9.07850735
_cell_angle_alpha   90.00000000
_cell_angle_beta   90.03187188
_cell_angle_gamma   90.00000000
_symmetry_Int_Tables_number   1
_chemical_formula_structural   Er3Lu5Hg4
_chemical_formula_sum   'Er3 Lu5 Hg4'
_cell_volume   317.01453462
_cell_formula_units_Z   1
loop_
 _symmetry_equiv_pos_site_id
 _symmetry_equiv_pos_as_xyz
  1  'x, y, z'
loop_
 _atom_site_type_symbol
 _atom_site_label
 _atom_site_symmetry_multiplicity
 _atom_site_fract_x
 _atom_site_fract_y
 _atom_site_fract_z
 _atom_site_occupancy
  Er  Er0  1  0.483003  0.250000  0.693967  1
  Er  Er1  1  0.983953  0.250000  0.805525  1
  Er  Er2  1  0.669296  0.750000  0.926664  1
  Lu  Lu3  1  0.330516  0.250000  0.074762  1
  Lu  Lu4  1  0.016917  0.750000  0.194316  1
  Lu  Lu5  1  0.516621  0.750000  0.305924  1
  Lu  Lu6  1  0.831231  0.250000  0.425493  1
  Lu  Lu7  1  0.168803  0.750000  0.573379  1
  Hg  Hg8  1  0.762676  0.250000  0.103131  1
  Hg  Hg9  1  0.262525  0.250000  0.397583  1
  Hg  Hg10  1  0.737743  0.750000  0.601343  1
  Hg  Hg11  1  0.236713  0.750000  0.897912  1
