# generated using pymatgen
data_Li2La2Si2Ge
_symmetry_space_group_name_H-M   'P 1'
_cell_length_a   9.69006827
_cell_length_b   9.69006854
_cell_length_c   6.91223600
_cell_angle_alpha   90.00000000
_cell_angle_beta   90.00000000
_cell_angle_gamma   152.89319461
_symmetry_Int_Tables_number   1
_chemical_formula_structural   Li2La2Si2Ge
_chemical_formula_sum   'Li4 La4 Si4 Ge2'
_cell_volume   295.73602274
_cell_formula_units_Z   2
loop_
 _symmetry_equiv_pos_site_id
 _symmetry_equiv_pos_as_xyz
  1  'x, y, z'
loop_
 _atom_site_type_symbol
 _atom_site_label
 _atom_site_symmetry_multiplicity
 _atom_site_fract_x
 _atom_site_fract_y
 _atom_site_fract_z
 _atom_site_occupancy
  Li  Li0  1  0.812961  0.187039  0.439698  1
  Li  Li1  1  0.187039  0.812961  0.560302  1
  Li  Li2  1  0.812961  0.187039  0.060302  1
  Li  Li3  1  0.187039  0.812961  0.939698  1
  La  La4  1  0.551177  0.448823  0.750000  1
  La  La5  1  0.448823  0.551177  0.250000  1
  La  La6  1  0.342083  0.657917  0.750000  1
  La  La7  1  0.657917  0.342083  0.250000  1
  Si  Si8  1  0.942984  0.057016  0.923967  1
  Si  Si9  1  0.057016  0.942984  0.076033  1
  Si  Si10  1  0.942984  0.057016  0.576033  1
  Si  Si11  1  0.057016  0.942984  0.423967  1
  Ge  Ge12  1  0.720093  0.279907  0.750000  1
  Ge  Ge13  1  0.279907  0.720093  0.250000  1
