# generated using pymatgen
data_Yb3As4
_symmetry_space_group_name_H-M   'P 1'
_cell_length_a   7.68802659
_cell_length_b   7.68802668
_cell_length_c   8.94228578
_cell_angle_alpha   83.25485165
_cell_angle_beta   83.25485375
_cell_angle_gamma   136.62417676
_symmetry_Int_Tables_number   1
_chemical_formula_structural   Yb3As4
_chemical_formula_sum   'Yb6 As8'
_cell_volume   344.16992196
_cell_formula_units_Z   2
loop_
 _symmetry_equiv_pos_site_id
 _symmetry_equiv_pos_as_xyz
  1  'x, y, z'
loop_
 _atom_site_type_symbol
 _atom_site_label
 _atom_site_symmetry_multiplicity
 _atom_site_fract_x
 _atom_site_fract_y
 _atom_site_fract_z
 _atom_site_occupancy
  Yb  Yb0  1  0.881383  0.621353  0.166370  1
  Yb  Yb1  1  0.536838  0.296550  0.833951  1
  Yb  Yb2  1  0.296550  0.536838  0.333951  1
  Yb  Yb3  1  0.621353  0.881383  0.666370  1
  Yb  Yb4  1  0.006485  0.255231  0.001117  1
  Yb  Yb5  1  0.255231  0.006485  0.501117  1
  As  As6  1  0.605278  0.675622  0.989055  1
  As  As7  1  0.128808  0.713501  0.836306  1
  As  As8  1  0.675622  0.605278  0.489055  1
  As  As9  1  0.302789  0.215667  0.164511  1
  As  As10  1  0.713501  0.128808  0.336306  1
  As  As11  1  0.842707  0.414498  0.511158  1
  As  As12  1  0.414498  0.842707  0.011158  1
  As  As13  1  0.215667  0.302789  0.664511  1
