# generated using pymatgen
data_TbTh3(CdPd2)2
_symmetry_space_group_name_H-M   'P 1'
_cell_length_a   3.82225200
_cell_length_b   7.90115838
_cell_length_c   7.90115838
_cell_angle_alpha   90.54505884
_cell_angle_beta   90.00000000
_cell_angle_gamma   90.00000000
_symmetry_Int_Tables_number   1
_chemical_formula_structural   TbTh3(CdPd2)2
_chemical_formula_sum   'Tb1 Th3 Cd2 Pd4'
_cell_volume   238.60591171
_cell_formula_units_Z   1
loop_
 _symmetry_equiv_pos_site_id
 _symmetry_equiv_pos_as_xyz
  1  'x, y, z'
loop_
 _atom_site_type_symbol
 _atom_site_label
 _atom_site_symmetry_multiplicity
 _atom_site_fract_x
 _atom_site_fract_y
 _atom_site_fract_z
 _atom_site_occupancy
  Tb  Tb0  1  0.500000  0.674257  0.825743  1
  Th  Th1  1  0.500000  0.172347  0.675611  1
  Th  Th2  1  0.500000  0.824389  0.327653  1
  Th  Th3  1  0.500000  0.328901  0.171099  1
  Cd  Cd4  1  0.000000  0.995345  0.998084  1
  Cd  Cd5  1  0.000000  0.501916  0.504655  1
  Pd  Pd6  1  0.000000  0.627636  0.129422  1
  Pd  Pd7  1  0.000000  0.370578  0.872364  1
  Pd  Pd8  1  0.000000  0.875025  0.624975  1
  Pd  Pd9  1  0.000000  0.129607  0.370393  1
