# generated using pymatgen
data_VZnSbF12
_symmetry_space_group_name_H-M   'P 1'
_cell_length_a   5.45833543
_cell_length_b   11.10622690
_cell_length_c   5.47451400
_cell_angle_alpha   58.32932683
_cell_angle_beta   58.00247671
_cell_angle_gamma   58.72915767
_symmetry_Int_Tables_number   1
_chemical_formula_structural   VZnSbF12
_chemical_formula_sum   'V1 Zn1 Sb1 F12'
_cell_volume   225.80542796
_cell_formula_units_Z   1
loop_
 _symmetry_equiv_pos_site_id
 _symmetry_equiv_pos_as_xyz
  1  'x, y, z'
loop_
 _atom_site_type_symbol
 _atom_site_label
 _atom_site_symmetry_multiplicity
 _atom_site_fract_x
 _atom_site_fract_y
 _atom_site_fract_z
 _atom_site_occupancy
  V  V0  1  0.990328  0.494151  0.016320  1
  Zn  Zn1  1  0.505746  0.743108  0.502811  1
  Sb  Sb2  1  0.010745  0.005149  0.984021  1
  F  F3  1  0.374399  0.052061  0.771603  1
  F  F4  1  0.306591  0.579207  0.770637  1
  F  F5  1  0.121942  0.395871  0.322463  1
  F  F6  1  0.139374  0.874345  0.343686  1
  F  F7  1  0.213422  0.352244  0.857924  1
  F  F8  1  0.239573  0.824557  0.865909  1
  F  F9  1  0.891042  0.109509  0.639657  1
  F  F10  1  0.845251  0.622919  0.681976  1
  F  F11  1  0.661104  0.442874  0.225290  1
  F  F12  1  0.670956  0.924069  0.234374  1
  F  F13  1  0.768406  0.165868  0.133762  1
  F  F14  1  0.761121  0.664068  0.149568  1
