# generated using pymatgen
data_Nd6Er7Tm3(CdIr)4
_symmetry_space_group_name_H-M   'P 1'
_cell_length_a   9.69390053
_cell_length_b   9.70009089
_cell_length_c   9.69086166
_cell_angle_alpha   59.98923398
_cell_angle_beta   59.94727621
_cell_angle_gamma   59.95815110
_symmetry_Int_Tables_number   1
_chemical_formula_structural   Nd6Er7Tm3(CdIr)4
_chemical_formula_sum   'Nd6 Er7 Tm3 Cd4 Ir4'
_cell_volume   643.83662503
_cell_formula_units_Z   1
loop_
 _symmetry_equiv_pos_site_id
 _symmetry_equiv_pos_as_xyz
  1  'x, y, z'
loop_
 _atom_site_type_symbol
 _atom_site_label
 _atom_site_symmetry_multiplicity
 _atom_site_fract_x
 _atom_site_fract_y
 _atom_site_fract_z
 _atom_site_occupancy
  Nd  Nd0  1  0.940766  0.558780  0.558988  1
  Nd  Nd1  1  0.558988  0.941466  0.940766  1
  Nd  Nd2  1  0.559139  0.940861  0.559139  1
  Nd  Nd3  1  0.941336  0.558664  0.941336  1
  Nd  Nd4  1  0.559011  0.558768  0.940811  1
  Nd  Nd5  1  0.940811  0.941410  0.559011  1
  Er  Er6  1  0.347342  0.346236  0.347601  1
  Er  Er7  1  0.347986  0.346660  0.958451  1
  Er  Er8  1  0.347601  0.958823  0.347342  1
  Er  Er9  1  0.958451  0.346904  0.347986  1
  Er  Er10  1  0.813116  0.187256  0.185500  1
  Er  Er11  1  0.185500  0.814128  0.813116  1
  Er  Er12  1  0.186572  0.813428  0.186572  1
  Tm  Tm13  1  0.813454  0.186546  0.813454  1
  Tm  Tm14  1  0.185790  0.187731  0.812647  1
  Tm  Tm15  1  0.812647  0.813832  0.185790  1
  Cd  Cd16  1  0.579306  0.579089  0.579151  1
  Cd  Cd17  1  0.579388  0.579303  0.262166  1
  Cd  Cd18  1  0.579151  0.262452  0.579306  1
  Cd  Cd19  1  0.262166  0.579141  0.579388  1
  Ir  Ir20  1  0.141917  0.140821  0.141221  1
  Ir  Ir21  1  0.141524  0.141210  0.576818  1
  Ir  Ir22  1  0.141221  0.576041  0.141917  1
  Ir  Ir23  1  0.576818  0.140448  0.141524  1
