# generated using pymatgen
data_Nb3FeB2(OsRu)2
_symmetry_space_group_name_H-M   'P 1'
_cell_length_a   9.31388100
_cell_length_b   9.37665800
_cell_length_c   3.02610500
_cell_angle_alpha   90.00000000
_cell_angle_beta   90.00000000
_cell_angle_gamma   90.00000000
_symmetry_Int_Tables_number   1
_chemical_formula_structural   Nb3FeB2(OsRu)2
_chemical_formula_sum   'Nb6 Fe2 B4 Os4 Ru4'
_cell_volume   264.27906034
_cell_formula_units_Z   2
loop_
 _symmetry_equiv_pos_site_id
 _symmetry_equiv_pos_as_xyz
  1  'x, y, z'
loop_
 _atom_site_type_symbol
 _atom_site_label
 _atom_site_symmetry_multiplicity
 _atom_site_fract_x
 _atom_site_fract_y
 _atom_site_fract_z
 _atom_site_occupancy
  Nb  Nb0  1  0.827465  0.672727  0.000000  1
  Nb  Nb1  1  0.172535  0.327273  0.000000  1
  Nb  Nb2  1  0.327465  0.827273  0.000000  1
  Nb  Nb3  1  0.672535  0.172727  0.000000  1
  Nb  Nb4  1  0.500000  0.500000  0.000000  1
  Nb  Nb5  1  0.000000  0.000000  0.000000  1
  Fe  Fe6  1  0.500000  0.000000  0.500000  1
  Fe  Fe7  1  0.000000  0.500000  0.500000  1
  B  B8  1  0.611310  0.889251  0.000000  1
  B  B9  1  0.388690  0.110749  0.000000  1
  B  B10  1  0.111310  0.610749  0.000000  1
  B  B11  1  0.888690  0.389251  0.000000  1
  Os  Os12  1  0.568751  0.724690  0.500000  1
  Os  Os13  1  0.431249  0.275310  0.500000  1
  Os  Os14  1  0.068751  0.775310  0.500000  1
  Os  Os15  1  0.931249  0.224690  0.500000  1
  Ru  Ru16  1  0.277279  0.566912  0.500000  1
  Ru  Ru17  1  0.722721  0.433088  0.500000  1
  Ru  Ru18  1  0.222721  0.066912  0.500000  1
  Ru  Ru19  1  0.777279  0.933088  0.500000  1
