# generated using pymatgen
data_Y6Ho(ErSb2)3
_symmetry_space_group_name_H-M   'P 1'
_cell_length_a   6.27850500
_cell_length_b   8.99257025
_cell_length_c   8.99384215
_cell_angle_alpha   119.99532795
_cell_angle_beta   90.00052578
_cell_angle_gamma   89.99923248
_symmetry_Int_Tables_number   1
_chemical_formula_structural   Y6Ho(ErSb2)3
_chemical_formula_sum   'Y6 Ho1 Er3 Sb6'
_cell_volume   439.78095776
_cell_formula_units_Z   1
loop_
 _symmetry_equiv_pos_site_id
 _symmetry_equiv_pos_as_xyz
  1  'x, y, z'
loop_
 _atom_site_type_symbol
 _atom_site_label
 _atom_site_symmetry_multiplicity
 _atom_site_fract_x
 _atom_site_fract_y
 _atom_site_fract_z
 _atom_site_occupancy
  Y  Y0  1  0.749946  0.247547  0.000070  1
  Y  Y1  1  0.749943  0.752573  0.752518  1
  Y  Y2  1  0.749971  0.999968  0.247443  1
  Y  Y3  1  0.250036  0.752497  0.000032  1
  Y  Y4  1  0.250045  0.247491  0.247445  1
  Y  Y5  1  0.250050  0.999940  0.752503  1
  Ho  Ho6  1  0.000004  0.333332  0.666662  1
  Er  Er7  1  0.500005  0.333330  0.666661  1
  Er  Er8  1  0.499992  0.666664  0.333336  1
  Er  Er9  1  0.000007  0.666664  0.333347  1
  Sb  Sb10  1  0.749619  0.610880  0.000499  1
  Sb  Sb11  1  0.749624  0.389693  0.389199  1
  Sb  Sb12  1  0.749622  0.999490  0.610293  1
  Sb  Sb13  1  0.250376  0.389621  0.000500  1
  Sb  Sb14  1  0.250378  0.610802  0.610294  1
  Sb  Sb15  1  0.250384  0.999507  0.389196  1
