# generated using pymatgen
data_Nd4Dy3Ho(ReB6)4
_symmetry_space_group_name_H-M   'P 1'
_cell_length_a   3.73103200
_cell_length_b   9.25063900
_cell_length_c   11.70790401
_cell_angle_alpha   90.00339521
_cell_angle_beta   90.00000000
_cell_angle_gamma   90.00000000
_symmetry_Int_Tables_number   1
_chemical_formula_structural   Nd4Dy3Ho(ReB6)4
_chemical_formula_sum   'Nd4 Dy3 Ho1 Re4 B24'
_cell_volume   404.09163422
_cell_formula_units_Z   1
loop_
 _symmetry_equiv_pos_site_id
 _symmetry_equiv_pos_as_xyz
  1  'x, y, z'
loop_
 _atom_site_type_symbol
 _atom_site_label
 _atom_site_symmetry_multiplicity
 _atom_site_fract_x
 _atom_site_fract_y
 _atom_site_fract_z
 _atom_site_occupancy
  Nd  Nd0  1  0.000000  0.322973  0.414193  1
  Nd  Nd1  1  0.000000  0.677003  0.585882  1
  Nd  Nd2  1  0.000000  0.822907  0.085786  1
  Nd  Nd3  1  0.000000  0.177078  0.914169  1
  Dy  Dy4  1  0.000000  0.942926  0.369343  1
  Dy  Dy5  1  0.000000  0.057072  0.630685  1
  Dy  Dy6  1  0.000000  0.442978  0.130516  1
  Ho  Ho7  1  0.000000  0.557105  0.869249  1
  Re  Re8  1  0.000000  0.639330  0.319505  1
  Re  Re9  1  0.000000  0.360835  0.680639  1
  Re  Re10  1  0.000000  0.139366  0.180444  1
  Re  Re11  1  0.000000  0.860404  0.819560  1
  B  B12  1  0.500000  0.555067  0.430582  1
  B  B13  1  0.500000  0.444935  0.569473  1
  B  B14  1  0.500000  0.055058  0.069414  1
  B  B15  1  0.500000  0.944877  0.930559  1
  B  B16  1  0.500000  0.749627  0.416039  1
  B  B17  1  0.500000  0.250401  0.583989  1
  B  B18  1  0.500000  0.249622  0.083968  1
  B  B19  1  0.500000  0.750064  0.916053  1
  B  B20  1  0.500000  0.791222  0.266254  1
  B  B21  1  0.500000  0.208852  0.733758  1
  B  B22  1  0.500000  0.291237  0.233742  1
  B  B23  1  0.500000  0.708520  0.766318  1
  B  B24  1  0.500000  0.629928  0.186712  1
  B  B25  1  0.500000  0.370290  0.813444  1
  B  B26  1  0.500000  0.129930  0.313288  1
  B  B27  1  0.500000  0.870021  0.686758  1
  B  B28  1  0.500000  0.984244  0.212954  1
  B  B29  1  0.500000  0.015723  0.787061  1
  B  B30  1  0.500000  0.484236  0.287039  1
  B  B31  1  0.500000  0.515919  0.713127  1
  B  B32  1  0.500000  0.596555  0.026464  1
  B  B33  1  0.500000  0.403693  0.973023  1
  B  B34  1  0.500000  0.096581  0.473252  1
  B  B35  1  0.500000  0.903422  0.526756  1
