# generated using pymatgen
data_Li3Ca4AlAu4
_symmetry_space_group_name_H-M   'P 1'
_cell_length_a   4.39209200
_cell_length_b   7.43980035
_cell_length_c   8.26437769
_cell_angle_alpha   89.21322898
_cell_angle_beta   90.00000000
_cell_angle_gamma   90.00000000
_symmetry_Int_Tables_number   1
_chemical_formula_structural   Li3Ca4AlAu4
_chemical_formula_sum   'Li3 Ca4 Al1 Au4'
_cell_volume   270.02372230
_cell_formula_units_Z   1
loop_
 _symmetry_equiv_pos_site_id
 _symmetry_equiv_pos_as_xyz
  1  'x, y, z'
loop_
 _atom_site_type_symbol
 _atom_site_label
 _atom_site_symmetry_multiplicity
 _atom_site_fract_x
 _atom_site_fract_y
 _atom_site_fract_z
 _atom_site_occupancy
  Li  Li0  1  0.750000  0.856534  0.069529  1
  Li  Li1  1  0.250000  0.151408  0.928680  1
  Li  Li2  1  0.250000  0.646412  0.569443  1
  Ca  Ca3  1  0.250000  0.015904  0.313771  1
  Ca  Ca4  1  0.250000  0.520706  0.188054  1
  Ca  Ca5  1  0.750000  0.982887  0.683347  1
  Ca  Ca6  1  0.750000  0.478805  0.812411  1
  Al  Al7  1  0.750000  0.348614  0.435869  1
  Au  Au8  1  0.250000  0.776612  0.888001  1
  Au  Au9  1  0.750000  0.229564  0.122947  1
  Au  Au10  1  0.750000  0.711557  0.392888  1
  Au  Au11  1  0.250000  0.280995  0.595060  1
