# generated using pymatgen
data_La3(CdBi3)2
_symmetry_space_group_name_H-M   'P 1'
_cell_length_a   4.52032300
_cell_length_b   11.12451500
_cell_length_c   14.10743600
_cell_angle_alpha   90.00000000
_cell_angle_beta   90.00000000
_cell_angle_gamma   90.00000000
_symmetry_Int_Tables_number   1
_chemical_formula_structural   La3(CdBi3)2
_chemical_formula_sum   'La6 Cd4 Bi12'
_cell_volume   709.41218404
_cell_formula_units_Z   2
loop_
 _symmetry_equiv_pos_site_id
 _symmetry_equiv_pos_as_xyz
  1  'x, y, z'
loop_
 _atom_site_type_symbol
 _atom_site_label
 _atom_site_symmetry_multiplicity
 _atom_site_fract_x
 _atom_site_fract_y
 _atom_site_fract_z
 _atom_site_occupancy
  La  La0  1  0.750000  0.258121  0.750000  1
  La  La1  1  0.750000  0.266782  0.412624  1
  La  La2  1  0.250000  0.733218  0.912624  1
  La  La3  1  0.250000  0.733218  0.587376  1
  La  La4  1  0.250000  0.741879  0.250000  1
  La  La5  1  0.750000  0.266782  0.087376  1
  Cd  Cd6  1  0.250000  0.002039  0.093818  1
  Cd  Cd7  1  0.250000  0.002039  0.406182  1
  Cd  Cd8  1  0.750000  0.997961  0.593818  1
  Cd  Cd9  1  0.750000  0.997961  0.906182  1
  Bi  Bi10  1  0.750000  0.503410  0.250000  1
  Bi  Bi11  1  0.750000  0.493361  0.916766  1
  Bi  Bi12  1  0.750000  0.817388  0.750000  1
  Bi  Bi13  1  0.750000  0.819886  0.418836  1
  Bi  Bi14  1  0.250000  0.180114  0.918836  1
  Bi  Bi15  1  0.250000  0.180114  0.581164  1
  Bi  Bi16  1  0.250000  0.182612  0.250000  1
  Bi  Bi17  1  0.250000  0.506639  0.083234  1
  Bi  Bi18  1  0.250000  0.496590  0.750000  1
  Bi  Bi19  1  0.250000  0.506639  0.416766  1
  Bi  Bi20  1  0.750000  0.493361  0.583234  1
  Bi  Bi21  1  0.750000  0.819886  0.081164  1
