# generated using pymatgen
data_Ta3Nb(NiP)4
_symmetry_space_group_name_H-M   'P 1'
_cell_length_a   3.59569300
_cell_length_b   6.11242575
_cell_length_c   7.11068186
_cell_angle_alpha   89.94337694
_cell_angle_beta   90.00000000
_cell_angle_gamma   90.00000000
_symmetry_Int_Tables_number   1
_chemical_formula_structural   Ta3Nb(NiP)4
_chemical_formula_sum   'Ta3 Nb1 Ni4 P4'
_cell_volume   156.28138005
_cell_formula_units_Z   1
loop_
 _symmetry_equiv_pos_site_id
 _symmetry_equiv_pos_as_xyz
  1  'x, y, z'
loop_
 _atom_site_type_symbol
 _atom_site_label
 _atom_site_symmetry_multiplicity
 _atom_site_fract_x
 _atom_site_fract_y
 _atom_site_fract_z
 _atom_site_occupancy
  Ta  Ta0  1  0.250000  0.521857  0.666212  1
  Ta  Ta1  1  0.750000  0.977538  0.166899  1
  Ta  Ta2  1  0.750000  0.478039  0.333523  1
  Nb  Nb3  1  0.250000  0.021655  0.833852  1
  Ni  Ni4  1  0.250000  0.150353  0.431531  1
  Ni  Ni5  1  0.250000  0.648909  0.068292  1
  Ni  Ni6  1  0.750000  0.849415  0.566233  1
  Ni  Ni7  1  0.750000  0.351914  0.932696  1
  P  P8  1  0.250000  0.281607  0.124280  1
  P  P9  1  0.250000  0.782042  0.376521  1
  P  P10  1  0.750000  0.717931  0.876306  1
  P  P11  1  0.750000  0.218740  0.623655  1
