# generated using pymatgen
data_Tb3Sm3Co16(ReP6)2
_symmetry_space_group_name_H-M   'P 1'
_cell_length_a   3.75009800
_cell_length_b   10.56172480
_cell_length_c   12.29772540
_cell_angle_alpha   89.89169859
_cell_angle_beta   90.00000000
_cell_angle_gamma   90.00000000
_symmetry_Int_Tables_number   1
_chemical_formula_structural   Tb3Sm3Co16(ReP6)2
_chemical_formula_sum   'Tb3 Sm3 Co16 Re2 P12'
_cell_volume   487.08132599
_cell_formula_units_Z   1
loop_
 _symmetry_equiv_pos_site_id
 _symmetry_equiv_pos_as_xyz
  1  'x, y, z'
loop_
 _atom_site_type_symbol
 _atom_site_label
 _atom_site_symmetry_multiplicity
 _atom_site_fract_x
 _atom_site_fract_y
 _atom_site_fract_z
 _atom_site_occupancy
  Tb  Tb0  1  0.500000  0.817824  0.205735  1
  Tb  Tb1  1  0.500000  0.182106  0.204988  1
  Tb  Tb2  1  0.000000  0.682565  0.794809  1
  Sm  Sm3  1  0.000000  0.500098  0.523359  1
  Sm  Sm4  1  0.500000  0.000200  0.476195  1
  Sm  Sm5  1  0.000000  0.317850  0.794421  1
  Co  Co6  1  0.500000  0.501186  0.703406  1
  Co  Co7  1  0.000000  0.999827  0.296320  1
  Co  Co8  1  0.000000  0.500953  0.988454  1
  Co  Co9  1  0.500000  0.999112  0.012801  1
  Co  Co10  1  0.500000  0.332472  0.991297  1
  Co  Co11  1  0.500000  0.668279  0.990515  1
  Co  Co12  1  0.000000  0.166885  0.010395  1
  Co  Co13  1  0.000000  0.832229  0.010463  1
  Co  Co14  1  0.500000  0.296452  0.429100  1
  Co  Co15  1  0.500000  0.703916  0.430177  1
  Co  Co16  1  0.000000  0.203665  0.568468  1
  Co  Co17  1  0.000000  0.796416  0.569872  1
  Co  Co18  1  0.500000  0.879410  0.710337  1
  Co  Co19  1  0.500000  0.118911  0.709584  1
  Co  Co20  1  0.000000  0.620195  0.290020  1
  Co  Co21  1  0.000000  0.379839  0.289083  1
  Re  Re22  1  0.500000  0.500509  0.154799  1
  Re  Re23  1  0.000000  0.999273  0.845496  1
  P  P24  1  0.500000  0.501312  0.882201  1
  P  P25  1  0.000000  0.999576  0.119154  1
  P  P26  1  0.500000  0.499996  0.346002  1
  P  P27  1  0.000000  0.000052  0.653798  1
  P  P28  1  0.500000  0.309197  0.614459  1
  P  P29  1  0.500000  0.690767  0.616324  1
  P  P30  1  0.000000  0.190302  0.382748  1
  P  P31  1  0.000000  0.809643  0.383713  1
  P  P32  1  0.500000  0.846137  0.893431  1
  P  P33  1  0.500000  0.152682  0.894424  1
  P  P34  1  0.000000  0.654182  0.107320  1
  P  P35  1  0.000000  0.345982  0.106330  1
