# generated using pymatgen
data_Tm2Si5NiRh2
_symmetry_space_group_name_H-M   'P 1'
_cell_length_a   7.99545445
_cell_length_b   8.02993605
_cell_length_c   8.02993637
_cell_angle_alpha   138.53666304
_cell_angle_beta   104.52029152
_cell_angle_gamma   90.05606119
_symmetry_Int_Tables_number   1
_chemical_formula_structural   Tm2Si5NiRh2
_chemical_formula_sum   'Tm4 Si10 Ni2 Rh4'
_cell_volume   315.79014195
_cell_formula_units_Z   2
loop_
 _symmetry_equiv_pos_site_id
 _symmetry_equiv_pos_as_xyz
  1  'x, y, z'
loop_
 _atom_site_type_symbol
 _atom_site_label
 _atom_site_symmetry_multiplicity
 _atom_site_fract_x
 _atom_site_fract_y
 _atom_site_fract_z
 _atom_site_occupancy
  Tm  Tm0  1  0.865732  0.631921  0.233811  1
  Tm  Tm1  1  0.134268  0.368079  0.766189  1
  Tm  Tm2  1  0.400135  0.132329  0.267805  1
  Tm  Tm3  1  0.599865  0.867671  0.732195  1
  Si  Si4  1  0.500000  0.727136  0.227136  1
  Si  Si5  1  0.500000  0.272864  0.772864  1
  Si  Si6  1  0.231764  0.987019  0.763515  1
  Si  Si7  1  0.768236  0.531751  0.755255  1
  Si  Si8  1  0.768236  0.012981  0.236485  1
  Si  Si9  1  0.231764  0.468249  0.244745  1
  Si  Si10  1  0.052833  0.893997  0.158837  1
  Si  Si11  1  0.947167  0.106003  0.841163  1
  Si  Si12  1  0.732085  0.392701  0.339384  1
  Si  Si13  1  0.267915  0.607299  0.660616  1
  Ni  Ni14  1  0.475703  0.360478  0.115226  1
  Ni  Ni15  1  0.524297  0.639522  0.884774  1
  Rh  Rh16  1  0.000000  0.750983  0.750983  1
  Rh  Rh17  1  0.000000  0.249017  0.249017  1
  Rh  Rh18  1  0.257110  0.863663  0.393446  1
  Rh  Rh19  1  0.742890  0.136337  0.606554  1
