# generated using pymatgen
data_DyMg3Ge5AsIr7
_symmetry_space_group_name_H-M   'P 1'
_cell_length_a   7.16535044
_cell_length_b   7.16535157
_cell_length_c   7.15567767
_cell_angle_alpha   109.76087472
_cell_angle_beta   109.76087909
_cell_angle_gamma   110.18034198
_symmetry_Int_Tables_number   1
_chemical_formula_structural   DyMg3Ge5AsIr7
_chemical_formula_sum   'Dy1 Mg3 Ge5 As1 Ir7'
_cell_volume   278.22431862
_cell_formula_units_Z   1
loop_
 _symmetry_equiv_pos_site_id
 _symmetry_equiv_pos_as_xyz
  1  'x, y, z'
loop_
 _atom_site_type_symbol
 _atom_site_label
 _atom_site_symmetry_multiplicity
 _atom_site_fract_x
 _atom_site_fract_y
 _atom_site_fract_z
 _atom_site_occupancy
  Dy  Dy0  1  0.501761  0.501761  0.500380  1
  Mg  Mg1  1  0.002097  0.002097  0.501317  1
  Mg  Mg2  1  0.002155  0.500022  0.000016  1
  Mg  Mg3  1  0.500022  0.002155  0.000016  1
  Ge  Ge4  1  0.309161  0.994300  0.308945  1
  Ge  Ge5  1  0.994300  0.309161  0.308945  1
  Ge  Ge6  1  0.303013  0.303013  0.992207  1
  Ge  Ge7  1  0.692428  0.008567  0.692436  1
  Ge  Ge8  1  0.008567  0.692428  0.692436  1
  As  As9  1  0.688095  0.688095  0.005140  1
  Ir  Ir10  1  0.752708  0.246430  0.497965  1
  Ir  Ir11  1  0.751883  0.500935  0.247113  1
  Ir  Ir12  1  0.500747  0.248029  0.754135  1
  Ir  Ir13  1  0.248029  0.500747  0.754135  1
  Ir  Ir14  1  0.246430  0.752708  0.497965  1
  Ir  Ir15  1  0.500935  0.751883  0.247113  1
  Ir  Ir16  1  0.997669  0.997669  0.999737  1
