# generated using pymatgen
data_Ac5Bi2PbCl
_symmetry_space_group_name_H-M   'P 1'
_cell_length_a   10.20044800
_cell_length_b   10.13759625
_cell_length_c   7.06264300
_cell_angle_alpha   90.00000000
_cell_angle_beta   90.00000000
_cell_angle_gamma   120.20530276
_symmetry_Int_Tables_number   1
_chemical_formula_structural   Ac5Bi2PbCl
_chemical_formula_sum   'Ac10 Bi4 Pb2 Cl2'
_cell_volume   631.17522896
_cell_formula_units_Z   2
loop_
 _symmetry_equiv_pos_site_id
 _symmetry_equiv_pos_as_xyz
  1  'x, y, z'
loop_
 _atom_site_type_symbol
 _atom_site_label
 _atom_site_symmetry_multiplicity
 _atom_site_fract_x
 _atom_site_fract_y
 _atom_site_fract_z
 _atom_site_occupancy
  Ac  Ac0  1  0.267288  0.000000  0.750000  1
  Ac  Ac1  1  0.732712  0.000000  0.250000  1
  Ac  Ac2  1  0.998276  0.264319  0.750000  1
  Ac  Ac3  1  0.001724  0.735681  0.250000  1
  Ac  Ac4  1  0.733957  0.735681  0.750000  1
  Ac  Ac5  1  0.266043  0.264319  0.250000  1
  Ac  Ac6  1  0.333578  0.667159  0.500000  1
  Ac  Ac7  1  0.666422  0.332841  0.500000  1
  Ac  Ac8  1  0.666422  0.332841  0.000000  1
  Ac  Ac9  1  0.333578  0.667159  0.000000  1
  Bi  Bi10  1  0.999436  0.617171  0.750000  1
  Bi  Bi11  1  0.000564  0.382829  0.250000  1
  Bi  Bi12  1  0.382264  0.382829  0.750000  1
  Bi  Bi13  1  0.617736  0.617171  0.250000  1
  Pb  Pb14  1  0.615950  0.000000  0.750000  1
  Pb  Pb15  1  0.384050  0.000000  0.250000  1
  Cl  Cl16  1  0.000000  0.000000  0.500000  1
  Cl  Cl17  1  0.000000  0.000000  0.000000  1
