# generated using pymatgen
data_CeHo5(Si3Pt2)4
_symmetry_space_group_name_H-M   'P 1'
_cell_length_a   4.24242600
_cell_length_b   8.55094885
_cell_length_c   12.91707300
_cell_angle_alpha   80.24100480
_cell_angle_beta   90.00000000
_cell_angle_gamma   90.00000000
_symmetry_Int_Tables_number   1
_chemical_formula_structural   CeHo5(Si3Pt2)4
_chemical_formula_sum   'Ce1 Ho5 Si12 Pt8'
_cell_volume   461.80891140
_cell_formula_units_Z   1
loop_
 _symmetry_equiv_pos_site_id
 _symmetry_equiv_pos_as_xyz
  1  'x, y, z'
loop_
 _atom_site_type_symbol
 _atom_site_label
 _atom_site_symmetry_multiplicity
 _atom_site_fract_x
 _atom_site_fract_y
 _atom_site_fract_z
 _atom_site_occupancy
  Ce  Ce0  1  0.250000  0.766263  0.441009  1
  Ho  Ho1  1  0.250000  0.582879  0.185306  1
  Ho  Ho2  1  0.750000  0.233605  0.561240  1
  Ho  Ho3  1  0.750000  0.416913  0.815298  1
  Ho  Ho4  1  0.750000  0.925858  0.815984  1
  Ho  Ho5  1  0.250000  0.074293  0.183831  1
  Si  Si6  1  0.750000  0.585810  0.572511  1
  Si  Si7  1  0.750000  0.126675  0.005224  1
  Si  Si8  1  0.750000  0.874055  0.575927  1
  Si  Si9  1  0.250000  0.694968  0.714582  1
  Si  Si10  1  0.750000  0.304016  0.284808  1
  Si  Si11  1  0.750000  0.805963  0.274749  1
  Si  Si12  1  0.250000  0.873311  0.993910  1
  Si  Si13  1  0.250000  0.194827  0.724456  1
  Si  Si14  1  0.250000  0.378237  0.000548  1
  Si  Si15  1  0.250000  0.131041  0.423096  1
  Si  Si16  1  0.750000  0.621591  0.999071  1
  Si  Si17  1  0.250000  0.411475  0.428133  1
  Pt  Pt18  1  0.750000  0.352009  0.098072  1
  Pt  Pt19  1  0.250000  0.972184  0.625724  1
  Pt  Pt20  1  0.750000  0.849927  0.087968  1
  Pt  Pt21  1  0.750000  0.030129  0.375347  1
  Pt  Pt22  1  0.250000  0.648102  0.901251  1
  Pt  Pt23  1  0.250000  0.149650  0.911706  1
  Pt  Pt24  1  0.750000  0.531591  0.374949  1
  Pt  Pt25  1  0.250000  0.464628  0.625300  1
