# generated using pymatgen
data_Ga10PdPb3O20
_symmetry_space_group_name_H-M   'P 1'
_cell_length_a   9.89195316
_cell_length_b   9.89195290
_cell_length_c   5.25804702
_cell_angle_alpha   74.72187778
_cell_angle_beta   74.72187574
_cell_angle_gamma   73.86536759
_symmetry_Int_Tables_number   1
_chemical_formula_structural   Ga10PdPb3O20
_chemical_formula_sum   'Ga10 Pd1 Pb3 O20'
_cell_volume   466.61147851
_cell_formula_units_Z   1
loop_
 _symmetry_equiv_pos_site_id
 _symmetry_equiv_pos_as_xyz
  1  'x, y, z'
loop_
 _atom_site_type_symbol
 _atom_site_label
 _atom_site_symmetry_multiplicity
 _atom_site_fract_x
 _atom_site_fract_y
 _atom_site_fract_z
 _atom_site_occupancy
  Ga  Ga0  1  0.635230  0.364770  0.500000  1
  Ga  Ga1  1  0.364770  0.635230  0.500000  1
  Ga  Ga2  1  0.279854  0.007415  0.373557  1
  Ga  Ga3  1  0.992585  0.720146  0.626443  1
  Ga  Ga4  1  0.720146  0.992585  0.626443  1
  Ga  Ga5  1  0.007415  0.279854  0.373557  1
  Ga  Ga6  1  0.579541  0.148942  0.105889  1
  Ga  Ga7  1  0.851058  0.420459  0.894111  1
  Ga  Ga8  1  0.420459  0.851058  0.894111  1
  Ga  Ga9  1  0.148942  0.579541  0.105889  1
  Pd  Pd10  1  0.500000  0.500000  0.000000  1
  Pb  Pb11  1  0.000000  0.000000  0.000000  1
  Pb  Pb12  1  0.723865  0.723865  0.213040  1
  Pb  Pb13  1  0.276135  0.276135  0.786960  1
  O  O14  1  0.567582  0.567582  0.265829  1
  O  O15  1  0.432418  0.432418  0.734171  1
  O  O16  1  0.097724  0.097724  0.303907  1
  O  O17  1  0.902276  0.902276  0.696093  1
  O  O18  1  0.396666  0.123991  0.132671  1
  O  O19  1  0.876009  0.603334  0.867329  1
  O  O20  1  0.603334  0.876009  0.867329  1
  O  O21  1  0.123991  0.396666  0.132671  1
  O  O22  1  0.338237  0.829355  0.266258  1
  O  O23  1  0.170645  0.661763  0.733742  1
  O  O24  1  0.661763  0.170645  0.733742  1
  O  O25  1  0.829355  0.338237  0.266258  1
  O  O26  1  0.991395  0.281405  0.732664  1
  O  O27  1  0.718595  0.008605  0.267336  1
  O  O28  1  0.008605  0.718595  0.267336  1
  O  O29  1  0.281405  0.991395  0.732664  1
  O  O30  1  0.690437  0.452015  0.744715  1
  O  O31  1  0.547985  0.309563  0.255285  1
  O  O32  1  0.309563  0.547985  0.255285  1
  O  O33  1  0.452015  0.690437  0.744715  1
