# generated using pymatgen
data_Er5Tl2In2CoPd
_symmetry_space_group_name_H-M   'P 1'
_cell_length_a   3.58663200
_cell_length_b   8.06249316
_cell_length_c   18.04751881
_cell_angle_alpha   90.04119735
_cell_angle_beta   90.00000000
_cell_angle_gamma   90.00000000
_symmetry_Int_Tables_number   1
_chemical_formula_structural   Er5Tl2In2CoPd
_chemical_formula_sum   'Er10 Tl4 In4 Co2 Pd2'
_cell_volume   521.88350354
_cell_formula_units_Z   2
loop_
 _symmetry_equiv_pos_site_id
 _symmetry_equiv_pos_as_xyz
  1  'x, y, z'
loop_
 _atom_site_type_symbol
 _atom_site_label
 _atom_site_symmetry_multiplicity
 _atom_site_fract_x
 _atom_site_fract_y
 _atom_site_fract_z
 _atom_site_occupancy
  Er  Er0  1  0.000000  0.500000  0.500000  1
  Er  Er1  1  0.000000  0.000000  0.000000  1
  Er  Er2  1  0.000000  0.725574  0.277328  1
  Er  Er3  1  0.000000  0.274426  0.722672  1
  Er  Er4  1  0.000000  0.739069  0.782555  1
  Er  Er5  1  0.000000  0.260931  0.217445  1
  Er  Er6  1  0.000000  0.611888  0.090708  1
  Er  Er7  1  0.000000  0.388112  0.909292  1
  Er  Er8  1  0.000000  0.883251  0.587491  1
  Er  Er9  1  0.000000  0.116749  0.412509  1
  Tl  Tl10  1  0.500000  0.705783  0.933760  1
  Tl  Tl11  1  0.500000  0.294217  0.066240  1
  Tl  Tl12  1  0.500000  0.791901  0.433550  1
  Tl  Tl13  1  0.500000  0.208099  0.566450  1
  In  In14  1  0.500000  0.578234  0.652260  1
  In  In15  1  0.500000  0.421766  0.347740  1
  In  In16  1  0.500000  0.918350  0.149743  1
  In  In17  1  0.500000  0.081650  0.850257  1
  Co  Co18  1  0.500000  0.523846  0.196441  1
  Co  Co19  1  0.500000  0.476154  0.803559  1
  Pd  Pd20  1  0.500000  0.974542  0.699512  1
  Pd  Pd21  1  0.500000  0.025458  0.300488  1
