# generated using pymatgen
data_Dy4Sc4Tc(B8Ir)3
_symmetry_space_group_name_H-M   'P 1'
_cell_length_a   3.56435700
_cell_length_b   8.99028080
_cell_length_c   11.37627238
_cell_angle_alpha   90.05030605
_cell_angle_beta   90.00000000
_cell_angle_gamma   90.00000000
_symmetry_Int_Tables_number   1
_chemical_formula_structural   Dy4Sc4Tc(B8Ir)3
_chemical_formula_sum   'Dy4 Sc4 Tc1 B24 Ir3'
_cell_volume   364.54761931
_cell_formula_units_Z   1
loop_
 _symmetry_equiv_pos_site_id
 _symmetry_equiv_pos_as_xyz
  1  'x, y, z'
loop_
 _atom_site_type_symbol
 _atom_site_label
 _atom_site_symmetry_multiplicity
 _atom_site_fract_x
 _atom_site_fract_y
 _atom_site_fract_z
 _atom_site_occupancy
  Dy  Dy0  1  0.500000  0.316238  0.410436  1
  Dy  Dy1  1  0.500000  0.680829  0.586251  1
  Dy  Dy2  1  0.500000  0.180617  0.916781  1
  Dy  Dy3  1  0.500000  0.822165  0.087409  1
  Sc  Sc4  1  0.500000  0.440985  0.123938  1
  Sc  Sc5  1  0.500000  0.555910  0.876113  1
  Sc  Sc6  1  0.500000  0.055569  0.624384  1
  Sc  Sc7  1  0.500000  0.947697  0.374002  1
  Tc  Tc8  1  0.500000  0.139774  0.181218  1
  B  B9  1  0.000000  0.099606  0.473526  1
  B  B10  1  0.000000  0.899894  0.527600  1
  B  B11  1  0.000000  0.400715  0.972242  1
  B  B12  1  0.000000  0.600940  0.027050  1
  B  B13  1  0.000000  0.128703  0.316566  1
  B  B14  1  0.000000  0.870821  0.681670  1
  B  B15  1  0.000000  0.371667  0.818436  1
  B  B16  1  0.000000  0.628769  0.182284  1
  B  B17  1  0.000000  0.054377  0.066895  1
  B  B18  1  0.000000  0.945684  0.933642  1
  B  B19  1  0.000000  0.444821  0.565890  1
  B  B20  1  0.000000  0.553996  0.433508  1
  B  B21  1  0.000000  0.480860  0.285186  1
  B  B22  1  0.000000  0.519261  0.714929  1
  B  B23  1  0.000000  0.019364  0.785180  1
  B  B24  1  0.000000  0.980873  0.214547  1
  B  B25  1  0.000000  0.253421  0.081171  1
  B  B26  1  0.000000  0.746258  0.920091  1
  B  B27  1  0.000000  0.245461  0.580020  1
  B  B28  1  0.000000  0.754218  0.419734  1
  B  B29  1  0.000000  0.294333  0.234118  1
  B  B30  1  0.000000  0.705494  0.764800  1
  B  B31  1  0.000000  0.206133  0.735394  1
  B  B32  1  0.000000  0.794293  0.265952  1
  Ir  Ir33  1  0.500000  0.860412  0.819227  1
  Ir  Ir34  1  0.500000  0.360043  0.680402  1
  Ir  Ir35  1  0.500000  0.639804  0.319408  1
