# generated using pymatgen
data_Sr20Cd3Pd2Au7
_symmetry_space_group_name_H-M   'P 1'
_cell_length_a   8.47288315
_cell_length_b   8.47288315
_cell_length_c   15.77190440
_cell_angle_alpha   89.94619501
_cell_angle_beta   90.05380499
_cell_angle_gamma   90.48603086
_symmetry_Int_Tables_number   1
_chemical_formula_structural   Sr20Cd3Pd2Au7
_chemical_formula_sum   'Sr20 Cd3 Pd2 Au7'
_cell_volume   1132.21932972
_cell_formula_units_Z   1
loop_
 _symmetry_equiv_pos_site_id
 _symmetry_equiv_pos_as_xyz
  1  'x, y, z'
loop_
 _atom_site_type_symbol
 _atom_site_label
 _atom_site_symmetry_multiplicity
 _atom_site_fract_x
 _atom_site_fract_y
 _atom_site_fract_z
 _atom_site_occupancy
  Sr  Sr0  1  0.001496  0.996527  0.755463  1
  Sr  Sr1  1  0.501456  0.496749  0.250594  1
  Sr  Sr2  1  0.996527  0.001496  0.244537  1
  Sr  Sr3  1  0.496749  0.501456  0.749406  1
  Sr  Sr4  1  0.174633  0.661173  0.108670  1
  Sr  Sr5  1  0.667849  0.166354  0.612657  1
  Sr  Sr6  1  0.822278  0.335618  0.109900  1
  Sr  Sr7  1  0.328744  0.830548  0.613943  1
  Sr  Sr8  1  0.343200  0.173918  0.108753  1
  Sr  Sr9  1  0.837990  0.667479  0.612909  1
  Sr  Sr10  1  0.660673  0.829581  0.108403  1
  Sr  Sr11  1  0.165799  0.336273  0.612775  1
  Sr  Sr12  1  0.335618  0.822278  0.890100  1
  Sr  Sr13  1  0.830548  0.328744  0.386057  1
  Sr  Sr14  1  0.661173  0.174633  0.891330  1
  Sr  Sr15  1  0.166354  0.667849  0.387343  1
  Sr  Sr16  1  0.173918  0.343200  0.891247  1
  Sr  Sr17  1  0.667479  0.837990  0.387091  1
  Sr  Sr18  1  0.829581  0.660673  0.891597  1
  Sr  Sr19  1  0.336273  0.165799  0.387225  1
  Cd  Cd20  1  0.000621  0.000621  0.500000  1
  Cd  Cd21  1  0.000673  0.000673  0.000000  1
  Cd  Cd22  1  0.500612  0.500612  0.500000  1
  Pd  Pd23  1  0.625690  0.126292  0.248190  1
  Pd  Pd24  1  0.126292  0.625690  0.751810  1
  Au  Au25  1  0.874743  0.374216  0.751703  1
  Au  Au26  1  0.374216  0.874743  0.248297  1
  Au  Au27  1  0.369967  0.129050  0.751901  1
  Au  Au28  1  0.870287  0.629574  0.248142  1
  Au  Au29  1  0.129050  0.369967  0.248099  1
  Au  Au30  1  0.629574  0.870287  0.751858  1
  Au  Au31  1  0.499934  0.499934  0.000000  1
