# generated using pymatgen
data_Nd5MoWC7
_symmetry_space_group_name_H-M   'P 1'
_cell_length_a   8.75904121
_cell_length_b   8.75904126
_cell_length_c   3.55518300
_cell_angle_alpha   90.00000000
_cell_angle_beta   90.00000000
_cell_angle_gamma   124.73777133
_symmetry_Int_Tables_number   1
_chemical_formula_structural   Nd5MoWC7
_chemical_formula_sum   'Nd5 Mo1 W1 C7'
_cell_volume   224.14271670
_cell_formula_units_Z   1
loop_
 _symmetry_equiv_pos_site_id
 _symmetry_equiv_pos_as_xyz
  1  'x, y, z'
loop_
 _atom_site_type_symbol
 _atom_site_label
 _atom_site_symmetry_multiplicity
 _atom_site_fract_x
 _atom_site_fract_y
 _atom_site_fract_z
 _atom_site_occupancy
  Nd  Nd0  1  0.500266  0.499734  0.000000  1
  Nd  Nd1  1  0.066988  0.325685  0.500000  1
  Nd  Nd2  1  0.932188  0.673316  0.500000  1
  Nd  Nd3  1  0.674315  0.933012  0.500000  1
  Nd  Nd4  1  0.326684  0.067812  0.500000  1
  Mo  Mo5  1  0.712045  0.287955  0.000000  1
  W  W6  1  0.288241  0.711759  0.000000  1
  C  C7  1  0.631318  0.368682  0.500000  1
  C  C8  1  0.368083  0.631917  0.500000  1
  C  C9  1  0.999968  0.000032  0.000000  1
  C  C10  1  0.166546  0.166732  0.000000  1
  C  C11  1  0.833268  0.833454  0.000000  1
  C  C12  1  0.001726  0.501635  0.000000  1
  C  C13  1  0.498365  0.998274  0.000000  1
