# generated using pymatgen
data_LuAgIr2O7
_symmetry_space_group_name_H-M   'P 1'
_cell_length_a   7.18790294
_cell_length_b   7.13972151
_cell_length_c   7.18790221
_cell_angle_alpha   60.22148600
_cell_angle_beta   61.00409281
_cell_angle_gamma   60.22148846
_symmetry_Int_Tables_number   1
_chemical_formula_structural   LuAgIr2O7
_chemical_formula_sum   'Lu2 Ag2 Ir4 O14'
_cell_volume   263.64914240
_cell_formula_units_Z   2
loop_
 _symmetry_equiv_pos_site_id
 _symmetry_equiv_pos_as_xyz
  1  'x, y, z'
loop_
 _atom_site_type_symbol
 _atom_site_label
 _atom_site_symmetry_multiplicity
 _atom_site_fract_x
 _atom_site_fract_y
 _atom_site_fract_z
 _atom_site_occupancy
  Lu  Lu0  1  0.625000  0.125000  0.125000  1
  Lu  Lu1  1  0.125000  0.125000  0.625000  1
  Ag  Ag2  1  0.125000  0.625000  0.125000  1
  Ag  Ag3  1  0.125000  0.125000  0.125000  1
  Ir  Ir4  1  0.125000  0.625000  0.625000  1
  Ir  Ir5  1  0.625000  0.125000  0.625000  1
  Ir  Ir6  1  0.625000  0.625000  0.125000  1
  Ir  Ir7  1  0.625000  0.625000  0.625000  1
  O  O8  1  0.689337  0.720759  0.297836  1
  O  O9  1  0.297836  0.292067  0.689337  1
  O  O10  1  0.713311  0.286689  0.713311  1
  O  O11  1  0.303531  0.696469  0.303531  1
  O  O12  1  0.297836  0.720759  0.689337  1
  O  O13  1  0.689337  0.292067  0.297836  1
  O  O14  1  0.560663  0.529241  0.952164  1
  O  O15  1  0.952164  0.957933  0.560663  1
  O  O16  1  0.536689  0.963311  0.536689  1
  O  O17  1  0.946469  0.553531  0.946469  1
  O  O18  1  0.952164  0.529241  0.560663  1
  O  O19  1  0.560663  0.957933  0.952164  1
  O  O20  1  0.250651  0.249349  0.250651  1
  O  O21  1  0.999349  0.000651  0.999349  1
