# generated using pymatgen
data_Pu4B16Ir3Rh
_symmetry_space_group_name_H-M   'P 1'
_cell_length_a   3.55013300
_cell_length_b   6.01458806
_cell_length_c   11.66397321
_cell_angle_alpha   90.01767191
_cell_angle_beta   90.00000000
_cell_angle_gamma   90.00000000
_symmetry_Int_Tables_number   1
_chemical_formula_structural   Pu4B16Ir3Rh
_chemical_formula_sum   'Pu4 B16 Ir3 Rh1'
_cell_volume   249.05599748
_cell_formula_units_Z   1
loop_
 _symmetry_equiv_pos_site_id
 _symmetry_equiv_pos_as_xyz
  1  'x, y, z'
loop_
 _atom_site_type_symbol
 _atom_site_label
 _atom_site_symmetry_multiplicity
 _atom_site_fract_x
 _atom_site_fract_y
 _atom_site_fract_z
 _atom_site_occupancy
  Pu  Pu0  1  0.500000  0.370890  0.148432  1
  Pu  Pu1  1  0.500000  0.628896  0.851731  1
  Pu  Pu2  1  0.500000  0.129703  0.648876  1
  Pu  Pu3  1  0.500000  0.870698  0.350956  1
  B  B4  1  0.000000  0.114419  0.046676  1
  B  B5  1  0.000000  0.885857  0.952785  1
  B  B6  1  0.000000  0.386093  0.546992  1
  B  B7  1  0.000000  0.613933  0.452980  1
  B  B8  1  0.000000  0.135311  0.468473  1
  B  B9  1  0.000000  0.864897  0.531457  1
  B  B10  1  0.000000  0.365004  0.968156  1
  B  B11  1  0.000000  0.634993  0.031916  1
  B  B12  1  0.000000  0.024682  0.191836  1
  B  B13  1  0.000000  0.974674  0.808109  1
  B  B14  1  0.000000  0.474623  0.692210  1
  B  B15  1  0.000000  0.525248  0.307652  1
  B  B16  1  0.000000  0.211662  0.311640  1
  B  B17  1  0.000000  0.788800  0.688250  1
  B  B18  1  0.000000  0.288946  0.812472  1
  B  B19  1  0.000000  0.711338  0.187513  1
  Ir  Ir20  1  0.500000  0.358233  0.406063  1
  Ir  Ir21  1  0.500000  0.642429  0.594620  1
  Ir  Ir22  1  0.500000  0.139913  0.906383  1
  Rh  Rh23  1  0.500000  0.858758  0.093824  1
