# generated using pymatgen
data_Yb3Th(Si5Pt3)2
_symmetry_space_group_name_H-M   'P 1'
_cell_length_a   8.24660525
_cell_length_b   8.26334584
_cell_length_c   8.26334540
_cell_angle_alpha   137.64654351
_cell_angle_beta   104.29198956
_cell_angle_gamma   90.84017825
_symmetry_Int_Tables_number   1
_chemical_formula_structural   Yb3Th(Si5Pt3)2
_chemical_formula_sum   'Yb3 Th1 Si10 Pt6'
_cell_volume   350.46843874
_cell_formula_units_Z   1
loop_
 _symmetry_equiv_pos_site_id
 _symmetry_equiv_pos_as_xyz
  1  'x, y, z'
loop_
 _atom_site_type_symbol
 _atom_site_label
 _atom_site_symmetry_multiplicity
 _atom_site_fract_x
 _atom_site_fract_y
 _atom_site_fract_z
 _atom_site_occupancy
  Yb  Yb0  1  0.637039  0.370397  0.266642  1
  Yb  Yb1  1  0.362765  0.628546  0.734219  1
  Yb  Yb2  1  0.107209  0.872768  0.234441  1
  Th  Th3  1  0.896399  0.128485  0.767914  1
  Si  Si4  1  0.461674  0.112674  0.349001  1
  Si  Si5  1  0.534766  0.885187  0.649578  1
  Si  Si6  1  0.759424  0.611268  0.148156  1
  Si  Si7  1  0.239561  0.389203  0.850358  1
  Si  Si8  1  0.271608  0.519754  0.250613  1
  Si  Si9  1  0.728282  0.480175  0.747591  1
  Si  Si10  1  0.728282  0.980690  0.248106  1
  Si  Si11  1  0.271608  0.020995  0.751855  1
  Si  Si12  1  0.001024  0.251969  0.253632  1
  Si  Si13  1  0.001024  0.747392  0.749055  1
  Pt  Pt14  1  0.500148  0.247712  0.748411  1
  Pt  Pt15  1  0.500148  0.751737  0.252436  1
  Pt  Pt16  1  0.250474  0.135624  0.114850  1
  Pt  Pt17  1  0.747454  0.863084  0.884370  1
  Pt  Pt18  1  0.020878  0.637716  0.383161  1
  Pt  Pt19  1  0.980235  0.364626  0.615610  1
