# generated using pymatgen
data_YbHo2ErMnFe3B16
_symmetry_space_group_name_H-M   'P 1'
_cell_length_a   3.35976200
_cell_length_b   5.88572681
_cell_length_c   11.38243918
_cell_angle_alpha   89.90280264
_cell_angle_beta   90.00000000
_cell_angle_gamma   90.00000000
_symmetry_Int_Tables_number   1
_chemical_formula_structural   YbHo2ErMnFe3B16
_chemical_formula_sum   'Yb1 Ho2 Er1 Mn1 Fe3 B16'
_cell_volume   225.08332761
_cell_formula_units_Z   1
loop_
 _symmetry_equiv_pos_site_id
 _symmetry_equiv_pos_as_xyz
  1  'x, y, z'
loop_
 _atom_site_type_symbol
 _atom_site_label
 _atom_site_symmetry_multiplicity
 _atom_site_fract_x
 _atom_site_fract_y
 _atom_site_fract_z
 _atom_site_occupancy
  Yb  Yb0  1  0.000000  0.374370  0.151519  1
  Ho  Ho1  1  0.000000  0.872743  0.349365  1
  Ho  Ho2  1  0.000000  0.627063  0.849112  1
  Er  Er3  1  0.000000  0.126562  0.648896  1
  Mn  Mn4  1  0.000000  0.129396  0.914194  1
  Fe  Fe5  1  0.000000  0.871102  0.085052  1
  Fe  Fe6  1  0.000000  0.634374  0.587837  1
  Fe  Fe7  1  0.000000  0.364356  0.412780  1
  B  B8  1  0.500000  0.362912  0.968665  1
  B  B9  1  0.500000  0.638528  0.032948  1
  B  B10  1  0.500000  0.860662  0.531693  1
  B  B11  1  0.500000  0.138660  0.468405  1
  B  B12  1  0.500000  0.475589  0.689856  1
  B  B13  1  0.500000  0.524480  0.309762  1
  B  B14  1  0.500000  0.974999  0.808469  1
  B  B15  1  0.500000  0.022993  0.190787  1
  B  B16  1  0.500000  0.283937  0.815357  1
  B  B17  1  0.500000  0.718622  0.183171  1
  B  B18  1  0.500000  0.781754  0.683432  1
  B  B19  1  0.500000  0.218986  0.316218  1
  B  B20  1  0.500000  0.388190  0.546031  1
  B  B21  1  0.500000  0.610721  0.453830  1
  B  B22  1  0.500000  0.886802  0.954994  1
  B  B23  1  0.500000  0.112199  0.047627  1
