# generated using pymatgen
data_YEr4(Al4Ga)3
_symmetry_space_group_name_H-M   'P 1'
_cell_length_a   6.07815500
_cell_length_b   6.07815503
_cell_length_c   12.40492903
_cell_angle_alpha   104.18121108
_cell_angle_beta   75.81878838
_cell_angle_gamma   120.00000197
_symmetry_Int_Tables_number   1
_chemical_formula_structural   YEr4(Al4Ga)3
_chemical_formula_sum   'Y1 Er4 Al12 Ga3'
_cell_volume   380.67654682
_cell_formula_units_Z   1
loop_
 _symmetry_equiv_pos_site_id
 _symmetry_equiv_pos_as_xyz
  1  'x, y, z'
loop_
 _atom_site_type_symbol
 _atom_site_label
 _atom_site_symmetry_multiplicity
 _atom_site_fract_x
 _atom_site_fract_y
 _atom_site_fract_z
 _atom_site_occupancy
  Y  Y0  1  0.997824  0.002176  0.006527  1
  Er  Er1  1  0.599925  0.400075  0.200226  1
  Er  Er2  1  0.870609  0.129391  0.388172  1
  Er  Er3  1  0.131284  0.868717  0.606150  1
  Er  Er4  1  0.400144  0.599856  0.799569  1
  Al  Al5  1  0.501675  0.002221  0.998872  1
  Al  Al6  1  0.997779  0.498325  0.998872  1
  Al  Al7  1  0.501675  0.498325  0.998872  1
  Al  Al8  1  0.365662  0.133839  0.402514  1
  Al  Al9  1  0.365662  0.634337  0.402514  1
  Al  Al10  1  0.866160  0.634337  0.402514  1
  Al  Al11  1  0.128990  0.363231  0.597470  1
  Al  Al12  1  0.636771  0.363231  0.597470  1
  Al  Al13  1  0.636769  0.871008  0.597470  1
  Al  Al14  1  0.431188  0.116325  0.801462  1
  Al  Al15  1  0.883675  0.116325  0.801462  1
  Al  Al16  1  0.883674  0.568811  0.801462  1
  Ga  Ga17  1  0.118992  0.437454  0.199469  1
  Ga  Ga18  1  0.118992  0.881008  0.199469  1
  Ga  Ga19  1  0.562548  0.881008  0.199469  1
