# generated using pymatgen
data_La3DyYIn3Cl
_symmetry_space_group_name_H-M   'P 1'
_cell_length_a   9.37916300
_cell_length_b   9.37916152
_cell_length_c   6.64483100
_cell_angle_alpha   90.00000000
_cell_angle_beta   90.00000000
_cell_angle_gamma   120.00000171
_symmetry_Int_Tables_number   1
_chemical_formula_structural   La3DyYIn3Cl
_chemical_formula_sum   'La6 Dy2 Y2 In6 Cl2'
_cell_volume   506.22391991
_cell_formula_units_Z   2
loop_
 _symmetry_equiv_pos_site_id
 _symmetry_equiv_pos_as_xyz
  1  'x, y, z'
loop_
 _atom_site_type_symbol
 _atom_site_label
 _atom_site_symmetry_multiplicity
 _atom_site_fract_x
 _atom_site_fract_y
 _atom_site_fract_z
 _atom_site_occupancy
  La  La0  1  0.737480  0.737480  0.250184  1
  La  La1  1  0.000000  0.737480  0.749816  1
  La  La2  1  0.737480  0.000000  0.749816  1
  La  La3  1  0.262520  0.262520  0.749816  1
  La  La4  1  0.000000  0.262520  0.250184  1
  La  La5  1  0.262520  0.000000  0.250184  1
  Dy  Dy6  1  0.333333  0.666667  0.000000  1
  Dy  Dy7  1  0.666667  0.333333  0.000000  1
  Y  Y8  1  0.333333  0.666667  0.500000  1
  Y  Y9  1  0.666667  0.333333  0.500000  1
  In  In10  1  0.395557  0.000000  0.750055  1
  In  In11  1  0.000000  0.604443  0.249945  1
  In  In12  1  0.604443  0.000000  0.249945  1
  In  In13  1  0.000000  0.395557  0.750055  1
  In  In14  1  0.395557  0.395557  0.249945  1
  In  In15  1  0.604443  0.604443  0.750055  1
  Cl  Cl16  1  0.000000  0.000000  0.500000  1
  Cl  Cl17  1  0.000000  0.000000  0.000000  1
