# generated using pymatgen
data_Dy13Ho7(Ir5Pt)2
_symmetry_space_group_name_H-M   'P 1'
_cell_length_a   10.93307796
_cell_length_b   10.93635602
_cell_length_c   6.34079902
_cell_angle_alpha   90.00670007
_cell_angle_beta   89.96100582
_cell_angle_gamma   90.00128622
_symmetry_Int_Tables_number   1
_chemical_formula_structural   Dy13Ho7(Ir5Pt)2
_chemical_formula_sum   'Dy13 Ho7 Ir10 Pt2'
_cell_volume   758.15668541
_cell_formula_units_Z   1
loop_
 _symmetry_equiv_pos_site_id
 _symmetry_equiv_pos_as_xyz
  1  'x, y, z'
loop_
 _atom_site_type_symbol
 _atom_site_label
 _atom_site_symmetry_multiplicity
 _atom_site_fract_x
 _atom_site_fract_y
 _atom_site_fract_z
 _atom_site_occupancy
  Dy  Dy0  1  0.291187  0.088370  0.376141  1
  Dy  Dy1  1  0.291173  0.911599  0.876140  1
  Dy  Dy2  1  0.705443  0.090211  0.874097  1
  Dy  Dy3  1  0.705413  0.909915  0.374146  1
  Dy  Dy4  1  0.584600  0.790802  0.878570  1
  Dy  Dy5  1  0.584616  0.209192  0.378624  1
  Dy  Dy6  1  0.410720  0.791260  0.377763  1
  Dy  Dy7  1  0.410743  0.208699  0.877737  1
  Dy  Dy8  1  0.208836  0.411452  0.622109  1
  Dy  Dy9  1  0.208932  0.588514  0.122031  1
  Dy  Dy10  1  0.790852  0.414458  0.122436  1
  Dy  Dy11  1  0.790861  0.585363  0.622496  1
  Dy  Dy12  1  0.913492  0.707195  0.126572  1
  Ho  Ho13  1  0.913549  0.293033  0.626444  1
  Ho  Ho14  1  0.091622  0.706679  0.622227  1
  Ho  Ho15  1  0.091532  0.293332  0.122170  1
  Ho  Ho16  1  0.003067  0.999582  0.500032  1
  Ho  Ho17  1  0.003045  0.000507  0.999981  1
  Ho  Ho18  1  0.499785  0.499546  0.999926  1
  Ho  Ho19  1  0.499789  0.500449  0.499853  1
  Ir  Ir20  1  0.152587  0.153768  0.750279  1
  Ir  Ir21  1  0.152695  0.846271  0.250342  1
  Ir  Ir22  1  0.654876  0.346068  0.749449  1
  Ir  Ir23  1  0.654733  0.653916  0.249526  1
  Ir  Ir24  1  0.346646  0.346402  0.250320  1
  Ir  Ir25  1  0.346647  0.653596  0.750291  1
  Ir  Ir26  1  0.500683  0.999825  0.123592  1
  Ir  Ir27  1  0.500693  0.000200  0.623522  1
  Ir  Ir28  1  0.999622  0.500047  0.876645  1
  Ir  Ir29  1  0.999628  0.499671  0.376851  1
  Pt  Pt30  1  0.846024  0.153297  0.249973  1
  Pt  Pt31  1  0.845910  0.846779  0.749714  1
