# generated using pymatgen
data_Tm12AlCo4Pt
_symmetry_space_group_name_H-M   'P 1'
_cell_length_a   8.17567396
_cell_length_b   8.17567489
_cell_length_c   8.17567600
_cell_angle_alpha   110.81650800
_cell_angle_beta   111.03287147
_cell_angle_gamma   106.60191124
_symmetry_Int_Tables_number   1
_chemical_formula_structural   Tm12AlCo4Pt
_chemical_formula_sum   'Tm12 Al1 Co4 Pt1'
_cell_volume   419.88932300
_cell_formula_units_Z   1
loop_
 _symmetry_equiv_pos_site_id
 _symmetry_equiv_pos_as_xyz
  1  'x, y, z'
loop_
 _atom_site_type_symbol
 _atom_site_label
 _atom_site_symmetry_multiplicity
 _atom_site_fract_x
 _atom_site_fract_y
 _atom_site_fract_z
 _atom_site_occupancy
  Tm  Tm0  1  0.419467  0.221028  0.198438  1
  Tm  Tm1  1  0.580533  0.778972  0.801562  1
  Tm  Tm2  1  0.022591  0.221028  0.801562  1
  Tm  Tm3  1  0.977409  0.778972  0.198438  1
  Tm  Tm4  1  0.186540  0.288180  0.474720  1
  Tm  Tm5  1  0.813460  0.711820  0.525280  1
  Tm  Tm6  1  0.186540  0.711820  0.898360  1
  Tm  Tm7  1  0.813460  0.288180  0.101640  1
  Tm  Tm8  1  0.316068  0.618664  0.302596  1
  Tm  Tm9  1  0.683932  0.381336  0.697404  1
  Tm  Tm10  1  0.316068  0.013471  0.697404  1
  Tm  Tm11  1  0.683932  0.986529  0.302596  1
  Al  Al12  1  0.500000  0.500000  0.000000  1
  Co  Co13  1  0.376880  0.000000  0.376880  1
  Co  Co14  1  0.623120  0.000000  0.623120  1
  Co  Co15  1  0.112565  0.612565  0.500000  1
  Co  Co16  1  0.887435  0.387435  0.500000  1
  Pt  Pt17  1  0.000000  0.000000  0.000000  1
