# generated using pymatgen
data_ThAl5Pt3
_symmetry_space_group_name_H-M   'P 1'
_cell_length_a   4.16642700
_cell_length_b   7.31902600
_cell_length_c   20.83623900
_cell_angle_alpha   90.00000000
_cell_angle_beta   90.00000000
_cell_angle_gamma   90.00000000
_symmetry_Int_Tables_number   1
_chemical_formula_structural   ThAl5Pt3
_chemical_formula_sum   'Th4 Al20 Pt12'
_cell_volume   635.38417970
_cell_formula_units_Z   4
loop_
 _symmetry_equiv_pos_site_id
 _symmetry_equiv_pos_as_xyz
  1  'x, y, z'
loop_
 _atom_site_type_symbol
 _atom_site_label
 _atom_site_symmetry_multiplicity
 _atom_site_fract_x
 _atom_site_fract_y
 _atom_site_fract_z
 _atom_site_occupancy
  Th  Th0  1  0.250000  0.117924  0.641028  1
  Th  Th1  1  0.750000  0.882076  0.358972  1
  Th  Th2  1  0.250000  0.382076  0.141028  1
  Th  Th3  1  0.750000  0.617924  0.858972  1
  Al  Al4  1  0.750000  0.358333  0.382377  1
  Al  Al5  1  0.750000  0.885895  0.984120  1
  Al  Al6  1  0.750000  0.689026  0.201292  1
  Al  Al7  1  0.250000  0.868317  0.493842  1
  Al  Al8  1  0.250000  0.631683  0.993842  1
  Al  Al9  1  0.250000  0.310974  0.798708  1
  Al  Al10  1  0.750000  0.073695  0.207997  1
  Al  Al11  1  0.250000  0.641667  0.617623  1
  Al  Al12  1  0.250000  0.573695  0.292003  1
  Al  Al13  1  0.250000  0.189026  0.298708  1
  Al  Al14  1  0.750000  0.141667  0.882377  1
  Al  Al15  1  0.250000  0.926305  0.792003  1
  Al  Al16  1  0.750000  0.368317  0.006158  1
  Al  Al17  1  0.750000  0.614105  0.484120  1
  Al  Al18  1  0.750000  0.131683  0.506158  1
  Al  Al19  1  0.250000  0.114105  0.015880  1
  Al  Al20  1  0.250000  0.858333  0.117623  1
  Al  Al21  1  0.250000  0.385895  0.515880  1
  Al  Al22  1  0.750000  0.426305  0.707997  1
  Al  Al23  1  0.750000  0.810974  0.701292  1
  Pt  Pt24  1  0.750000  0.382608  0.261284  1
  Pt  Pt25  1  0.250000  0.882608  0.238716  1
  Pt  Pt26  1  0.250000  0.617392  0.738716  1
  Pt  Pt27  1  0.750000  0.117392  0.761284  1
  Pt  Pt28  1  0.250000  0.157780  0.425418  1
  Pt  Pt29  1  0.750000  0.416611  0.584665  1
  Pt  Pt30  1  0.750000  0.083389  0.084665  1
  Pt  Pt31  1  0.250000  0.916611  0.915335  1
  Pt  Pt32  1  0.750000  0.842220  0.574582  1
  Pt  Pt33  1  0.250000  0.342220  0.925418  1
  Pt  Pt34  1  0.750000  0.657780  0.074582  1
  Pt  Pt35  1  0.250000  0.583389  0.415335  1
