# generated using pymatgen
data_Ti8Al15Fe6Au
_symmetry_space_group_name_H-M   'P 1'
_cell_length_a   8.53898914
_cell_length_b   8.49644306
_cell_length_c   8.53076549
_cell_angle_alpha   120.14057954
_cell_angle_beta   119.76539314
_cell_angle_gamma   89.94732340
_symmetry_Int_Tables_number   1
_chemical_formula_structural   Ti8Al15Fe6Au
_chemical_formula_sum   'Ti8 Al15 Fe6 Au1'
_cell_volume   438.45605612
_cell_formula_units_Z   1
loop_
 _symmetry_equiv_pos_site_id
 _symmetry_equiv_pos_as_xyz
  1  'x, y, z'
loop_
 _atom_site_type_symbol
 _atom_site_label
 _atom_site_symmetry_multiplicity
 _atom_site_fract_x
 _atom_site_fract_y
 _atom_site_fract_z
 _atom_site_occupancy
  Ti  Ti0  1  0.791540  0.283118  0.068101  1
  Ti  Ti1  1  0.220100  0.284531  0.491112  1
  Ti  Ti2  1  0.218353  0.708862  0.499447  1
  Ti  Ti3  1  0.214419  0.722526  0.931349  1
  Ti  Ti4  1  0.785382  0.720484  0.510140  1
  Ti  Ti5  1  0.775435  0.284300  0.500230  1
  Ti  Ti6  1  0.397113  0.127787  0.754114  1
  Ti  Ti7  1  0.382326  0.640253  0.262335  1
  Al  Al8  1  0.996833  0.496704  0.500261  1
  Al  Al9  1  0.159567  0.341254  0.181118  1
  Al  Al10  1  0.165373  0.974017  0.827741  1
  Al  Al11  1  0.161072  0.359014  0.821670  1
  Al  Al12  1  0.532961  0.344991  0.188875  1
  Al  Al13  1  0.841701  0.656411  0.816026  1
  Al  Al14  1  0.835001  0.030845  0.173830  1
  Al  Al15  1  0.834636  0.641705  0.174572  1
  Al  Al16  1  0.470829  0.655850  0.814725  1
  Al  Al17  1  0.382490  0.121516  0.261323  1
  Al  Al18  1  0.856659  0.125996  0.748382  1
  Al  Al19  1  0.606525  0.872556  0.247878  1
  Al  Al20  1  0.618095  0.361548  0.740189  1
  Al  Al21  1  0.616497  0.875975  0.737782  1
  Al  Al22  1  0.142620  0.874136  0.251202  1
  Fe  Fe23  1  0.498021  0.000268  0.997209  1
  Fe  Fe24  1  0.498165  0.496973  0.999483  1
  Fe  Fe25  1  0.497841  0.498938  0.497622  1
  Fe  Fe26  1  0.001861  0.500573  0.003505  1
  Fe  Fe27  1  0.999760  0.999703  0.998739  1
  Fe  Fe28  1  0.498843  0.999365  0.501369  1
  Au  Au29  1  0.999981  0.999804  0.499671  1
