# generated using pymatgen
data_Eu2DyAl3Si2Pt
_symmetry_space_group_name_H-M   'P 1'
_cell_length_a   7.08523983
_cell_length_b   7.06699198
_cell_length_c   4.33966100
_cell_angle_alpha   90.00000000
_cell_angle_beta   90.00000000
_cell_angle_gamma   119.91484902
_symmetry_Int_Tables_number   1
_chemical_formula_structural   Eu2DyAl3Si2Pt
_chemical_formula_sum   'Eu2 Dy1 Al3 Si2 Pt1'
_cell_volume   188.34217977
_cell_formula_units_Z   1
loop_
 _symmetry_equiv_pos_site_id
 _symmetry_equiv_pos_as_xyz
  1  'x, y, z'
loop_
 _atom_site_type_symbol
 _atom_site_label
 _atom_site_symmetry_multiplicity
 _atom_site_fract_x
 _atom_site_fract_y
 _atom_site_fract_z
 _atom_site_occupancy
  Eu  Eu0  1  0.577971  0.001319  0.000000  1
  Eu  Eu1  1  0.422029  0.423347  0.000000  1
  Dy  Dy2  1  0.000000  0.582162  0.000000  1
  Al  Al3  1  0.230709  0.996554  0.499999  1
  Al  Al4  1  0.000000  0.235660  0.499999  1
  Al  Al5  1  0.769291  0.765843  0.499999  1
  Si  Si6  1  0.678054  0.341663  0.499999  1
  Si  Si7  1  0.321945  0.663609  0.499999  1
  Pt  Pt8  1  0.000000  0.989841  0.000000  1
