# generated using pymatgen
data_Zr8Co7Si14Tc
_symmetry_space_group_name_H-M   'P 1'
_cell_length_a   9.53657110
_cell_length_b   9.52444557
_cell_length_c   9.54887843
_cell_angle_alpha   94.13645741
_cell_angle_beta   94.20408909
_cell_angle_gamma   148.68007935
_symmetry_Int_Tables_number   1
_chemical_formula_structural   Zr8Co7Si14Tc
_chemical_formula_sum   'Zr8 Co7 Si14 Tc1'
_cell_volume   434.18222945
_cell_formula_units_Z   1
loop_
 _symmetry_equiv_pos_site_id
 _symmetry_equiv_pos_as_xyz
  1  'x, y, z'
loop_
 _atom_site_type_symbol
 _atom_site_label
 _atom_site_symmetry_multiplicity
 _atom_site_fract_x
 _atom_site_fract_y
 _atom_site_fract_z
 _atom_site_occupancy
  Zr  Zr0  1  0.137802  0.137802  0.275604  1
  Zr  Zr1  1  0.862244  0.862244  0.724486  1
  Zr  Zr2  1  0.861452  0.137502  0.001495  1
  Zr  Zr3  1  0.140042  0.863992  0.001495  1
  Zr  Zr4  1  0.500226  0.303343  0.802924  1
  Zr  Zr5  1  0.501487  0.695817  0.197420  1
  Zr  Zr6  1  0.695933  0.501603  0.197420  1
  Zr  Zr7  1  0.302698  0.499581  0.802924  1
  Co  Co8  1  0.104120  0.604120  0.208239  1
  Co  Co9  1  0.099900  0.895543  0.498957  1
  Co  Co10  1  0.399057  0.603414  0.498957  1
  Co  Co11  1  0.599385  0.394423  0.499527  1
  Co  Co12  1  0.900142  0.105105  0.499527  1
  Co  Co13  1  0.898242  0.398242  0.796484  1
  Co  Co14  1  0.602163  0.102163  0.204326  1
  Si  Si15  1  0.506384  0.098097  0.586226  1
  Si  Si16  1  0.505401  0.912235  0.406831  1
  Si  Si17  1  0.901429  0.494595  0.406831  1
  Si  Si18  1  0.079842  0.488129  0.586226  1
  Si  Si19  1  0.749649  0.750115  0.000187  1
  Si  Si20  1  0.250538  0.250072  0.000187  1
  Si  Si21  1  0.289198  0.289198  0.578395  1
  Si  Si22  1  0.711074  0.711074  0.422149  1
  Si  Si23  1  0.722672  0.303249  0.005496  1
  Si  Si24  1  0.282825  0.702247  0.005496  1
  Si  Si25  1  0.999344  0.301280  0.302202  1
  Si  Si26  1  0.988039  0.691792  0.696714  1
  Si  Si27  1  0.708675  0.004922  0.696714  1
  Si  Si28  1  0.302858  0.000921  0.302202  1
  Tc  Tc29  1  0.397180  0.897180  0.794362  1
