# generated using pymatgen
data_Eu2SiGe(Ru2C)2
_symmetry_space_group_name_H-M   'P 1'
_cell_length_a   5.88487499
_cell_length_b   5.88487490
_cell_length_c   7.25244300
_cell_angle_alpha   90.00000000
_cell_angle_beta   90.00000000
_cell_angle_gamma   140.58673913
_symmetry_Int_Tables_number   1
_chemical_formula_structural   Eu2SiGe(Ru2C)2
_chemical_formula_sum   'Eu2 Si1 Ge1 Ru4 C2'
_cell_volume   159.46688803
_cell_formula_units_Z   1
loop_
 _symmetry_equiv_pos_site_id
 _symmetry_equiv_pos_as_xyz
  1  'x, y, z'
loop_
 _atom_site_type_symbol
 _atom_site_label
 _atom_site_symmetry_multiplicity
 _atom_site_fract_x
 _atom_site_fract_y
 _atom_site_fract_z
 _atom_site_occupancy
  Eu  Eu0  1  0.549223  0.450777  0.250000  1
  Eu  Eu1  1  0.451035  0.548965  0.750000  1
  Si  Si2  1  0.729510  0.270490  0.750000  1
  Ge  Ge3  1  0.270752  0.729248  0.250000  1
  Ru  Ru4  1  0.835091  0.164909  0.052345  1
  Ru  Ru5  1  0.164494  0.835506  0.937208  1
  Ru  Ru6  1  0.164494  0.835506  0.562792  1
  Ru  Ru7  1  0.835091  0.164909  0.447655  1
  C  C8  1  0.000155  0.999845  0.998751  1
  C  C9  1  0.000155  0.999845  0.501249  1
