# generated using pymatgen
data_La4B4Ir7Rh3
_symmetry_space_group_name_H-M   'P 1'
_cell_length_a   11.15571842
_cell_length_b   11.15571856
_cell_length_c   11.15572007
_cell_angle_alpha   28.91286351
_cell_angle_beta   28.91286462
_cell_angle_gamma   28.91286708
_symmetry_Int_Tables_number   1
_chemical_formula_structural   La4B4Ir7Rh3
_chemical_formula_sum   'La4 B4 Ir7 Rh3'
_cell_volume   287.00315673
_cell_formula_units_Z   1
loop_
 _symmetry_equiv_pos_site_id
 _symmetry_equiv_pos_as_xyz
  1  'x, y, z'
loop_
 _atom_site_type_symbol
 _atom_site_label
 _atom_site_symmetry_multiplicity
 _atom_site_fract_x
 _atom_site_fract_y
 _atom_site_fract_z
 _atom_site_occupancy
  La  La0  1  0.151624  0.151624  0.151624  1
  La  La1  1  0.950098  0.950098  0.950098  1
  La  La2  1  0.848376  0.848376  0.848376  1
  La  La3  1  0.049902  0.049902  0.049902  1
  B  B4  1  0.617869  0.617869  0.617869  1
  B  B5  1  0.716939  0.716939  0.716939  1
  B  B6  1  0.382131  0.382131  0.382131  1
  B  B7  1  0.283061  0.283061  0.283061  1
  Ir  Ir8  1  0.409196  0.899302  0.409196  1
  Ir  Ir9  1  0.899302  0.409196  0.409196  1
  Ir  Ir10  1  0.500000  0.500000  0.500000  1
  Ir  Ir11  1  0.590804  0.100698  0.590804  1
  Ir  Ir12  1  0.590804  0.590804  0.100698  1
  Ir  Ir13  1  0.100698  0.590804  0.590804  1
  Ir  Ir14  1  0.409196  0.409196  0.899302  1
  Rh  Rh15  1  0.500000  0.500000  0.000000  1
  Rh  Rh16  1  0.500000  0.000000  0.500000  1
  Rh  Rh17  1  0.000000  0.500000  0.500000  1
