# generated using pymatgen
data_Ti4SbRh10Au
_symmetry_space_group_name_H-M   'P 1'
_cell_length_a   3.98655100
_cell_length_b   5.49089491
_cell_length_c   10.99767585
_cell_angle_alpha   87.97208287
_cell_angle_beta   90.00000000
_cell_angle_gamma   90.00000000
_symmetry_Int_Tables_number   1
_chemical_formula_structural   Ti4SbRh10Au
_chemical_formula_sum   'Ti4 Sb1 Rh10 Au1'
_cell_volume   240.58541156
_cell_formula_units_Z   1
loop_
 _symmetry_equiv_pos_site_id
 _symmetry_equiv_pos_as_xyz
  1  'x, y, z'
loop_
 _atom_site_type_symbol
 _atom_site_label
 _atom_site_symmetry_multiplicity
 _atom_site_fract_x
 _atom_site_fract_y
 _atom_site_fract_z
 _atom_site_occupancy
  Ti  Ti0  1  0.500000  0.309226  0.143821  1
  Ti  Ti1  1  0.500000  0.690774  0.856179  1
  Ti  Ti2  1  0.500000  0.785355  0.368538  1
  Ti  Ti3  1  0.500000  0.214645  0.631462  1
  Sb  Sb4  1  0.000000  0.000000  0.000000  1
  Rh  Rh5  1  0.000000  0.000000  0.500000  1
  Rh  Rh6  1  0.000000  0.500000  0.000000  1
  Rh  Rh7  1  0.000000  0.032840  0.249628  1
  Rh  Rh8  1  0.000000  0.967160  0.750372  1
  Rh  Rh9  1  0.000000  0.532553  0.248067  1
  Rh  Rh10  1  0.000000  0.467447  0.751933  1
  Rh  Rh11  1  0.500000  0.259784  0.374405  1
  Rh  Rh12  1  0.500000  0.740216  0.625595  1
  Rh  Rh13  1  0.500000  0.781835  0.120470  1
  Rh  Rh14  1  0.500000  0.218165  0.879530  1
  Au  Au15  1  0.000000  0.500000  0.500000  1
