# generated using pymatgen
data_V8FeCoTe8
_symmetry_space_group_name_H-M   'P 1'
_cell_length_a   4.56003400
_cell_length_b   10.48785300
_cell_length_c   18.26678300
_cell_angle_alpha   90.00000000
_cell_angle_beta   90.00000000
_cell_angle_gamma   90.00000000
_symmetry_Int_Tables_number   1
_chemical_formula_structural   V8FeCoTe8
_chemical_formula_sum   'V16 Fe2 Co2 Te16'
_cell_volume   873.60828078
_cell_formula_units_Z   2
loop_
 _symmetry_equiv_pos_site_id
 _symmetry_equiv_pos_as_xyz
  1  'x, y, z'
loop_
 _atom_site_type_symbol
 _atom_site_label
 _atom_site_symmetry_multiplicity
 _atom_site_fract_x
 _atom_site_fract_y
 _atom_site_fract_z
 _atom_site_occupancy
  V  V0  1  0.499821  0.562572  0.386910  1
  V  V1  1  0.499821  0.437428  0.613090  1
  V  V2  1  0.500179  0.062572  0.113090  1
  V  V3  1  0.500179  0.937428  0.886910  1
  V  V4  1  0.500809  0.699161  0.535305  1
  V  V5  1  0.500809  0.300839  0.464695  1
  V  V6  1  0.499191  0.199161  0.964695  1
  V  V7  1  0.499191  0.800839  0.035305  1
  V  V8  1  0.998753  0.684819  0.444486  1
  V  V9  1  0.998753  0.315181  0.555514  1
  V  V10  1  0.001247  0.184819  0.055514  1
  V  V11  1  0.001247  0.815181  0.944486  1
  V  V12  1  0.000456  0.403655  0.395014  1
  V  V13  1  0.000456  0.596345  0.604986  1
  V  V14  1  0.999544  0.903655  0.104986  1
  V  V15  1  0.999544  0.096345  0.895014  1
  Fe  Fe16  1  0.250194  0.500000  0.500000  1
  Fe  Fe17  1  0.749806  0.000000  0.000000  1
  Co  Co18  1  0.750134  0.500000  0.500000  1
  Co  Co19  1  0.249866  0.000000  0.000000  1
  Te  Te20  1  0.999563  0.844654  0.561920  1
  Te  Te21  1  0.999563  0.155346  0.438080  1
  Te  Te22  1  0.000437  0.344654  0.938080  1
  Te  Te23  1  0.000437  0.655346  0.061920  1
  Te  Te24  1  0.501268  0.333816  0.317449  1
  Te  Te25  1  0.501268  0.666184  0.682551  1
  Te  Te26  1  0.498732  0.833816  0.182551  1
  Te  Te27  1  0.498732  0.166184  0.817449  1
  Te  Te28  1  0.500154  0.820530  0.403794  1
  Te  Te29  1  0.500154  0.179470  0.596206  1
  Te  Te30  1  0.499846  0.320530  0.096206  1
  Te  Te31  1  0.499846  0.679470  0.903794  1
  Te  Te32  1  0.998922  0.606816  0.302874  1
  Te  Te33  1  0.998922  0.393184  0.697126  1
  Te  Te34  1  0.001078  0.106816  0.197126  1
  Te  Te35  1  0.001078  0.893184  0.802874  1
