# generated using pymatgen
data_K3EuSi2O7
_symmetry_space_group_name_H-M   'P 1'
_cell_length_a   5.84883600
_cell_length_b   5.84883438
_cell_length_c   14.17787800
_cell_angle_alpha   90.00001959
_cell_angle_beta   89.99994122
_cell_angle_gamma   119.99996390
_symmetry_Int_Tables_number   1
_chemical_formula_structural   K3EuSi2O7
_chemical_formula_sum   'K6 Eu2 Si4 O14'
_cell_volume   420.03046637
_cell_formula_units_Z   2
loop_
 _symmetry_equiv_pos_site_id
 _symmetry_equiv_pos_as_xyz
  1  'x, y, z'
loop_
 _atom_site_type_symbol
 _atom_site_label
 _atom_site_symmetry_multiplicity
 _atom_site_fract_x
 _atom_site_fract_y
 _atom_site_fract_z
 _atom_site_occupancy
  K  K0  1  0.333333  0.666667  0.409382  1
  K  K1  1  0.000000  0.000000  0.250000  1
  K  K2  1  0.666667  0.333333  0.590618  1
  K  K3  1  0.333333  0.666667  0.090618  1
  K  K4  1  0.666667  0.333333  0.909382  1
  K  K5  1  0.000000  0.000000  0.750000  1
  Eu  Eu6  1  0.000000  0.000000  0.500000  1
  Eu  Eu7  1  0.000000  0.000000  0.000000  1
  Si  Si8  1  0.333333  0.666667  0.633825  1
  Si  Si9  1  0.666666  0.333333  0.366175  1
  Si  Si10  1  0.666667  0.333333  0.133825  1
  Si  Si11  1  0.333333  0.666667  0.866175  1
  O  O12  1  0.359889  0.179945  0.400955  1
  O  O13  1  0.820055  0.179945  0.099045  1
  O  O14  1  0.179944  0.359888  0.599045  1
  O  O15  1  0.179945  0.820055  0.900955  1
  O  O16  1  0.640112  0.820055  0.900955  1
  O  O17  1  0.640112  0.820055  0.599045  1
  O  O18  1  0.359888  0.179944  0.099045  1
  O  O19  1  0.179945  0.820055  0.599045  1
  O  O20  1  0.820055  0.179945  0.400955  1
  O  O21  1  0.179945  0.359889  0.900955  1
  O  O22  1  0.820055  0.640111  0.099045  1
  O  O23  1  0.820055  0.640111  0.400955  1
  O  O24  1  0.666667  0.333333  0.250000  1
  O  O25  1  0.333333  0.666667  0.750000  1
