# generated using pymatgen
data_Hf8Ti4GaSi15Mo8
_symmetry_space_group_name_H-M   'P 1'
_cell_length_a   6.56402356
_cell_length_b   6.73545177
_cell_length_c   12.81302025
_cell_angle_alpha   90.10185209
_cell_angle_beta   89.95010236
_cell_angle_gamma   89.99564918
_symmetry_Int_Tables_number   1
_chemical_formula_structural   Hf8Ti4GaSi15Mo8
_chemical_formula_sum   'Hf8 Ti4 Ga1 Si15 Mo8'
_cell_volume   566.48383600
_cell_formula_units_Z   1
loop_
 _symmetry_equiv_pos_site_id
 _symmetry_equiv_pos_as_xyz
  1  'x, y, z'
loop_
 _atom_site_type_symbol
 _atom_site_label
 _atom_site_symmetry_multiplicity
 _atom_site_fract_x
 _atom_site_fract_y
 _atom_site_fract_z
 _atom_site_occupancy
  Hf  Hf0  1  0.998228  0.172507  0.095177  1
  Hf  Hf1  1  0.001836  0.827679  0.905338  1
  Hf  Hf2  1  0.501828  0.671543  0.905149  1
  Hf  Hf3  1  0.001779  0.830998  0.594919  1
  Hf  Hf4  1  0.497262  0.328192  0.095355  1
  Hf  Hf5  1  0.995444  0.170145  0.403451  1
  Hf  Hf6  1  0.500855  0.327006  0.403112  1
  Hf  Hf7  1  0.508501  0.673743  0.595809  1
  Ti  Ti8  1  0.160694  0.496622  0.752709  1
  Ti  Ti9  1  0.838537  0.502342  0.249409  1
  Ti  Ti10  1  0.338372  0.998233  0.249562  1
  Ti  Ti11  1  0.661310  0.001817  0.750437  1
  Ga  Ga12  1  0.175467  0.460574  0.540748  1
  Si  Si13  1  0.036067  0.120109  0.749454  1
  Si  Si14  1  0.962855  0.881116  0.248590  1
  Si  Si15  1  0.463455  0.620254  0.249657  1
  Si  Si16  1  0.534297  0.381032  0.750478  1
  Si  Si17  1  0.296469  0.859824  0.750254  1
  Si  Si18  1  0.702431  0.137859  0.249168  1
  Si  Si19  1  0.202266  0.363425  0.250627  1
  Si  Si20  1  0.798479  0.637404  0.750185  1
  Si  Si21  1  0.831961  0.539465  0.459698  1
  Si  Si22  1  0.329882  0.960289  0.460349  1
  Si  Si23  1  0.829888  0.539525  0.040361  1
  Si  Si24  1  0.669712  0.039802  0.539535  1
  Si  Si25  1  0.169563  0.459420  0.960319  1
  Si  Si26  1  0.669007  0.039748  0.960002  1
  Si  Si27  1  0.330044  0.959864  0.040209  1
  Mo  Mo28  1  0.340143  0.160129  0.626408  1
  Mo  Mo29  1  0.664431  0.832895  0.375523  1
  Mo  Mo30  1  0.160989  0.674763  0.372957  1
  Mo  Mo31  1  0.663140  0.833430  0.123401  1
  Mo  Mo32  1  0.830391  0.332375  0.624894  1
  Mo  Mo33  1  0.335621  0.165866  0.877167  1
  Mo  Mo34  1  0.835266  0.332345  0.876626  1
  Mo  Mo35  1  0.163534  0.667662  0.122961  1
