# generated using pymatgen
data_Ce2Sm3(TcB3)2
_symmetry_space_group_name_H-M   'P 1'
_cell_length_a   5.56695676
_cell_length_b   5.56695695
_cell_length_c   8.51583126
_cell_angle_alpha   70.92174013
_cell_angle_beta   70.92173837
_cell_angle_gamma   59.99998994
_symmetry_Int_Tables_number   1
_chemical_formula_structural   Ce2Sm3(TcB3)2
_chemical_formula_sum   'Ce2 Sm3 Tc2 B6'
_cell_volume   211.65241776
_cell_formula_units_Z   1
loop_
 _symmetry_equiv_pos_site_id
 _symmetry_equiv_pos_as_xyz
  1  'x, y, z'
loop_
 _atom_site_type_symbol
 _atom_site_label
 _atom_site_symmetry_multiplicity
 _atom_site_fract_x
 _atom_site_fract_y
 _atom_site_fract_z
 _atom_site_occupancy
  Ce  Ce0  1  0.998089  0.998089  0.005733  1
  Ce  Ce1  1  0.416155  0.416155  0.751535  1
  Sm  Sm2  1  0.749508  0.749508  0.751475  1
  Sm  Sm3  1  0.250616  0.250616  0.248153  1
  Sm  Sm4  1  0.583763  0.583763  0.248710  1
  Tc  Tc5  1  0.890803  0.890803  0.327592  1
  Tc  Tc6  1  0.110171  0.110171  0.669486  1
  B  B7  1  0.500229  0.170901  0.499553  1
  B  B8  1  0.829317  0.500229  0.499553  1
  B  B9  1  0.170901  0.829317  0.499553  1
  B  B10  1  0.170901  0.500229  0.499553  1
  B  B11  1  0.829317  0.170901  0.499553  1
  B  B12  1  0.500229  0.829317  0.499553  1
