# generated using pymatgen
data_Ce8HfSi16W11
_symmetry_space_group_name_H-M   'P 1'
_cell_length_a   6.96746263
_cell_length_b   6.96746340
_cell_length_c   13.00588617
_cell_angle_alpha   90.01959939
_cell_angle_beta   90.01959694
_cell_angle_gamma   89.83035244
_symmetry_Int_Tables_number   1
_chemical_formula_structural   Ce8HfSi16W11
_chemical_formula_sum   'Ce8 Hf1 Si16 W11'
_cell_volume   631.37493742
_cell_formula_units_Z   1
loop_
 _symmetry_equiv_pos_site_id
 _symmetry_equiv_pos_as_xyz
  1  'x, y, z'
loop_
 _atom_site_type_symbol
 _atom_site_label
 _atom_site_symmetry_multiplicity
 _atom_site_fract_x
 _atom_site_fract_y
 _atom_site_fract_z
 _atom_site_occupancy
  Ce  Ce0  1  0.000686  0.333678  0.219925  1
  Ce  Ce1  1  0.001739  0.668528  0.719582  1
  Ce  Ce2  1  0.166345  0.501779  0.468553  1
  Ce  Ce3  1  0.498221  0.833655  0.031447  1
  Ce  Ce4  1  0.835104  0.501867  0.972138  1
  Ce  Ce5  1  0.498133  0.164896  0.527862  1
  Ce  Ce6  1  0.331472  0.998261  0.780418  1
  Ce  Ce7  1  0.666322  0.999314  0.280075  1
  Hf  Hf8  1  0.668029  0.331971  0.750000  1
  Si  Si9  1  0.379792  0.300143  0.314470  1
  Si  Si10  1  0.622777  0.706329  0.815520  1
  Si  Si11  1  0.199453  0.879809  0.564847  1
  Si  Si12  1  0.120191  0.800547  0.935153  1
  Si  Si13  1  0.799697  0.119735  0.064489  1
  Si  Si14  1  0.880265  0.200303  0.435511  1
  Si  Si15  1  0.293671  0.377223  0.684480  1
  Si  Si16  1  0.699857  0.620208  0.185530  1
  Si  Si17  1  0.284873  0.032691  0.185897  1
  Si  Si18  1  0.711442  0.959740  0.682046  1
  Si  Si19  1  0.466700  0.784329  0.434899  1
  Si  Si20  1  0.215671  0.533300  0.065101  1
  Si  Si21  1  0.530144  0.213552  0.939126  1
  Si  Si22  1  0.786448  0.469856  0.560874  1
  Si  Si23  1  0.040260  0.288558  0.817954  1
  Si  Si24  1  0.967309  0.715127  0.314103  1
  W  W25  1  0.167252  0.166088  0.002471  1
  W  W26  1  0.833912  0.832748  0.497529  1
  W  W27  1  0.332993  0.667007  0.250000  1
  W  W28  1  0.170389  0.002254  0.376156  1
  W  W29  1  0.831418  0.000634  0.874986  1
  W  W30  1  0.497111  0.667063  0.625980  1
  W  W31  1  0.332937  0.502889  0.874020  1
  W  W32  1  0.501970  0.329691  0.127792  1
  W  W33  1  0.670309  0.498030  0.372208  1
  W  W34  1  0.999366  0.168582  0.625014  1
  W  W35  1  0.997746  0.829611  0.123844  1
