# generated using pymatgen
data_Hf16Co4TcRh3
_symmetry_space_group_name_H-M   'P 1'
_cell_length_a   8.60850025
_cell_length_b   8.58093573
_cell_length_c   8.58093700
_cell_angle_alpha   59.99999896
_cell_angle_beta   60.10586426
_cell_angle_gamma   60.10586722
_symmetry_Int_Tables_number   1
_chemical_formula_structural   Hf16Co4TcRh3
_chemical_formula_sum   'Hf16 Co4 Tc1 Rh3'
_cell_volume   448.92619597
_cell_formula_units_Z   1
loop_
 _symmetry_equiv_pos_site_id
 _symmetry_equiv_pos_as_xyz
  1  'x, y, z'
loop_
 _atom_site_type_symbol
 _atom_site_label
 _atom_site_symmetry_multiplicity
 _atom_site_fract_x
 _atom_site_fract_y
 _atom_site_fract_z
 _atom_site_occupancy
  Hf  Hf0  1  0.676280  0.107906  0.107906  1
  Hf  Hf1  1  0.105111  0.685002  0.104942  1
  Hf  Hf2  1  0.105111  0.104942  0.685002  1
  Hf  Hf3  1  0.105111  0.104942  0.104942  1
  Hf  Hf4  1  0.314319  0.313511  0.686086  1
  Hf  Hf5  1  0.691411  0.681860  0.313365  1
  Hf  Hf6  1  0.314319  0.686086  0.313511  1
  Hf  Hf7  1  0.691411  0.313365  0.681860  1
  Hf  Hf8  1  0.691411  0.313365  0.313365  1
  Hf  Hf9  1  0.314319  0.686086  0.686086  1
  Hf  Hf10  1  0.943234  0.946840  0.554963  1
  Hf  Hf11  1  0.556171  0.555639  0.944096  1
  Hf  Hf12  1  0.943234  0.554963  0.946840  1
  Hf  Hf13  1  0.556171  0.944096  0.555639  1
  Hf  Hf14  1  0.556171  0.944096  0.944096  1
  Hf  Hf15  1  0.943234  0.554963  0.554963  1
  Co  Co16  1  0.322029  0.892657  0.892657  1
  Co  Co17  1  0.891059  0.318658  0.895142  1
  Co  Co18  1  0.891059  0.895142  0.318658  1
  Co  Co19  1  0.891059  0.895142  0.895142  1
  Tc  Tc20  1  0.999086  0.333638  0.333638  1
  Rh  Rh21  1  0.332896  0.994890  0.336107  1
  Rh  Rh22  1  0.332896  0.336107  0.994890  1
  Rh  Rh23  1  0.332896  0.336107  0.336107  1
