# generated using pymatgen
data_YEr3ReB12Rh
_symmetry_space_group_name_H-M   'P 1'
_cell_length_a   3.66513800
_cell_length_b   9.12405622
_cell_length_c   11.51809517
_cell_angle_alpha   90.41033770
_cell_angle_beta   90.00000000
_cell_angle_gamma   90.00000000
_symmetry_Int_Tables_number   1
_chemical_formula_structural   YEr3ReB12Rh
_chemical_formula_sum   'Y2 Er6 Re2 B24 Rh2'
_cell_volume   385.16588044
_cell_formula_units_Z   2
loop_
 _symmetry_equiv_pos_site_id
 _symmetry_equiv_pos_as_xyz
  1  'x, y, z'
loop_
 _atom_site_type_symbol
 _atom_site_label
 _atom_site_symmetry_multiplicity
 _atom_site_fract_x
 _atom_site_fract_y
 _atom_site_fract_z
 _atom_site_occupancy
  Y  Y0  1  0.000000  0.318088  0.410897  1
  Y  Y1  1  0.000000  0.681912  0.589103  1
  Er  Er2  1  0.000000  0.826127  0.082546  1
  Er  Er3  1  0.000000  0.173873  0.917454  1
  Er  Er4  1  0.000000  0.945211  0.371583  1
  Er  Er5  1  0.000000  0.054789  0.628417  1
  Er  Er6  1  0.000000  0.442370  0.126535  1
  Er  Er7  1  0.000000  0.557630  0.873465  1
  Re  Re8  1  0.000000  0.138425  0.179393  1
  Re  Re9  1  0.000000  0.861575  0.820607  1
  B  B10  1  0.500000  0.554588  0.433953  1
  B  B11  1  0.500000  0.445412  0.566047  1
  B  B12  1  0.500000  0.052850  0.067138  1
  B  B13  1  0.500000  0.947150  0.932862  1
  B  B14  1  0.500000  0.749432  0.420916  1
  B  B15  1  0.500000  0.250568  0.579084  1
  B  B16  1  0.500000  0.248612  0.080973  1
  B  B17  1  0.500000  0.751388  0.919027  1
  B  B18  1  0.500000  0.791485  0.264871  1
  B  B19  1  0.500000  0.208515  0.735129  1
  B  B20  1  0.500000  0.292781  0.234433  1
  B  B21  1  0.500000  0.707219  0.765567  1
  B  B22  1  0.500000  0.632394  0.183133  1
  B  B23  1  0.500000  0.367606  0.816867  1
  B  B24  1  0.500000  0.131356  0.314669  1
  B  B25  1  0.500000  0.868644  0.685331  1
  B  B26  1  0.500000  0.982472  0.212868  1
  B  B27  1  0.500000  0.017528  0.787132  1
  B  B28  1  0.500000  0.483572  0.287380  1
  B  B29  1  0.500000  0.516428  0.712620  1
  B  B30  1  0.500000  0.605768  0.029393  1
  B  B31  1  0.500000  0.394232  0.970607  1
  B  B32  1  0.500000  0.106361  0.471278  1
  B  B33  1  0.500000  0.893639  0.528722  1
  Rh  Rh34  1  0.000000  0.638282  0.320852  1
  Rh  Rh35  1  0.000000  0.361718  0.679148  1
