# generated using pymatgen
data_RbU2O6
_symmetry_space_group_name_H-M   'P 1'
_cell_length_a   7.94609889
_cell_length_b   7.94609987
_cell_length_c   7.94609858
_cell_angle_alpha   120.01916173
_cell_angle_beta   119.87145686
_cell_angle_gamma   90.09480226
_symmetry_Int_Tables_number   1
_chemical_formula_structural   RbU2O6
_chemical_formula_sum   'Rb2 U4 O12'
_cell_volume   355.06204215
_cell_formula_units_Z   2
loop_
 _symmetry_equiv_pos_site_id
 _symmetry_equiv_pos_as_xyz
  1  'x, y, z'
loop_
 _atom_site_type_symbol
 _atom_site_label
 _atom_site_symmetry_multiplicity
 _atom_site_fract_x
 _atom_site_fract_y
 _atom_site_fract_z
 _atom_site_occupancy
  Rb  Rb0  1  0.219982  0.901533  0.818448  1
  Rb  Rb1  1  0.916915  0.098467  0.318448  1
  U  U2  1  0.001846  0.499959  0.001886  1
  U  U3  1  0.501927  0.500041  0.501886  1
  U  U4  1  0.501880  0.000000  0.501880  1
  U  U5  1  0.501880  0.500000  0.001880  1
  O  O6  1  0.564261  0.817444  0.246817  1
  O  O7  1  0.188089  0.436068  0.252022  1
  O  O8  1  0.562005  0.430880  0.247122  1
  O  O9  1  0.185342  0.817146  0.251706  1
  O  O10  1  0.185342  0.433636  0.868195  1
  O  O11  1  0.562005  0.814883  0.631125  1
  O  O12  1  0.429372  0.182556  0.746817  1
  O  O13  1  0.815953  0.563932  0.752022  1
  O  O14  1  0.434560  0.566364  0.751706  1
  O  O15  1  0.816242  0.185117  0.747122  1
  O  O16  1  0.816242  0.569120  0.131125  1
  O  O17  1  0.434560  0.182854  0.368195  1
