# generated using pymatgen
data_Zr3Be2Nb7Sn6
_symmetry_space_group_name_H-M   'P 1'
_cell_length_a   8.37569800
_cell_length_b   8.36607153
_cell_length_c   5.62924600
_cell_angle_alpha   90.00000000
_cell_angle_beta   90.00000000
_cell_angle_gamma   120.03806278
_symmetry_Int_Tables_number   1
_chemical_formula_structural   Zr3Be2Nb7Sn6
_chemical_formula_sum   'Zr3 Be2 Nb7 Sn6'
_cell_volume   341.47329344
_cell_formula_units_Z   1
loop_
 _symmetry_equiv_pos_site_id
 _symmetry_equiv_pos_as_xyz
  1  'x, y, z'
loop_
 _atom_site_type_symbol
 _atom_site_label
 _atom_site_symmetry_multiplicity
 _atom_site_fract_x
 _atom_site_fract_y
 _atom_site_fract_z
 _atom_site_occupancy
  Zr  Zr0  1  0.997972  0.247600  0.250000  1
  Zr  Zr1  1  0.750372  0.752400  0.250000  1
  Zr  Zr2  1  0.746762  0.000000  0.750000  1
  Be  Be3  1  0.011065  0.000000  0.989244  1
  Be  Be4  1  0.011065  0.000000  0.510756  1
  Nb  Nb5  1  0.333042  0.666493  0.000516  1
  Nb  Nb6  1  0.666549  0.333507  0.499484  1
  Nb  Nb7  1  0.666549  0.333507  0.000516  1
  Nb  Nb8  1  0.333042  0.666493  0.499484  1
  Nb  Nb9  1  0.249024  0.000000  0.250000  1
  Nb  Nb10  1  0.251567  0.253896  0.750000  1
  Nb  Nb11  1  0.997671  0.746104  0.750000  1
  Sn  Sn12  1  0.599265  0.000000  0.250000  1
  Sn  Sn13  1  0.603953  0.602968  0.750000  1
  Sn  Sn14  1  0.000985  0.397032  0.750000  1
  Sn  Sn15  1  0.001831  0.609341  0.250000  1
  Sn  Sn16  1  0.392490  0.390659  0.250000  1
  Sn  Sn17  1  0.386796  0.000000  0.750000  1
