# generated using pymatgen
data_Rb7TaAs4
_symmetry_space_group_name_H-M   'P 1'
_cell_length_a   8.77254800
_cell_length_b   9.64884100
_cell_length_c   10.81128200
_cell_angle_alpha   90.00000000
_cell_angle_beta   90.00000000
_cell_angle_gamma   90.00000000
_symmetry_Int_Tables_number   1
_chemical_formula_structural   Rb7TaAs4
_chemical_formula_sum   'Rb14 Ta2 As8'
_cell_volume   915.12010882
_cell_formula_units_Z   2
loop_
 _symmetry_equiv_pos_site_id
 _symmetry_equiv_pos_as_xyz
  1  'x, y, z'
loop_
 _atom_site_type_symbol
 _atom_site_label
 _atom_site_symmetry_multiplicity
 _atom_site_fract_x
 _atom_site_fract_y
 _atom_site_fract_z
 _atom_site_occupancy
  Rb  Rb0  1  0.877937  0.028760  0.000000  1
  Rb  Rb1  1  0.708253  0.832901  0.714976  1
  Rb  Rb2  1  0.391021  0.887739  0.000000  1
  Rb  Rb3  1  0.377937  0.971240  0.500000  1
  Rb  Rb4  1  0.873324  0.468214  0.288335  1
  Rb  Rb5  1  0.891021  0.112261  0.500000  1
  Rb  Rb6  1  0.664639  0.339081  0.000000  1
  Rb  Rb7  1  0.164639  0.660919  0.500000  1
  Rb  Rb8  1  0.208253  0.167099  0.214976  1
  Rb  Rb9  1  0.373324  0.531786  0.211665  1
  Rb  Rb10  1  0.373324  0.531786  0.788335  1
  Rb  Rb11  1  0.873324  0.468214  0.711665  1
  Rb  Rb12  1  0.708253  0.832901  0.285024  1
  Rb  Rb13  1  0.208253  0.167099  0.785024  1
  Ta  Ta14  1  0.998373  0.672702  0.000000  1
  Ta  Ta15  1  0.498373  0.327298  0.500000  1
  As  As16  1  0.711564  0.683039  0.000000  1
  As  As17  1  0.211564  0.316961  0.500000  1
  As  As18  1  0.074652  0.419685  0.000000  1
  As  As19  1  0.574652  0.580315  0.500000  1
  As  As20  1  0.089881  0.800115  0.194383  1
  As  As21  1  0.589881  0.199885  0.305617  1
  As  As22  1  0.589881  0.199885  0.694383  1
  As  As23  1  0.089881  0.800115  0.805617  1
