# generated using pymatgen
data_Ba2Fe2Pb2O7
_symmetry_space_group_name_H-M   'P 1'
_cell_length_a   5.98554691
_cell_length_b   6.00157342
_cell_length_c   7.98483062
_cell_angle_alpha   89.95670364
_cell_angle_beta   90.03186759
_cell_angle_gamma   119.99736921
_symmetry_Int_Tables_number   1
_chemical_formula_structural   Ba2Fe2Pb2O7
_chemical_formula_sum   'Ba2 Fe2 Pb2 O7'
_cell_volume   248.41435093
_cell_formula_units_Z   1
loop_
 _symmetry_equiv_pos_site_id
 _symmetry_equiv_pos_as_xyz
  1  'x, y, z'
loop_
 _atom_site_type_symbol
 _atom_site_label
 _atom_site_symmetry_multiplicity
 _atom_site_fract_x
 _atom_site_fract_y
 _atom_site_fract_z
 _atom_site_occupancy
  Ba  Ba0  1  0.333296  0.666582  0.404013  1
  Ba  Ba1  1  0.666705  0.333419  0.595987  1
  Fe  Fe2  1  0.999911  0.999776  0.235282  1
  Fe  Fe3  1  0.000089  0.000224  0.764718  1
  Pb  Pb4  1  0.666667  0.333184  0.135804  1
  Pb  Pb5  1  0.333334  0.666817  0.864196  1
  O  O6  1  0.000000  0.000000  0.000000  1
  O  O7  1  0.341609  0.116910  0.315135  1
  O  O8  1  0.882904  0.224395  0.315156  1
  O  O9  1  0.775362  0.658149  0.315223  1
  O  O10  1  0.224637  0.341850  0.684777  1
  O  O11  1  0.117096  0.775605  0.684844  1
  O  O12  1  0.658389  0.883089  0.684865  1
