# generated using pymatgen
data_LaTm5(RuO7)2
_symmetry_space_group_name_H-M   'P 1'
_cell_length_a   6.46001273
_cell_length_b   6.46001289
_cell_length_c   7.46065800
_cell_angle_alpha   89.89080114
_cell_angle_beta   90.10920774
_cell_angle_gamma   108.63340666
_symmetry_Int_Tables_number   1
_chemical_formula_structural   LaTm5(RuO7)2
_chemical_formula_sum   'La1 Tm5 Ru2 O14'
_cell_volume   295.02554767
_cell_formula_units_Z   1
loop_
 _symmetry_equiv_pos_site_id
 _symmetry_equiv_pos_as_xyz
  1  'x, y, z'
loop_
 _atom_site_type_symbol
 _atom_site_label
 _atom_site_symmetry_multiplicity
 _atom_site_fract_x
 _atom_site_fract_y
 _atom_site_fract_z
 _atom_site_occupancy
  La  La0  1  0.506060  0.506060  0.500000  1
  Tm  Tm1  1  0.459725  0.459725  0.000000  1
  Tm  Tm2  1  0.998683  0.536784  0.240245  1
  Tm  Tm3  1  0.998055  0.465676  0.749169  1
  Tm  Tm4  1  0.536784  0.998683  0.759755  1
  Tm  Tm5  1  0.465676  0.998055  0.250831  1
  Ru  Ru6  1  0.000087  0.000087  0.500000  1
  Ru  Ru7  1  0.000189  0.000189  0.000000  1
  O  O8  1  0.929255  0.072518  0.749684  1
  O  O9  1  0.072518  0.929255  0.250316  1
  O  O10  1  0.356439  0.642683  0.235497  1
  O  O11  1  0.642683  0.356439  0.764503  1
  O  O12  1  0.364600  0.633549  0.764724  1
  O  O13  1  0.633549  0.364600  0.235276  1
  O  O14  1  0.326959  0.079982  0.974376  1
  O  O15  1  0.677664  0.932340  0.472817  1
  O  O16  1  0.316933  0.061982  0.536118  1
  O  O17  1  0.692142  0.947699  0.037676  1
  O  O18  1  0.061982  0.316933  0.463882  1
  O  O19  1  0.947699  0.692142  0.962324  1
  O  O20  1  0.932340  0.677664  0.527183  1
  O  O21  1  0.079982  0.326959  0.025624  1
