# generated using pymatgen
data_Pr2Sc2ReTcB12
_symmetry_space_group_name_H-M   'P 1'
_cell_length_a   3.65814900
_cell_length_b   9.10386416
_cell_length_c   11.58522842
_cell_angle_alpha   90.01113863
_cell_angle_beta   90.00000000
_cell_angle_gamma   90.00000000
_symmetry_Int_Tables_number   1
_chemical_formula_structural   Pr2Sc2ReTcB12
_chemical_formula_sum   'Pr4 Sc4 Re2 Tc2 B24'
_cell_volume   385.82623258
_cell_formula_units_Z   2
loop_
 _symmetry_equiv_pos_site_id
 _symmetry_equiv_pos_as_xyz
  1  'x, y, z'
loop_
 _atom_site_type_symbol
 _atom_site_label
 _atom_site_symmetry_multiplicity
 _atom_site_fract_x
 _atom_site_fract_y
 _atom_site_fract_z
 _atom_site_occupancy
  Pr  Pr0  1  0.000000  0.321940  0.415194  1
  Pr  Pr1  1  0.000000  0.678060  0.584806  1
  Pr  Pr2  1  0.000000  0.821249  0.085351  1
  Pr  Pr3  1  0.000000  0.178751  0.914649  1
  Sc  Sc4  1  0.000000  0.943193  0.369360  1
  Sc  Sc5  1  0.000000  0.056807  0.630640  1
  Sc  Sc6  1  0.000000  0.444028  0.131176  1
  Sc  Sc7  1  0.000000  0.555972  0.868824  1
  Re  Re8  1  0.000000  0.141547  0.183146  1
  Re  Re9  1  0.000000  0.858453  0.816854  1
  Tc  Tc10  1  0.000000  0.641952  0.316662  1
  Tc  Tc11  1  0.000000  0.358048  0.683338  1
  B  B12  1  0.500000  0.556772  0.428854  1
  B  B13  1  0.500000  0.443228  0.571146  1
  B  B14  1  0.500000  0.056637  0.070856  1
  B  B15  1  0.500000  0.943363  0.929144  1
  B  B16  1  0.500000  0.754653  0.414945  1
  B  B17  1  0.500000  0.245347  0.585055  1
  B  B18  1  0.500000  0.255121  0.084909  1
  B  B19  1  0.500000  0.744879  0.915091  1
  B  B20  1  0.500000  0.794456  0.265804  1
  B  B21  1  0.500000  0.205544  0.734196  1
  B  B22  1  0.500000  0.294744  0.234459  1
  B  B23  1  0.500000  0.705256  0.765541  1
  B  B24  1  0.500000  0.627597  0.184021  1
  B  B25  1  0.500000  0.372403  0.815979  1
  B  B26  1  0.500000  0.127771  0.316404  1
  B  B27  1  0.500000  0.872229  0.683596  1
  B  B28  1  0.500000  0.982795  0.215366  1
  B  B29  1  0.500000  0.017205  0.784634  1
  B  B30  1  0.500000  0.483229  0.284840  1
  B  B31  1  0.500000  0.516771  0.715160  1
  B  B32  1  0.500000  0.592986  0.024919  1
  B  B33  1  0.500000  0.407014  0.975081  1
  B  B34  1  0.500000  0.093128  0.474918  1
  B  B35  1  0.500000  0.906872  0.525082  1
