# generated using pymatgen
data_La2Y7Er11Si15Hg
_symmetry_space_group_name_H-M   'P 1'
_cell_length_a   7.46397680
_cell_length_b   7.74282250
_cell_length_c   14.65951304
_cell_angle_alpha   89.62172865
_cell_angle_beta   90.02278614
_cell_angle_gamma   89.90608808
_symmetry_Int_Tables_number   1
_chemical_formula_structural   La2Y7Er11Si15Hg
_chemical_formula_sum   'La2 Y7 Er11 Si15 Hg1'
_cell_volume   847.18653339
_cell_formula_units_Z   1
loop_
 _symmetry_equiv_pos_site_id
 _symmetry_equiv_pos_as_xyz
  1  'x, y, z'
loop_
 _atom_site_type_symbol
 _atom_site_label
 _atom_site_symmetry_multiplicity
 _atom_site_fract_x
 _atom_site_fract_y
 _atom_site_fract_z
 _atom_site_occupancy
  La  La0  1  0.524204  0.572991  0.342277  1
  La  La1  1  0.024244  0.428787  0.655371  1
  Y  Y2  1  0.851124  0.737973  0.499940  1
  Y  Y3  1  0.471144  0.939666  0.844097  1
  Y  Y4  1  0.971747  0.068285  0.152786  1
  Y  Y5  1  0.468809  0.940215  0.154843  1
  Y  Y6  1  0.970205  0.068181  0.848464  1
  Y  Y7  1  0.528884  0.567518  0.651678  1
  Y  Y8  1  0.028798  0.433347  0.349363  1
  Er  Er9  1  0.822272  0.570208  0.870912  1
  Er  Er10  1  0.306920  0.418577  0.129553  1
  Er  Er11  1  0.182457  0.929128  0.373697  1
  Er  Er12  1  0.681994  0.070752  0.626315  1
  Er  Er13  1  0.183020  0.928819  0.627686  1
  Er  Er14  1  0.682371  0.072017  0.372025  1
  Er  Er15  1  0.826781  0.565502  0.130234  1
  Er  Er16  1  0.311817  0.422771  0.869599  1
  Er  Er17  1  0.644619  0.232751  0.999617  1
  Er  Er18  1  0.145219  0.760808  0.000891  1
  Er  Er19  1  0.351136  0.262449  0.499981  1
  Si  Si20  1  0.019754  0.353459  0.000060  1
  Si  Si21  1  0.477887  0.859823  0.501207  1
  Si  Si22  1  0.977277  0.138785  0.498971  1
  Si  Si23  1  0.648484  0.278459  0.791191  1
  Si  Si24  1  0.151239  0.722764  0.208839  1
  Si  Si25  1  0.351739  0.216727  0.290622  1
  Si  Si26  1  0.853541  0.785455  0.712033  1
  Si  Si27  1  0.361721  0.220157  0.707925  1
  Si  Si28  1  0.862146  0.781885  0.289362  1
  Si  Si29  1  0.644309  0.271692  0.205791  1
  Si  Si30  1  0.147542  0.729202  0.794017  1
  Si  Si31  1  0.777708  0.882221  0.000461  1
  Si  Si32  1  0.262539  0.124004  0.999392  1
  Si  Si33  1  0.234520  0.627576  0.501623  1
  Si  Si34  1  0.732303  0.372737  0.498362  1
  Hg  Hg35  1  0.519524  0.644305  0.000813  1
