# generated using pymatgen
data_Yb6ScAl15Ir7
_symmetry_space_group_name_H-M   'P 1'
_cell_length_a   8.98180617
_cell_length_b   8.98180737
_cell_length_c   9.00931740
_cell_angle_alpha   60.10096616
_cell_angle_beta   60.10096112
_cell_angle_gamma   60.00000032
_symmetry_Int_Tables_number   1
_chemical_formula_structural   Yb6ScAl15Ir7
_chemical_formula_sum   'Yb6 Sc1 Al15 Ir7'
_cell_volume   514.71329298
_cell_formula_units_Z   1
loop_
 _symmetry_equiv_pos_site_id
 _symmetry_equiv_pos_as_xyz
  1  'x, y, z'
loop_
 _atom_site_type_symbol
 _atom_site_label
 _atom_site_symmetry_multiplicity
 _atom_site_fract_x
 _atom_site_fract_y
 _atom_site_fract_z
 _atom_site_occupancy
  Yb  Yb0  1  0.704543  0.704543  0.293590  1
  Yb  Yb1  1  0.297324  0.704543  0.293590  1
  Yb  Yb2  1  0.704543  0.297324  0.293590  1
  Yb  Yb3  1  0.292854  0.292854  0.706859  1
  Yb  Yb4  1  0.707435  0.292854  0.706859  1
  Yb  Yb5  1  0.292854  0.707435  0.706859  1
  Sc  Sc6  1  0.880676  0.880676  0.357974  1
  Al  Al7  1  0.880648  0.356575  0.882132  1
  Al  Al8  1  0.356575  0.880648  0.882132  1
  Al  Al9  1  0.880648  0.880648  0.882132  1
  Al  Al10  1  0.120531  0.120531  0.638405  1
  Al  Al11  1  0.120896  0.642309  0.115898  1
  Al  Al12  1  0.642309  0.120896  0.115898  1
  Al  Al13  1  0.120896  0.120896  0.115898  1
  Al  Al14  1  0.672210  0.672210  0.983369  1
  Al  Al15  1  0.671017  0.980851  0.677114  1
  Al  Al16  1  0.980851  0.671017  0.677114  1
  Al  Al17  1  0.671017  0.671017  0.677114  1
  Al  Al18  1  0.326971  0.326971  0.019088  1
  Al  Al19  1  0.326744  0.021834  0.324680  1
  Al  Al20  1  0.021834  0.326744  0.324680  1
  Al  Al21  1  0.326744  0.326744  0.324680  1
  Ir  Ir22  1  0.002441  0.002441  0.992675  1
  Ir  Ir23  1  0.001349  0.001349  0.503400  1
  Ir  Ir24  1  0.493901  0.001349  0.503400  1
  Ir  Ir25  1  0.001349  0.493901  0.503400  1
  Ir  Ir26  1  0.500483  0.500483  0.999157  1
  Ir  Ir27  1  0.999877  0.500483  0.999157  1
  Ir  Ir28  1  0.500483  0.999877  0.999157  1
