# generated using pymatgen
data_DyErReC2
_symmetry_space_group_name_H-M   'P 1'
_cell_length_a   5.08668600
_cell_length_b   6.56699600
_cell_length_c   9.82572200
_cell_angle_alpha   90.00000000
_cell_angle_beta   90.00000000
_cell_angle_gamma   90.00000000
_symmetry_Int_Tables_number   1
_chemical_formula_structural   DyErReC2
_chemical_formula_sum   'Dy4 Er4 Re4 C8'
_cell_volume   328.22084086
_cell_formula_units_Z   4
loop_
 _symmetry_equiv_pos_site_id
 _symmetry_equiv_pos_as_xyz
  1  'x, y, z'
loop_
 _atom_site_type_symbol
 _atom_site_label
 _atom_site_symmetry_multiplicity
 _atom_site_fract_x
 _atom_site_fract_y
 _atom_site_fract_z
 _atom_site_occupancy
  Dy  Dy0  1  0.250000  0.467912  0.216493  1
  Dy  Dy1  1  0.250000  0.967912  0.283507  1
  Dy  Dy2  1  0.750000  0.532088  0.783507  1
  Dy  Dy3  1  0.750000  0.032088  0.716493  1
  Er  Er4  1  0.250000  0.820888  0.943011  1
  Er  Er5  1  0.250000  0.320888  0.556989  1
  Er  Er6  1  0.750000  0.179112  0.056989  1
  Er  Er7  1  0.750000  0.679112  0.443011  1
  Re  Re8  1  0.250000  0.278473  0.866718  1
  Re  Re9  1  0.250000  0.778473  0.633282  1
  Re  Re10  1  0.750000  0.721527  0.133282  1
  Re  Re11  1  0.750000  0.221527  0.366718  1
  C  C12  1  0.250000  0.045532  0.740912  1
  C  C13  1  0.250000  0.545532  0.759088  1
  C  C14  1  0.750000  0.954468  0.259088  1
  C  C15  1  0.750000  0.454468  0.240912  1
  C  C16  1  0.250000  0.674704  0.449667  1
  C  C17  1  0.250000  0.174704  0.050333  1
  C  C18  1  0.750000  0.325296  0.550333  1
  C  C19  1  0.750000  0.825296  0.949667  1
