# generated using pymatgen
data_PrThB10Rh
_symmetry_space_group_name_H-M   'P 1'
_cell_length_a   4.21211700
_cell_length_b   5.74458513
_cell_length_c   11.46757390
_cell_angle_alpha   90.06036791
_cell_angle_beta   90.00000000
_cell_angle_gamma   90.00000000
_symmetry_Int_Tables_number   1
_chemical_formula_structural   PrThB10Rh
_chemical_formula_sum   'Pr2 Th2 B20 Rh2'
_cell_volume   277.47917992
_cell_formula_units_Z   2
loop_
 _symmetry_equiv_pos_site_id
 _symmetry_equiv_pos_as_xyz
  1  'x, y, z'
loop_
 _atom_site_type_symbol
 _atom_site_label
 _atom_site_symmetry_multiplicity
 _atom_site_fract_x
 _atom_site_fract_y
 _atom_site_fract_z
 _atom_site_occupancy
  Pr  Pr0  1  0.500000  0.296383  0.864592  1
  Pr  Pr1  1  0.500000  0.703617  0.135408  1
  Th  Th2  1  0.500000  0.797268  0.636687  1
  Th  Th3  1  0.500000  0.202732  0.363313  1
  B  B4  1  0.000000  0.117816  0.542787  1
  B  B5  1  0.000000  0.882184  0.457213  1
  B  B6  1  0.000000  0.618543  0.956507  1
  B  B7  1  0.000000  0.381457  0.043493  1
  B  B8  1  0.000000  0.135447  0.696456  1
  B  B9  1  0.000000  0.864553  0.303544  1
  B  B10  1  0.300402  0.217868  0.118815  1
  B  B11  1  0.300402  0.782132  0.881185  1
  B  B12  1  0.698336  0.717919  0.381462  1
  B  B13  1  0.698336  0.282081  0.618538  1
  B  B14  1  0.699598  0.782132  0.881185  1
  B  B15  1  0.699598  0.217868  0.118815  1
  B  B16  1  0.301664  0.282081  0.618538  1
  B  B17  1  0.301664  0.717919  0.381462  1
  B  B18  1  0.000000  0.056026  0.193016  1
  B  B19  1  0.000000  0.943974  0.806984  1
  B  B20  1  0.000000  0.554782  0.308085  1
  B  B21  1  0.000000  0.445218  0.691915  1
  B  B22  1  0.000000  0.362611  0.197663  1
  B  B23  1  0.000000  0.637389  0.802337  1
  Rh  Rh24  1  0.000000  0.500000  0.500000  1
  Rh  Rh25  1  0.000000  0.000000  0.000000  1
