# generated using pymatgen
data_DyLu5U2(ReB6)4
_symmetry_space_group_name_H-M   'P 1'
_cell_length_a   3.64692600
_cell_length_b   9.07072021
_cell_length_c   11.43187621
_cell_angle_alpha   90.33506652
_cell_angle_beta   90.00000000
_cell_angle_gamma   90.00000000
_symmetry_Int_Tables_number   1
_chemical_formula_structural   DyLu5U2(ReB6)4
_chemical_formula_sum   'Dy1 Lu5 U2 Re4 B24'
_cell_volume   378.16280355
_cell_formula_units_Z   1
loop_
 _symmetry_equiv_pos_site_id
 _symmetry_equiv_pos_as_xyz
  1  'x, y, z'
loop_
 _atom_site_type_symbol
 _atom_site_label
 _atom_site_symmetry_multiplicity
 _atom_site_fract_x
 _atom_site_fract_y
 _atom_site_fract_z
 _atom_site_occupancy
  Dy  Dy0  1  0.000000  0.822699  0.085770  1
  Lu  Lu1  1  0.000000  0.177373  0.914352  1
  Lu  Lu2  1  0.000000  0.945311  0.372662  1
  Lu  Lu3  1  0.000000  0.054918  0.627423  1
  Lu  Lu4  1  0.000000  0.443803  0.126400  1
  Lu  Lu5  1  0.000000  0.555742  0.873358  1
  U  U6  1  0.000000  0.322444  0.413719  1
  U  U7  1  0.000000  0.677557  0.586387  1
  Re  Re8  1  0.000000  0.635919  0.324795  1
  Re  Re9  1  0.000000  0.363567  0.675666  1
  Re  Re10  1  0.000000  0.141632  0.182298  1
  Re  Re11  1  0.000000  0.859188  0.817344  1
  B  B12  1  0.500000  0.553106  0.434158  1
  B  B13  1  0.500000  0.446732  0.566093  1
  B  B14  1  0.500000  0.054243  0.066701  1
  B  B15  1  0.500000  0.947107  0.932520  1
  B  B16  1  0.500000  0.750047  0.420541  1
  B  B17  1  0.500000  0.249957  0.579820  1
  B  B18  1  0.500000  0.249699  0.079506  1
  B  B19  1  0.500000  0.750328  0.919168  1
  B  B20  1  0.500000  0.792699  0.265701  1
  B  B21  1  0.500000  0.206941  0.735172  1
  B  B22  1  0.500000  0.293844  0.234788  1
  B  B23  1  0.500000  0.706198  0.764889  1
  B  B24  1  0.500000  0.630344  0.184965  1
  B  B25  1  0.500000  0.368714  0.815605  1
  B  B26  1  0.500000  0.132716  0.315873  1
  B  B27  1  0.500000  0.867662  0.684160  1
  B  B28  1  0.500000  0.982167  0.212838  1
  B  B29  1  0.500000  0.019156  0.787517  1
  B  B30  1  0.500000  0.481402  0.286794  1
  B  B31  1  0.500000  0.518222  0.713381  1
  B  B32  1  0.500000  0.601440  0.028374  1
  B  B33  1  0.500000  0.397039  0.971154  1
  B  B34  1  0.500000  0.107186  0.470624  1
  B  B35  1  0.500000  0.892899  0.529484  1
