# generated using pymatgen
data_Nd3(ThTe3)4
_symmetry_space_group_name_H-M   'P 1'
_cell_length_a   12.63437200
_cell_length_b   12.63437054
_cell_length_c   4.36324800
_cell_angle_alpha   90.00000000
_cell_angle_beta   90.00000000
_cell_angle_gamma   119.99999860
_symmetry_Int_Tables_number   1
_chemical_formula_structural   Nd3(ThTe3)4
_chemical_formula_sum   'Nd3 Th4 Te12'
_cell_volume   603.18121201
_cell_formula_units_Z   1
loop_
 _symmetry_equiv_pos_site_id
 _symmetry_equiv_pos_as_xyz
  1  'x, y, z'
loop_
 _atom_site_type_symbol
 _atom_site_label
 _atom_site_symmetry_multiplicity
 _atom_site_fract_x
 _atom_site_fract_y
 _atom_site_fract_z
 _atom_site_occupancy
  Nd  Nd0  1  0.434654  0.276030  0.000000  1
  Nd  Nd1  1  0.723970  0.158624  0.000000  1
  Nd  Nd2  1  0.841376  0.565346  0.000000  1
  Th  Th3  1  0.157243  0.445155  0.500000  1
  Th  Th4  1  0.554845  0.712089  0.500000  1
  Th  Th5  1  0.287912  0.842757  0.500000  1
  Th  Th6  1  0.000000  0.000000  0.000000  1
  Te  Te7  1  0.210778  0.208896  0.500000  1
  Te  Te8  1  0.791104  0.001881  0.500000  1
  Te  Te9  1  0.998118  0.789222  0.500000  1
  Te  Te10  1  0.521404  0.133610  0.500000  1
  Te  Te11  1  0.866390  0.387796  0.500000  1
  Te  Te12  1  0.612204  0.478596  0.500000  1
  Te  Te13  1  0.373421  0.509410  0.000000  1
  Te  Te14  1  0.490589  0.864010  0.000000  1
  Te  Te15  1  0.135990  0.626579  0.000000  1
  Te  Te16  1  0.006667  0.253515  0.000000  1
  Te  Te17  1  0.746485  0.753152  0.000000  1
  Te  Te18  1  0.246847  0.993333  0.000000  1
