# generated using pymatgen
data_KBa3YU3O12
_symmetry_space_group_name_H-M   'P 1'
_cell_length_a   6.21441216
_cell_length_b   6.21213002
_cell_length_c   8.76015692
_cell_angle_alpha   89.82470766
_cell_angle_beta   89.87452675
_cell_angle_gamma   89.94701374
_symmetry_Int_Tables_number   1
_chemical_formula_structural   KBa3YU3O12
_chemical_formula_sum   'K1 Ba3 Y1 U3 O12'
_cell_volume   338.18101199
_cell_formula_units_Z   1
loop_
 _symmetry_equiv_pos_site_id
 _symmetry_equiv_pos_as_xyz
  1  'x, y, z'
loop_
 _atom_site_type_symbol
 _atom_site_label
 _atom_site_symmetry_multiplicity
 _atom_site_fract_x
 _atom_site_fract_y
 _atom_site_fract_z
 _atom_site_occupancy
  K  K0  1  0.006856  0.994720  0.754178  1
  Ba  Ba1  1  0.488958  0.498418  0.245033  1
  Ba  Ba2  1  0.513544  0.509895  0.754623  1
  Ba  Ba3  1  0.988367  0.003378  0.243508  1
  Y  Y4  1  0.000637  0.499652  0.996477  1
  U  U5  1  0.000281  0.500073  0.500902  1
  U  U6  1  0.499074  0.000652  0.501551  1
  U  U7  1  0.499263  0.000303  0.999170  1
  O  O8  1  0.246740  0.231225  0.038743  1
  O  O9  1  0.506946  0.939912  0.252179  1
  O  O10  1  0.731217  0.262005  0.461897  1
  O  O11  1  0.728893  0.255463  0.035820  1
  O  O12  1  0.755948  0.761558  0.526500  1
  O  O13  1  0.006289  0.560156  0.259709  1
  O  O14  1  0.239118  0.233238  0.459671  1
  O  O15  1  0.277460  0.738060  0.977819  1
  O  O16  1  0.277032  0.728822  0.526591  1
  O  O17  1  0.493617  0.066297  0.748346  1
  O  O18  1  0.749187  0.765533  0.977388  1
  O  O19  1  0.990573  0.450638  0.739895  1
