# generated using pymatgen
data_Ho3Al12CuRu3
_symmetry_space_group_name_H-M   'P 1'
_cell_length_a   8.82324153
_cell_length_b   8.76944376
_cell_length_c   9.50842154
_cell_angle_alpha   90.00000032
_cell_angle_beta   90.09568676
_cell_angle_gamma   119.79850828
_symmetry_Int_Tables_number   1
_chemical_formula_structural   Ho3Al12CuRu3
_chemical_formula_sum   'Ho6 Al24 Cu2 Ru6'
_cell_volume   638.43497396
_cell_formula_units_Z   2
loop_
 _symmetry_equiv_pos_site_id
 _symmetry_equiv_pos_as_xyz
  1  'x, y, z'
loop_
 _atom_site_type_symbol
 _atom_site_label
 _atom_site_symmetry_multiplicity
 _atom_site_fract_x
 _atom_site_fract_y
 _atom_site_fract_z
 _atom_site_occupancy
  Ho  Ho0  1  0.191272  0.386927  0.250637  1
  Ho  Ho1  1  0.808728  0.613073  0.749363  1
  Ho  Ho2  1  0.614775  0.807388  0.246164  1
  Ho  Ho3  1  0.385225  0.192612  0.753836  1
  Ho  Ho4  1  0.191272  0.804346  0.250637  1
  Ho  Ho5  1  0.808728  0.195654  0.749363  1
  Al  Al6  1  0.329345  0.664673  0.024848  1
  Al  Al7  1  0.670655  0.335327  0.975152  1
  Al  Al8  1  0.665916  0.332957  0.524620  1
  Al  Al9  1  0.334084  0.667043  0.475380  1
  Al  Al10  1  0.164895  0.327191  0.576294  1
  Al  Al11  1  0.835105  0.672809  0.423706  1
  Al  Al12  1  0.673425  0.836713  0.573118  1
  Al  Al13  1  0.842479  0.674321  0.079461  1
  Al  Al14  1  0.326575  0.163287  0.426882  1
  Al  Al15  1  0.157521  0.325679  0.920539  1
  Al  Al16  1  0.164895  0.837706  0.576294  1
  Al  Al17  1  0.322887  0.161443  0.081156  1
  Al  Al18  1  0.835105  0.162294  0.423706  1
  Al  Al19  1  0.677113  0.838557  0.918844  1
  Al  Al20  1  0.842479  0.168156  0.079461  1
  Al  Al21  1  0.157521  0.831844  0.920539  1
  Al  Al22  1  0.561488  0.123400  0.250475  1
  Al  Al23  1  0.438512  0.876600  0.749525  1
  Al  Al24  1  0.876580  0.438290  0.248941  1
  Al  Al25  1  0.123420  0.561710  0.751059  1
  Al  Al26  1  0.561488  0.438088  0.250475  1
  Al  Al27  1  0.438512  0.561912  0.749525  1
  Al  Al28  1  0.996796  0.998398  0.250657  1
  Al  Al29  1  0.003204  0.001602  0.749343  1
  Cu  Cu30  1  0.500000  0.000000  0.000000  1
  Cu  Cu31  1  0.500000  0.500000  0.000000  1
  Ru  Ru32  1  0.000000  0.500000  0.000000  1
  Ru  Ru33  1  0.500000  0.000000  0.500000  1
  Ru  Ru34  1  0.000000  0.500000  0.500000  1
  Ru  Ru35  1  0.500000  0.500000  0.500000  1
  Ru  Ru36  1  0.000000  0.000000  0.000000  1
  Ru  Ru37  1  0.000000  0.000000  0.500000  1
