# generated using pymatgen
data_CaTh7(Nb3Si4)4
_symmetry_space_group_name_H-M   'P 1'
_cell_length_a   7.02146443
_cell_length_b   7.23614144
_cell_length_c   13.60813093
_cell_angle_alpha   90.00787598
_cell_angle_beta   89.84490500
_cell_angle_gamma   90.01494772
_symmetry_Int_Tables_number   1
_chemical_formula_structural   CaTh7(Nb3Si4)4
_chemical_formula_sum   'Ca1 Th7 Nb12 Si16'
_cell_volume   691.40356768
_cell_formula_units_Z   1
loop_
 _symmetry_equiv_pos_site_id
 _symmetry_equiv_pos_as_xyz
  1  'x, y, z'
loop_
 _atom_site_type_symbol
 _atom_site_label
 _atom_site_symmetry_multiplicity
 _atom_site_fract_x
 _atom_site_fract_y
 _atom_site_fract_z
 _atom_site_occupancy
  Ca  Ca0  1  0.999842  0.829613  0.595613  1
  Th  Th1  1  0.502911  0.669482  0.595004  1
  Th  Th2  1  0.002105  0.830576  0.903690  1
  Th  Th3  1  0.500893  0.330059  0.095615  1
  Th  Th4  1  0.997868  0.170035  0.406120  1
  Th  Th5  1  0.498482  0.330164  0.406536  1
  Th  Th6  1  0.999910  0.170572  0.096031  1
  Th  Th7  1  0.502220  0.670183  0.902418  1
  Nb  Nb8  1  0.661118  0.174698  0.624395  1
  Nb  Nb9  1  0.162802  0.327394  0.874620  1
  Nb  Nb10  1  0.338188  0.828034  0.125078  1
  Nb  Nb11  1  0.834527  0.672006  0.375142  1
  Nb  Nb12  1  0.337352  0.827673  0.375153  1
  Nb  Nb13  1  0.836288  0.671424  0.124978  1
  Nb  Nb14  1  0.665534  0.171216  0.874517  1
  Nb  Nb15  1  0.165741  0.326535  0.625097  1
  Nb  Nb16  1  0.834435  0.489432  0.751424  1
  Nb  Nb17  1  0.336205  0.006496  0.748981  1
  Nb  Nb18  1  0.163657  0.507610  0.250328  1
  Nb  Nb19  1  0.663119  0.993059  0.250814  1
  Si  Si20  1  0.658005  0.957659  0.456779  1
  Si  Si21  1  0.160483  0.543575  0.043743  1
  Si  Si22  1  0.340850  0.044092  0.955270  1
  Si  Si23  1  0.844062  0.462523  0.545129  1
  Si  Si24  1  0.335339  0.038860  0.544904  1
  Si  Si25  1  0.840062  0.456376  0.956063  1
  Si  Si26  1  0.660665  0.956355  0.043732  1
  Si  Si27  1  0.157418  0.545339  0.457294  1
  Si  Si28  1  0.458078  0.366608  0.750146  1
  Si  Si29  1  0.959460  0.130460  0.747668  1
  Si  Si30  1  0.540996  0.631659  0.250604  1
  Si  Si31  1  0.041174  0.868336  0.250733  1
  Si  Si32  1  0.703405  0.885376  0.746807  1
  Si  Si33  1  0.197086  0.616563  0.747519  1
  Si  Si34  1  0.299405  0.115075  0.250910  1
  Si  Si35  1  0.800317  0.384882  0.251144  1
