# generated using pymatgen
data_Lu2Al7Ga2Ir3
_symmetry_space_group_name_H-M   'P 1'
_cell_length_a   7.50930203
_cell_length_b   7.50887071
_cell_length_c   9.48755800
_cell_angle_alpha   90.00000000
_cell_angle_beta   90.00000000
_cell_angle_gamma   119.60022708
_symmetry_Int_Tables_number   1
_chemical_formula_structural   Lu2Al7Ga2Ir3
_chemical_formula_sum   'Lu4 Al14 Ga4 Ir6'
_cell_volume   465.15181411
_cell_formula_units_Z   2
loop_
 _symmetry_equiv_pos_site_id
 _symmetry_equiv_pos_as_xyz
  1  'x, y, z'
loop_
 _atom_site_type_symbol
 _atom_site_label
 _atom_site_symmetry_multiplicity
 _atom_site_fract_x
 _atom_site_fract_y
 _atom_site_fract_z
 _atom_site_occupancy
  Lu  Lu0  1  0.996681  0.671588  0.250000  1
  Lu  Lu1  1  0.003319  0.328412  0.750000  1
  Lu  Lu2  1  0.669770  0.994481  0.250000  1
  Lu  Lu3  1  0.330230  0.005519  0.750000  1
  Al  Al4  1  0.000857  0.334669  0.073675  1
  Al  Al5  1  0.999143  0.665331  0.926325  1
  Al  Al6  1  0.999143  0.665331  0.573675  1
  Al  Al7  1  0.334911  0.001139  0.426253  1
  Al  Al8  1  0.000857  0.334669  0.426325  1
  Al  Al9  1  0.665089  0.998861  0.573747  1
  Al  Al10  1  0.665089  0.998861  0.926253  1
  Al  Al11  1  0.334911  0.001139  0.073747  1
  Al  Al12  1  0.333436  0.333595  0.556684  1
  Al  Al13  1  0.666564  0.666405  0.443316  1
  Al  Al14  1  0.666564  0.666405  0.056684  1
  Al  Al15  1  0.333436  0.333595  0.943316  1
  Al  Al16  1  0.548994  0.338337  0.250000  1
  Al  Al17  1  0.451006  0.661663  0.750000  1
  Ga  Ga18  1  0.128402  0.128805  0.250000  1
  Ga  Ga19  1  0.871598  0.871195  0.750000  1
  Ga  Ga20  1  0.338191  0.546648  0.250000  1
  Ga  Ga21  1  0.661809  0.453352  0.750000  1
  Ir  Ir22  1  0.671766  0.327152  0.002416  1
  Ir  Ir23  1  0.328234  0.672848  0.997584  1
  Ir  Ir24  1  0.328234  0.672848  0.502416  1
  Ir  Ir25  1  0.671766  0.327152  0.497584  1
  Ir  Ir26  1  0.000000  0.000000  0.000000  1
  Ir  Ir27  1  0.000000  0.000000  0.500000  1
