# generated using pymatgen
data_La3PrCd2RuAu3
_symmetry_space_group_name_H-M   'P 1'
_cell_length_a   8.05250709
_cell_length_b   8.10408807
_cell_length_c   3.99684800
_cell_angle_alpha   90.00000000
_cell_angle_beta   90.00000000
_cell_angle_gamma   90.79180189
_symmetry_Int_Tables_number   1
_chemical_formula_structural   La3PrCd2RuAu3
_chemical_formula_sum   'La3 Pr1 Cd2 Ru1 Au3'
_cell_volume   260.80230688
_cell_formula_units_Z   1
loop_
 _symmetry_equiv_pos_site_id
 _symmetry_equiv_pos_as_xyz
  1  'x, y, z'
loop_
 _atom_site_type_symbol
 _atom_site_label
 _atom_site_symmetry_multiplicity
 _atom_site_fract_x
 _atom_site_fract_y
 _atom_site_fract_z
 _atom_site_occupancy
  La  La0  1  0.669074  0.169358  0.500000  1
  La  La1  1  0.305531  0.804772  0.500000  1
  La  La2  1  0.849799  0.675764  0.500000  1
  Pr  Pr3  1  0.176644  0.347346  0.500000  1
  Cd  Cd4  1  0.002163  0.998900  0.000000  1
  Cd  Cd5  1  0.496604  0.500870  0.000000  1
  Ru  Ru6  1  0.135201  0.639000  0.000000  1
  Au  Au7  1  0.875442  0.373352  0.000000  1
  Au  Au8  1  0.623712  0.866264  0.000000  1
  Au  Au9  1  0.365831  0.124373  0.000000  1
