# generated using pymatgen
data_SrTm2(NiRh2)3
_symmetry_space_group_name_H-M   'P 1'
_cell_length_a   5.28559555
_cell_length_b   5.28559576
_cell_length_c   8.71261000
_cell_angle_alpha   72.34225365
_cell_angle_beta   72.34225293
_cell_angle_gamma   59.99999478
_symmetry_Int_Tables_number   1
_chemical_formula_structural   SrTm2(NiRh2)3
_chemical_formula_sum   'Sr1 Tm2 Ni3 Rh6'
_cell_volume   197.44493064
_cell_formula_units_Z   1
loop_
 _symmetry_equiv_pos_site_id
 _symmetry_equiv_pos_as_xyz
  1  'x, y, z'
loop_
 _atom_site_type_symbol
 _atom_site_label
 _atom_site_symmetry_multiplicity
 _atom_site_fract_x
 _atom_site_fract_y
 _atom_site_fract_z
 _atom_site_occupancy
  Sr  Sr0  1  0.000000  0.000000  0.000000  1
  Tm  Tm1  1  0.140522  0.140522  0.578436  1
  Tm  Tm2  1  0.859478  0.859478  0.421564  1
  Ni  Ni3  1  0.332763  0.332763  0.001710  1
  Ni  Ni4  1  0.667237  0.667237  0.998290  1
  Ni  Ni5  1  0.500000  0.500000  0.500000  1
  Rh  Rh6  1  0.082401  0.584658  0.748283  1
  Rh  Rh7  1  0.584658  0.584658  0.748283  1
  Rh  Rh8  1  0.584658  0.082401  0.748283  1
  Rh  Rh9  1  0.917599  0.415342  0.251717  1
  Rh  Rh10  1  0.415342  0.415342  0.251717  1
  Rh  Rh11  1  0.415342  0.917599  0.251717  1
