# generated using pymatgen
data_Dy3Lu2Bi3O14
_symmetry_space_group_name_H-M   'P 1'
_cell_length_a   6.52273839
_cell_length_b   6.59681783
_cell_length_c   7.65023200
_cell_angle_alpha   106.65210066
_cell_angle_beta   89.64615160
_cell_angle_gamma   99.12272012
_symmetry_Int_Tables_number   1
_chemical_formula_structural   Dy3Lu2Bi3O14
_chemical_formula_sum   'Dy3 Lu2 Bi3 O14'
_cell_volume   311.12155083
_cell_formula_units_Z   1
loop_
 _symmetry_equiv_pos_site_id
 _symmetry_equiv_pos_as_xyz
  1  'x, y, z'
loop_
 _atom_site_type_symbol
 _atom_site_label
 _atom_site_symmetry_multiplicity
 _atom_site_fract_x
 _atom_site_fract_y
 _atom_site_fract_z
 _atom_site_occupancy
  Dy  Dy0  1  0.272511  0.538364  0.883033  1
  Dy  Dy1  1  0.736526  0.458304  0.112337  1
  Dy  Dy2  1  0.740387  0.475630  0.618366  1
  Lu  Lu3  1  0.464366  0.008763  0.254085  1
  Lu  Lu4  1  0.535339  0.997564  0.750022  1
  Bi  Bi5  1  0.993957  0.999584  0.500858  1
  Bi  Bi6  1  0.999335  0.996531  0.997526  1
  Bi  Bi7  1  0.279538  0.533357  0.386755  1
  O  O8  1  0.457680  0.662067  0.166895  1
  O  O9  1  0.551871  0.344396  0.833254  1
  O  O10  1  0.304969  0.923895  0.948400  1
  O  O11  1  0.695964  0.074692  0.052624  1
  O  O12  1  0.301076  0.935335  0.520438  1
  O  O13  1  0.694647  0.080591  0.488352  1
  O  O14  1  0.546022  0.356388  0.341558  1
  O  O15  1  0.464570  0.645472  0.659916  1
  O  O16  1  0.926117  0.658845  0.945966  1
  O  O17  1  0.071294  0.329537  0.034411  1
  O  O18  1  0.066292  0.342914  0.627245  1
  O  O19  1  0.905914  0.660628  0.382830  1
  O  O20  1  0.862620  0.906493  0.727339  1
  O  O21  1  0.129004  0.070647  0.267792  1
