# generated using pymatgen
data_VGaNiO4
_symmetry_space_group_name_H-M   'P 1'
_cell_length_a   5.91682063
_cell_length_b   6.01077334
_cell_length_c   8.42540245
_cell_angle_alpha   89.98322483
_cell_angle_beta   90.10234767
_cell_angle_gamma   89.96527779
_symmetry_Int_Tables_number   1
_chemical_formula_structural   VGaNiO4
_chemical_formula_sum   'V4 Ga4 Ni4 O16'
_cell_volume   299.64609251
_cell_formula_units_Z   4
loop_
 _symmetry_equiv_pos_site_id
 _symmetry_equiv_pos_as_xyz
  1  'x, y, z'
loop_
 _atom_site_type_symbol
 _atom_site_label
 _atom_site_symmetry_multiplicity
 _atom_site_fract_x
 _atom_site_fract_y
 _atom_site_fract_z
 _atom_site_occupancy
  V  V0  1  0.999998  0.749998  0.625000  1
  V  V1  1  0.499998  0.250000  0.124999  1
  V  V2  1  0.000002  0.249999  0.625000  1
  V  V3  1  0.500002  0.750000  0.125000  1
  Ga  Ga4  1  0.999372  0.999305  0.993995  1
  Ga  Ga5  1  0.499287  0.500614  0.493804  1
  Ga  Ga6  1  0.000629  0.500693  0.256004  1
  Ga  Ga7  1  0.500713  0.999384  0.756196  1
  Ni  Ni8  1  0.749957  0.501892  0.874973  1
  Ni  Ni9  1  0.249937  0.502179  0.875018  1
  Ni  Ni10  1  0.250050  0.998064  0.375025  1
  Ni  Ni11  1  0.750059  0.997884  0.374987  1
  O  O12  1  0.999942  0.758105  0.381920  1
  O  O13  1  0.500174  0.256803  0.885133  1
  O  O14  1  0.000088  0.243308  0.385331  1
  O  O15  1  0.499862  0.741934  0.882485  1
  O  O16  1  0.999913  0.256691  0.864669  1
  O  O17  1  0.500140  0.758065  0.367515  1
  O  O18  1  0.000054  0.741894  0.868079  1
  O  O19  1  0.499824  0.243196  0.364866  1
  O  O20  1  0.237836  0.996958  0.624582  1
  O  O21  1  0.737359  0.502994  0.124615  1
  O  O22  1  0.760458  0.999896  0.624078  1
  O  O23  1  0.259711  0.499413  0.123996  1
  O  O24  1  0.239542  0.500102  0.625922  1
  O  O25  1  0.740289  0.000588  0.126004  1
  O  O26  1  0.762163  0.503038  0.625418  1
  O  O27  1  0.262642  0.997005  0.125385  1
