# generated using pymatgen
data_Pr2Dy3Bi4
_symmetry_space_group_name_H-M   'P 1'
_cell_length_a   8.45749100
_cell_length_b   8.37395500
_cell_length_c   15.75707600
_cell_angle_alpha   90.00000000
_cell_angle_beta   90.00000000
_cell_angle_gamma   90.00000000
_symmetry_Int_Tables_number   1
_chemical_formula_structural   Pr2Dy3Bi4
_chemical_formula_sum   'Pr8 Dy12 Bi16'
_cell_volume   1115.95786355
_cell_formula_units_Z   4
loop_
 _symmetry_equiv_pos_site_id
 _symmetry_equiv_pos_as_xyz
  1  'x, y, z'
loop_
 _atom_site_type_symbol
 _atom_site_label
 _atom_site_symmetry_multiplicity
 _atom_site_fract_x
 _atom_site_fract_y
 _atom_site_fract_z
 _atom_site_occupancy
  Pr  Pr0  1  0.521136  0.323446  0.908194  1
  Pr  Pr1  1  0.021136  0.176554  0.591806  1
  Pr  Pr2  1  0.478864  0.676554  0.408194  1
  Pr  Pr3  1  0.978864  0.823446  0.091806  1
  Pr  Pr4  1  0.478864  0.676554  0.091806  1
  Pr  Pr5  1  0.978864  0.823446  0.408194  1
  Pr  Pr6  1  0.521136  0.323446  0.591806  1
  Pr  Pr7  1  0.021136  0.176554  0.908194  1
  Dy  Dy8  1  0.349274  0.851368  0.876444  1
  Dy  Dy9  1  0.849274  0.648632  0.623556  1
  Dy  Dy10  1  0.650726  0.148632  0.376444  1
  Dy  Dy11  1  0.150726  0.351368  0.123556  1
  Dy  Dy12  1  0.650726  0.148632  0.123556  1
  Dy  Dy13  1  0.150726  0.351368  0.376444  1
  Dy  Dy14  1  0.349274  0.851368  0.623556  1
  Dy  Dy15  1  0.849274  0.648632  0.876444  1
  Dy  Dy16  1  0.188491  0.499069  0.750000  1
  Dy  Dy17  1  0.688491  0.000931  0.750000  1
  Dy  Dy18  1  0.811509  0.500931  0.250000  1
  Dy  Dy19  1  0.311509  0.999069  0.250000  1
  Bi  Bi20  1  0.298157  0.042333  0.046666  1
  Bi  Bi21  1  0.798157  0.457667  0.453334  1
  Bi  Bi22  1  0.701843  0.957667  0.546666  1
  Bi  Bi23  1  0.201843  0.542333  0.953334  1
  Bi  Bi24  1  0.701843  0.957667  0.953334  1
  Bi  Bi25  1  0.201843  0.542333  0.546666  1
  Bi  Bi26  1  0.298157  0.042333  0.453334  1
  Bi  Bi27  1  0.798157  0.457667  0.046666  1
  Bi  Bi28  1  0.548232  0.634202  0.750000  1
  Bi  Bi29  1  0.048232  0.865798  0.750000  1
  Bi  Bi30  1  0.451768  0.365798  0.250000  1
  Bi  Bi31  1  0.951768  0.134202  0.250000  1
  Bi  Bi32  1  0.340383  0.156463  0.750000  1
  Bi  Bi33  1  0.840383  0.343537  0.750000  1
  Bi  Bi34  1  0.659617  0.843537  0.250000  1
  Bi  Bi35  1  0.159617  0.656463  0.250000  1
