# generated using pymatgen
data_Ce3Dy5(ReB6)4
_symmetry_space_group_name_H-M   'P 1'
_cell_length_a   3.72499400
_cell_length_b   9.21186911
_cell_length_c   11.59822366
_cell_angle_alpha   90.07756940
_cell_angle_beta   90.00000000
_cell_angle_gamma   90.00000000
_symmetry_Int_Tables_number   1
_chemical_formula_structural   Ce3Dy5(ReB6)4
_chemical_formula_sum   'Ce3 Dy5 Re4 B24'
_cell_volume   397.98290469
_cell_formula_units_Z   1
loop_
 _symmetry_equiv_pos_site_id
 _symmetry_equiv_pos_as_xyz
  1  'x, y, z'
loop_
 _atom_site_type_symbol
 _atom_site_label
 _atom_site_symmetry_multiplicity
 _atom_site_fract_x
 _atom_site_fract_y
 _atom_site_fract_z
 _atom_site_occupancy
  Ce  Ce0  1  0.000000  0.321975  0.414348  1
  Ce  Ce1  1  0.000000  0.677719  0.586409  1
  Ce  Ce2  1  0.000000  0.823845  0.085666  1
  Dy  Dy3  1  0.000000  0.177204  0.913787  1
  Dy  Dy4  1  0.000000  0.944543  0.372483  1
  Dy  Dy5  1  0.000000  0.056185  0.628387  1
  Dy  Dy6  1  0.000000  0.442926  0.127814  1
  Dy  Dy7  1  0.000000  0.555937  0.871725  1
  Re  Re8  1  0.000000  0.638484  0.320823  1
  Re  Re9  1  0.000000  0.362586  0.678188  1
  Re  Re10  1  0.000000  0.138284  0.179358  1
  Re  Re11  1  0.000000  0.861072  0.821199  1
  B  B12  1  0.500000  0.554549  0.431600  1
  B  B13  1  0.500000  0.445394  0.568448  1
  B  B14  1  0.500000  0.054218  0.067394  1
  B  B15  1  0.500000  0.946109  0.932317  1
  B  B16  1  0.500000  0.748711  0.418290  1
  B  B17  1  0.500000  0.250968  0.582199  1
  B  B18  1  0.500000  0.248496  0.080744  1
  B  B19  1  0.500000  0.751939  0.918283  1
  B  B20  1  0.500000  0.791369  0.265888  1
  B  B21  1  0.500000  0.207955  0.734561  1
  B  B22  1  0.500000  0.291095  0.233295  1
  B  B23  1  0.500000  0.708879  0.766143  1
  B  B24  1  0.500000  0.631408  0.185808  1
  B  B25  1  0.500000  0.368051  0.814596  1
  B  B26  1  0.500000  0.131751  0.313816  1
  B  B27  1  0.500000  0.868903  0.686476  1
  B  B28  1  0.500000  0.984218  0.212106  1
  B  B29  1  0.500000  0.017271  0.787620  1
  B  B30  1  0.500000  0.483796  0.287066  1
  B  B31  1  0.500000  0.515805  0.713154  1
  B  B32  1  0.500000  0.603535  0.028805  1
  B  B33  1  0.500000  0.394735  0.970511  1
  B  B34  1  0.500000  0.106528  0.470749  1
  B  B35  1  0.500000  0.893557  0.529944  1
