# generated using pymatgen
data_NaPa3(ReN3)4
_symmetry_space_group_name_H-M   'P 1'
_cell_length_a   5.41788299
_cell_length_b   5.65220786
_cell_length_c   7.77371900
_cell_angle_alpha   90.00000000
_cell_angle_beta   90.00000000
_cell_angle_gamma   90.99866011
_symmetry_Int_Tables_number   1
_chemical_formula_structural   NaPa3(ReN3)4
_chemical_formula_sum   'Na1 Pa3 Re4 N12'
_cell_volume   238.01844366
_cell_formula_units_Z   1
loop_
 _symmetry_equiv_pos_site_id
 _symmetry_equiv_pos_as_xyz
  1  'x, y, z'
loop_
 _atom_site_type_symbol
 _atom_site_label
 _atom_site_symmetry_multiplicity
 _atom_site_fract_x
 _atom_site_fract_y
 _atom_site_fract_z
 _atom_site_occupancy
  Na  Na0  1  0.491351  0.452884  0.250000  1
  Pa  Pa1  1  0.020258  0.960373  0.250000  1
  Pa  Pa2  1  0.518511  0.562937  0.750000  1
  Pa  Pa3  1  0.994353  0.075398  0.750000  1
  Re  Re4  1  0.508370  0.997204  0.491453  1
  Re  Re5  1  0.007943  0.510235  0.011693  1
  Re  Re6  1  0.007943  0.510235  0.488307  1
  Re  Re7  1  0.508370  0.997204  0.008547  1
  N  N8  1  0.692848  0.299040  0.567611  1
  N  N9  1  0.295347  0.712606  0.043504  1
  N  N10  1  0.170659  0.180951  0.039203  1
  N  N11  1  0.393270  0.955016  0.750000  1
  N  N12  1  0.933351  0.505605  0.250000  1
  N  N13  1  0.295347  0.712606  0.456496  1
  N  N14  1  0.805540  0.801388  0.946291  1
  N  N15  1  0.692848  0.299040  0.932389  1
  N  N16  1  0.805540  0.801388  0.553709  1
  N  N17  1  0.116650  0.461284  0.750000  1
  N  N18  1  0.170659  0.180951  0.460797  1
  N  N19  1  0.570842  0.023652  0.250000  1
