# generated using pymatgen
data_Tm4Al18Fe2CuPd3
_symmetry_space_group_name_H-M   'P 1'
_cell_length_a   7.54949279
_cell_length_b   7.54944853
_cell_length_c   9.38506600
_cell_angle_alpha   89.97390005
_cell_angle_beta   89.97383949
_cell_angle_gamma   119.73667950
_symmetry_Int_Tables_number   1
_chemical_formula_structural   Tm4Al18Fe2CuPd3
_chemical_formula_sum   'Tm4 Al18 Fe2 Cu1 Pd3'
_cell_volume   464.45862897
_cell_formula_units_Z   1
loop_
 _symmetry_equiv_pos_site_id
 _symmetry_equiv_pos_as_xyz
  1  'x, y, z'
loop_
 _atom_site_type_symbol
 _atom_site_label
 _atom_site_symmetry_multiplicity
 _atom_site_fract_x
 _atom_site_fract_y
 _atom_site_fract_z
 _atom_site_occupancy
  Tm  Tm0  1  0.993376  0.664301  0.249443  1
  Tm  Tm1  1  0.005330  0.335215  0.750507  1
  Tm  Tm2  1  0.664765  0.994685  0.249493  1
  Tm  Tm3  1  0.335687  0.006634  0.750560  1
  Al  Al4  1  0.111538  0.111516  0.249952  1
  Al  Al5  1  0.888479  0.888452  0.750046  1
  Al  Al6  1  0.997932  0.323095  0.074775  1
  Al  Al7  1  0.000589  0.676652  0.925103  1
  Al  Al8  1  0.001045  0.676872  0.574463  1
  Al  Al9  1  0.323122  0.998957  0.425541  1
  Al  Al10  1  0.998730  0.322685  0.425284  1
  Al  Al11  1  0.677314  0.001268  0.574718  1
  Al  Al12  1  0.676906  0.002068  0.925225  1
  Al  Al13  1  0.323341  0.999410  0.074899  1
  Al  Al14  1  0.322328  0.322090  0.552579  1
  Al  Al15  1  0.677914  0.677676  0.447415  1
  Al  Al16  1  0.677248  0.676571  0.053223  1
  Al  Al17  1  0.323434  0.322757  0.946785  1
  Al  Al18  1  0.340556  0.544014  0.250047  1
  Al  Al19  1  0.659631  0.454804  0.751085  1
  Al  Al20  1  0.545195  0.340373  0.248915  1
  Al  Al21  1  0.455985  0.659447  0.749949  1
  Fe  Fe22  1  0.999533  0.000472  0.999998  1
  Fe  Fe23  1  0.000117  0.999885  0.500001  1
  Cu  Cu24  1  0.672532  0.327472  0.000001  1
  Pd  Pd25  1  0.327343  0.672664  0.999998  1
  Pd  Pd26  1  0.327458  0.672546  0.499997  1
  Pd  Pd27  1  0.672578  0.327417  0.500000  1
