# generated using pymatgen
data_K2NdU(CuSe3)2
_symmetry_space_group_name_H-M   'P 1'
_cell_length_a   4.14493500
_cell_length_b   7.67812320
_cell_length_c   10.79435555
_cell_angle_alpha   90.34872192
_cell_angle_beta   90.00000000
_cell_angle_gamma   74.34057892
_symmetry_Int_Tables_number   1
_chemical_formula_structural   K2NdU(CuSe3)2
_chemical_formula_sum   'K2 Nd1 U1 Cu2 Se6'
_cell_volume   330.77633626
_cell_formula_units_Z   1
loop_
 _symmetry_equiv_pos_site_id
 _symmetry_equiv_pos_as_xyz
  1  'x, y, z'
loop_
 _atom_site_type_symbol
 _atom_site_label
 _atom_site_symmetry_multiplicity
 _atom_site_fract_x
 _atom_site_fract_y
 _atom_site_fract_z
 _atom_site_occupancy
  K  K0  1  0.253789  0.492424  0.238645  1
  K  K1  1  0.746212  0.507577  0.761355  1
  Nd  Nd2  1  0.000000  0.000000  0.000000  1
  U  U3  1  0.000000  0.000000  0.500000  1
  Cu  Cu4  1  0.534295  0.931412  0.252748  1
  Cu  Cu5  1  0.465706  0.068587  0.747252  1
  Se  Se6  1  0.630593  0.738816  0.070463  1
  Se  Se7  1  0.935286  0.129427  0.263946  1
  Se  Se8  1  0.622687  0.754628  0.442145  1
  Se  Se9  1  0.377314  0.245372  0.557856  1
  Se  Se10  1  0.064715  0.870572  0.736054  1
  Se  Se11  1  0.369408  0.261184  0.929537  1
