# generated using pymatgen
data_Nd2HoEr3(Co3P2)6
_symmetry_space_group_name_H-M   'P 1'
_cell_length_a   3.71583700
_cell_length_b   10.54727001
_cell_length_c   12.21916601
_cell_angle_alpha   90.00442415
_cell_angle_beta   90.00000000
_cell_angle_gamma   90.00000000
_symmetry_Int_Tables_number   1
_chemical_formula_structural   Nd2HoEr3(Co3P2)6
_chemical_formula_sum   'Nd2 Ho1 Er3 Co18 P12'
_cell_volume   478.89277254
_cell_formula_units_Z   1
loop_
 _symmetry_equiv_pos_site_id
 _symmetry_equiv_pos_as_xyz
  1  'x, y, z'
loop_
 _atom_site_type_symbol
 _atom_site_label
 _atom_site_symmetry_multiplicity
 _atom_site_fract_x
 _atom_site_fract_y
 _atom_site_fract_z
 _atom_site_occupancy
  Nd  Nd0  1  0.750000  0.250025  0.477840  1
  Nd  Nd1  1  0.250000  0.749961  0.522205  1
  Ho  Ho2  1  0.250000  0.932350  0.795234  1
  Er  Er3  1  0.250000  0.567443  0.795448  1
  Er  Er4  1  0.750000  0.067473  0.204647  1
  Er  Er5  1  0.750000  0.432525  0.204715  1
  Co  Co6  1  0.250000  0.250052  0.843559  1
  Co  Co7  1  0.750000  0.749955  0.156465  1
  Co  Co8  1  0.250000  0.250019  0.293075  1
  Co  Co9  1  0.750000  0.749617  0.706789  1
  Co  Co10  1  0.750000  0.250144  0.013663  1
  Co  Co11  1  0.250000  0.749811  0.986558  1
  Co  Co12  1  0.250000  0.416809  0.005151  1
  Co  Co13  1  0.250000  0.083333  0.005254  1
  Co  Co14  1  0.750000  0.583038  0.994919  1
  Co  Co15  1  0.750000  0.916848  0.995039  1
  Co  Co16  1  0.250000  0.453396  0.571335  1
  Co  Co17  1  0.250000  0.046709  0.571061  1
  Co  Co18  1  0.750000  0.546570  0.428675  1
  Co  Co19  1  0.750000  0.953413  0.428594  1
  Co  Co20  1  0.250000  0.870817  0.286964  1
  Co  Co21  1  0.250000  0.629220  0.286989  1
  Co  Co22  1  0.750000  0.129484  0.712865  1
  Co  Co23  1  0.750000  0.370856  0.713079  1
  P  P24  1  0.250000  0.250081  0.116526  1
  P  P25  1  0.750000  0.749717  0.883676  1
  P  P26  1  0.250000  0.250024  0.660645  1
  P  P27  1  0.750000  0.750005  0.339385  1
  P  P28  1  0.250000  0.442330  0.381894  1
  P  P29  1  0.250000  0.057732  0.381809  1
  P  P30  1  0.750000  0.557555  0.618132  1
  P  P31  1  0.750000  0.942465  0.617685  1
  P  P32  1  0.250000  0.903644  0.105892  1
  P  P33  1  0.250000  0.596322  0.105964  1
  P  P34  1  0.750000  0.096710  0.894204  1
  P  P35  1  0.750000  0.403545  0.894064  1
