# generated using pymatgen
data_Hf7Zr3Si2Sn5Sb
_symmetry_space_group_name_H-M   'P 1'
_cell_length_a   8.64324000
_cell_length_b   8.63644556
_cell_length_c   5.82691700
_cell_angle_alpha   90.00000000
_cell_angle_beta   90.00000000
_cell_angle_gamma   120.02601247
_symmetry_Int_Tables_number   1
_chemical_formula_structural   Hf7Zr3Si2Sn5Sb
_chemical_formula_sum   'Hf7 Zr3 Si2 Sn5 Sb1'
_cell_volume   376.58860916
_cell_formula_units_Z   1
loop_
 _symmetry_equiv_pos_site_id
 _symmetry_equiv_pos_as_xyz
  1  'x, y, z'
loop_
 _atom_site_type_symbol
 _atom_site_label
 _atom_site_symmetry_multiplicity
 _atom_site_fract_x
 _atom_site_fract_y
 _atom_site_fract_z
 _atom_site_occupancy
  Hf  Hf0  1  0.263622  0.000000  0.250000  1
  Hf  Hf1  1  0.000079  0.263314  0.250000  1
  Hf  Hf2  1  0.736765  0.736686  0.250000  1
  Hf  Hf3  1  0.333812  0.667988  0.000935  1
  Hf  Hf4  1  0.665824  0.332012  0.499065  1
  Hf  Hf5  1  0.665824  0.332012  0.000935  1
  Hf  Hf6  1  0.333812  0.667988  0.499065  1
  Zr  Zr7  1  0.254828  0.253782  0.750000  1
  Zr  Zr8  1  0.001046  0.746218  0.750000  1
  Zr  Zr9  1  0.743928  0.000000  0.750000  1
  Si  Si10  1  0.999322  0.000000  0.011725  1
  Si  Si11  1  0.999322  0.000000  0.488275  1
  Sn  Sn12  1  0.608656  0.000000  0.250000  1
  Sn  Sn13  1  0.603476  0.603305  0.750000  1
  Sn  Sn14  1  0.000171  0.396695  0.750000  1
  Sn  Sn15  1  0.999132  0.606426  0.250000  1
  Sn  Sn16  1  0.392707  0.393574  0.250000  1
  Sb  Sb17  1  0.397675  0.000000  0.750000  1
