# generated using pymatgen
data_Pa2Ta4Zn7
_symmetry_space_group_name_H-M   'P 1'
_cell_length_a   10.17300732
_cell_length_b   10.17300693
_cell_length_c   10.17300734
_cell_angle_alpha   29.08660041
_cell_angle_beta   29.08660543
_cell_angle_gamma   29.08660303
_symmetry_Int_Tables_number   1
_chemical_formula_structural   Pa2Ta4Zn7
_chemical_formula_sum   'Pa2 Ta4 Zn7'
_cell_volume   220.09084648
_cell_formula_units_Z   1
loop_
 _symmetry_equiv_pos_site_id
 _symmetry_equiv_pos_as_xyz
  1  'x, y, z'
loop_
 _atom_site_type_symbol
 _atom_site_label
 _atom_site_symmetry_multiplicity
 _atom_site_fract_x
 _atom_site_fract_y
 _atom_site_fract_z
 _atom_site_occupancy
  Pa  Pa0  1  0.833997  0.833997  0.833997  1
  Pa  Pa1  1  0.166003  0.166003  0.166003  1
  Ta  Ta2  1  0.648618  0.648618  0.648618  1
  Ta  Ta3  1  0.351382  0.351382  0.351382  1
  Ta  Ta4  1  0.546615  0.546615  0.546615  1
  Ta  Ta5  1  0.453385  0.453385  0.453385  1
  Zn  Zn6  1  0.000000  0.000000  0.000000  1
  Zn  Zn7  1  0.900641  0.409414  0.900641  1
  Zn  Zn8  1  0.900641  0.900641  0.409414  1
  Zn  Zn9  1  0.409414  0.900641  0.900641  1
  Zn  Zn10  1  0.099359  0.590586  0.099359  1
  Zn  Zn11  1  0.099359  0.099359  0.590586  1
  Zn  Zn12  1  0.590586  0.099359  0.099359  1
