# generated using pymatgen
data_SrZn3Ni2
_symmetry_space_group_name_H-M   'P 1'
_cell_length_a   5.20580100
_cell_length_b   6.46153600
_cell_length_c   12.56868200
_cell_angle_alpha   90.00000000
_cell_angle_beta   90.00000000
_cell_angle_gamma   90.00000000
_symmetry_Int_Tables_number   1
_chemical_formula_structural   SrZn3Ni2
_chemical_formula_sum   'Sr4 Zn12 Ni8'
_cell_volume   422.77867088
_cell_formula_units_Z   4
loop_
 _symmetry_equiv_pos_site_id
 _symmetry_equiv_pos_as_xyz
  1  'x, y, z'
loop_
 _atom_site_type_symbol
 _atom_site_label
 _atom_site_symmetry_multiplicity
 _atom_site_fract_x
 _atom_site_fract_y
 _atom_site_fract_z
 _atom_site_occupancy
  Sr  Sr0  1  0.250000  0.637537  0.917657  1
  Sr  Sr1  1  0.250000  0.862463  0.417657  1
  Sr  Sr2  1  0.750000  0.362463  0.082343  1
  Sr  Sr3  1  0.750000  0.137537  0.582343  1
  Zn  Zn4  1  0.250000  0.346810  0.721009  1
  Zn  Zn5  1  0.250000  0.153190  0.221009  1
  Zn  Zn6  1  0.750000  0.653190  0.278991  1
  Zn  Zn7  1  0.750000  0.846810  0.778991  1
  Zn  Zn8  1  0.250000  0.941012  0.713593  1
  Zn  Zn9  1  0.250000  0.558988  0.213593  1
  Zn  Zn10  1  0.750000  0.058988  0.286407  1
  Zn  Zn11  1  0.750000  0.441012  0.786407  1
  Zn  Zn12  1  0.250000  0.418162  0.516569  1
  Zn  Zn13  1  0.250000  0.081838  0.016569  1
  Zn  Zn14  1  0.750000  0.581838  0.483431  1
  Zn  Zn15  1  0.750000  0.918162  0.983431  1
  Ni  Ni16  1  0.998887  0.143361  0.853266  1
  Ni  Ni17  1  0.501113  0.356639  0.353266  1
  Ni  Ni18  1  0.498887  0.856639  0.146734  1
  Ni  Ni19  1  0.001113  0.643361  0.646734  1
  Ni  Ni20  1  0.001113  0.856639  0.146734  1
  Ni  Ni21  1  0.498887  0.643361  0.646734  1
  Ni  Ni22  1  0.501113  0.143361  0.853266  1
  Ni  Ni23  1  0.998887  0.356639  0.353266  1
