# generated using pymatgen
data_Li9B4Pd11
_symmetry_space_group_name_H-M   'P 1'
_cell_length_a   6.81216667
_cell_length_b   6.81216609
_cell_length_c   6.85353959
_cell_angle_alpha   89.71687763
_cell_angle_beta   89.71687817
_cell_angle_gamma   89.27517341
_symmetry_Int_Tables_number   1
_chemical_formula_structural   Li9B4Pd11
_chemical_formula_sum   'Li9 B4 Pd11'
_cell_volume   318.00957351
_cell_formula_units_Z   1
loop_
 _symmetry_equiv_pos_site_id
 _symmetry_equiv_pos_as_xyz
  1  'x, y, z'
loop_
 _atom_site_type_symbol
 _atom_site_label
 _atom_site_symmetry_multiplicity
 _atom_site_fract_x
 _atom_site_fract_y
 _atom_site_fract_z
 _atom_site_occupancy
  Li  Li0  1  0.314733  0.312742  0.290560  1
  Li  Li1  1  0.052532  0.454922  0.554827  1
  Li  Li2  1  0.569094  0.058381  0.434933  1
  Li  Li3  1  0.452696  0.554255  0.045411  1
  Li  Li4  1  0.191619  0.680906  0.815067  1
  Li  Li5  1  0.937258  0.935267  0.959440  1
  Li  Li6  1  0.795078  0.197468  0.695173  1
  Li  Li7  1  0.695745  0.797304  0.204589  1
  Li  Li8  1  0.205666  0.044334  0.625000  1
  B  B9  1  0.869747  0.380253  0.125000  1
  B  B10  1  0.384995  0.145607  0.898959  1
  B  B11  1  0.618994  0.631006  0.625000  1
  B  B12  1  0.104393  0.865005  0.351041  1
  Pd  Pd13  1  0.436541  0.366890  0.688636  1
  Pd  Pd14  1  0.064321  0.610367  0.188885  1
  Pd  Pd15  1  0.962357  0.137069  0.315737  1
  Pd  Pd16  1  0.305492  0.944508  0.125000  1
  Pd  Pd17  1  0.692265  0.448308  0.378464  1
  Pd  Pd18  1  0.548475  0.889366  0.794490  1
  Pd  Pd19  1  0.639633  0.185679  0.061115  1
  Pd  Pd20  1  0.360634  0.701525  0.455510  1
  Pd  Pd21  1  0.883110  0.813459  0.561364  1
  Pd  Pd22  1  0.112931  0.287643  0.934263  1
  Pd  Pd23  1  0.801692  0.557735  0.871536  1
