# generated using pymatgen
data_Ta6ReSi6Tc5
_symmetry_space_group_name_H-M   'P 1'
_cell_length_a   7.54040921
_cell_length_b   7.54306418
_cell_length_c   7.54706637
_cell_angle_alpha   127.26126762
_cell_angle_beta   124.60020683
_cell_angle_gamma   80.04995051
_symmetry_Int_Tables_number   1
_chemical_formula_structural   Ta6ReSi6Tc5
_chemical_formula_sum   'Ta6 Re1 Si6 Tc5'
_cell_volume   271.46599657
_cell_formula_units_Z   1
loop_
 _symmetry_equiv_pos_site_id
 _symmetry_equiv_pos_as_xyz
  1  'x, y, z'
loop_
 _atom_site_type_symbol
 _atom_site_label
 _atom_site_symmetry_multiplicity
 _atom_site_fract_x
 _atom_site_fract_y
 _atom_site_fract_z
 _atom_site_occupancy
  Ta  Ta0  1  0.554903  0.095846  0.041771  1
  Ta  Ta1  1  0.445195  0.486851  0.541308  1
  Ta  Ta2  1  0.966053  0.498521  0.033207  1
  Ta  Ta3  1  0.034778  0.069153  0.534647  1
  Ta  Ta4  1  0.752162  0.910887  0.657478  1
  Ta  Ta5  1  0.247278  0.904445  0.158461  1
  Re  Re6  1  0.406232  0.495523  0.155856  1
  Si  Si7  1  0.778288  0.537373  0.260411  1
  Si  Si8  1  0.222215  0.483514  0.757872  1
  Si  Si9  1  0.336823  0.827102  0.499499  1
  Si  Si10  1  0.663043  0.161324  0.489239  1
  Si  Si11  1  0.828231  0.825774  0.989133  1
  Si  Si12  1  0.171909  0.160013  0.998184  1
  Tc  Tc13  1  0.500548  0.246126  0.746733  1
  Tc  Tc14  1  0.999701  0.245911  0.245988  1
  Tc  Tc15  1  0.160659  0.749491  0.656114  1
  Tc  Tc16  1  0.838237  0.495084  0.587266  1
  Tc  Tc17  1  0.593746  0.749259  0.089031  1
