# generated using pymatgen
data_La4MgHgRhAu3
_symmetry_space_group_name_H-M   'P 1'
_cell_length_a   8.12634764
_cell_length_b   8.18189313
_cell_length_c   3.95631000
_cell_angle_alpha   90.00000000
_cell_angle_beta   90.00000000
_cell_angle_gamma   90.61886903
_symmetry_Int_Tables_number   1
_chemical_formula_structural   La4MgHgRhAu3
_chemical_formula_sum   'La4 Mg1 Hg1 Rh1 Au3'
_cell_volume   263.03538649
_cell_formula_units_Z   1
loop_
 _symmetry_equiv_pos_site_id
 _symmetry_equiv_pos_as_xyz
  1  'x, y, z'
loop_
 _atom_site_type_symbol
 _atom_site_label
 _atom_site_symmetry_multiplicity
 _atom_site_fract_x
 _atom_site_fract_y
 _atom_site_fract_z
 _atom_site_occupancy
  La  La0  1  0.158903  0.328970  0.500000  1
  La  La1  1  0.680606  0.197218  0.500000  1
  La  La2  1  0.814899  0.647314  0.500000  1
  La  La3  1  0.339964  0.821894  0.500000  1
  Mg  Mg4  1  0.997891  0.998177  0.000000  1
  Hg  Hg5  1  0.496375  0.497840  0.000000  1
  Rh  Rh6  1  0.881240  0.362476  0.000000  1
  Au  Au7  1  0.116435  0.638005  0.000000  1
  Au  Au8  1  0.648038  0.887615  0.000000  1
  Au  Au9  1  0.365649  0.120489  0.000000  1
