# generated using pymatgen
data_Tb8Dy4InCo4Ir
_symmetry_space_group_name_H-M   'P 1'
_cell_length_a   8.33017698
_cell_length_b   8.33017426
_cell_length_c   8.33017843
_cell_angle_alpha   111.21608599
_cell_angle_beta   110.44406402
_cell_angle_gamma   106.78739186
_symmetry_Int_Tables_number   1
_chemical_formula_structural   Tb8Dy4InCo4Ir
_chemical_formula_sum   'Tb8 Dy4 In1 Co4 Ir1'
_cell_volume   444.23102472
_cell_formula_units_Z   1
loop_
 _symmetry_equiv_pos_site_id
 _symmetry_equiv_pos_as_xyz
  1  'x, y, z'
loop_
 _atom_site_type_symbol
 _atom_site_label
 _atom_site_symmetry_multiplicity
 _atom_site_fract_x
 _atom_site_fract_y
 _atom_site_fract_z
 _atom_site_occupancy
  Tb  Tb0  1  0.409996  0.216190  0.193806  1
  Tb  Tb1  1  0.590004  0.783810  0.806194  1
  Tb  Tb2  1  0.022384  0.216190  0.806193  1
  Tb  Tb3  1  0.977616  0.783810  0.193807  1
  Tb  Tb4  1  0.182817  0.286910  0.469727  1
  Tb  Tb5  1  0.817183  0.713090  0.530273  1
  Tb  Tb6  1  0.182817  0.713090  0.895907  1
  Tb  Tb7  1  0.817183  0.286910  0.104093  1
  Dy  Dy8  1  0.316608  0.623447  0.306839  1
  Dy  Dy9  1  0.683392  0.376553  0.693161  1
  Dy  Dy10  1  0.316607  0.009769  0.693161  1
  Dy  Dy11  1  0.683393  0.990231  0.306839  1
  In  In12  1  0.500000  0.500000  0.000000  1
  Co  Co13  1  0.377721  0.000000  0.377721  1
  Co  Co14  1  0.622279  0.000000  0.622279  1
  Co  Co15  1  0.111723  0.611723  0.500000  1
  Co  Co16  1  0.888277  0.388277  0.500000  1
  Ir  Ir17  1  0.000000  0.000000  0.000000  1
