# generated using pymatgen
data_Sm10Si17
_symmetry_space_group_name_H-M   'P 1'
_cell_length_a   11.21774758
_cell_length_b   11.21774788
_cell_length_c   11.21774721
_cell_angle_alpha   144.73286203
_cell_angle_beta   135.62756801
_cell_angle_gamma   57.90814466
_symmetry_Int_Tables_number   1
_chemical_formula_structural   Sm10Si17
_chemical_formula_sum   'Sm10 Si17'
_cell_volume   565.17325583
_cell_formula_units_Z   1
loop_
 _symmetry_equiv_pos_site_id
 _symmetry_equiv_pos_as_xyz
  1  'x, y, z'
loop_
 _atom_site_type_symbol
 _atom_site_label
 _atom_site_symmetry_multiplicity
 _atom_site_fract_x
 _atom_site_fract_y
 _atom_site_fract_z
 _atom_site_occupancy
  Sm  Sm0  1  0.754207  0.761047  0.515254  1
  Sm  Sm1  1  0.450805  0.963148  0.014055  1
  Sm  Sm2  1  0.848036  0.367397  0.014952  1
  Sm  Sm3  1  0.949093  0.963148  0.512342  1
  Sm  Sm4  1  0.151964  0.166915  0.519360  1
  Sm  Sm5  1  0.352445  0.367397  0.519360  1
  Sm  Sm6  1  0.245793  0.761047  0.006840  1
  Sm  Sm7  1  0.549195  0.563250  0.512342  1
  Sm  Sm8  1  0.050907  0.563250  0.014055  1
  Sm  Sm9  1  0.647555  0.166915  0.014952  1
  Si  Si10  1  0.711397  0.662963  0.951566  1
  Si  Si11  1  0.198990  0.587238  0.388247  1
  Si  Si12  1  0.000000  0.084137  0.084137  1
  Si  Si13  1  0.699846  0.295962  0.596116  1
  Si  Si14  1  0.801010  0.189257  0.388247  1
  Si  Si15  1  0.896347  0.503778  0.607431  1
  Si  Si16  1  0.413752  0.864007  0.450256  1
  Si  Si17  1  0.103653  0.711084  0.607431  1
  Si  Si18  1  0.300154  0.896271  0.596116  1
  Si  Si19  1  0.586248  0.036504  0.450256  1
  Si  Si20  1  0.000000  0.431375  0.431375  1
  Si  Si21  1  0.883121  0.841062  0.957942  1
  Si  Si22  1  0.399874  0.500442  0.100568  1
  Si  Si23  1  0.116879  0.074822  0.957942  1
  Si  Si24  1  0.288603  0.240168  0.951566  1
  Si  Si25  1  0.500000  0.398221  0.898221  1
  Si  Si26  1  0.600126  0.700694  0.100568  1
