# generated using pymatgen
data_DyEr(Be11Cu2)2
_symmetry_space_group_name_H-M   'P 1'
_cell_length_a   7.32912722
_cell_length_b   7.34284013
_cell_length_c   7.29346801
_cell_angle_alpha   60.09808821
_cell_angle_beta   60.28506307
_cell_angle_gamma   59.61683940
_symmetry_Int_Tables_number   1
_chemical_formula_structural   DyEr(Be11Cu2)2
_chemical_formula_sum   'Dy1 Er1 Be22 Cu4'
_cell_volume   277.52622312
_cell_formula_units_Z   1
loop_
 _symmetry_equiv_pos_site_id
 _symmetry_equiv_pos_as_xyz
  1  'x, y, z'
loop_
 _atom_site_type_symbol
 _atom_site_label
 _atom_site_symmetry_multiplicity
 _atom_site_fract_x
 _atom_site_fract_y
 _atom_site_fract_z
 _atom_site_occupancy
  Dy  Dy0  1  0.250000  0.250000  0.250000  1
  Er  Er1  1  0.750000  0.750000  0.750000  1
  Be  Be2  1  0.500000  0.500000  0.500000  1
  Be  Be3  1  0.000000  0.000000  0.000000  1
  Be  Be4  1  0.280081  0.931249  0.720019  1
  Be  Be5  1  0.720019  0.068651  0.280081  1
  Be  Be6  1  0.931249  0.280081  0.068651  1
  Be  Be7  1  0.068651  0.720019  0.931249  1
  Be  Be8  1  0.201268  0.798608  0.560736  1
  Be  Be9  1  0.798608  0.201268  0.439387  1
  Be  Be10  1  0.439387  0.560736  0.798608  1
  Be  Be11  1  0.560736  0.439387  0.201268  1
  Be  Be12  1  0.712754  0.287332  0.933916  1
  Be  Be13  1  0.287332  0.712754  0.065998  1
  Be  Be14  1  0.065998  0.933916  0.287332  1
  Be  Be15  1  0.933916  0.065998  0.712754  1
  Be  Be16  1  0.566837  0.205198  0.794680  1
  Be  Be17  1  0.433284  0.794680  0.205198  1
  Be  Be18  1  0.794680  0.433284  0.566837  1
  Be  Be19  1  0.205198  0.566837  0.433284  1
  Be  Be20  1  0.940574  0.712111  0.288003  1
  Be  Be21  1  0.059311  0.288003  0.712111  1
  Be  Be22  1  0.288003  0.059311  0.940574  1
  Be  Be23  1  0.712111  0.940574  0.059311  1
  Cu  Cu24  1  0.805313  0.558143  0.194408  1
  Cu  Cu25  1  0.194408  0.442135  0.805313  1
  Cu  Cu26  1  0.558143  0.805313  0.442135  1
  Cu  Cu27  1  0.442135  0.194408  0.558143  1
