# generated using pymatgen
data_Ho3In3Co2Sn
_symmetry_space_group_name_H-M   'P 1'
_cell_length_a   7.80915966
_cell_length_b   7.78132282
_cell_length_c   3.63840900
_cell_angle_alpha   90.00000000
_cell_angle_beta   90.00000000
_cell_angle_gamma   119.95753293
_symmetry_Int_Tables_number   1
_chemical_formula_structural   Ho3In3Co2Sn
_chemical_formula_sum   'Ho3 In3 Co2 Sn1'
_cell_volume   191.55150610
_cell_formula_units_Z   1
loop_
 _symmetry_equiv_pos_site_id
 _symmetry_equiv_pos_as_xyz
  1  'x, y, z'
loop_
 _atom_site_type_symbol
 _atom_site_label
 _atom_site_symmetry_multiplicity
 _atom_site_fract_x
 _atom_site_fract_y
 _atom_site_fract_z
 _atom_site_occupancy
  Ho  Ho0  1  0.704360  0.950769  0.500000  1
  Ho  Ho1  1  0.245082  0.292028  0.500000  1
  Ho  Ho2  1  0.045664  0.755832  0.500000  1
  In  In3  1  0.414750  0.082321  0.000000  1
  In  In4  1  0.663058  0.582200  0.000000  1
  In  In5  1  0.333327  0.667076  0.000000  1
  Co  Co6  1  0.678656  0.333327  0.500000  1
  Co  Co7  1  0.998869  0.004051  0.000000  1
  Sn  Sn8  1  0.916234  0.332394  0.000000  1
