# generated using pymatgen
data_Hf15Zr3CuRe8Ni
_symmetry_space_group_name_H-M   'P 1'
_cell_length_a   8.64034100
_cell_length_b   8.64034142
_cell_length_c   8.48950700
_cell_angle_alpha   90.00000000
_cell_angle_beta   90.00000000
_cell_angle_gamma   120.00000222
_symmetry_Int_Tables_number   1
_chemical_formula_structural   Hf15Zr3CuRe8Ni
_chemical_formula_sum   'Hf15 Zr3 Cu1 Re8 Ni1'
_cell_volume   548.87680621
_cell_formula_units_Z   1
loop_
 _symmetry_equiv_pos_site_id
 _symmetry_equiv_pos_as_xyz
  1  'x, y, z'
loop_
 _atom_site_type_symbol
 _atom_site_label
 _atom_site_symmetry_multiplicity
 _atom_site_fract_x
 _atom_site_fract_y
 _atom_site_fract_z
 _atom_site_occupancy
  Hf  Hf0  1  0.194633  0.805367  0.447743  1
  Hf  Hf1  1  0.194633  0.389265  0.447743  1
  Hf  Hf2  1  0.610735  0.805367  0.447743  1
  Hf  Hf3  1  0.802620  0.197380  0.557245  1
  Hf  Hf4  1  0.802620  0.605239  0.557245  1
  Hf  Hf5  1  0.394761  0.197380  0.557245  1
  Hf  Hf6  1  0.802620  0.197380  0.942755  1
  Hf  Hf7  1  0.802620  0.605239  0.942755  1
  Hf  Hf8  1  0.394761  0.197380  0.942755  1
  Hf  Hf9  1  0.194633  0.805367  0.052257  1
  Hf  Hf10  1  0.194633  0.389265  0.052257  1
  Hf  Hf11  1  0.610735  0.805367  0.052257  1
  Hf  Hf12  1  0.458717  0.541283  0.750000  1
  Hf  Hf13  1  0.458717  0.917434  0.750000  1
  Hf  Hf14  1  0.082566  0.541283  0.750000  1
  Zr  Zr15  1  0.540968  0.459032  0.250000  1
  Zr  Zr16  1  0.540968  0.081937  0.250000  1
  Zr  Zr17  1  0.918063  0.459032  0.250000  1
  Cu  Cu18  1  0.333333  0.666667  0.250000  1
  Re  Re19  1  0.889752  0.110248  0.250000  1
  Re  Re20  1  0.889752  0.779503  0.250000  1
  Re  Re21  1  0.220497  0.110248  0.250000  1
  Re  Re22  1  0.110690  0.889310  0.750000  1
  Re  Re23  1  0.110690  0.221380  0.750000  1
  Re  Re24  1  0.778620  0.889310  0.750000  1
  Re  Re25  1  0.000000  0.000000  0.500060  1
  Re  Re26  1  0.000000  0.000000  0.999940  1
  Ni  Ni27  1  0.666667  0.333333  0.750000  1
