# generated using pymatgen
data_Dy9LuSi5Pb
_symmetry_space_group_name_H-M   'P 1'
_cell_length_a   8.50404325
_cell_length_b   8.54035859
_cell_length_c   6.39035035
_cell_angle_alpha   90.00872502
_cell_angle_beta   90.02783475
_cell_angle_gamma   119.86059599
_symmetry_Int_Tables_number   1
_chemical_formula_structural   Dy9LuSi5Pb
_chemical_formula_sum   'Dy9 Lu1 Si5 Pb1'
_cell_volume   402.49929500
_cell_formula_units_Z   1
loop_
 _symmetry_equiv_pos_site_id
 _symmetry_equiv_pos_as_xyz
  1  'x, y, z'
loop_
 _atom_site_type_symbol
 _atom_site_label
 _atom_site_symmetry_multiplicity
 _atom_site_fract_x
 _atom_site_fract_y
 _atom_site_fract_z
 _atom_site_occupancy
  Dy  Dy0  1  0.987889  0.746912  0.751427  1
  Dy  Dy1  1  0.997557  0.242580  0.248922  1
  Dy  Dy2  1  0.755242  0.757048  0.248760  1
  Dy  Dy3  1  0.766837  0.000205  0.750959  1
  Dy  Dy4  1  0.241077  0.253025  0.750817  1
  Dy  Dy5  1  0.241104  0.000214  0.249366  1
  Dy  Dy6  1  0.330566  0.655309  0.496268  1
  Dy  Dy7  1  0.331019  0.655754  0.003861  1
  Dy  Dy8  1  0.675331  0.344372  0.496168  1
  Lu  Lu9  1  0.675718  0.344995  0.003881  1
  Si  Si10  1  0.394853  0.390947  0.247234  1
  Si  Si11  1  0.999834  0.607276  0.246675  1
  Si  Si12  1  0.996236  0.393544  0.753161  1
  Si  Si13  1  0.604541  0.604411  0.753070  1
  Si  Si14  1  0.605987  0.001834  0.247500  1
  Pb  Pb15  1  0.396209  0.001573  0.751930  1
