# generated using pymatgen
data_Y20NiHg6Rh
_symmetry_space_group_name_H-M   'P 1'
_cell_length_a   9.73208800
_cell_length_b   9.73205048
_cell_length_c   9.57819500
_cell_angle_alpha   90.00000000
_cell_angle_beta   90.00000000
_cell_angle_gamma   120.00005822
_symmetry_Int_Tables_number   1
_chemical_formula_structural   Y20NiHg6Rh
_chemical_formula_sum   'Y20 Ni1 Hg6 Rh1'
_cell_volume   785.64152778
_cell_formula_units_Z   1
loop_
 _symmetry_equiv_pos_site_id
 _symmetry_equiv_pos_as_xyz
  1  'x, y, z'
loop_
 _atom_site_type_symbol
 _atom_site_label
 _atom_site_symmetry_multiplicity
 _atom_site_fract_x
 _atom_site_fract_y
 _atom_site_fract_z
 _atom_site_occupancy
  Y  Y0  1  0.000000  0.999998  0.498837  1
  Y  Y1  1  0.000000  0.999998  0.001163  1
  Y  Y2  1  0.542214  0.457784  0.250000  1
  Y  Y3  1  0.542213  0.084429  0.250000  1
  Y  Y4  1  0.915567  0.457784  0.250000  1
  Y  Y5  1  0.456936  0.543061  0.750000  1
  Y  Y6  1  0.456938  0.913877  0.750000  1
  Y  Y7  1  0.086120  0.543059  0.750000  1
  Y  Y8  1  0.208553  0.791445  0.439399  1
  Y  Y9  1  0.208552  0.417106  0.439399  1
  Y  Y10  1  0.582891  0.791446  0.439399  1
  Y  Y11  1  0.790350  0.209649  0.563590  1
  Y  Y12  1  0.790349  0.580699  0.563590  1
  Y  Y13  1  0.419301  0.209651  0.563590  1
  Y  Y14  1  0.790350  0.209649  0.936410  1
  Y  Y15  1  0.790349  0.580699  0.936410  1
  Y  Y16  1  0.419301  0.209651  0.936410  1
  Y  Y17  1  0.208553  0.791445  0.060601  1
  Y  Y18  1  0.208552  0.417106  0.060601  1
  Y  Y19  1  0.582891  0.791446  0.060601  1
  Ni  Ni20  1  0.666686  0.333344  0.750000  1
  Hg  Hg21  1  0.879738  0.120262  0.250000  1
  Hg  Hg22  1  0.879736  0.759475  0.250000  1
  Hg  Hg23  1  0.240523  0.120262  0.250000  1
  Hg  Hg24  1  0.119856  0.880141  0.750000  1
  Hg  Hg25  1  0.119857  0.239713  0.750000  1
  Hg  Hg26  1  0.760286  0.880141  0.750000  1
  Rh  Rh27  1  0.333340  0.666678  0.250000  1
