# generated using pymatgen
data_CaSmNb3Co9As7
_symmetry_space_group_name_H-M   'P 1'
_cell_length_a   3.82321500
_cell_length_b   9.59770531
_cell_length_c   9.59770800
_cell_angle_alpha   119.99999547
_cell_angle_beta   90.00000000
_cell_angle_gamma   90.00000000
_symmetry_Int_Tables_number   1
_chemical_formula_structural   CaSmNb3Co9As7
_chemical_formula_sum   'Ca1 Sm1 Nb3 Co9 As7'
_cell_volume   304.99612184
_cell_formula_units_Z   1
loop_
 _symmetry_equiv_pos_site_id
 _symmetry_equiv_pos_as_xyz
  1  'x, y, z'
loop_
 _atom_site_type_symbol
 _atom_site_label
 _atom_site_symmetry_multiplicity
 _atom_site_fract_x
 _atom_site_fract_y
 _atom_site_fract_z
 _atom_site_occupancy
  Ca  Ca0  1  0.000000  0.666667  0.333333  1
  Sm  Sm1  1  0.500000  0.333333  0.666667  1
  Nb  Nb2  1  0.500000  0.776098  0.897106  1
  Nb  Nb3  1  0.500000  0.121007  0.223902  1
  Nb  Nb4  1  0.500000  0.102894  0.878993  1
  Co  Co5  1  0.000000  0.572898  0.937216  1
  Co  Co6  1  0.000000  0.364316  0.427102  1
  Co  Co7  1  0.000000  0.062784  0.635684  1
  Co  Co8  1  0.000000  0.876963  0.157183  1
  Co  Co9  1  0.000000  0.280220  0.123037  1
  Co  Co10  1  0.000000  0.842817  0.719780  1
  Co  Co11  1  0.500000  0.949453  0.385070  1
  Co  Co12  1  0.500000  0.435616  0.050547  1
  Co  Co13  1  0.500000  0.614930  0.564384  1
  As  As14  1  0.500000  0.708014  0.125854  1
  As  As15  1  0.500000  0.417843  0.291986  1
  As  As16  1  0.500000  0.874146  0.582157  1
  As  As17  1  0.000000  0.000000  0.000000  1
  As  As18  1  0.000000  0.582361  0.689798  1
  As  As19  1  0.000000  0.107437  0.417639  1
  As  As20  1  0.000000  0.310202  0.892563  1
