# generated using pymatgen
data_LiSi(PRh2)3
_symmetry_space_group_name_H-M   'P 1'
_cell_length_a   7.12792600
_cell_length_b   7.12792637
_cell_length_c   3.48530600
_cell_angle_alpha   90.00000000
_cell_angle_beta   90.00000000
_cell_angle_gamma   119.99998899
_symmetry_Int_Tables_number   1
_chemical_formula_structural   LiSi(PRh2)3
_chemical_formula_sum   'Li1 Si1 P3 Rh6'
_cell_volume   153.35501443
_cell_formula_units_Z   1
loop_
 _symmetry_equiv_pos_site_id
 _symmetry_equiv_pos_as_xyz
  1  'x, y, z'
loop_
 _atom_site_type_symbol
 _atom_site_label
 _atom_site_symmetry_multiplicity
 _atom_site_fract_x
 _atom_site_fract_y
 _atom_site_fract_z
 _atom_site_occupancy
  Li  Li0  1  0.000000  0.000000  0.000000  1
  Si  Si1  1  0.333333  0.666667  0.000000  1
  P  P2  1  0.813215  0.186785  0.500000  1
  P  P3  1  0.373570  0.186785  0.500000  1
  P  P4  1  0.813215  0.626430  0.500000  1
  Rh  Rh5  1  0.189797  0.810203  0.500000  1
  Rh  Rh6  1  0.189797  0.379595  0.500000  1
  Rh  Rh7  1  0.536995  0.073990  0.000000  1
  Rh  Rh8  1  0.926010  0.463005  0.000000  1
  Rh  Rh9  1  0.536995  0.463005  0.000000  1
  Rh  Rh10  1  0.620405  0.810203  0.500000  1
