# generated using pymatgen
data_K2PdSe16
_symmetry_space_group_name_H-M   'P 1'
_cell_length_a   12.96097800
_cell_length_b   12.96097800
_cell_length_c   7.06384400
_cell_angle_alpha   90.00000000
_cell_angle_beta   90.00000000
_cell_angle_gamma   90.00000000
_symmetry_Int_Tables_number   1
_chemical_formula_structural   K2PdSe16
_chemical_formula_sum   'K4 Pd2 Se32'
_cell_volume   1186.63361390
_cell_formula_units_Z   2
loop_
 _symmetry_equiv_pos_site_id
 _symmetry_equiv_pos_as_xyz
  1  'x, y, z'
loop_
 _atom_site_type_symbol
 _atom_site_label
 _atom_site_symmetry_multiplicity
 _atom_site_fract_x
 _atom_site_fract_y
 _atom_site_fract_z
 _atom_site_occupancy
  K  K0  1  0.500000  0.000000  0.000000  1
  K  K1  1  0.000000  0.500000  0.000000  1
  K  K2  1  0.500000  0.500000  0.500000  1
  K  K3  1  0.000000  0.000000  0.500000  1
  Pd  Pd4  1  0.000000  0.000000  0.000000  1
  Pd  Pd5  1  0.500000  0.500000  0.000000  1
  Se  Se6  1  0.191199  0.423011  0.586067  1
  Se  Se7  1  0.808801  0.576989  0.586067  1
  Se  Se8  1  0.576989  0.191199  0.413933  1
  Se  Se9  1  0.423011  0.808801  0.413933  1
  Se  Se10  1  0.308801  0.923011  0.586067  1
  Se  Se11  1  0.076989  0.308801  0.413933  1
  Se  Se12  1  0.813112  0.965763  0.968028  1
  Se  Se13  1  0.034237  0.813112  0.031972  1
  Se  Se14  1  0.965763  0.186888  0.031972  1
  Se  Se15  1  0.186888  0.034237  0.968028  1
  Se  Se16  1  0.534237  0.686888  0.031972  1
  Se  Se17  1  0.465763  0.313112  0.031972  1
  Se  Se18  1  0.686888  0.465763  0.968028  1
  Se  Se19  1  0.313112  0.534237  0.968028  1
  Se  Se20  1  0.789444  0.202357  0.127719  1
  Se  Se21  1  0.797643  0.789444  0.872281  1
  Se  Se22  1  0.202357  0.210556  0.872281  1
  Se  Se23  1  0.210556  0.797643  0.127719  1
  Se  Se24  1  0.297643  0.710556  0.872281  1
  Se  Se25  1  0.702357  0.289444  0.872281  1
  Se  Se26  1  0.710556  0.702357  0.127719  1
  Se  Se27  1  0.289444  0.297643  0.127719  1
  Se  Se28  1  0.919384  0.307972  0.590364  1
  Se  Se29  1  0.692028  0.919384  0.409636  1
  Se  Se30  1  0.307972  0.080616  0.409636  1
  Se  Se31  1  0.080616  0.692028  0.590364  1
  Se  Se32  1  0.192028  0.580616  0.409636  1
  Se  Se33  1  0.807972  0.419384  0.409636  1
  Se  Se34  1  0.580616  0.807972  0.590364  1
  Se  Se35  1  0.419384  0.192028  0.590364  1
  Se  Se36  1  0.691199  0.076989  0.586067  1
  Se  Se37  1  0.923011  0.691199  0.413933  1
