# generated using pymatgen
data_Ta6V5SiN2
_symmetry_space_group_name_H-M   'P 1'
_cell_length_a   8.22816123
_cell_length_b   8.18882303
_cell_length_c   8.27766100
_cell_angle_alpha   90.00000000
_cell_angle_beta   59.80079138
_cell_angle_gamma   119.84197643
_symmetry_Int_Tables_number   1
_chemical_formula_structural   Ta6V5SiN2
_chemical_formula_sum   'Ta12 V10 Si2 N4'
_cell_volume   394.13238253
_cell_formula_units_Z   2
loop_
 _symmetry_equiv_pos_site_id
 _symmetry_equiv_pos_as_xyz
  1  'x, y, z'
loop_
 _atom_site_type_symbol
 _atom_site_label
 _atom_site_symmetry_multiplicity
 _atom_site_fract_x
 _atom_site_fract_y
 _atom_site_fract_z
 _atom_site_occupancy
  Ta  Ta0  1  0.629379  0.814691  0.435309  1
  Ta  Ta1  1  0.871718  0.435860  0.814140  1
  Ta  Ta2  1  0.249839  0.813632  0.815176  1
  Ta  Ta3  1  0.249839  0.436209  0.434983  1
  Ta  Ta4  1  0.249839  0.436209  0.815176  1
  Ta  Ta5  1  0.249839  0.813632  0.434983  1
  Ta  Ta6  1  0.370621  0.185309  0.564691  1
  Ta  Ta7  1  0.128282  0.564140  0.185860  1
  Ta  Ta8  1  0.750161  0.186368  0.184824  1
  Ta  Ta9  1  0.750161  0.563791  0.565017  1
  Ta  Ta10  1  0.750161  0.563791  0.184824  1
  Ta  Ta11  1  0.750161  0.186368  0.565017  1
  V  V12  1  0.094546  0.884524  0.202728  1
  V  V13  1  0.094546  0.210022  0.202728  1
  V  V14  1  0.414428  0.207214  0.878636  1
  V  V15  1  0.414428  0.207214  0.206936  1
  V  V16  1  0.905454  0.115476  0.797272  1
  V  V17  1  0.905454  0.789978  0.797272  1
  V  V18  1  0.585572  0.792786  0.121364  1
  V  V19  1  0.585572  0.792786  0.793064  1
  V  V20  1  0.500000  0.500000  0.000000  1
  V  V21  1  0.500000  0.000000  0.000000  1
  Si  Si22  1  0.000000  0.000000  0.500000  1
  Si  Si23  1  0.000000  0.000000  0.000000  1
  N  N24  1  0.500000  0.000000  0.500000  1
  N  N25  1  0.500000  0.500000  0.500000  1
  N  N26  1  0.000000  0.500000  0.000000  1
  N  N27  1  0.000000  0.500000  0.500000  1
