# generated using pymatgen
data_Er5Tm3(Si3Rh)4
_symmetry_space_group_name_H-M   'P 1'
_cell_length_a   8.14153200
_cell_length_b   8.14144840
_cell_length_c   7.79567300
_cell_angle_alpha   90.00000000
_cell_angle_beta   90.00000000
_cell_angle_gamma   120.00033969
_symmetry_Int_Tables_number   1
_chemical_formula_structural   Er5Tm3(Si3Rh)4
_chemical_formula_sum   'Er5 Tm3 Si12 Rh4'
_cell_volume   447.49745272
_cell_formula_units_Z   1
loop_
 _symmetry_equiv_pos_site_id
 _symmetry_equiv_pos_as_xyz
  1  'x, y, z'
loop_
 _atom_site_type_symbol
 _atom_site_label
 _atom_site_symmetry_multiplicity
 _atom_site_fract_x
 _atom_site_fract_y
 _atom_site_fract_z
 _atom_site_occupancy
  Er  Er0  1  0.018167  0.509124  0.750000  1
  Er  Er1  1  0.490957  0.509124  0.750000  1
  Er  Er2  1  0.509105  0.018212  0.250000  1
  Er  Er3  1  0.000009  0.000018  0.750000  1
  Er  Er4  1  0.000003  0.000007  0.250000  1
  Tm  Tm5  1  0.981963  0.491021  0.250000  1
  Tm  Tm6  1  0.509056  0.491021  0.250000  1
  Tm  Tm7  1  0.491027  0.982054  0.750000  1
  Si  Si8  1  0.166902  0.833158  0.499720  1
  Si  Si9  1  0.166845  0.333689  0.499509  1
  Si  Si10  1  0.666257  0.833158  0.499720  1
  Si  Si11  1  0.333700  0.166879  0.999762  1
  Si  Si12  1  0.833116  0.666233  0.500028  1
  Si  Si13  1  0.833179  0.166879  0.999762  1
  Si  Si14  1  0.833116  0.666233  0.999972  1
  Si  Si15  1  0.166845  0.333689  0.000491  1
  Si  Si16  1  0.666257  0.833158  0.000280  1
  Si  Si17  1  0.333700  0.166879  0.500238  1
  Si  Si18  1  0.833179  0.166879  0.500238  1
  Si  Si19  1  0.166902  0.833158  0.000280  1
  Rh  Rh20  1  0.333263  0.666527  0.034226  1
  Rh  Rh21  1  0.666594  0.333186  0.966274  1
  Rh  Rh22  1  0.666594  0.333186  0.533726  1
  Rh  Rh23  1  0.333263  0.666527  0.465774  1
