# generated using pymatgen
data_Yb8Cu4SbPd20
_symmetry_space_group_name_H-M   'P 1'
_cell_length_a   8.23565927
_cell_length_b   8.33660504
_cell_length_c   8.28316465
_cell_angle_alpha   89.97181225
_cell_angle_beta   90.03676220
_cell_angle_gamma   90.05054078
_symmetry_Int_Tables_number   1
_chemical_formula_structural   Yb8Cu4SbPd20
_chemical_formula_sum   'Yb8 Cu4 Sb1 Pd20'
_cell_volume   568.70046153
_cell_formula_units_Z   1
loop_
 _symmetry_equiv_pos_site_id
 _symmetry_equiv_pos_as_xyz
  1  'x, y, z'
loop_
 _atom_site_type_symbol
 _atom_site_label
 _atom_site_symmetry_multiplicity
 _atom_site_fract_x
 _atom_site_fract_y
 _atom_site_fract_z
 _atom_site_occupancy
  Yb  Yb0  1  0.744430  0.748592  0.251610  1
  Yb  Yb1  1  0.752833  0.257416  0.745577  1
  Yb  Yb2  1  0.252918  0.746088  0.752878  1
  Yb  Yb3  1  0.746448  0.742385  0.747419  1
  Yb  Yb4  1  0.750777  0.251531  0.253871  1
  Yb  Yb5  1  0.246602  0.254322  0.750027  1
  Yb  Yb6  1  0.257076  0.751883  0.248531  1
  Yb  Yb7  1  0.250852  0.248601  0.251352  1
  Cu  Cu8  1  0.720349  0.002011  0.504372  1
  Cu  Cu9  1  0.726580  0.500853  0.001144  1
  Cu  Cu10  1  0.504803  0.001979  0.722369  1
  Cu  Cu11  1  0.003950  0.722972  0.500398  1
  Sb  Sb12  1  0.009011  0.004901  0.004387  1
  Pd  Pd13  1  0.986950  0.983245  0.325316  1
  Pd  Pd14  1  0.508122  0.002962  0.265642  1
  Pd  Pd15  1  0.001069  0.260906  0.499910  1
  Pd  Pd16  1  0.507494  0.727518  0.999443  1
  Pd  Pd17  1  0.258803  0.504188  0.499447  1
  Pd  Pd18  1  0.502753  0.498905  0.744943  1
  Pd  Pd19  1  0.503977  0.498987  0.256586  1
  Pd  Pd20  1  0.503949  0.249054  0.505680  1
  Pd  Pd21  1  0.504449  0.753344  0.505263  1
  Pd  Pd22  1  0.746170  0.504127  0.498900  1
  Pd  Pd23  1  0.326468  0.001207  0.985628  1
  Pd  Pd24  1  0.983261  0.984141  0.682709  1
  Pd  Pd25  1  0.002967  0.506993  0.272808  1
  Pd  Pd26  1  0.984528  0.319097  0.001203  1
  Pd  Pd27  1  0.985202  0.690661  0.001043  1
  Pd  Pd28  1  0.690989  0.001065  0.982292  1
  Pd  Pd29  1  0.260290  0.500421  0.003133  1
  Pd  Pd30  1  0.267051  0.998782  0.507876  1
  Pd  Pd31  1  0.001438  0.506769  0.728504  1
  Pd  Pd32  1  0.507443  0.274095  0.999737  1
