# generated using pymatgen
data_Ho6Co8TcNi8P12W
_symmetry_space_group_name_H-M   'P 1'
_cell_length_a   3.73029100
_cell_length_b   10.52572400
_cell_length_c   12.26517300
_cell_angle_alpha   90.00000000
_cell_angle_beta   90.00000000
_cell_angle_gamma   90.00000000
_symmetry_Int_Tables_number   1
_chemical_formula_structural   Ho6Co8TcNi8P12W
_chemical_formula_sum   'Ho6 Co8 Tc1 Ni8 P12 W1'
_cell_volume   481.57991832
_cell_formula_units_Z   1
loop_
 _symmetry_equiv_pos_site_id
 _symmetry_equiv_pos_as_xyz
  1  'x, y, z'
loop_
 _atom_site_type_symbol
 _atom_site_label
 _atom_site_symmetry_multiplicity
 _atom_site_fract_x
 _atom_site_fract_y
 _atom_site_fract_z
 _atom_site_occupancy
  Ho  Ho0  1  0.000000  0.500000  0.522497  1
  Ho  Ho1  1  0.500000  0.000000  0.475768  1
  Ho  Ho2  1  0.500000  0.817587  0.205185  1
  Ho  Ho3  1  0.500000  0.182413  0.205185  1
  Ho  Ho4  1  0.000000  0.680855  0.794785  1
  Ho  Ho5  1  0.000000  0.319145  0.794785  1
  Co  Co6  1  0.000000  0.500000  0.987386  1
  Co  Co7  1  0.500000  0.000000  0.014333  1
  Co  Co8  1  0.000000  0.620113  0.288223  1
  Co  Co9  1  0.000000  0.379887  0.288223  1
  Co  Co10  1  0.500000  0.333150  0.989600  1
  Co  Co11  1  0.500000  0.666850  0.989600  1
  Co  Co12  1  0.000000  0.167156  0.011393  1
  Co  Co13  1  0.000000  0.832844  0.011393  1
  Tc  Tc14  1  0.500000  0.500000  0.153883  1
  Ni  Ni15  1  0.500000  0.302993  0.427943  1
  Ni  Ni16  1  0.500000  0.697007  0.427943  1
  Ni  Ni17  1  0.000000  0.198701  0.570014  1
  Ni  Ni18  1  0.000000  0.801299  0.570014  1
  Ni  Ni19  1  0.500000  0.878503  0.711490  1
  Ni  Ni20  1  0.500000  0.121497  0.711490  1
  Ni  Ni21  1  0.500000  0.500000  0.703246  1
  Ni  Ni22  1  0.000000  0.000000  0.298584  1
  P  P23  1  0.500000  0.314968  0.615576  1
  P  P24  1  0.500000  0.685032  0.615576  1
  P  P25  1  0.000000  0.188271  0.382565  1
  P  P26  1  0.000000  0.811729  0.382565  1
  P  P27  1  0.500000  0.500000  0.881084  1
  P  P28  1  0.000000  0.000000  0.120702  1
  P  P29  1  0.500000  0.843663  0.895852  1
  P  P30  1  0.500000  0.156337  0.895852  1
  P  P31  1  0.000000  0.654479  0.107162  1
  P  P32  1  0.000000  0.345521  0.107162  1
  P  P33  1  0.500000  0.500000  0.345160  1
  P  P34  1  0.000000  0.000000  0.650427  1
  W  W35  1  0.000000  0.000000  0.847353  1
