# generated using pymatgen
data_Er3Al12(RuRh)2
_symmetry_space_group_name_H-M   'P 1'
_cell_length_a   8.82858634
_cell_length_b   8.82858565
_cell_length_c   9.49714600
_cell_angle_alpha   90.00000000
_cell_angle_beta   90.00000000
_cell_angle_gamma   120.41298981
_symmetry_Int_Tables_number   1
_chemical_formula_structural   Er3Al12(RuRh)2
_chemical_formula_sum   'Er6 Al24 Ru4 Rh4'
_cell_volume   638.38639404
_cell_formula_units_Z   2
loop_
 _symmetry_equiv_pos_site_id
 _symmetry_equiv_pos_as_xyz
  1  'x, y, z'
loop_
 _atom_site_type_symbol
 _atom_site_label
 _atom_site_symmetry_multiplicity
 _atom_site_fract_x
 _atom_site_fract_y
 _atom_site_fract_z
 _atom_site_occupancy
  Er  Er0  1  0.197025  0.388802  0.250000  1
  Er  Er1  1  0.802975  0.611198  0.750000  1
  Er  Er2  1  0.611198  0.802975  0.250000  1
  Er  Er3  1  0.388802  0.197025  0.750000  1
  Er  Er4  1  0.193655  0.806345  0.250000  1
  Er  Er5  1  0.806345  0.193655  0.750000  1
  Al  Al6  1  0.334303  0.665697  0.024463  1
  Al  Al7  1  0.665697  0.334303  0.975537  1
  Al  Al8  1  0.665697  0.334303  0.524463  1
  Al  Al9  1  0.334303  0.665697  0.475537  1
  Al  Al10  1  0.163993  0.325822  0.577508  1
  Al  Al11  1  0.836007  0.674178  0.422492  1
  Al  Al12  1  0.674178  0.836007  0.577508  1
  Al  Al13  1  0.836007  0.674178  0.077508  1
  Al  Al14  1  0.325822  0.163993  0.422492  1
  Al  Al15  1  0.163993  0.325822  0.922492  1
  Al  Al16  1  0.161835  0.838165  0.578674  1
  Al  Al17  1  0.325822  0.163993  0.077508  1
  Al  Al18  1  0.838165  0.161835  0.421326  1
  Al  Al19  1  0.674178  0.836007  0.922492  1
  Al  Al20  1  0.838165  0.161835  0.078674  1
  Al  Al21  1  0.161835  0.838165  0.921326  1
  Al  Al22  1  0.562080  0.122599  0.250000  1
  Al  Al23  1  0.437920  0.877401  0.750000  1
  Al  Al24  1  0.877401  0.437920  0.250000  1
  Al  Al25  1  0.122599  0.562080  0.750000  1
  Al  Al26  1  0.561557  0.438443  0.250000  1
  Al  Al27  1  0.438443  0.561557  0.750000  1
  Al  Al28  1  0.001076  0.998924  0.250000  1
  Al  Al29  1  0.998924  0.001076  0.750000  1
  Ru  Ru30  1  0.500000  0.500000  0.000000  1
  Ru  Ru31  1  0.500000  0.500000  0.500000  1
  Ru  Ru32  1  0.000000  0.000000  0.000000  1
  Ru  Ru33  1  0.000000  0.000000  0.500000  1
  Rh  Rh34  1  0.500000  0.000000  0.000000  1
  Rh  Rh35  1  0.000000  0.500000  0.000000  1
  Rh  Rh36  1  0.500000  0.000000  0.500000  1
  Rh  Rh37  1  0.000000  0.500000  0.500000  1
