# generated using pymatgen
data_Y3Er2Zr(SnIr)6
_symmetry_space_group_name_H-M   'P 1'
_cell_length_a   7.46392853
_cell_length_b   7.52840268
_cell_length_c   7.79166000
_cell_angle_alpha   90.00000000
_cell_angle_beta   90.00000000
_cell_angle_gamma   120.31097737
_symmetry_Int_Tables_number   1
_chemical_formula_structural   Y3Er2Zr(SnIr)6
_chemical_formula_sum   'Y3 Er2 Zr1 Sn6 Ir6'
_cell_volume   377.97361092
_cell_formula_units_Z   1
loop_
 _symmetry_equiv_pos_site_id
 _symmetry_equiv_pos_as_xyz
  1  'x, y, z'
loop_
 _atom_site_type_symbol
 _atom_site_label
 _atom_site_symmetry_multiplicity
 _atom_site_fract_x
 _atom_site_fract_y
 _atom_site_fract_z
 _atom_site_occupancy
  Y  Y0  1  0.596160  0.592675  0.750000  1
  Y  Y1  1  0.001104  0.409169  0.750000  1
  Y  Y2  1  0.403518  0.995760  0.750000  1
  Er  Er3  1  0.405101  0.004433  0.250000  1
  Er  Er4  1  0.596340  0.597524  0.250000  1
  Zr  Zr5  1  0.999025  0.398011  0.250000  1
  Sn  Sn6  1  0.263816  0.261774  0.500082  1
  Sn  Sn7  1  0.263816  0.261774  0.999918  1
  Sn  Sn8  1  0.735712  0.997283  0.000110  1
  Sn  Sn9  1  0.000343  0.742437  0.491078  1
  Sn  Sn10  1  0.735712  0.997283  0.499890  1
  Sn  Sn11  1  0.000343  0.742437  0.008922  1
  Ir  Ir12  1  0.677588  0.335717  0.486191  1
  Ir  Ir13  1  0.677588  0.335717  0.013809  1
  Ir  Ir14  1  0.322020  0.657979  0.017869  1
  Ir  Ir15  1  0.322020  0.657979  0.482131  1
  Ir  Ir16  1  0.999903  0.999115  0.750000  1
  Ir  Ir17  1  0.999893  0.012933  0.250000  1
