# generated using pymatgen
data_NdU3(ZnIr)4
_symmetry_space_group_name_H-M   'P 1'
_cell_length_a   3.90766100
_cell_length_b   7.32610200
_cell_length_c   16.19532700
_cell_angle_alpha   90.00000000
_cell_angle_beta   90.00000000
_cell_angle_gamma   90.00000000
_symmetry_Int_Tables_number   1
_chemical_formula_structural   NdU3(ZnIr)4
_chemical_formula_sum   'Nd2 U6 Zn8 Ir8'
_cell_volume   463.63857541
_cell_formula_units_Z   2
loop_
 _symmetry_equiv_pos_site_id
 _symmetry_equiv_pos_as_xyz
  1  'x, y, z'
loop_
 _atom_site_type_symbol
 _atom_site_label
 _atom_site_symmetry_multiplicity
 _atom_site_fract_x
 _atom_site_fract_y
 _atom_site_fract_z
 _atom_site_occupancy
  Nd  Nd0  1  0.250000  0.049672  0.713461  1
  Nd  Nd1  1  0.250000  0.549672  0.786539  1
  U  U2  1  0.250000  0.167865  0.942448  1
  U  U3  1  0.250000  0.667865  0.557552  1
  U  U4  1  0.750000  0.336377  0.434693  1
  U  U5  1  0.750000  0.949811  0.280411  1
  U  U6  1  0.750000  0.836377  0.065307  1
  U  U7  1  0.750000  0.449811  0.219589  1
  Zn  Zn8  1  0.750000  0.009774  0.557080  1
  Zn  Zn9  1  0.250000  0.620856  0.346358  1
  Zn  Zn10  1  0.750000  0.378248  0.652518  1
  Zn  Zn11  1  0.250000  0.495048  0.063867  1
  Zn  Zn12  1  0.750000  0.509774  0.942920  1
  Zn  Zn13  1  0.250000  0.995048  0.436133  1
  Zn  Zn14  1  0.250000  0.120856  0.153642  1
  Zn  Zn15  1  0.750000  0.878248  0.847482  1
  Ir  Ir16  1  0.750000  0.739298  0.439584  1
  Ir  Ir17  1  0.250000  0.243245  0.311475  1
  Ir  Ir18  1  0.750000  0.238341  0.829974  1
  Ir  Ir19  1  0.750000  0.738341  0.670026  1
  Ir  Ir20  1  0.250000  0.271466  0.550589  1
  Ir  Ir21  1  0.250000  0.743245  0.188525  1
  Ir  Ir22  1  0.750000  0.239298  0.060416  1
  Ir  Ir23  1  0.250000  0.771466  0.949411  1
