# generated using pymatgen
data_Y3In3Hg2Ir
_symmetry_space_group_name_H-M   'P 1'
_cell_length_a   7.97421300
_cell_length_b   7.97421445
_cell_length_c   3.92905800
_cell_angle_alpha   90.00000000
_cell_angle_beta   90.00000000
_cell_angle_gamma   119.99998982
_symmetry_Int_Tables_number   1
_chemical_formula_structural   Y3In3Hg2Ir
_chemical_formula_sum   'Y3 In3 Hg2 Ir1'
_cell_volume   216.36891095
_cell_formula_units_Z   1
loop_
 _symmetry_equiv_pos_site_id
 _symmetry_equiv_pos_as_xyz
  1  'x, y, z'
loop_
 _atom_site_type_symbol
 _atom_site_label
 _atom_site_symmetry_multiplicity
 _atom_site_fract_x
 _atom_site_fract_y
 _atom_site_fract_z
 _atom_site_occupancy
  Y  Y0  1  0.583477  0.615613  0.000000  1
  Y  Y1  1  0.384387  0.967865  0.000000  1
  Y  Y2  1  0.032135  0.416523  0.000000  1
  In  In3  1  0.002501  0.726750  0.500000  1
  In  In4  1  0.273250  0.275750  0.500000  1
  In  In5  1  0.724250  0.997499  0.500000  1
  Hg  Hg6  1  0.000000  0.000000  0.000000  1
  Hg  Hg7  1  0.666667  0.333333  0.500000  1
  Ir  Ir8  1  0.333333  0.666667  0.500000  1
