# generated using pymatgen
data_Sc3ZnAsPIr3
_symmetry_space_group_name_H-M   'P 1'
_cell_length_a   6.52097600
_cell_length_b   6.52097661
_cell_length_c   3.94880300
_cell_angle_alpha   90.00000000
_cell_angle_beta   90.00000000
_cell_angle_gamma   120.00000705
_symmetry_Int_Tables_number   1
_chemical_formula_structural   Sc3ZnAsPIr3
_chemical_formula_sum   'Sc3 Zn1 As1 P1 Ir3'
_cell_volume   145.41905331
_cell_formula_units_Z   1
loop_
 _symmetry_equiv_pos_site_id
 _symmetry_equiv_pos_as_xyz
  1  'x, y, z'
loop_
 _atom_site_type_symbol
 _atom_site_label
 _atom_site_symmetry_multiplicity
 _atom_site_fract_x
 _atom_site_fract_y
 _atom_site_fract_z
 _atom_site_occupancy
  Sc  Sc0  1  0.007947  0.425597  0.500000  1
  Sc  Sc1  1  0.574403  0.582350  0.500000  1
  Sc  Sc2  1  0.417650  0.992053  0.500000  1
  Zn  Zn3  1  0.000000  0.000000  0.500000  1
  As  As4  1  0.666667  0.333333  0.000000  1
  P  P5  1  0.333333  0.666667  0.000000  1
  Ir  Ir6  1  0.011306  0.758577  0.000000  1
  Ir  Ir7  1  0.241423  0.252729  0.000000  1
  Ir  Ir8  1  0.747271  0.988694  0.000000  1
