# generated using pymatgen
data_Er3Nb2B4Ru10W
_symmetry_space_group_name_H-M   'P 1'
_cell_length_a   9.57035844
_cell_length_b   9.56090823
_cell_length_c   3.10835600
_cell_angle_alpha   90.00000000
_cell_angle_beta   90.00000000
_cell_angle_gamma   90.19778183
_symmetry_Int_Tables_number   1
_chemical_formula_structural   Er3Nb2B4Ru10W
_chemical_formula_sum   'Er3 Nb2 B4 Ru10 W1'
_cell_volume   284.41697871
_cell_formula_units_Z   1
loop_
 _symmetry_equiv_pos_site_id
 _symmetry_equiv_pos_as_xyz
  1  'x, y, z'
loop_
 _atom_site_type_symbol
 _atom_site_label
 _atom_site_symmetry_multiplicity
 _atom_site_fract_x
 _atom_site_fract_y
 _atom_site_fract_z
 _atom_site_occupancy
  Er  Er0  1  0.824159  0.674678  0.000000  1
  Er  Er1  1  0.175217  0.324103  0.000000  1
  Er  Er2  1  0.325246  0.825501  0.000000  1
  Nb  Nb3  1  0.676239  0.175345  0.000000  1
  Nb  Nb4  1  0.003519  0.997929  0.000000  1
  B  B5  1  0.624307  0.881983  0.000000  1
  B  B6  1  0.380303  0.122780  0.000000  1
  B  B7  1  0.117255  0.619025  0.000000  1
  B  B8  1  0.877344  0.376175  0.000000  1
  Ru  Ru9  1  0.569530  0.718588  0.500000  1
  Ru  Ru10  1  0.441103  0.283803  0.500000  1
  Ru  Ru11  1  0.070107  0.779593  0.500000  1
  Ru  Ru12  1  0.915672  0.214172  0.500000  1
  Ru  Ru13  1  0.283691  0.567590  0.500000  1
  Ru  Ru14  1  0.710888  0.419111  0.500000  1
  Ru  Ru15  1  0.222523  0.071633  0.500000  1
  Ru  Ru16  1  0.780266  0.939267  0.500000  1
  Ru  Ru17  1  0.508861  0.009234  0.500000  1
  Ru  Ru18  1  0.996370  0.495832  0.500000  1
  W  W19  1  0.497401  0.503659  0.000000  1
