# generated using pymatgen
data_Y9Ho11(Bi2Pt)4
_symmetry_space_group_name_H-M   'P 1'
_cell_length_a   8.07133200
_cell_length_b   9.02788500
_cell_length_c   12.42806200
_cell_angle_alpha   90.00000000
_cell_angle_beta   90.00087093
_cell_angle_gamma   90.00000000
_symmetry_Int_Tables_number   1
_chemical_formula_structural   Y9Ho11(Bi2Pt)4
_chemical_formula_sum   'Y9 Ho11 Bi8 Pt4'
_cell_volume   905.59630348
_cell_formula_units_Z   1
loop_
 _symmetry_equiv_pos_site_id
 _symmetry_equiv_pos_as_xyz
  1  'x, y, z'
loop_
 _atom_site_type_symbol
 _atom_site_label
 _atom_site_symmetry_multiplicity
 _atom_site_fract_x
 _atom_site_fract_y
 _atom_site_fract_z
 _atom_site_occupancy
  Y  Y0  1  0.338729  0.750000  0.710674  1
  Y  Y1  1  0.661392  0.250000  0.289168  1
  Y  Y2  1  0.838511  0.250000  0.789591  1
  Y  Y3  1  0.161240  0.750000  0.210201  1
  Y  Y4  1  0.872213  0.750000  0.801116  1
  Y  Y5  1  0.128287  0.250000  0.198760  1
  Y  Y6  1  0.372102  0.250000  0.698984  1
  Y  Y7  1  0.628214  0.750000  0.301068  1
  Y  Y8  1  0.048969  0.750000  0.500349  1
  Ho  Ho9  1  0.677785  0.545808  0.566508  1
  Ho  Ho10  1  0.322137  0.453805  0.433881  1
  Ho  Ho11  1  0.178114  0.453543  0.933968  1
  Ho  Ho12  1  0.322137  0.046195  0.433881  1
  Ho  Ho13  1  0.821715  0.546350  0.065921  1
  Ho  Ho14  1  0.677785  0.954192  0.566508  1
  Ho  Ho15  1  0.821715  0.953650  0.065921  1
  Ho  Ho16  1  0.178114  0.046457  0.933968  1
  Ho  Ho17  1  0.949160  0.250000  0.499562  1
  Ho  Ho18  1  0.550810  0.250000  0.999742  1
  Ho  Ho19  1  0.448927  0.750000  0.000241  1
  Bi  Bi20  1  0.569212  0.509512  0.828430  1
  Bi  Bi21  1  0.430797  0.490578  0.171687  1
  Bi  Bi22  1  0.069348  0.490140  0.672047  1
  Bi  Bi23  1  0.430797  0.009422  0.171687  1
  Bi  Bi24  1  0.930727  0.509169  0.327762  1
  Bi  Bi25  1  0.569212  0.990488  0.828430  1
  Bi  Bi26  1  0.930727  0.990831  0.327762  1
  Bi  Bi27  1  0.069348  0.009860  0.672047  1
  Pt  Pt28  1  0.076111  0.750000  0.987880  1
  Pt  Pt29  1  0.923805  0.250000  0.012061  1
  Pt  Pt30  1  0.575751  0.250000  0.511816  1
  Pt  Pt31  1  0.426109  0.750000  0.488379  1
