# generated using pymatgen
data_Dy5HoZr4(Sn3O)2
_symmetry_space_group_name_H-M   'P 1'
_cell_length_a   8.76338300
_cell_length_b   8.76339078
_cell_length_c   6.03662800
_cell_angle_alpha   89.99982958
_cell_angle_beta   90.00034083
_cell_angle_gamma   119.99997439
_symmetry_Int_Tables_number   1
_chemical_formula_structural   Dy5HoZr4(Sn3O)2
_chemical_formula_sum   'Dy5 Ho1 Zr4 Sn6 O2'
_cell_volume   401.48481946
_cell_formula_units_Z   1
loop_
 _symmetry_equiv_pos_site_id
 _symmetry_equiv_pos_as_xyz
  1  'x, y, z'
loop_
 _atom_site_type_symbol
 _atom_site_label
 _atom_site_symmetry_multiplicity
 _atom_site_fract_x
 _atom_site_fract_y
 _atom_site_fract_z
 _atom_site_occupancy
  Dy  Dy0  1  0.999970  0.772902  0.750000  1
  Dy  Dy1  1  0.999958  0.227056  0.250000  1
  Dy  Dy2  1  0.227067  0.227098  0.750000  1
  Dy  Dy3  1  0.227134  0.000000  0.250000  1
  Dy  Dy4  1  0.772902  0.772944  0.250000  1
  Ho  Ho5  1  0.773226  0.000000  0.750000  1
  Zr  Zr6  1  0.333360  0.666679  0.000023  1
  Zr  Zr7  1  0.333359  0.666676  0.499977  1
  Zr  Zr8  1  0.666682  0.333321  0.000023  1
  Zr  Zr9  1  0.666684  0.333324  0.499977  1
  Sn  Sn10  1  0.000008  0.594687  0.250002  1
  Sn  Sn11  1  0.999864  0.405049  0.750000  1
  Sn  Sn12  1  0.405321  0.405313  0.250002  1
  Sn  Sn13  1  0.594815  0.594951  0.750000  1
  Sn  Sn14  1  0.405460  0.000000  0.750002  1
  Sn  Sn15  1  0.594748  0.000000  0.249995  1
  O  O16  1  0.999721  0.000000  0.999668  1
  O  O17  1  0.999721  0.000000  0.500332  1
