# generated using pymatgen
data_Er9TmSi5Ge
_symmetry_space_group_name_H-M   'P 1'
_cell_length_a   8.37772400
_cell_length_b   8.37785631
_cell_length_c   6.27616400
_cell_angle_alpha   90.00016529
_cell_angle_beta   89.99928833
_cell_angle_gamma   120.01235449
_symmetry_Int_Tables_number   1
_chemical_formula_structural   Er9TmSi5Ge
_chemical_formula_sum   'Er9 Tm1 Si5 Ge1'
_cell_volume   381.44312478
_cell_formula_units_Z   1
loop_
 _symmetry_equiv_pos_site_id
 _symmetry_equiv_pos_as_xyz
  1  'x, y, z'
loop_
 _atom_site_type_symbol
 _atom_site_label
 _atom_site_symmetry_multiplicity
 _atom_site_fract_x
 _atom_site_fract_y
 _atom_site_fract_z
 _atom_site_occupancy
  Er  Er0  1  0.667492  0.333180  0.500693  1
  Er  Er1  1  0.333187  0.667500  0.500704  1
  Er  Er2  1  0.333191  0.667501  0.999305  1
  Er  Er3  1  0.758403  0.758376  0.249963  1
  Er  Er4  1  0.242265  0.998810  0.249953  1
  Er  Er5  1  0.998737  0.242229  0.249944  1
  Er  Er6  1  0.242201  0.242164  0.750061  1
  Er  Er7  1  0.757397  0.999946  0.750045  1
  Er  Er8  1  0.999876  0.757359  0.750042  1
  Tm  Tm9  1  0.667498  0.333178  0.999292  1
  Si  Si10  1  0.606022  0.000054  0.249909  1
  Si  Si11  1  0.999839  0.605917  0.249906  1
  Si  Si12  1  0.606265  0.606161  0.750090  1
  Si  Si13  1  0.394018  0.000186  0.750094  1
  Si  Si14  1  0.999965  0.393908  0.750094  1
  Ge  Ge15  1  0.393642  0.393531  0.249904  1
