# generated using pymatgen
data_Zr8V12Si15As
_symmetry_space_group_name_H-M   'P 1'
_cell_length_a   6.64658474
_cell_length_b   6.65087638
_cell_length_c   12.31642485
_cell_angle_alpha   89.88357173
_cell_angle_beta   90.04109995
_cell_angle_gamma   90.06897218
_symmetry_Int_Tables_number   1
_chemical_formula_structural   Zr8V12Si15As
_chemical_formula_sum   'Zr8 V12 Si15 As1'
_cell_volume   544.45345805
_cell_formula_units_Z   1
loop_
 _symmetry_equiv_pos_site_id
 _symmetry_equiv_pos_as_xyz
  1  'x, y, z'
loop_
 _atom_site_type_symbol
 _atom_site_label
 _atom_site_symmetry_multiplicity
 _atom_site_fract_x
 _atom_site_fract_y
 _atom_site_fract_z
 _atom_site_occupancy
  Zr  Zr0  1  0.002763  0.660531  0.029633  1
  Zr  Zr1  1  0.837816  0.502972  0.280709  1
  Zr  Zr2  1  0.160784  0.495828  0.779466  1
  Zr  Zr3  1  0.502619  0.838294  0.719425  1
  Zr  Zr4  1  0.499115  0.164414  0.221468  1
  Zr  Zr5  1  0.997576  0.338285  0.530537  1
  Zr  Zr6  1  0.662313  0.001626  0.969164  1
  Zr  Zr7  1  0.338422  0.997470  0.469722  1
  V  V8  1  0.333299  0.336330  0.000031  1
  V  V9  1  0.165899  0.833629  0.251285  1
  V  V10  1  0.833910  0.165814  0.750076  1
  V  V11  1  0.666227  0.666775  0.499874  1
  V  V12  1  0.000169  0.163350  0.128714  1
  V  V13  1  0.340566  0.505298  0.376953  1
  V  V14  1  0.662278  0.493697  0.875982  1
  V  V15  1  0.504565  0.340113  0.623200  1
  V  V16  1  0.495654  0.659288  0.122703  1
  V  V17  1  0.995350  0.840064  0.626588  1
  V  V18  1  0.160434  0.002608  0.872309  1
  V  V19  1  0.839824  0.995558  0.373546  1
  Si  Si20  1  0.539387  0.790244  0.314506  1
  Si  Si21  1  0.460495  0.209898  0.814029  1
  Si  Si22  1  0.789540  0.539631  0.685028  1
  Si  Si23  1  0.209636  0.461318  0.186398  1
  Si  Si24  1  0.710185  0.039635  0.564455  1
  Si  Si25  1  0.960810  0.289020  0.935662  1
  Si  Si26  1  0.039414  0.710016  0.435904  1
  Si  Si27  1  0.704934  0.374472  0.070379  1
  Si  Si28  1  0.125727  0.206499  0.321560  1
  Si  Si29  1  0.874418  0.793766  0.820360  1
  Si  Si30  1  0.205647  0.125337  0.679029  1
  Si  Si31  1  0.794293  0.873486  0.179685  1
  Si  Si32  1  0.294602  0.625996  0.570646  1
  Si  Si33  1  0.376781  0.699197  0.925380  1
  Si  Si34  1  0.625987  0.295030  0.429887  1
  As  As35  1  0.288560  0.964509  0.065707  1
