# generated using pymatgen
data_Li3La2NdPt3
_symmetry_space_group_name_H-M   'P 1'
_cell_length_a   7.39737250
_cell_length_b   7.38591797
_cell_length_c   4.18194900
_cell_angle_alpha   90.00000000
_cell_angle_beta   90.00000000
_cell_angle_gamma   119.94877434
_symmetry_Int_Tables_number   1
_chemical_formula_structural   Li3La2NdPt3
_chemical_formula_sum   'Li3 La2 Nd1 Pt3'
_cell_volume   197.97724523
_cell_formula_units_Z   1
loop_
 _symmetry_equiv_pos_site_id
 _symmetry_equiv_pos_as_xyz
  1  'x, y, z'
loop_
 _atom_site_type_symbol
 _atom_site_label
 _atom_site_symmetry_multiplicity
 _atom_site_fract_x
 _atom_site_fract_y
 _atom_site_fract_z
 _atom_site_occupancy
  Li  Li0  1  0.776212  0.772525  0.500000  1
  Li  Li1  1  0.223788  0.996313  0.500000  1
  Li  Li2  1  0.000000  0.228283  0.500000  1
  La  La3  1  0.410079  0.411669  0.000000  1
  La  La4  1  0.589921  0.001590  0.000000  1
  Nd  Nd5  1  0.000000  0.591302  0.000000  1
  Pt  Pt6  1  0.000000  0.998174  0.000000  1
  Pt  Pt7  1  0.668887  0.334514  0.500000  1
  Pt  Pt8  1  0.331113  0.665627  0.500000  1
