# generated using pymatgen
data_Zr3ZnIr2O
_symmetry_space_group_name_H-M   'P 1'
_cell_length_a   8.57337564
_cell_length_b   8.57337571
_cell_length_c   8.57337500
_cell_angle_alpha   59.99999887
_cell_angle_beta   59.99999862
_cell_angle_gamma   60.00000156
_symmetry_Int_Tables_number   1
_chemical_formula_structural   Zr3ZnIr2O
_chemical_formula_sum   'Zr12 Zn4 Ir8 O4'
_cell_volume   445.59522486
_cell_formula_units_Z   4
loop_
 _symmetry_equiv_pos_site_id
 _symmetry_equiv_pos_as_xyz
  1  'x, y, z'
loop_
 _atom_site_type_symbol
 _atom_site_label
 _atom_site_symmetry_multiplicity
 _atom_site_fract_x
 _atom_site_fract_y
 _atom_site_fract_z
 _atom_site_occupancy
  Zr  Zr0  1  0.805049  0.805049  0.194951  1
  Zr  Zr1  1  0.194951  0.194951  0.805049  1
  Zr  Zr2  1  0.805049  0.194951  0.805049  1
  Zr  Zr3  1  0.194951  0.805049  0.194951  1
  Zr  Zr4  1  0.194951  0.805049  0.805049  1
  Zr  Zr5  1  0.805049  0.194951  0.194951  1
  Zr  Zr6  1  0.444951  0.444951  0.055049  1
  Zr  Zr7  1  0.055049  0.055049  0.444951  1
  Zr  Zr8  1  0.444951  0.055049  0.444951  1
  Zr  Zr9  1  0.055049  0.444951  0.055049  1
  Zr  Zr10  1  0.055049  0.444951  0.444951  1
  Zr  Zr11  1  0.444951  0.055049  0.055049  1
  Zn  Zn12  1  0.125000  0.625000  0.625000  1
  Zn  Zn13  1  0.625000  0.125000  0.625000  1
  Zn  Zn14  1  0.625000  0.625000  0.125000  1
  Zn  Zn15  1  0.625000  0.625000  0.625000  1
  Ir  Ir16  1  0.759190  0.413604  0.413604  1
  Ir  Ir17  1  0.413604  0.759190  0.413604  1
  Ir  Ir18  1  0.413604  0.413604  0.759190  1
  Ir  Ir19  1  0.413604  0.413604  0.413604  1
  Ir  Ir20  1  0.490810  0.836396  0.836396  1
  Ir  Ir21  1  0.836396  0.490810  0.836396  1
  Ir  Ir22  1  0.836396  0.836396  0.490810  1
  Ir  Ir23  1  0.836396  0.836396  0.836396  1
  O  O24  1  0.625000  0.125000  0.125000  1
  O  O25  1  0.125000  0.625000  0.125000  1
  O  O26  1  0.125000  0.125000  0.625000  1
  O  O27  1  0.125000  0.125000  0.125000  1
