# generated using pymatgen
data_Mn2Cd(P2O7)2
_symmetry_space_group_name_H-M   'P 1'
_cell_length_a   4.90303285
_cell_length_b   7.06641403
_cell_length_c   8.00397867
_cell_angle_alpha   87.20455781
_cell_angle_beta   84.10350883
_cell_angle_gamma   72.46872943
_symmetry_Int_Tables_number   1
_chemical_formula_structural   Mn2Cd(P2O7)2
_chemical_formula_sum   'Mn2 Cd1 P4 O14'
_cell_volume   262.98676676
_cell_formula_units_Z   1
loop_
 _symmetry_equiv_pos_site_id
 _symmetry_equiv_pos_as_xyz
  1  'x, y, z'
loop_
 _atom_site_type_symbol
 _atom_site_label
 _atom_site_symmetry_multiplicity
 _atom_site_fract_x
 _atom_site_fract_y
 _atom_site_fract_z
 _atom_site_occupancy
  Mn  Mn0  1  0.500105  0.499732  0.999895  1
  Mn  Mn1  1  0.999975  0.999813  0.499814  1
  Cd  Cd2  1  0.000100  0.000154  0.999880  1
  P  P3  1  0.977609  0.619533  0.754821  1
  P  P4  1  0.022248  0.380653  0.245333  1
  P  P5  1  0.397327  0.212203  0.726029  1
  P  P6  1  0.602819  0.787750  0.273920  1
  O  O7  1  0.216137  0.434034  0.670389  1
  O  O8  1  0.783868  0.566023  0.329757  1
  O  O9  1  0.101505  0.675670  0.908566  1
  O  O10  1  0.898275  0.324408  0.091644  1
  O  O11  1  0.515143  0.227167  0.895815  1
  O  O12  1  0.484900  0.772796  0.104139  1
  O  O13  1  0.703641  0.559022  0.800146  1
  O  O14  1  0.375375  0.839236  0.422261  1
  O  O15  1  0.625044  0.160784  0.577888  1
  O  O16  1  0.193824  0.082316  0.743770  1
  O  O17  1  0.296310  0.440961  0.199974  1
  O  O18  1  0.081685  0.218867  0.379037  1
  O  O19  1  0.917901  0.781106  0.620889  1
  O  O20  1  0.806210  0.917771  0.256031  1
