# generated using pymatgen
data_Ho4Tm4Tc(B8Os)3
_symmetry_space_group_name_H-M   'P 1'
_cell_length_a   3.63465700
_cell_length_b   9.09381430
_cell_length_c   11.47864300
_cell_angle_alpha   89.95286830
_cell_angle_beta   90.00000000
_cell_angle_gamma   90.00000000
_symmetry_Int_Tables_number   1
_chemical_formula_structural   Ho4Tm4Tc(B8Os)3
_chemical_formula_sum   'Ho4 Tm4 Tc1 B24 Os3'
_cell_volume   379.40226278
_cell_formula_units_Z   1
loop_
 _symmetry_equiv_pos_site_id
 _symmetry_equiv_pos_as_xyz
  1  'x, y, z'
loop_
 _atom_site_type_symbol
 _atom_site_label
 _atom_site_symmetry_multiplicity
 _atom_site_fract_x
 _atom_site_fract_y
 _atom_site_fract_z
 _atom_site_occupancy
  Ho  Ho0  1  0.000000  0.323608  0.412942  1
  Ho  Ho1  1  0.000000  0.677532  0.583701  1
  Ho  Ho2  1  0.000000  0.819921  0.088225  1
  Ho  Ho3  1  0.000000  0.178097  0.914752  1
  Tm  Tm4  1  0.000000  0.942916  0.372717  1
  Tm  Tm5  1  0.000000  0.056636  0.627329  1
  Tm  Tm6  1  0.000000  0.444783  0.128031  1
  Tm  Tm7  1  0.000000  0.556430  0.872400  1
  Tc  Tc8  1  0.000000  0.637818  0.320976  1
  B  B9  1  0.500000  0.552938  0.433151  1
  B  B10  1  0.500000  0.446497  0.567142  1
  B  B11  1  0.500000  0.053616  0.066964  1
  B  B12  1  0.500000  0.946358  0.933258  1
  B  B13  1  0.500000  0.748667  0.419607  1
  B  B14  1  0.500000  0.251470  0.580258  1
  B  B15  1  0.500000  0.248909  0.080225  1
  B  B16  1  0.500000  0.751182  0.919770  1
  B  B17  1  0.500000  0.791854  0.266221  1
  B  B18  1  0.500000  0.208482  0.733721  1
  B  B19  1  0.500000  0.291478  0.233250  1
  B  B20  1  0.500000  0.708859  0.766186  1
  B  B21  1  0.500000  0.631172  0.185450  1
  B  B22  1  0.500000  0.368650  0.814987  1
  B  B23  1  0.500000  0.131148  0.314396  1
  B  B24  1  0.500000  0.869077  0.685144  1
  B  B25  1  0.500000  0.982378  0.212987  1
  B  B26  1  0.500000  0.017548  0.787273  1
  B  B27  1  0.500000  0.481943  0.287006  1
  B  B28  1  0.500000  0.517323  0.713053  1
  B  B29  1  0.500000  0.606017  0.028976  1
  B  B30  1  0.500000  0.393837  0.970438  1
  B  B31  1  0.500000  0.106431  0.470619  1
  B  B32  1  0.500000  0.894528  0.529709  1
  Os  Os33  1  0.000000  0.361826  0.679606  1
  Os  Os34  1  0.000000  0.137653  0.178428  1
  Os  Os35  1  0.000000  0.862418  0.821102  1
