# generated using pymatgen
data_Tb3Y(OF)4
_symmetry_space_group_name_H-M   'P 1'
_cell_length_a   5.57390249
_cell_length_b   5.69514862
_cell_length_c   5.65491905
_cell_angle_alpha   80.23958638
_cell_angle_beta   90.05116035
_cell_angle_gamma   90.01298400
_symmetry_Int_Tables_number   1
_chemical_formula_structural   Tb3Y(OF)4
_chemical_formula_sum   'Tb3 Y1 O4 F4'
_cell_volume   176.91245483
_cell_formula_units_Z   1
loop_
 _symmetry_equiv_pos_site_id
 _symmetry_equiv_pos_as_xyz
  1  'x, y, z'
loop_
 _atom_site_type_symbol
 _atom_site_label
 _atom_site_symmetry_multiplicity
 _atom_site_fract_x
 _atom_site_fract_y
 _atom_site_fract_z
 _atom_site_occupancy
  Tb  Tb0  1  0.475985  0.694739  0.712810  1
  Tb  Tb1  1  0.524627  0.305307  0.286816  1
  Tb  Tb2  1  0.976219  0.305187  0.786916  1
  Y  Y3  1  0.024379  0.693422  0.212805  1
  O  O4  1  0.247697  0.465539  0.509140  1
  O  O5  1  0.753621  0.535426  0.490082  1
  O  O6  1  0.748096  0.534275  0.990559  1
  O  O7  1  0.253190  0.465638  0.009164  1
  F  F8  1  0.174924  0.942223  0.847746  1
  F  F9  1  0.824052  0.056391  0.153283  1
  F  F10  1  0.673836  0.058890  0.653102  1
  F  F11  1  0.323373  0.942961  0.347577  1
