# generated using pymatgen
data_Y4HoOsRu
_symmetry_space_group_name_H-M   'P 1'
_cell_length_a   6.38062370
_cell_length_b   7.33625605
_cell_length_c   8.49733780
_cell_angle_alpha   96.71458345
_cell_angle_beta   112.05203100
_cell_angle_gamma   89.99999044
_symmetry_Int_Tables_number   1
_chemical_formula_structural   Y4HoOsRu
_chemical_formula_sum   'Y8 Ho2 Os2 Ru2'
_cell_volume   365.71539315
_cell_formula_units_Z   2
loop_
 _symmetry_equiv_pos_site_id
 _symmetry_equiv_pos_as_xyz
  1  'x, y, z'
loop_
 _atom_site_type_symbol
 _atom_site_label
 _atom_site_symmetry_multiplicity
 _atom_site_fract_x
 _atom_site_fract_y
 _atom_site_fract_z
 _atom_site_occupancy
  Y  Y0  1  0.976315  0.915579  0.184058  1
  Y  Y1  1  0.792258  0.584421  0.815942  1
  Y  Y2  1  0.022895  0.084766  0.814411  1
  Y  Y3  1  0.208484  0.415234  0.185589  1
  Y  Y4  1  0.640014  0.815883  0.435163  1
  Y  Y5  1  0.204851  0.684117  0.564837  1
  Y  Y6  1  0.360150  0.184002  0.565565  1
  Y  Y7  1  0.794585  0.315998  0.434435  1
  Ho  Ho8  1  0.423449  0.750000  0.000000  1
  Ho  Ho9  1  0.578710  0.250000  0.000000  1
  Os  Os10  1  0.819402  0.575436  0.218419  1
  Os  Os11  1  0.600983  0.924564  0.781581  1
  Ru  Ru12  1  0.179913  0.424813  0.781922  1
  Ru  Ru13  1  0.397990  0.075187  0.218078  1
