# generated using pymatgen
data_Tb8Cd2PtRh
_symmetry_space_group_name_H-M   'P 1'
_cell_length_a   9.70296509
_cell_length_b   9.70296497
_cell_length_c   9.72069600
_cell_angle_alpha   59.93953225
_cell_angle_beta   59.93953265
_cell_angle_gamma   59.90285563
_symmetry_Int_Tables_number   1
_chemical_formula_structural   Tb8Cd2PtRh
_chemical_formula_sum   'Tb16 Cd4 Pt2 Rh2'
_cell_volume   646.06242534
_cell_formula_units_Z   2
loop_
 _symmetry_equiv_pos_site_id
 _symmetry_equiv_pos_as_xyz
  1  'x, y, z'
loop_
 _atom_site_type_symbol
 _atom_site_label
 _atom_site_symmetry_multiplicity
 _atom_site_fract_x
 _atom_site_fract_y
 _atom_site_fract_z
 _atom_site_occupancy
  Tb  Tb0  1  0.349959  0.349959  0.352568  1
  Tb  Tb1  1  0.349959  0.349959  0.947514  1
  Tb  Tb2  1  0.349196  0.947848  0.351478  1
  Tb  Tb3  1  0.947848  0.349196  0.351478  1
  Tb  Tb4  1  0.813592  0.189158  0.189941  1
  Tb  Tb5  1  0.189158  0.813592  0.807310  1
  Tb  Tb6  1  0.189158  0.813592  0.189941  1
  Tb  Tb7  1  0.813592  0.189158  0.807310  1
  Tb  Tb8  1  0.189070  0.189070  0.810930  1
  Tb  Tb9  1  0.809907  0.809907  0.190093  1
  Tb  Tb10  1  0.936034  0.563516  0.565578  1
  Tb  Tb11  1  0.563516  0.936034  0.934871  1
  Tb  Tb12  1  0.563516  0.936034  0.565578  1
  Tb  Tb13  1  0.936034  0.563516  0.934871  1
  Tb  Tb14  1  0.564813  0.564813  0.935187  1
  Tb  Tb15  1  0.936256  0.936256  0.563744  1
  Cd  Cd16  1  0.581092  0.581092  0.581963  1
  Cd  Cd17  1  0.581092  0.581092  0.255853  1
  Cd  Cd18  1  0.581316  0.254470  0.582106  1
  Cd  Cd19  1  0.254470  0.581316  0.582106  1
  Pt  Pt20  1  0.143154  0.570976  0.142935  1
  Pt  Pt21  1  0.570976  0.143154  0.142935  1
  Rh  Rh22  1  0.143146  0.143146  0.142559  1
  Rh  Rh23  1  0.143146  0.143146  0.571151  1
