# generated using pymatgen
data_LaYbHgPt2
_symmetry_space_group_name_H-M   'P 1'
_cell_length_a   7.79670200
_cell_length_b   7.86235700
_cell_length_c   3.87780200
_cell_angle_alpha   90.00000000
_cell_angle_beta   90.00000000
_cell_angle_gamma   90.00000000
_symmetry_Int_Tables_number   1
_chemical_formula_structural   LaYbHgPt2
_chemical_formula_sum   'La2 Yb2 Hg2 Pt4'
_cell_volume   237.71102524
_cell_formula_units_Z   2
loop_
 _symmetry_equiv_pos_site_id
 _symmetry_equiv_pos_as_xyz
  1  'x, y, z'
loop_
 _atom_site_type_symbol
 _atom_site_label
 _atom_site_symmetry_multiplicity
 _atom_site_fract_x
 _atom_site_fract_y
 _atom_site_fract_z
 _atom_site_occupancy
  La  La0  1  0.835722  0.669195  0.500000  1
  La  La1  1  0.664278  0.169195  0.500000  1
  Yb  Yb2  1  0.172977  0.331547  0.500000  1
  Yb  Yb3  1  0.327023  0.831547  0.500000  1
  Hg  Hg4  1  0.489233  0.501638  0.000000  1
  Hg  Hg5  1  0.010767  0.001638  0.000000  1
  Pt  Pt6  1  0.625680  0.868323  0.000000  1
  Pt  Pt7  1  0.133138  0.629297  0.000000  1
  Pt  Pt8  1  0.874320  0.368323  0.000000  1
  Pt  Pt9  1  0.366862  0.129297  0.000000  1
