# generated using pymatgen
data_Zr(TaC)5
_symmetry_space_group_name_H-M   'P 1'
_cell_length_a   5.52403857
_cell_length_b   5.52404055
_cell_length_c   5.51125202
_cell_angle_alpha   80.59691965
_cell_angle_beta   80.59691426
_cell_angle_gamma   120.12145479
_symmetry_Int_Tables_number   1
_chemical_formula_structural   Zr(TaC)5
_chemical_formula_sum   'Zr1 Ta5 C5'
_cell_volume   137.45086394
_cell_formula_units_Z   1
loop_
 _symmetry_equiv_pos_site_id
 _symmetry_equiv_pos_as_xyz
  1  'x, y, z'
loop_
 _atom_site_type_symbol
 _atom_site_label
 _atom_site_symmetry_multiplicity
 _atom_site_fract_x
 _atom_site_fract_y
 _atom_site_fract_z
 _atom_site_occupancy
  Zr  Zr0  1  0.744044  0.744044  0.743080  1
  Ta  Ta1  1  0.260320  0.260320  0.260501  1
  Ta  Ta2  1  0.083932  0.436967  0.746111  1
  Ta  Ta3  1  0.565133  0.914556  0.252899  1
  Ta  Ta4  1  0.914556  0.565133  0.252899  1
  Ta  Ta5  1  0.436967  0.083932  0.746111  1
  C  C6  1  0.495228  0.495228  0.497865  1
  C  C7  1  0.663821  0.325921  0.005161  1
  C  C8  1  0.325921  0.663821  0.005161  1
  C  C9  1  0.834782  0.175296  0.495106  1
  C  C10  1  0.175296  0.834782  0.495106  1
