# generated using pymatgen
data_Te4Pt3RhBr4
_symmetry_space_group_name_H-M   'P 1'
_cell_length_a   7.78265500
_cell_length_b   7.83712900
_cell_length_c   5.65688500
_cell_angle_alpha   90.00000000
_cell_angle_beta   90.00000000
_cell_angle_gamma   90.00000000
_symmetry_Int_Tables_number   1
_chemical_formula_structural   Te4Pt3RhBr4
_chemical_formula_sum   'Te4 Pt3 Rh1 Br4'
_cell_volume   345.03418369
_cell_formula_units_Z   1
loop_
 _symmetry_equiv_pos_site_id
 _symmetry_equiv_pos_as_xyz
  1  'x, y, z'
loop_
 _atom_site_type_symbol
 _atom_site_label
 _atom_site_symmetry_multiplicity
 _atom_site_fract_x
 _atom_site_fract_y
 _atom_site_fract_z
 _atom_site_occupancy
  Te  Te0  1  0.499167  0.284614  0.000000  1
  Te  Te1  1  0.499167  0.715387  0.000000  1
  Te  Te2  1  0.280051  0.500001  0.499999  1
  Te  Te3  1  0.717058  0.500001  0.499999  1
  Pt  Pt4  1  0.755507  0.500001  0.000000  1
  Pt  Pt5  1  0.499294  0.245800  0.499999  1
  Pt  Pt6  1  0.499294  0.754200  0.499999  1
  Rh  Rh7  1  0.247904  0.500001  0.000000  1
  Br  Br8  1  0.001358  0.275007  0.000000  1
  Br  Br9  1  0.001358  0.724993  0.000000  1
  Br  Br10  1  0.274294  0.000000  0.499999  1
  Br  Br11  1  0.725551  0.000000  0.499999  1
