# generated using pymatgen
data_Pr6Ho3TmSn6
_symmetry_space_group_name_H-M   'P 1'
_cell_length_a   6.70205800
_cell_length_b   9.21069903
_cell_length_c   9.21104700
_cell_angle_alpha   119.99856113
_cell_angle_beta   89.99992848
_cell_angle_gamma   89.99997504
_symmetry_Int_Tables_number   1
_chemical_formula_structural   Pr6Ho3TmSn6
_chemical_formula_sum   'Pr6 Ho3 Tm1 Sn6'
_cell_volume   492.43249095
_cell_formula_units_Z   1
loop_
 _symmetry_equiv_pos_site_id
 _symmetry_equiv_pos_as_xyz
  1  'x, y, z'
loop_
 _atom_site_type_symbol
 _atom_site_label
 _atom_site_symmetry_multiplicity
 _atom_site_fract_x
 _atom_site_fract_y
 _atom_site_fract_z
 _atom_site_occupancy
  Pr  Pr0  1  0.750035  0.241779  0.999971  1
  Pr  Pr1  1  0.750031  0.758120  0.758182  1
  Pr  Pr2  1  0.750030  0.999998  0.241847  1
  Pr  Pr3  1  0.249967  0.758190  0.999969  1
  Pr  Pr4  1  0.249965  0.241850  0.241848  1
  Pr  Pr5  1  0.249967  0.000063  0.758183  1
  Ho  Ho6  1  0.500000  0.333342  0.666700  1
  Ho  Ho7  1  0.499999  0.666643  0.333299  1
  Ho  Ho8  1  0.000003  0.666658  0.333301  1
  Tm  Tm9  1  0.000000  0.333357  0.666699  1
  Sn  Sn10  1  0.750089  0.600450  0.999881  1
  Sn  Sn11  1  0.750089  0.399379  0.399493  1
  Sn  Sn12  1  0.750089  0.000124  0.600626  1
  Sn  Sn13  1  0.249911  0.399431  0.999882  1
  Sn  Sn14  1  0.249911  0.600501  0.600626  1
  Sn  Sn15  1  0.249912  0.000114  0.399492  1
