# generated using pymatgen
data_ErTe19
_symmetry_space_group_name_H-M   'P 1'
_cell_length_a   8.01800484
_cell_length_b   9.02478963
_cell_length_c   10.16484400
_cell_angle_alpha   104.08862850
_cell_angle_beta   97.23290686
_cell_angle_gamma   106.97193268
_symmetry_Int_Tables_number   1
_chemical_formula_structural   ErTe19
_chemical_formula_sum   'Er1 Te19'
_cell_volume   666.78472118
_cell_formula_units_Z   1
loop_
 _symmetry_equiv_pos_site_id
 _symmetry_equiv_pos_as_xyz
  1  'x, y, z'
loop_
 _atom_site_type_symbol
 _atom_site_label
 _atom_site_symmetry_multiplicity
 _atom_site_fract_x
 _atom_site_fract_y
 _atom_site_fract_z
 _atom_site_occupancy
  Er  Er0  1  0.000000  0.500000  0.000000  1
  Te  Te1  1  0.780807  0.587605  0.619677  1
  Te  Te2  1  0.650130  0.210331  0.211629  1
  Te  Te3  1  0.349870  0.789669  0.788371  1
  Te  Te4  1  0.602833  0.693177  0.198389  1
  Te  Te5  1  0.219193  0.412395  0.380323  1
  Te  Te6  1  0.397167  0.306823  0.801611  1
  Te  Te7  1  0.000000  0.000000  0.000000  1
  Te  Te8  1  0.193211  0.901808  0.393415  1
  Te  Te9  1  0.806789  0.098192  0.606585  1
  Te  Te10  1  0.697730  0.636992  0.909050  1
  Te  Te11  1  0.517689  0.260089  0.498254  1
  Te  Te12  1  0.722305  0.155497  0.909030  1
  Te  Te13  1  0.277695  0.844503  0.090970  1
  Te  Te14  1  0.482311  0.739911  0.501746  1
  Te  Te15  1  0.089891  0.458266  0.706782  1
  Te  Te16  1  0.302270  0.363008  0.090950  1
  Te  Te17  1  0.912771  0.044298  0.303167  1
  Te  Te18  1  0.087229  0.955702  0.696833  1
  Te  Te19  1  0.910109  0.541734  0.293218  1
