# generated using pymatgen
data_Hf8Ti8Si16Mo3W
_symmetry_space_group_name_H-M   'P 1'
_cell_length_a   6.55863712
_cell_length_b   6.71324705
_cell_length_c   12.93971000
_cell_angle_alpha   90.00000000
_cell_angle_beta   90.00000000
_cell_angle_gamma   89.99853630
_symmetry_Int_Tables_number   1
_chemical_formula_structural   Hf8Ti8Si16Mo3W
_chemical_formula_sum   'Hf8 Ti8 Si16 Mo3 W1'
_cell_volume   569.73221345
_cell_formula_units_Z   1
loop_
 _symmetry_equiv_pos_site_id
 _symmetry_equiv_pos_as_xyz
  1  'x, y, z'
loop_
 _atom_site_type_symbol
 _atom_site_label
 _atom_site_symmetry_multiplicity
 _atom_site_fract_x
 _atom_site_fract_y
 _atom_site_fract_z
 _atom_site_occupancy
  Hf  Hf0  1  0.995144  0.172093  0.092011  1
  Hf  Hf1  1  0.005045  0.827501  0.907624  1
  Hf  Hf2  1  0.504394  0.671870  0.907626  1
  Hf  Hf3  1  0.005045  0.827501  0.592376  1
  Hf  Hf4  1  0.495214  0.327942  0.091996  1
  Hf  Hf5  1  0.995144  0.172093  0.407989  1
  Hf  Hf6  1  0.495214  0.327942  0.408004  1
  Hf  Hf7  1  0.504394  0.671870  0.592374  1
  Ti  Ti8  1  0.334016  0.169089  0.624887  1
  Ti  Ti9  1  0.665663  0.831418  0.375170  1
  Ti  Ti10  1  0.165546  0.668563  0.375146  1
  Ti  Ti11  1  0.665663  0.831418  0.124830  1
  Ti  Ti12  1  0.834738  0.331532  0.624833  1
  Ti  Ti13  1  0.334016  0.169089  0.875113  1
  Ti  Ti14  1  0.834738  0.331532  0.875167  1
  Ti  Ti15  1  0.165546  0.668563  0.124854  1
  Si  Si16  1  0.035026  0.115509  0.750000  1
  Si  Si17  1  0.964783  0.884554  0.250000  1
  Si  Si18  1  0.464740  0.615470  0.250000  1
  Si  Si19  1  0.535971  0.384031  0.750000  1
  Si  Si20  1  0.298131  0.860350  0.750000  1
  Si  Si21  1  0.702123  0.140240  0.250000  1
  Si  Si22  1  0.202257  0.359744  0.250000  1
  Si  Si23  1  0.797635  0.640165  0.750000  1
  Si  Si24  1  0.170803  0.460519  0.538330  1
  Si  Si25  1  0.828977  0.539681  0.461689  1
  Si  Si26  1  0.329163  0.960440  0.461762  1
  Si  Si27  1  0.828977  0.539681  0.038311  1
  Si  Si28  1  0.670815  0.039530  0.538442  1
  Si  Si29  1  0.170803  0.460519  0.961670  1
  Si  Si30  1  0.670815  0.039530  0.961558  1
  Si  Si31  1  0.329163  0.960440  0.038238  1
  Mo  Mo32  1  0.838229  0.505801  0.250000  1
  Mo  Mo33  1  0.338093  0.994245  0.250000  1
  Mo  Mo34  1  0.661962  0.005491  0.750000  1
  W  W35  1  0.162010  0.494045  0.750000  1
