# generated using pymatgen
data_HoTmRu2F14
_symmetry_space_group_name_H-M   'P 1'
_cell_length_a   5.52126000
_cell_length_b   8.80963415
_cell_length_c   11.87845710
_cell_angle_alpha   63.65141944
_cell_angle_beta   90.00000000
_cell_angle_gamma   90.00000000
_symmetry_Int_Tables_number   1
_chemical_formula_structural   HoTmRu2F14
_chemical_formula_sum   'Ho2 Tm2 Ru4 F28'
_cell_volume   517.74705691
_cell_formula_units_Z   2
loop_
 _symmetry_equiv_pos_site_id
 _symmetry_equiv_pos_as_xyz
  1  'x, y, z'
loop_
 _atom_site_type_symbol
 _atom_site_label
 _atom_site_symmetry_multiplicity
 _atom_site_fract_x
 _atom_site_fract_y
 _atom_site_fract_z
 _atom_site_occupancy
  Ho  Ho0  1  0.241090  0.189691  0.230881  1
  Ho  Ho1  1  0.741090  0.810309  0.269119  1
  Tm  Tm2  1  0.758594  0.812070  0.768667  1
  Tm  Tm3  1  0.258594  0.187930  0.731333  1
  Ru  Ru4  1  0.756008  0.273042  0.953874  1
  Ru  Ru5  1  0.256008  0.726958  0.546126  1
  Ru  Ru6  1  0.244680  0.728726  0.042844  1
  Ru  Ru7  1  0.744680  0.271274  0.457156  1
  F  F8  1  0.449673  0.705074  0.916362  1
  F  F9  1  0.949673  0.294926  0.583638  1
  F  F10  1  0.552829  0.295697  0.081156  1
  F  F11  1  0.052829  0.704303  0.418844  1
  F  F12  1  0.447835  0.277706  0.548726  1
  F  F13  1  0.947835  0.722294  0.951274  1
  F  F14  1  0.551489  0.720356  0.454633  1
  F  F15  1  0.051489  0.279644  0.045367  1
  F  F16  1  0.770684  0.514742  0.858845  1
  F  F17  1  0.270684  0.485258  0.641155  1
  F  F18  1  0.228566  0.487395  0.138687  1
  F  F19  1  0.728566  0.512605  0.361313  1
  F  F20  1  0.753637  0.033235  0.047016  1
  F  F21  1  0.253637  0.966765  0.452984  1
  F  F22  1  0.246679  0.968927  0.950488  1
  F  F23  1  0.746679  0.031073  0.549512  1
  F  F24  1  0.967878  0.729692  0.643076  1
  F  F25  1  0.467878  0.270308  0.856924  1
  F  F26  1  0.032783  0.271269  0.359868  1
  F  F27  1  0.532783  0.728731  0.140132  1
  F  F28  1  0.044275  0.750792  0.172542  1
  F  F29  1  0.544275  0.249208  0.327458  1
  F  F30  1  0.958403  0.249356  0.825339  1
  F  F31  1  0.458403  0.750644  0.674661  1
  F  F32  1  0.421263  0.971809  0.232493  1
  F  F33  1  0.921263  0.028191  0.267507  1
  F  F34  1  0.573635  0.025860  0.766647  1
  F  F35  1  0.073635  0.974140  0.733353  1
