# generated using pymatgen
data_Ho7Co2Sn23Rh4
_symmetry_space_group_name_H-M   'P 1'
_cell_length_a   9.80219893
_cell_length_b   9.80315342
_cell_length_c   10.05504701
_cell_angle_alpha   89.99999934
_cell_angle_beta   90.02653219
_cell_angle_gamma   120.00321644
_symmetry_Int_Tables_number   1
_chemical_formula_structural   Ho7Co2Sn23Rh4
_chemical_formula_sum   'Ho7 Co2 Sn23 Rh4'
_cell_volume   836.73880307
_cell_formula_units_Z   1
loop_
 _symmetry_equiv_pos_site_id
 _symmetry_equiv_pos_as_xyz
  1  'x, y, z'
loop_
 _atom_site_type_symbol
 _atom_site_label
 _atom_site_symmetry_multiplicity
 _atom_site_fract_x
 _atom_site_fract_y
 _atom_site_fract_z
 _atom_site_occupancy
  Ho  Ho0  1  0.000000  0.000000  0.000000  1
  Ho  Ho1  1  0.478892  0.521167  0.306912  1
  Ho  Ho2  1  0.521108  0.478833  0.693088  1
  Ho  Ho3  1  0.478892  0.957725  0.306912  1
  Ho  Ho4  1  0.521108  0.042275  0.693088  1
  Ho  Ho5  1  0.042936  0.521469  0.307016  1
  Ho  Ho6  1  0.957064  0.478531  0.692984  1
  Co  Co7  1  0.336532  0.168265  0.198321  1
  Co  Co8  1  0.663468  0.831735  0.801679  1
  Sn  Sn9  1  0.350636  0.004664  0.004778  1
  Sn  Sn10  1  0.649364  0.995336  0.995222  1
  Sn  Sn11  1  0.000000  0.351199  0.000000  1
  Sn  Sn12  1  0.000000  0.648801  0.000000  1
  Sn  Sn13  1  0.649364  0.654028  0.995222  1
  Sn  Sn14  1  0.350636  0.345972  0.004778  1
  Sn  Sn15  1  0.338431  0.669216  0.818798  1
  Sn  Sn16  1  0.661569  0.330784  0.181202  1
  Sn  Sn17  1  0.000000  0.000000  0.500000  1
  Sn  Sn18  1  0.778757  0.221477  0.456034  1
  Sn  Sn19  1  0.221243  0.778523  0.543966  1
  Sn  Sn20  1  0.778757  0.557278  0.456034  1
  Sn  Sn21  1  0.221243  0.442722  0.543966  1
  Sn  Sn22  1  0.438943  0.219471  0.450482  1
  Sn  Sn23  1  0.561057  0.780529  0.549518  1
  Sn  Sn24  1  0.333446  0.666723  0.118961  1
  Sn  Sn25  1  0.666554  0.333277  0.881039  1
  Sn  Sn26  1  0.123691  0.886937  0.276384  1
  Sn  Sn27  1  0.876309  0.113063  0.723616  1
  Sn  Sn28  1  0.123691  0.236754  0.276384  1
  Sn  Sn29  1  0.876309  0.763246  0.723616  1
  Sn  Sn30  1  0.759015  0.879507  0.281507  1
  Sn  Sn31  1  0.240985  0.120493  0.718493  1
  Rh  Rh32  1  0.831338  0.167505  0.197575  1
  Rh  Rh33  1  0.168662  0.832495  0.802425  1
  Rh  Rh34  1  0.831338  0.663833  0.197575  1
  Rh  Rh35  1  0.168662  0.336167  0.802425  1
