# generated using pymatgen
data_LiPr2(PRh2)6
_symmetry_space_group_name_H-M   'P 1'
_cell_length_a   9.71201500
_cell_length_b   9.71201650
_cell_length_c   3.93346900
_cell_angle_alpha   90.00000000
_cell_angle_beta   90.00000000
_cell_angle_gamma   120.00001192
_symmetry_Int_Tables_number   1
_chemical_formula_structural   LiPr2(PRh2)6
_chemical_formula_sum   'Li1 Pr2 P6 Rh12'
_cell_volume   321.31061054
_cell_formula_units_Z   1
loop_
 _symmetry_equiv_pos_site_id
 _symmetry_equiv_pos_as_xyz
  1  'x, y, z'
loop_
 _atom_site_type_symbol
 _atom_site_label
 _atom_site_symmetry_multiplicity
 _atom_site_fract_x
 _atom_site_fract_y
 _atom_site_fract_z
 _atom_site_occupancy
  Li  Li0  1  0.000000  0.000000  0.500000  1
  Pr  Pr1  1  0.333333  0.666667  0.751454  1
  Pr  Pr2  1  0.666667  0.333333  0.248546  1
  P  P3  1  0.887503  0.603633  0.748782  1
  P  P4  1  0.396367  0.283871  0.748782  1
  P  P5  1  0.716129  0.112497  0.748782  1
  P  P6  1  0.112497  0.396367  0.251218  1
  P  P7  1  0.603633  0.716129  0.251218  1
  P  P8  1  0.283871  0.887503  0.251218  1
  Rh  Rh9  1  0.613406  0.550410  0.749331  1
  Rh  Rh10  1  0.449590  0.062998  0.749331  1
  Rh  Rh11  1  0.937002  0.386594  0.749331  1
  Rh  Rh12  1  0.386594  0.449590  0.250669  1
  Rh  Rh13  1  0.550410  0.937002  0.250669  1
  Rh  Rh14  1  0.062998  0.613406  0.250669  1
  Rh  Rh15  1  0.127359  0.843116  0.750908  1
  Rh  Rh16  1  0.156884  0.284243  0.750908  1
  Rh  Rh17  1  0.715757  0.872641  0.750908  1
  Rh  Rh18  1  0.872641  0.156884  0.249092  1
  Rh  Rh19  1  0.843116  0.715757  0.249092  1
  Rh  Rh20  1  0.284243  0.127359  0.249092  1
