# generated using pymatgen
data_Hf6ZnSn5Rh6
_symmetry_space_group_name_H-M   'P 1'
_cell_length_a   7.47438405
_cell_length_b   7.47438412
_cell_length_c   6.97436073
_cell_angle_alpha   90.15107332
_cell_angle_beta   89.84892556
_cell_angle_gamma   120.62201365
_symmetry_Int_Tables_number   1
_chemical_formula_structural   Hf6ZnSn5Rh6
_chemical_formula_sum   'Hf6 Zn1 Sn5 Rh6'
_cell_volume   335.29533600
_cell_formula_units_Z   1
loop_
 _symmetry_equiv_pos_site_id
 _symmetry_equiv_pos_as_xyz
  1  'x, y, z'
loop_
 _atom_site_type_symbol
 _atom_site_label
 _atom_site_symmetry_multiplicity
 _atom_site_fract_x
 _atom_site_fract_y
 _atom_site_fract_z
 _atom_site_occupancy
  Hf  Hf0  1  0.021084  0.399843  0.744334  1
  Hf  Hf1  1  0.592395  0.598502  0.743066  1
  Hf  Hf2  1  0.393342  0.009777  0.744552  1
  Hf  Hf3  1  0.009777  0.393342  0.255448  1
  Hf  Hf4  1  0.598502  0.592395  0.256934  1
  Hf  Hf5  1  0.399843  0.021084  0.255666  1
  Zn  Zn6  1  0.277831  0.277831  0.500000  1
  Sn  Sn7  1  0.001351  0.726395  0.499721  1
  Sn  Sn8  1  0.997905  0.728397  0.999979  1
  Sn  Sn9  1  0.726395  0.001351  0.500279  1
  Sn  Sn10  1  0.728397  0.997905  0.000021  1
  Sn  Sn11  1  0.267409  0.267409  0.000000  1
  Rh  Rh12  1  0.331151  0.661853  0.489262  1
  Rh  Rh13  1  0.661853  0.331151  0.510738  1
  Rh  Rh14  1  0.328421  0.660611  0.012095  1
  Rh  Rh15  1  0.001751  0.001983  0.740818  1
  Rh  Rh16  1  0.001983  0.001751  0.259182  1
  Rh  Rh17  1  0.660611  0.328421  0.987905  1
