# generated using pymatgen
data_Er2UCo2Si7
_symmetry_space_group_name_H-M   'P 1'
_cell_length_a   4.00493183
_cell_length_b   4.00249400
_cell_length_c   12.35061268
_cell_angle_alpha   90.00000000
_cell_angle_beta   99.33084115
_cell_angle_gamma   90.00000000
_symmetry_Int_Tables_number   1
_chemical_formula_structural   Er2UCo2Si7
_chemical_formula_sum   'Er2 U1 Co2 Si7'
_cell_volume   195.35729569
_cell_formula_units_Z   1
loop_
 _symmetry_equiv_pos_site_id
 _symmetry_equiv_pos_as_xyz
  1  'x, y, z'
loop_
 _atom_site_type_symbol
 _atom_site_label
 _atom_site_symmetry_multiplicity
 _atom_site_fract_x
 _atom_site_fract_y
 _atom_site_fract_z
 _atom_site_occupancy
  Er  Er0  1  0.316315  0.000000  0.632630  1
  Er  Er1  1  0.683685  0.000000  0.367370  1
  U  U2  1  0.000000  0.500000  0.000000  1
  Co  Co3  1  0.128536  0.500000  0.257072  1
  Co  Co4  1  0.871464  0.500000  0.742928  1
  Si  Si5  1  0.500000  0.000000  0.000000  1
  Si  Si6  1  0.413141  0.500000  0.826282  1
  Si  Si7  1  0.586859  0.500000  0.173718  1
  Si  Si8  1  0.086561  0.000000  0.173123  1
  Si  Si9  1  0.913439  0.000000  0.826877  1
  Si  Si10  1  0.221423  0.500000  0.442846  1
  Si  Si11  1  0.778577  0.500000  0.557154  1
