# generated using pymatgen
data_Er5Lu5(SiBi2)2
_symmetry_space_group_name_H-M   'P 1'
_cell_length_a   11.86610200
_cell_length_b   9.06141802
_cell_length_c   7.95075002
_cell_angle_alpha   89.99170211
_cell_angle_beta   90.00000000
_cell_angle_gamma   90.00000000
_symmetry_Int_Tables_number   1
_chemical_formula_structural   Er5Lu5(SiBi2)2
_chemical_formula_sum   'Er10 Lu10 Si4 Bi8'
_cell_volume   854.89413481
_cell_formula_units_Z   2
loop_
 _symmetry_equiv_pos_site_id
 _symmetry_equiv_pos_as_xyz
  1  'x, y, z'
loop_
 _atom_site_type_symbol
 _atom_site_label
 _atom_site_symmetry_multiplicity
 _atom_site_fract_x
 _atom_site_fract_y
 _atom_site_fract_z
 _atom_site_occupancy
  Er  Er0  1  0.061321  0.945076  0.820408  1
  Er  Er1  1  0.561321  0.554924  0.679592  1
  Er  Er2  1  0.211056  0.749840  0.165994  1
  Er  Er3  1  0.711056  0.750160  0.334006  1
  Er  Er4  1  0.789066  0.249987  0.834101  1
  Er  Er5  1  0.289066  0.250013  0.665899  1
  Er  Er6  1  0.294113  0.749980  0.639359  1
  Er  Er7  1  0.794113  0.750020  0.860641  1
  Er  Er8  1  0.705875  0.250010  0.360516  1
  Er  Er9  1  0.205875  0.249990  0.139484  1
  Lu  Lu10  1  0.061091  0.555373  0.821307  1
  Lu  Lu11  1  0.561091  0.944627  0.678693  1
  Lu  Lu12  1  0.938881  0.055480  0.178744  1
  Lu  Lu13  1  0.438881  0.444520  0.321256  1
  Lu  Lu14  1  0.938923  0.444568  0.178722  1
  Lu  Lu15  1  0.438923  0.055432  0.321278  1
  Lu  Lu16  1  0.001075  0.749972  0.460662  1
  Lu  Lu17  1  0.501075  0.750028  0.039338  1
  Lu  Lu18  1  0.998920  0.250038  0.539193  1
  Lu  Lu19  1  0.498920  0.249962  0.960807  1
  Si  Si20  1  0.476169  0.750710  0.408623  1
  Si  Si21  1  0.976169  0.749290  0.091377  1
  Si  Si22  1  0.523475  0.248611  0.590413  1
  Si  Si23  1  0.023475  0.251389  0.909587  1
  Bi  Bi24  1  0.325665  0.510539  0.933770  1
  Bi  Bi25  1  0.825665  0.989461  0.566230  1
  Bi  Bi26  1  0.674198  0.010736  0.066246  1
  Bi  Bi27  1  0.174198  0.489264  0.433754  1
  Bi  Bi28  1  0.674333  0.489406  0.066223  1
  Bi  Bi29  1  0.174333  0.010594  0.433777  1
  Bi  Bi30  1  0.325842  0.989456  0.934185  1
  Bi  Bi31  1  0.825842  0.510544  0.565815  1
