# generated using pymatgen
data_Er4Mn9Nb4Fe7P12
_symmetry_space_group_name_H-M   'P 1'
_cell_length_a   3.66265800
_cell_length_b   10.68197046
_cell_length_c   12.37292027
_cell_angle_alpha   89.84639822
_cell_angle_beta   90.00000000
_cell_angle_gamma   90.00000000
_symmetry_Int_Tables_number   1
_chemical_formula_structural   Er4Mn9Nb4Fe7P12
_chemical_formula_sum   'Er4 Mn9 Nb4 Fe7 P12'
_cell_volume   484.08139887
_cell_formula_units_Z   1
loop_
 _symmetry_equiv_pos_site_id
 _symmetry_equiv_pos_as_xyz
  1  'x, y, z'
loop_
 _atom_site_type_symbol
 _atom_site_label
 _atom_site_symmetry_multiplicity
 _atom_site_fract_x
 _atom_site_fract_y
 _atom_site_fract_z
 _atom_site_occupancy
  Er  Er0  1  0.250000  0.581814  0.711741  1
  Er  Er1  1  0.250000  0.916621  0.212300  1
  Er  Er2  1  0.750000  0.416825  0.287832  1
  Er  Er3  1  0.750000  0.085162  0.789845  1
  Mn  Mn4  1  0.250000  0.408814  0.492186  1
  Mn  Mn5  1  0.250000  0.091115  0.993505  1
  Mn  Mn6  1  0.750000  0.589484  0.506467  1
  Mn  Mn7  1  0.750000  0.909442  0.008547  1
  Mn  Mn8  1  0.250000  0.216859  0.175930  1
  Mn  Mn9  1  0.250000  0.284769  0.676407  1
  Mn  Mn10  1  0.750000  0.783143  0.823828  1
  Mn  Mn11  1  0.750000  0.716615  0.323863  1
  Mn  Mn12  1  0.250000  0.877112  0.700645  1
  Nb  Nb13  1  0.250000  0.704007  0.987951  1
  Nb  Nb14  1  0.250000  0.794383  0.486846  1
  Nb  Nb15  1  0.750000  0.296139  0.012230  1
  Nb  Nb16  1  0.750000  0.204144  0.511200  1
  Fe  Fe17  1  0.250000  0.623790  0.200848  1
  Fe  Fe18  1  0.750000  0.123663  0.299055  1
  Fe  Fe19  1  0.750000  0.376298  0.798788  1
  Fe  Fe20  1  0.250000  0.462966  0.932446  1
  Fe  Fe21  1  0.250000  0.037254  0.433549  1
  Fe  Fe22  1  0.750000  0.537721  0.066739  1
  Fe  Fe23  1  0.750000  0.962145  0.568443  1
  P  P24  1  0.250000  0.432543  0.113246  1
  P  P25  1  0.250000  0.071723  0.613542  1
  P  P26  1  0.750000  0.568662  0.886203  1
  P  P27  1  0.750000  0.931997  0.386979  1
  P  P28  1  0.250000  0.268661  0.864007  1
  P  P29  1  0.250000  0.231479  0.362731  1
  P  P30  1  0.750000  0.731869  0.136586  1
  P  P31  1  0.750000  0.763340  0.634740  1
  P  P32  1  0.250000  0.586530  0.381763  1
  P  P33  1  0.250000  0.913524  0.884655  1
  P  P34  1  0.750000  0.412348  0.616640  1
  P  P35  1  0.750000  0.087040  0.117713  1
