# generated using pymatgen
data_Dy9Ho(InBi)3
_symmetry_space_group_name_H-M   'P 1'
_cell_length_a   9.07570500
_cell_length_b   9.07570467
_cell_length_c   6.57788400
_cell_angle_alpha   90.00000000
_cell_angle_beta   90.00000000
_cell_angle_gamma   119.99999754
_symmetry_Int_Tables_number   1
_chemical_formula_structural   Dy9Ho(InBi)3
_chemical_formula_sum   'Dy9 Ho1 In3 Bi3'
_cell_volume   469.22114973
_cell_formula_units_Z   1
loop_
 _symmetry_equiv_pos_site_id
 _symmetry_equiv_pos_as_xyz
  1  'x, y, z'
loop_
 _atom_site_type_symbol
 _atom_site_label
 _atom_site_symmetry_multiplicity
 _atom_site_fract_x
 _atom_site_fract_y
 _atom_site_fract_z
 _atom_site_occupancy
  Dy  Dy0  1  0.666667  0.333333  0.006353  1
  Dy  Dy1  1  0.333333  0.666667  0.006368  1
  Dy  Dy2  1  0.333333  0.666667  0.493667  1
  Dy  Dy3  1  0.763027  0.763011  0.749939  1
  Dy  Dy4  1  0.236989  0.000015  0.749939  1
  Dy  Dy5  1  0.999985  0.236973  0.749939  1
  Dy  Dy6  1  0.237807  0.237749  0.250034  1
  Dy  Dy7  1  0.762251  0.000058  0.250034  1
  Dy  Dy8  1  0.999942  0.762193  0.250034  1
  Ho  Ho9  1  0.666667  0.333333  0.493567  1
  In  In10  1  0.606628  0.606454  0.250162  1
  In  In11  1  0.393546  0.000175  0.250162  1
  In  In12  1  0.999825  0.393372  0.250162  1
  Bi  Bi13  1  0.395856  0.395674  0.749881  1
  Bi  Bi14  1  0.604326  0.000182  0.749881  1
  Bi  Bi15  1  0.999818  0.604144  0.749881  1
