# generated using pymatgen
data_Tb16Lu4IrRh11
_symmetry_space_group_name_H-M   'P 1'
_cell_length_a   10.91021205
_cell_length_b   10.91021205
_cell_length_c   6.35551501
_cell_angle_alpha   90.00341046
_cell_angle_beta   90.00341046
_cell_angle_gamma   90.01054511
_symmetry_Int_Tables_number   1
_chemical_formula_structural   Tb16Lu4IrRh11
_chemical_formula_sum   'Tb16 Lu4 Ir1 Rh11'
_cell_volume   756.51426711
_cell_formula_units_Z   1
loop_
 _symmetry_equiv_pos_site_id
 _symmetry_equiv_pos_as_xyz
  1  'x, y, z'
loop_
 _atom_site_type_symbol
 _atom_site_label
 _atom_site_symmetry_multiplicity
 _atom_site_fract_x
 _atom_site_fract_y
 _atom_site_fract_z
 _atom_site_occupancy
  Tb  Tb0  1  0.289580  0.087802  0.378629  1
  Tb  Tb1  1  0.289751  0.911406  0.878459  1
  Tb  Tb2  1  0.710424  0.087740  0.878617  1
  Tb  Tb3  1  0.710405  0.912212  0.378561  1
  Tb  Tb4  1  0.587005  0.789248  0.878417  1
  Tb  Tb5  1  0.587782  0.210377  0.378823  1
  Tb  Tb6  1  0.412030  0.789156  0.379218  1
  Tb  Tb7  1  0.412222  0.210344  0.878599  1
  Tb  Tb8  1  0.210752  0.412995  0.621583  1
  Tb  Tb9  1  0.210844  0.587970  0.120782  1
  Tb  Tb10  1  0.789623  0.412218  0.121177  1
  Tb  Tb11  1  0.789656  0.587778  0.621401  1
  Tb  Tb12  1  0.912198  0.710420  0.121371  1
  Tb  Tb13  1  0.912260  0.289576  0.621383  1
  Tb  Tb14  1  0.088594  0.710249  0.621541  1
  Tb  Tb15  1  0.087788  0.289595  0.121439  1
  Lu  Lu16  1  0.999932  0.999994  0.499971  1
  Lu  Lu17  1  0.000006  0.000068  0.000029  1
  Lu  Lu18  1  0.499745  0.500226  0.999760  1
  Lu  Lu19  1  0.499774  0.500255  0.500240  1
  Ir  Ir20  1  0.349103  0.650897  0.750000  1
  Rh  Rh21  1  0.849127  0.150873  0.250000  1
  Rh  Rh22  1  0.849139  0.849192  0.750021  1
  Rh  Rh23  1  0.150808  0.150861  0.749979  1
  Rh  Rh24  1  0.150557  0.849443  0.250000  1
  Rh  Rh25  1  0.650935  0.349065  0.750000  1
  Rh  Rh26  1  0.651192  0.650858  0.250042  1
  Rh  Rh27  1  0.349142  0.348808  0.249958  1
  Rh  Rh28  1  0.500094  0.000260  0.122645  1
  Rh  Rh29  1  0.500162  0.000368  0.622422  1
  Rh  Rh30  1  0.999632  0.499838  0.877578  1
  Rh  Rh31  1  0.999740  0.499906  0.377355  1
