# generated using pymatgen
data_ErTm3Si4RuRh3
_symmetry_space_group_name_H-M   'P 1'
_cell_length_a   4.26087800
_cell_length_b   6.85219621
_cell_length_c   7.25797735
_cell_angle_alpha   90.03203112
_cell_angle_beta   90.00000000
_cell_angle_gamma   90.00000000
_symmetry_Int_Tables_number   1
_chemical_formula_structural   ErTm3Si4RuRh3
_chemical_formula_sum   'Er1 Tm3 Si4 Ru1 Rh3'
_cell_volume   211.90657419
_cell_formula_units_Z   1
loop_
 _symmetry_equiv_pos_site_id
 _symmetry_equiv_pos_as_xyz
  1  'x, y, z'
loop_
 _atom_site_type_symbol
 _atom_site_label
 _atom_site_symmetry_multiplicity
 _atom_site_fract_x
 _atom_site_fract_y
 _atom_site_fract_z
 _atom_site_occupancy
  Er  Er0  1  0.250000  0.992920  0.811217  1
  Tm  Tm1  1  0.750000  0.004929  0.190485  1
  Tm  Tm2  1  0.250000  0.497771  0.687612  1
  Tm  Tm3  1  0.750000  0.503279  0.311841  1
  Si  Si4  1  0.250000  0.298648  0.105393  1
  Si  Si5  1  0.750000  0.702780  0.899435  1
  Si  Si6  1  0.250000  0.795471  0.386919  1
  Si  Si7  1  0.750000  0.203887  0.608202  1
  Ru  Ru8  1  0.250000  0.654022  0.065804  1
  Rh  Rh9  1  0.750000  0.844416  0.567838  1
  Rh  Rh10  1  0.250000  0.157367  0.432250  1
  Rh  Rh11  1  0.750000  0.344511  0.933007  1
