# generated using pymatgen
data_Te(S4Br)4
_symmetry_space_group_name_H-M   'P 1'
_cell_length_a   16.02781340
_cell_length_b   12.99415099
_cell_length_c   12.71187200
_cell_angle_alpha   77.13630185
_cell_angle_beta   52.22084380
_cell_angle_gamma   50.64285160
_symmetry_Int_Tables_number   1
_chemical_formula_structural   Te(S4Br)4
_chemical_formula_sum   'Te2 S32 Br8'
_cell_volume   1557.21352586
_cell_formula_units_Z   2
loop_
 _symmetry_equiv_pos_site_id
 _symmetry_equiv_pos_as_xyz
  1  'x, y, z'
loop_
 _atom_site_type_symbol
 _atom_site_label
 _atom_site_symmetry_multiplicity
 _atom_site_fract_x
 _atom_site_fract_y
 _atom_site_fract_z
 _atom_site_occupancy
  Te  Te0  1  0.248119  0.251881  0.251881  1
  Te  Te1  1  0.998119  0.001881  0.001881  1
  S  S2  1  0.523415  0.470840  0.259967  1
  S  S3  1  0.322845  0.878724  0.165079  1
  S  S4  1  0.745778  0.259967  0.470840  1
  S  S5  1  0.807854  0.532039  0.330271  1
  S  S6  1  0.633350  0.165079  0.878724  1
  S  S7  1  0.179687  0.311755  0.648715  1
  S  S8  1  0.594661  0.925756  0.587513  1
  S  S9  1  0.328226  0.815188  0.326118  1
  S  S10  1  0.636365  0.651288  0.339702  1
  S  S11  1  0.329836  0.330271  0.532039  1
  S  S12  1  0.717961  0.442146  0.920164  1
  S  S13  1  0.779160  0.726585  0.504222  1
  S  S14  1  0.324244  0.655339  0.357930  1
  S  S15  1  0.910298  0.877355  0.613635  1
  S  S16  1  0.601285  0.390157  0.070313  1
  S  S17  1  0.892070  0.587513  0.925756  1
  S  S18  1  0.263957  0.543951  0.728422  1
  S  S19  1  0.706049  0.986043  0.786330  1
  S  S20  1  0.434812  0.921774  0.719531  1
  S  S21  1  0.371276  0.927155  0.616650  1
  S  S22  1  0.372645  0.339702  0.651288  1
  S  S23  1  0.938245  0.070313  0.390157  1
  S  S24  1  0.084921  0.616650  0.927155  1
  S  S25  1  0.530469  0.326118  0.815188  1
  S  S26  1  0.521578  0.786330  0.986043  1
  S  S27  1  0.919729  0.920164  0.442146  1
  S  S28  1  0.662487  0.357930  0.655339  1
  S  S29  1  0.859843  0.648715  0.311755  1
  S  S30  1  0.923882  0.719531  0.921774  1
  S  S31  1  0.598712  0.613635  0.877355  1
  S  S32  1  0.463670  0.728422  0.543951  1
  S  S33  1  0.990033  0.504222  0.726585  1
  Br  Br34  1  0.215792  0.782185  0.976880  1
  Br  Br35  1  0.968514  0.217368  0.034955  1
  Br  Br36  1  0.025143  0.976880  0.782185  1
  Br  Br37  1  0.779163  0.034955  0.217368  1
  Br  Br38  1  0.467815  0.034208  0.224857  1
  Br  Br39  1  0.273120  0.224857  0.034208  1
  Br  Br40  1  0.215045  0.470837  0.281486  1
  Br  Br41  1  0.032632  0.281486  0.470837  1
