# generated using pymatgen
data_Tb3NdAl16(SiIr3)2
_symmetry_space_group_name_H-M   'P 1'
_cell_length_a   7.56667077
_cell_length_b   7.57209766
_cell_length_c   9.40433000
_cell_angle_alpha   90.00000000
_cell_angle_beta   90.00000000
_cell_angle_gamma   119.63931256
_symmetry_Int_Tables_number   1
_chemical_formula_structural   Tb3NdAl16(SiIr3)2
_chemical_formula_sum   'Tb3 Nd1 Al16 Si2 Ir6'
_cell_volume   468.32414068
_cell_formula_units_Z   1
loop_
 _symmetry_equiv_pos_site_id
 _symmetry_equiv_pos_as_xyz
  1  'x, y, z'
loop_
 _atom_site_type_symbol
 _atom_site_label
 _atom_site_symmetry_multiplicity
 _atom_site_fract_x
 _atom_site_fract_y
 _atom_site_fract_z
 _atom_site_occupancy
  Tb  Tb0  1  0.004934  0.324615  0.750000  1
  Tb  Tb1  1  0.675102  0.994966  0.250000  1
  Tb  Tb2  1  0.325054  0.005287  0.750000  1
  Nd  Nd3  1  0.994837  0.674468  0.250000  1
  Al  Al4  1  0.001681  0.335092  0.074483  1
  Al  Al5  1  0.998570  0.663508  0.922043  1
  Al  Al6  1  0.998570  0.663508  0.577957  1
  Al  Al7  1  0.337819  0.002816  0.425588  1
  Al  Al8  1  0.001681  0.335092  0.425517  1
  Al  Al9  1  0.663529  0.998600  0.576272  1
  Al  Al10  1  0.663529  0.998600  0.923728  1
  Al  Al11  1  0.337819  0.002816  0.074412  1
  Al  Al12  1  0.335697  0.335740  0.556791  1
  Al  Al13  1  0.663083  0.664326  0.445896  1
  Al  Al14  1  0.663083  0.664326  0.054104  1
  Al  Al15  1  0.335697  0.335740  0.943209  1
  Al  Al16  1  0.337179  0.548475  0.250000  1
  Al  Al17  1  0.663492  0.450682  0.750000  1
  Al  Al18  1  0.546533  0.333694  0.250000  1
  Al  Al19  1  0.451145  0.664246  0.750000  1
  Si  Si20  1  0.129874  0.131205  0.250000  1
  Si  Si21  1  0.870632  0.871135  0.750000  1
  Ir  Ir22  1  0.671334  0.328236  0.999472  1
  Ir  Ir23  1  0.328690  0.671563  0.999538  1
  Ir  Ir24  1  0.328690  0.671563  0.500462  1
  Ir  Ir25  1  0.671334  0.328236  0.500528  1
  Ir  Ir26  1  0.000208  0.000733  0.999004  1
  Ir  Ir27  1  0.000208  0.000733  0.500996  1
