# generated using pymatgen
data_Pr4SmSn15Ir8
_symmetry_space_group_name_H-M   'P 1'
_cell_length_a   4.53054300
_cell_length_b   7.35612410
_cell_length_c   18.77003200
_cell_angle_alpha   89.90048176
_cell_angle_beta   90.00000000
_cell_angle_gamma   90.00000000
_symmetry_Int_Tables_number   1
_chemical_formula_structural   Pr4SmSn15Ir8
_chemical_formula_sum   'Pr4 Sm1 Sn15 Ir8'
_cell_volume   625.55235256
_cell_formula_units_Z   1
loop_
 _symmetry_equiv_pos_site_id
 _symmetry_equiv_pos_as_xyz
  1  'x, y, z'
loop_
 _atom_site_type_symbol
 _atom_site_label
 _atom_site_symmetry_multiplicity
 _atom_site_fract_x
 _atom_site_fract_y
 _atom_site_fract_z
 _atom_site_occupancy
  Pr  Pr0  1  0.500000  0.001382  0.856088  1
  Pr  Pr1  1  0.500000  0.499447  0.357554  1
  Pr  Pr2  1  0.000000  0.000125  0.143762  1
  Pr  Pr3  1  0.000000  0.501300  0.641788  1
  Sm  Sm4  1  0.500000  0.489956  0.930955  1
  Sn  Sn5  1  0.000000  0.718134  0.805821  1
  Sn  Sn6  1  0.000000  0.779726  0.306473  1
  Sn  Sn7  1  0.500000  0.277170  0.193745  1
  Sn  Sn8  1  0.500000  0.219282  0.692773  1
  Sn  Sn9  1  0.000000  0.853740  0.969690  1
  Sn  Sn10  1  0.000000  0.631644  0.467816  1
  Sn  Sn11  1  0.500000  0.134417  0.032386  1
  Sn  Sn12  1  0.500000  0.366334  0.531497  1
  Sn  Sn13  1  0.000000  0.305067  0.818991  1
  Sn  Sn14  1  0.000000  0.199107  0.317847  1
  Sn  Sn15  1  0.500000  0.697803  0.185679  1
  Sn  Sn16  1  0.500000  0.807588  0.678857  1
  Sn  Sn17  1  0.500000  0.021025  0.433544  1
  Sn  Sn18  1  0.000000  0.513416  0.067211  1
  Sn  Sn19  1  0.000000  0.979389  0.567633  1
  Ir  Ir20  1  0.000000  0.230789  0.964560  1
  Ir  Ir21  1  0.000000  0.248070  0.464439  1
  Ir  Ir22  1  0.500000  0.763782  0.044398  1
  Ir  Ir23  1  0.500000  0.750296  0.533619  1
  Ir  Ir24  1  0.000000  0.018716  0.715597  1
  Ir  Ir25  1  0.000000  0.483453  0.214562  1
  Ir  Ir26  1  0.500000  0.987504  0.288645  1
  Ir  Ir27  1  0.500000  0.521338  0.774074  1
