# generated using pymatgen
data_Ac2DySi4(PPd10)2
_symmetry_space_group_name_H-M   'P 1'
_cell_length_a   8.80361084
_cell_length_b   8.80362598
_cell_length_c   8.80667200
_cell_angle_alpha   59.98842287
_cell_angle_beta   59.98878051
_cell_angle_gamma   60.02305961
_symmetry_Int_Tables_number   1
_chemical_formula_structural   Ac2DySi4(PPd10)2
_chemical_formula_sum   'Ac2 Dy1 Si4 P2 Pd20'
_cell_volume   482.63632169
_cell_formula_units_Z   1
loop_
 _symmetry_equiv_pos_site_id
 _symmetry_equiv_pos_as_xyz
  1  'x, y, z'
loop_
 _atom_site_type_symbol
 _atom_site_label
 _atom_site_symmetry_multiplicity
 _atom_site_fract_x
 _atom_site_fract_y
 _atom_site_fract_z
 _atom_site_occupancy
  Ac  Ac0  1  0.249995  0.250006  0.249994  1
  Ac  Ac1  1  0.750005  0.749994  0.750006  1
  Dy  Dy2  1  0.000000  0.000000  0.000000  1
  Si  Si3  1  0.735075  0.264922  0.264925  1
  Si  Si4  1  0.264925  0.735078  0.735075  1
  Si  Si5  1  0.264923  0.735077  0.264923  1
  Si  Si6  1  0.735077  0.264923  0.735077  1
  P  P7  1  0.264554  0.264548  0.735446  1
  P  P8  1  0.735446  0.735452  0.264554  1
  Pd  Pd9  1  0.386398  0.386399  0.388486  1
  Pd  Pd10  1  0.613602  0.613601  0.611514  1
  Pd  Pd11  1  0.386413  0.386394  0.838717  1
  Pd  Pd12  1  0.388486  0.838717  0.386398  1
  Pd  Pd13  1  0.613587  0.613606  0.161283  1
  Pd  Pd14  1  0.611514  0.161283  0.613602  1
  Pd  Pd15  1  0.838717  0.388475  0.386413  1
  Pd  Pd16  1  0.161283  0.611525  0.613587  1
  Pd  Pd17  1  0.344495  0.001473  0.998517  1
  Pd  Pd18  1  0.655505  0.998527  0.001483  1
  Pd  Pd19  1  0.001483  0.344485  0.655505  1
  Pd  Pd20  1  0.998517  0.655515  0.344495  1
  Pd  Pd21  1  0.001476  0.344490  0.998525  1
  Pd  Pd22  1  0.655503  0.998525  0.344498  1
  Pd  Pd23  1  0.998524  0.655510  0.001475  1
  Pd  Pd24  1  0.344497  0.001475  0.655502  1
  Pd  Pd25  1  0.999994  0.999996  0.345896  1
  Pd  Pd26  1  0.000006  0.000004  0.654104  1
  Pd  Pd27  1  0.654103  0.345887  0.000006  1
  Pd  Pd28  1  0.345897  0.654113  0.999994  1
