# generated using pymatgen
data_Hf12Zr6Fe2Re7Mo
_symmetry_space_group_name_H-M   'P 1'
_cell_length_a   8.63967504
_cell_length_b   8.63861290
_cell_length_c   8.45870805
_cell_angle_alpha   90.01212597
_cell_angle_beta   89.99126681
_cell_angle_gamma   120.01108428
_symmetry_Int_Tables_number   1
_chemical_formula_structural   Hf12Zr6Fe2Re7Mo
_chemical_formula_sum   'Hf12 Zr6 Fe2 Re7 Mo1'
_cell_volume   546.67291848
_cell_formula_units_Z   1
loop_
 _symmetry_equiv_pos_site_id
 _symmetry_equiv_pos_as_xyz
  1  'x, y, z'
loop_
 _atom_site_type_symbol
 _atom_site_label
 _atom_site_symmetry_multiplicity
 _atom_site_fract_x
 _atom_site_fract_y
 _atom_site_fract_z
 _atom_site_occupancy
  Hf  Hf0  1  0.200415  0.799581  0.440782  1
  Hf  Hf1  1  0.200422  0.400882  0.440770  1
  Hf  Hf2  1  0.599135  0.799585  0.440779  1
  Hf  Hf3  1  0.799585  0.200419  0.559218  1
  Hf  Hf4  1  0.799578  0.599118  0.559230  1
  Hf  Hf5  1  0.400865  0.200415  0.559221  1
  Hf  Hf6  1  0.800872  0.199110  0.940242  1
  Hf  Hf7  1  0.800896  0.601756  0.940223  1
  Hf  Hf8  1  0.398229  0.199086  0.940252  1
  Hf  Hf9  1  0.199128  0.800890  0.059758  1
  Hf  Hf10  1  0.199104  0.398244  0.059777  1
  Hf  Hf11  1  0.601771  0.800914  0.059748  1
  Zr  Zr12  1  0.540388  0.459634  0.249075  1
  Zr  Zr13  1  0.540310  0.080630  0.249059  1
  Zr  Zr14  1  0.919312  0.459662  0.249058  1
  Zr  Zr15  1  0.459612  0.540366  0.750925  1
  Zr  Zr16  1  0.459690  0.919370  0.750941  1
  Zr  Zr17  1  0.080688  0.540338  0.750942  1
  Fe  Fe18  1  0.333677  0.666145  0.249030  1
  Fe  Fe19  1  0.666323  0.333855  0.750970  1
  Re  Re20  1  0.889823  0.110151  0.250665  1
  Re  Re21  1  0.889797  0.779628  0.250605  1
  Re  Re22  1  0.220369  0.110307  0.250675  1
  Re  Re23  1  0.110177  0.889849  0.749335  1
  Re  Re24  1  0.110203  0.220372  0.749395  1
  Re  Re25  1  0.779631  0.889693  0.749325  1
  Re  Re26  1  0.000000  0.000000  0.000000  1
  Mo  Mo27  1  0.000000  0.000000  0.500000  1
