# generated using pymatgen
data_Pr6Al24ZnOs7
_symmetry_space_group_name_H-M   'P 1'
_cell_length_a   8.97261487
_cell_length_b   8.97261436
_cell_length_c   9.69036858
_cell_angle_alpha   90.09642754
_cell_angle_beta   89.90357155
_cell_angle_gamma   119.82310910
_symmetry_Int_Tables_number   1
_chemical_formula_structural   Pr6Al24ZnOs7
_chemical_formula_sum   'Pr6 Al24 Zn1 Os7'
_cell_volume   676.82983798
_cell_formula_units_Z   1
loop_
 _symmetry_equiv_pos_site_id
 _symmetry_equiv_pos_as_xyz
  1  'x, y, z'
loop_
 _atom_site_type_symbol
 _atom_site_label
 _atom_site_symmetry_multiplicity
 _atom_site_fract_x
 _atom_site_fract_y
 _atom_site_fract_z
 _atom_site_occupancy
  Pr  Pr0  1  0.190798  0.382678  0.247208  1
  Pr  Pr1  1  0.809202  0.617322  0.752792  1
  Pr  Pr2  1  0.617322  0.809202  0.247208  1
  Pr  Pr3  1  0.382678  0.190798  0.752792  1
  Pr  Pr4  1  0.192303  0.807697  0.254053  1
  Pr  Pr5  1  0.807697  0.192303  0.745947  1
  Al  Al6  1  0.328607  0.671393  0.011686  1
  Al  Al7  1  0.671393  0.328607  0.988314  1
  Al  Al8  1  0.666164  0.333836  0.510595  1
  Al  Al9  1  0.333836  0.666164  0.489405  1
  Al  Al10  1  0.162588  0.326100  0.571910  1
  Al  Al11  1  0.837412  0.673900  0.428090  1
  Al  Al12  1  0.673900  0.837412  0.571910  1
  Al  Al13  1  0.849693  0.677503  0.078997  1
  Al  Al14  1  0.326100  0.162588  0.428090  1
  Al  Al15  1  0.150307  0.322497  0.921003  1
  Al  Al16  1  0.163021  0.836979  0.574467  1
  Al  Al17  1  0.322497  0.150307  0.078997  1
  Al  Al18  1  0.836979  0.163021  0.425533  1
  Al  Al19  1  0.677503  0.849693  0.921003  1
  Al  Al20  1  0.836773  0.163227  0.074339  1
  Al  Al21  1  0.163227  0.836773  0.925661  1
  Al  Al22  1  0.562337  0.123434  0.249066  1
  Al  Al23  1  0.437663  0.876566  0.750934  1
  Al  Al24  1  0.876566  0.437663  0.249066  1
  Al  Al25  1  0.123434  0.562337  0.750934  1
  Al  Al26  1  0.565125  0.434875  0.256782  1
  Al  Al27  1  0.434875  0.565125  0.743218  1
  Al  Al28  1  0.998905  0.001095  0.250702  1
  Al  Al29  1  0.001095  0.998905  0.749298  1
  Zn  Zn30  1  0.500000  0.500000  0.000000  1
  Os  Os31  1  0.500000  0.000000  0.000000  1
  Os  Os32  1  0.000000  0.500000  0.000000  1
  Os  Os33  1  0.500000  0.000000  0.500000  1
  Os  Os34  1  0.000000  0.500000  0.500000  1
  Os  Os35  1  0.500000  0.500000  0.500000  1
  Os  Os36  1  0.000000  0.000000  0.000000  1
  Os  Os37  1  0.000000  0.000000  0.500000  1
