# generated using pymatgen
data_Tb5TmAl16(SiOs)8
_symmetry_space_group_name_H-M   'P 1'
_cell_length_a   8.71168291
_cell_length_b   8.71168323
_cell_length_c   9.44457700
_cell_angle_alpha   90.00000000
_cell_angle_beta   90.00000000
_cell_angle_gamma   120.11191300
_symmetry_Int_Tables_number   1
_chemical_formula_structural   Tb5TmAl16(SiOs)8
_chemical_formula_sum   'Tb5 Tm1 Al16 Si8 Os8'
_cell_volume   620.04957600
_cell_formula_units_Z   1
loop_
 _symmetry_equiv_pos_site_id
 _symmetry_equiv_pos_as_xyz
  1  'x, y, z'
loop_
 _atom_site_type_symbol
 _atom_site_label
 _atom_site_symmetry_multiplicity
 _atom_site_fract_x
 _atom_site_fract_y
 _atom_site_fract_z
 _atom_site_occupancy
  Tb  Tb0  1  0.191308  0.385567  0.250000  1
  Tb  Tb1  1  0.808307  0.613592  0.750000  1
  Tb  Tb2  1  0.614433  0.808692  0.250000  1
  Tb  Tb3  1  0.386408  0.191693  0.750000  1
  Tb  Tb4  1  0.193930  0.806070  0.250000  1
  Tm  Tm5  1  0.803967  0.196033  0.750000  1
  Al  Al6  1  0.164967  0.329100  0.578651  1
  Al  Al7  1  0.834393  0.670521  0.422338  1
  Al  Al8  1  0.670900  0.835033  0.578651  1
  Al  Al9  1  0.834393  0.670521  0.077662  1
  Al  Al10  1  0.329479  0.165607  0.422338  1
  Al  Al11  1  0.164967  0.329100  0.921349  1
  Al  Al12  1  0.164719  0.835281  0.578091  1
  Al  Al13  1  0.329479  0.165607  0.077662  1
  Al  Al14  1  0.835433  0.164567  0.423342  1
  Al  Al15  1  0.670900  0.835033  0.921349  1
  Al  Al16  1  0.835433  0.164567  0.076658  1
  Al  Al17  1  0.164719  0.835281  0.921909  1
  Al  Al18  1  0.565127  0.434873  0.250000  1
  Al  Al19  1  0.434488  0.565512  0.750000  1
  Al  Al20  1  0.000407  0.999593  0.250000  1
  Al  Al21  1  0.998342  0.001658  0.750000  1
  Si  Si22  1  0.335205  0.664795  0.039428  1
  Si  Si23  1  0.665373  0.334627  0.959385  1
  Si  Si24  1  0.665373  0.334627  0.540615  1
  Si  Si25  1  0.335205  0.664795  0.460572  1
  Si  Si26  1  0.564809  0.124492  0.250000  1
  Si  Si27  1  0.437180  0.876206  0.750000  1
  Si  Si28  1  0.875508  0.435191  0.250000  1
  Si  Si29  1  0.123794  0.562820  0.750000  1
  Os  Os30  1  0.500845  0.000552  0.999076  1
  Os  Os31  1  0.999448  0.499155  0.999076  1
  Os  Os32  1  0.500845  0.000552  0.500924  1
  Os  Os33  1  0.500280  0.499720  0.999696  1
  Os  Os34  1  0.999448  0.499155  0.500924  1
  Os  Os35  1  0.500280  0.499720  0.500304  1
  Os  Os36  1  0.999954  0.000046  0.000029  1
  Os  Os37  1  0.999954  0.000046  0.499971  1
