# generated using pymatgen
data_TbPr3(GePd14)2
_symmetry_space_group_name_H-M   'P 1'
_cell_length_a   9.00343600
_cell_length_b   9.00343600
_cell_length_c   7.21714900
_cell_angle_alpha   90.00000000
_cell_angle_beta   90.00000000
_cell_angle_gamma   90.00000000
_symmetry_Int_Tables_number   1
_chemical_formula_structural   TbPr3(GePd14)2
_chemical_formula_sum   'Tb1 Pr3 Ge2 Pd28'
_cell_volume   585.03552044
_cell_formula_units_Z   1
loop_
 _symmetry_equiv_pos_site_id
 _symmetry_equiv_pos_as_xyz
  1  'x, y, z'
loop_
 _atom_site_type_symbol
 _atom_site_label
 _atom_site_symmetry_multiplicity
 _atom_site_fract_x
 _atom_site_fract_y
 _atom_site_fract_z
 _atom_site_occupancy
  Tb  Tb0  1  0.000000  0.000000  0.500000  1
  Pr  Pr1  1  0.500000  0.000000  0.936506  1
  Pr  Pr2  1  0.000000  0.500000  0.063494  1
  Pr  Pr3  1  0.500000  0.500000  0.500000  1
  Ge  Ge4  1  0.500000  0.000000  0.450370  1
  Ge  Ge5  1  0.000000  0.500000  0.549630  1
  Pd  Pd6  1  0.329097  0.831187  0.621167  1
  Pd  Pd7  1  0.329097  0.168813  0.621167  1
  Pd  Pd8  1  0.670903  0.831187  0.621167  1
  Pd  Pd9  1  0.670903  0.168813  0.621167  1
  Pd  Pd10  1  0.168813  0.670903  0.378833  1
  Pd  Pd11  1  0.168813  0.329097  0.378833  1
  Pd  Pd12  1  0.831187  0.670903  0.378833  1
  Pd  Pd13  1  0.831187  0.329097  0.378833  1
  Pd  Pd14  1  0.500000  0.767591  0.252641  1
  Pd  Pd15  1  0.500000  0.232409  0.252641  1
  Pd  Pd16  1  0.263822  0.000000  0.257750  1
  Pd  Pd17  1  0.736178  0.000000  0.257750  1
  Pd  Pd18  1  0.000000  0.736178  0.742250  1
  Pd  Pd19  1  0.000000  0.263822  0.742250  1
  Pd  Pd20  1  0.232409  0.500000  0.747359  1
  Pd  Pd21  1  0.767591  0.500000  0.747359  1
  Pd  Pd22  1  0.500000  0.348439  0.857577  1
  Pd  Pd23  1  0.500000  0.651561  0.857577  1
  Pd  Pd24  1  0.850610  0.000000  0.853275  1
  Pd  Pd25  1  0.149390  0.000000  0.853275  1
  Pd  Pd26  1  0.000000  0.149390  0.146725  1
  Pd  Pd27  1  0.000000  0.850610  0.146725  1
  Pd  Pd28  1  0.651561  0.500000  0.142423  1
  Pd  Pd29  1  0.348439  0.500000  0.142423  1
  Pd  Pd30  1  0.248825  0.751175  0.000000  1
  Pd  Pd31  1  0.248825  0.248825  0.000000  1
  Pd  Pd32  1  0.751175  0.751175  0.000000  1
  Pd  Pd33  1  0.751175  0.248825  0.000000  1
