# generated using pymatgen
data_Ce8BeAl2Si12Rh
_symmetry_space_group_name_H-M   'P 1'
_cell_length_a   8.16458800
_cell_length_b   8.16458783
_cell_length_c   8.31432400
_cell_angle_alpha   90.00000000
_cell_angle_beta   90.00000000
_cell_angle_gamma   119.99999259
_symmetry_Int_Tables_number   1
_chemical_formula_structural   Ce8BeAl2Si12Rh
_chemical_formula_sum   'Ce8 Be1 Al2 Si12 Rh1'
_cell_volume   479.98332313
_cell_formula_units_Z   1
loop_
 _symmetry_equiv_pos_site_id
 _symmetry_equiv_pos_as_xyz
  1  'x, y, z'
loop_
 _atom_site_type_symbol
 _atom_site_label
 _atom_site_symmetry_multiplicity
 _atom_site_fract_x
 _atom_site_fract_y
 _atom_site_fract_z
 _atom_site_occupancy
  Ce  Ce0  1  0.000000  0.000000  0.249228  1
  Ce  Ce1  1  0.000000  0.000000  0.750603  1
  Ce  Ce2  1  0.499097  0.500903  0.247503  1
  Ce  Ce3  1  0.499097  0.998194  0.247503  1
  Ce  Ce4  1  0.001806  0.500903  0.247503  1
  Ce  Ce5  1  0.498810  0.501190  0.752491  1
  Ce  Ce6  1  0.498810  0.997620  0.752491  1
  Ce  Ce7  1  0.002380  0.501190  0.752491  1
  Be  Be8  1  0.666667  0.333333  0.999820  1
  Al  Al9  1  0.333333  0.666667  0.499284  1
  Al  Al10  1  0.666667  0.333333  0.500734  1
  Si  Si11  1  0.164441  0.835559  0.499918  1
  Si  Si12  1  0.164441  0.328881  0.499918  1
  Si  Si13  1  0.671119  0.835559  0.499918  1
  Si  Si14  1  0.835050  0.164950  0.499960  1
  Si  Si15  1  0.835050  0.670099  0.499960  1
  Si  Si16  1  0.329901  0.164950  0.499960  1
  Si  Si17  1  0.827373  0.172627  0.000016  1
  Si  Si18  1  0.827373  0.654746  0.000016  1
  Si  Si19  1  0.345254  0.172627  0.000016  1
  Si  Si20  1  0.164929  0.835071  0.999908  1
  Si  Si21  1  0.164929  0.329858  0.999908  1
  Si  Si22  1  0.670142  0.835071  0.999908  1
  Rh  Rh23  1  0.333333  0.666667  0.000942  1
