# generated using pymatgen
data_LiTm8Sc10Si16Tc
_symmetry_space_group_name_H-M   'P 1'
_cell_length_a   6.93413317
_cell_length_b   7.29899754
_cell_length_c   13.83589500
_cell_angle_alpha   90.00000000
_cell_angle_beta   90.00000000
_cell_angle_gamma   90.08436938
_symmetry_Int_Tables_number   1
_chemical_formula_structural   LiTm8Sc10Si16Tc
_chemical_formula_sum   'Li1 Tm8 Sc10 Si16 Tc1'
_cell_volume   700.26461558
_cell_formula_units_Z   1
loop_
 _symmetry_equiv_pos_site_id
 _symmetry_equiv_pos_as_xyz
  1  'x, y, z'
loop_
 _atom_site_type_symbol
 _atom_site_label
 _atom_site_symmetry_multiplicity
 _atom_site_fract_x
 _atom_site_fract_y
 _atom_site_fract_z
 _atom_site_occupancy
  Li  Li0  1  0.842020  0.493697  0.250000  1
  Tm  Tm1  1  0.010568  0.184865  0.094939  1
  Tm  Tm2  1  0.992494  0.817482  0.900934  1
  Tm  Tm3  1  0.488502  0.673627  0.902974  1
  Tm  Tm4  1  0.992494  0.817482  0.599066  1
  Tm  Tm5  1  0.515503  0.325006  0.095921  1
  Tm  Tm6  1  0.010568  0.184865  0.405061  1
  Tm  Tm7  1  0.515503  0.325006  0.404079  1
  Tm  Tm8  1  0.488502  0.673627  0.597026  1
  Sc  Sc9  1  0.344069  0.003867  0.250000  1
  Sc  Sc10  1  0.656725  0.994408  0.750000  1
  Sc  Sc11  1  0.325786  0.177830  0.627411  1
  Sc  Sc12  1  0.675490  0.820455  0.373743  1
  Sc  Sc13  1  0.168303  0.670580  0.375644  1
  Sc  Sc14  1  0.675490  0.820455  0.126257  1
  Sc  Sc15  1  0.825579  0.329849  0.628629  1
  Sc  Sc16  1  0.325786  0.177830  0.872589  1
  Sc  Sc17  1  0.825579  0.329849  0.871371  1
  Sc  Sc18  1  0.168303  0.670580  0.124356  1
  Si  Si19  1  0.028068  0.115983  0.750000  1
  Si  Si20  1  0.974262  0.897408  0.250000  1
  Si  Si21  1  0.468791  0.610310  0.250000  1
  Si  Si22  1  0.517121  0.397513  0.750000  1
  Si  Si23  1  0.284670  0.858053  0.750000  1
  Si  Si24  1  0.717525  0.125703  0.250000  1
  Si  Si25  1  0.220496  0.370279  0.250000  1
  Si  Si26  1  0.793099  0.630867  0.750000  1
  Si  Si27  1  0.155459  0.466212  0.547376  1
  Si  Si28  1  0.840461  0.538134  0.467095  1
  Si  Si29  1  0.343530  0.965696  0.462197  1
  Si  Si30  1  0.840461  0.538134  0.032905  1
  Si  Si31  1  0.659021  0.033440  0.538766  1
  Si  Si32  1  0.155459  0.466212  0.952624  1
  Si  Si33  1  0.659021  0.033440  0.961234  1
  Si  Si34  1  0.343530  0.965696  0.037803  1
  Tc  Tc35  1  0.151764  0.495554  0.750000  1
