# generated using pymatgen
data_La4HoIr3
_symmetry_space_group_name_H-M   'P 1'
_cell_length_a   11.39566600
_cell_length_b   11.39566600
_cell_length_c   6.54745300
_cell_angle_alpha   90.00000000
_cell_angle_beta   90.00000000
_cell_angle_gamma   90.00000000
_symmetry_Int_Tables_number   1
_chemical_formula_structural   La4HoIr3
_chemical_formula_sum   'La16 Ho4 Ir12'
_cell_volume   850.26012699
_cell_formula_units_Z   4
loop_
 _symmetry_equiv_pos_site_id
 _symmetry_equiv_pos_as_xyz
  1  'x, y, z'
loop_
 _atom_site_type_symbol
 _atom_site_label
 _atom_site_symmetry_multiplicity
 _atom_site_fract_x
 _atom_site_fract_y
 _atom_site_fract_z
 _atom_site_occupancy
  La  La0  1  0.287439  0.087637  0.390725  1
  La  La1  1  0.287439  0.912363  0.890725  1
  La  La2  1  0.712561  0.087637  0.890725  1
  La  La3  1  0.712561  0.912363  0.390725  1
  La  La4  1  0.587637  0.787439  0.890725  1
  La  La5  1  0.587637  0.212561  0.390725  1
  La  La6  1  0.412363  0.787439  0.390725  1
  La  La7  1  0.412363  0.212561  0.890725  1
  La  La8  1  0.212561  0.412363  0.609275  1
  La  La9  1  0.212561  0.587637  0.109275  1
  La  La10  1  0.787439  0.412363  0.109275  1
  La  La11  1  0.787439  0.587637  0.609275  1
  La  La12  1  0.912363  0.712561  0.109275  1
  La  La13  1  0.912363  0.287439  0.609275  1
  La  La14  1  0.087637  0.712561  0.609275  1
  La  La15  1  0.087637  0.287439  0.109275  1
  Ho  Ho16  1  0.000000  0.000000  0.500000  1
  Ho  Ho17  1  0.000000  0.000000  0.000000  1
  Ho  Ho18  1  0.500000  0.500000  0.000000  1
  Ho  Ho19  1  0.500000  0.500000  0.500000  1
  Ir  Ir20  1  0.851778  0.148222  0.250000  1
  Ir  Ir21  1  0.851778  0.851778  0.750000  1
  Ir  Ir22  1  0.148222  0.148222  0.750000  1
  Ir  Ir23  1  0.148222  0.851778  0.250000  1
  Ir  Ir24  1  0.648222  0.351778  0.750000  1
  Ir  Ir25  1  0.648222  0.648222  0.250000  1
  Ir  Ir26  1  0.351778  0.351778  0.250000  1
  Ir  Ir27  1  0.351778  0.648222  0.750000  1
  Ir  Ir28  1  0.500000  0.000000  0.120016  1
  Ir  Ir29  1  0.500000  0.000000  0.620016  1
  Ir  Ir30  1  0.000000  0.500000  0.879984  1
  Ir  Ir31  1  0.000000  0.500000  0.379984  1
