# generated using pymatgen
data_Rb4Tm5U3Se16
_symmetry_space_group_name_H-M   'P 1'
_cell_length_a   6.89733131
_cell_length_b   7.91881269
_cell_length_c   17.02940600
_cell_angle_alpha   90.01541864
_cell_angle_beta   89.96472039
_cell_angle_gamma   89.98181247
_symmetry_Int_Tables_number   1
_chemical_formula_structural   Rb4Tm5U3Se16
_chemical_formula_sum   'Rb4 Tm5 U3 Se16'
_cell_volume   930.12332903
_cell_formula_units_Z   1
loop_
 _symmetry_equiv_pos_site_id
 _symmetry_equiv_pos_as_xyz
  1  'x, y, z'
loop_
 _atom_site_type_symbol
 _atom_site_label
 _atom_site_symmetry_multiplicity
 _atom_site_fract_x
 _atom_site_fract_y
 _atom_site_fract_z
 _atom_site_occupancy
  Rb  Rb0  1  0.344544  0.002130  0.001810  1
  Rb  Rb1  1  0.655481  0.497862  0.498187  1
  Rb  Rb2  1  0.020227  0.000896  0.498029  1
  Rb  Rb3  1  0.979776  0.499121  0.001964  1
  Tm  Tm4  1  0.000931  0.007497  0.247570  1
  Tm  Tm5  1  0.999431  0.999916  0.752290  1
  Tm  Tm6  1  0.999065  0.492494  0.252451  1
  Tm  Tm7  1  0.000586  0.500080  0.747707  1
  Tm  Tm8  1  0.499975  0.249986  0.250016  1
  U  U9  1  0.500010  0.750035  0.749978  1
  U  U10  1  0.499980  0.750018  0.250057  1
  U  U11  1  0.500007  0.249959  0.749995  1
  Se  Se12  1  0.834382  0.247069  0.346804  1
  Se  Se13  1  0.830640  0.752015  0.654061  1
  Se  Se14  1  0.174363  0.747307  0.156267  1
  Se  Se15  1  0.169023  0.252889  0.846151  1
  Se  Se16  1  0.165588  0.252918  0.153160  1
  Se  Se17  1  0.169393  0.747977  0.845975  1
  Se  Se18  1  0.825608  0.752702  0.343674  1
  Se  Se19  1  0.830956  0.247117  0.653879  1
  Se  Se20  1  0.665478  0.994255  0.155029  1
  Se  Se21  1  0.671076  0.999351  0.847140  1
  Se  Se22  1  0.334477  0.505763  0.344942  1
  Se  Se23  1  0.328976  0.500654  0.652886  1
  Se  Se24  1  0.335969  0.995054  0.343638  1
  Se  Se25  1  0.330899  0.000209  0.654482  1
  Se  Se26  1  0.664034  0.504913  0.156322  1
  Se  Se27  1  0.669126  0.499811  0.845537  1
