# generated using pymatgen
data_Tb3Er13TlIn5Co2
_symmetry_space_group_name_H-M   'P 1'
_cell_length_a   10.30582300
_cell_length_b   10.31633110
_cell_length_c   7.00395603
_cell_angle_alpha   89.99100269
_cell_angle_beta   90.00000000
_cell_angle_gamma   119.96630146
_symmetry_Int_Tables_number   1
_chemical_formula_structural   Tb3Er13TlIn5Co2
_chemical_formula_sum   'Tb3 Er13 Tl1 In5 Co2'
_cell_volume   645.10344280
_cell_formula_units_Z   1
loop_
 _symmetry_equiv_pos_site_id
 _symmetry_equiv_pos_as_xyz
  1  'x, y, z'
loop_
 _atom_site_type_symbol
 _atom_site_label
 _atom_site_symmetry_multiplicity
 _atom_site_fract_x
 _atom_site_fract_y
 _atom_site_fract_z
 _atom_site_occupancy
  Tb  Tb0  1  0.534422  0.068843  0.790892  1
  Tb  Tb1  1  0.931005  0.465431  0.790503  1
  Tb  Tb2  1  0.534427  0.465431  0.790503  1
  Er  Er3  1  0.464201  0.928402  0.291669  1
  Er  Er4  1  0.072380  0.535457  0.292558  1
  Er  Er5  1  0.463077  0.535457  0.292558  1
  Er  Er6  1  0.821902  0.643805  0.495339  1
  Er  Er7  1  0.356077  0.177927  0.496820  1
  Er  Er8  1  0.821848  0.177927  0.496820  1
  Er  Er9  1  0.178304  0.356607  0.999583  1
  Er  Er10  1  0.643762  0.821720  0.999485  1
  Er  Er11  1  0.177959  0.821720  0.999485  1
  Er  Er12  1  0.666541  0.333080  0.183895  1
  Er  Er13  1  0.333381  0.666763  0.682809  1
  Er  Er14  1  0.000483  0.000967  0.778425  1
  Er  Er15  1  0.000458  0.000916  0.280494  1
  Tl  Tl16  1  0.837219  0.674439  0.041634  1
  In  In17  1  0.325083  0.162512  0.040096  1
  In  In18  1  0.837428  0.162512  0.040096  1
  In  In19  1  0.162914  0.325826  0.539603  1
  In  In20  1  0.673956  0.836967  0.539825  1
  In  In21  1  0.163012  0.836967  0.539825  1
  Co  Co22  1  0.666844  0.333687  0.565637  1
  Co  Co23  1  0.333317  0.666636  0.067351  1
