# generated using pymatgen
data_Th20(C5F)3
_symmetry_space_group_name_H-M   'P 1'
_cell_length_a   9.96456096
_cell_length_b   9.97621307
_cell_length_c   12.52640212
_cell_angle_alpha   62.91239640
_cell_angle_beta   63.03351791
_cell_angle_gamma   44.58476438
_symmetry_Int_Tables_number   1
_chemical_formula_structural   Th20(C5F)3
_chemical_formula_sum   'Th20 C15 F3'
_cell_volume   761.42657451
_cell_formula_units_Z   1
loop_
 _symmetry_equiv_pos_site_id
 _symmetry_equiv_pos_as_xyz
  1  'x, y, z'
loop_
 _atom_site_type_symbol
 _atom_site_label
 _atom_site_symmetry_multiplicity
 _atom_site_fract_x
 _atom_site_fract_y
 _atom_site_fract_z
 _atom_site_occupancy
  Th  Th0  1  0.239553  0.476945  0.946512  1
  Th  Th1  1  0.720679  0.992389  0.951854  1
  Th  Th2  1  0.569830  0.325814  0.650965  1
  Th  Th3  1  0.426195  0.665372  0.359750  1
  Th  Th4  1  0.276948  0.026433  0.032840  1
  Th  Th5  1  0.086584  0.823224  0.640244  1
  Th  Th6  1  0.133259  0.366304  0.745053  1
  Th  Th7  1  0.913819  0.175737  0.360397  1
  Th  Th8  1  0.970335  0.721493  0.454259  1
  Th  Th9  1  0.763229  0.515330  0.050874  1
  Th  Th10  1  0.618544  0.882417  0.743879  1
  Th  Th11  1  0.818272  0.079031  0.147213  1
  Th  Th12  1  0.474899  0.224486  0.448485  1
  Th  Th13  1  0.672352  0.433814  0.851319  1
  Th  Th14  1  0.523798  0.775010  0.552885  1
  Th  Th15  1  0.327079  0.567725  0.146969  1
  Th  Th16  1  0.376760  0.125114  0.259718  1
  Th  Th17  1  0.180877  0.920973  0.852097  1
  Th  Th18  1  0.029090  0.275494  0.548270  1
  Th  Th19  1  0.876965  0.629838  0.255913  1
  C  C20  1  0.779766  0.027949  0.546490  1
  C  C21  1  0.425959  0.166112  0.859759  1
  C  C22  1  0.633519  0.382697  0.243496  1
  C  C23  1  0.280735  0.529066  0.549819  1
  C  C24  1  0.475282  0.728155  0.951827  1
  C  C25  1  0.327012  0.076607  0.651737  1
  C  C26  1  0.166616  0.418595  0.351988  1
  C  C27  1  0.976655  0.232610  0.954486  1
  C  C28  1  0.834190  0.578217  0.645525  1
  C  C29  1  0.017064  0.771703  0.049467  1
  C  C30  1  0.671569  0.921732  0.346501  1
  C  C31  1  0.722219  0.472486  0.440870  1
  C  C32  1  0.524488  0.272320  0.050660  1
  C  C33  1  0.368016  0.621792  0.754617  1
  C  C34  1  0.222305  0.971811  0.451711  1
  F  F35  1  0.072857  0.325516  0.151435  1
  F  F36  1  0.929584  0.673175  0.847496  1
  F  F37  1  0.573097  0.826514  0.152622  1
