# generated using pymatgen
data_Ba5BiPb2F
_symmetry_space_group_name_H-M   'P 1'
_cell_length_a   10.62914558
_cell_length_b   10.62914620
_cell_length_c   10.62914589
_cell_angle_alpha   128.00542021
_cell_angle_beta   128.00542434
_cell_angle_gamma   76.61623704
_symmetry_Int_Tables_number   1
_chemical_formula_structural   Ba5BiPb2F
_chemical_formula_sum   'Ba10 Bi2 Pb4 F2'
_cell_volume   724.18922249
_cell_formula_units_Z   2
loop_
 _symmetry_equiv_pos_site_id
 _symmetry_equiv_pos_as_xyz
  1  'x, y, z'
loop_
 _atom_site_type_symbol
 _atom_site_label
 _atom_site_symmetry_multiplicity
 _atom_site_fract_x
 _atom_site_fract_y
 _atom_site_fract_z
 _atom_site_occupancy
  Ba  Ba0  1  0.500000  0.500000  0.000000  1
  Ba  Ba1  1  0.000000  0.000000  0.000000  1
  Ba  Ba2  1  0.512650  0.012650  0.822074  1
  Ba  Ba3  1  0.190576  0.690576  0.177926  1
  Ba  Ba4  1  0.012650  0.190576  0.500000  1
  Ba  Ba5  1  0.690576  0.512650  0.500000  1
  Ba  Ba6  1  0.487350  0.987350  0.177926  1
  Ba  Ba7  1  0.809424  0.309424  0.822074  1
  Ba  Ba8  1  0.987350  0.809424  0.500000  1
  Ba  Ba9  1  0.309424  0.487350  0.500000  1
  Bi  Bi10  1  0.250000  0.250000  0.000000  1
  Bi  Bi11  1  0.750000  0.750000  0.000000  1
  Pb  Pb12  1  0.876356  0.376356  0.252713  1
  Pb  Pb13  1  0.123644  0.623644  0.747288  1
  Pb  Pb14  1  0.376356  0.123644  0.500000  1
  Pb  Pb15  1  0.623644  0.876356  0.500000  1
  F  F16  1  0.250000  0.750000  0.500000  1
  F  F17  1  0.750000  0.250000  0.500000  1
