# generated using pymatgen
data_LaDyHo(ZnPt)4
_symmetry_space_group_name_H-M   'P 1'
_cell_length_a   8.28680424
_cell_length_b   8.28680419
_cell_length_c   8.28680411
_cell_angle_alpha   151.77865960
_cell_angle_beta   125.67679027
_cell_angle_gamma   62.33250810
_symmetry_Int_Tables_number   1
_chemical_formula_structural   LaDyHo(ZnPt)4
_chemical_formula_sum   'La1 Dy1 Ho1 Zn4 Pt4'
_cell_volume   216.76818539
_cell_formula_units_Z   1
loop_
 _symmetry_equiv_pos_site_id
 _symmetry_equiv_pos_as_xyz
  1  'x, y, z'
loop_
 _atom_site_type_symbol
 _atom_site_label
 _atom_site_symmetry_multiplicity
 _atom_site_fract_x
 _atom_site_fract_y
 _atom_site_fract_z
 _atom_site_occupancy
  La  La0  1  0.500069  0.000069  0.500000  1
  Dy  Dy1  1  0.125319  0.125319  0.000000  1
  Ho  Ho2  1  0.874535  0.874535  0.000000  1
  Zn  Zn3  1  0.477899  0.674780  0.803118  1
  Zn  Zn4  1  0.871662  0.674780  0.196882  1
  Zn  Zn5  1  0.127892  0.325144  0.802747  1
  Zn  Zn6  1  0.522396  0.325144  0.197253  1
  Pt  Pt7  1  0.275616  0.775616  0.500000  1
  Pt  Pt8  1  0.724958  0.224958  0.500000  1
  Pt  Pt9  1  0.810613  0.499827  0.310786  1
  Pt  Pt10  1  0.189041  0.499827  0.689214  1
