# generated using pymatgen
data_In10CoAg2Ir3
_symmetry_space_group_name_H-M   'P 1'
_cell_length_a   7.07820659
_cell_length_b   7.11122403
_cell_length_c   7.07125000
_cell_angle_alpha   90.00000000
_cell_angle_beta   90.00000000
_cell_angle_gamma   89.78791034
_symmetry_Int_Tables_number   1
_chemical_formula_structural   In10CoAg2Ir3
_chemical_formula_sum   'In10 Co1 Ag2 Ir3'
_cell_volume   355.92689903
_cell_formula_units_Z   1
loop_
 _symmetry_equiv_pos_site_id
 _symmetry_equiv_pos_as_xyz
  1  'x, y, z'
loop_
 _atom_site_type_symbol
 _atom_site_label
 _atom_site_symmetry_multiplicity
 _atom_site_fract_x
 _atom_site_fract_y
 _atom_site_fract_z
 _atom_site_occupancy
  In  In0  1  0.315643  0.350111  0.258287  1
  In  In1  1  0.146775  0.825330  0.765734  1
  In  In2  1  0.146775  0.825330  0.234266  1
  In  In3  1  0.860246  0.180677  0.234422  1
  In  In4  1  0.860246  0.180677  0.765578  1
  In  In5  1  0.492199  0.007013  0.000000  1
  In  In6  1  0.678576  0.643481  0.260238  1
  In  In7  1  0.678576  0.643481  0.739762  1
  In  In8  1  0.315643  0.350111  0.741713  1
  In  In9  1  0.500586  0.999119  0.500000  1
  Co  Co10  1  0.157766  0.137598  0.000000  1
  Ag  Ag11  1  0.007192  0.495260  0.000000  1
  Ag  Ag12  1  0.000409  0.497925  0.500000  1
  Ir  Ir13  1  0.637392  0.339850  0.500000  1
  Ir  Ir14  1  0.360429  0.658961  0.500000  1
  Ir  Ir15  1  0.841548  0.865079  0.000000  1
