# generated using pymatgen
data_SmGd3(OsO4)4
_symmetry_space_group_name_H-M   'P 1'
_cell_length_a   5.43369079
_cell_length_b   7.70580051
_cell_length_c   7.50787000
_cell_angle_alpha   79.52541197
_cell_angle_beta   90.88677864
_cell_angle_gamma   93.56041371
_symmetry_Int_Tables_number   1
_chemical_formula_structural   SmGd3(OsO4)4
_chemical_formula_sum   'Sm1 Gd3 Os4 O16'
_cell_volume   308.52346468
_cell_formula_units_Z   1
loop_
 _symmetry_equiv_pos_site_id
 _symmetry_equiv_pos_as_xyz
  1  'x, y, z'
loop_
 _atom_site_type_symbol
 _atom_site_label
 _atom_site_symmetry_multiplicity
 _atom_site_fract_x
 _atom_site_fract_y
 _atom_site_fract_z
 _atom_site_occupancy
  Sm  Sm0  1  0.262070  0.625015  0.607911  1
  Gd  Gd1  1  0.194699  0.673445  0.100169  1
  Gd  Gd2  1  0.802466  0.324416  0.900198  1
  Gd  Gd3  1  0.735986  0.377859  0.392151  1
  Os  Os4  1  0.756505  0.836501  0.794373  1
  Os  Os5  1  0.715797  0.836299  0.298567  1
  Os  Os6  1  0.284160  0.163974  0.700540  1
  Os  Os7  1  0.243692  0.163521  0.206382  1
  O  O8  1  0.062603  0.961629  0.709031  1
  O  O9  1  0.407866  0.941491  0.205376  1
  O  O10  1  0.628248  0.826549  0.550669  1
  O  O11  1  0.839864  0.829550  0.052581  1
  O  O12  1  0.454726  0.701788  0.869709  1
  O  O13  1  0.944748  0.613384  0.826596  1
  O  O14  1  0.972902  0.663935  0.376873  1
  O  O15  1  0.494290  0.612262  0.320286  1
  O  O16  1  0.505538  0.388573  0.678023  1
  O  O17  1  0.023672  0.333417  0.621140  1
  O  O18  1  0.052604  0.384550  0.177059  1
  O  O19  1  0.545442  0.300410  0.132671  1
  O  O20  1  0.162924  0.174284  0.946283  1
  O  O21  1  0.374538  0.172492  0.449397  1
  O  O22  1  0.593492  0.059192  0.794051  1
  O  O23  1  0.941166  0.035465  0.289963  1
