# generated using pymatgen
data_Hf2MnZnCo8
_symmetry_space_group_name_H-M   'P 1'
_cell_length_a   4.77033471
_cell_length_b   4.77033504
_cell_length_c   8.26014226
_cell_angle_alpha   106.78350487
_cell_angle_beta   73.21648541
_cell_angle_gamma   120.00001179
_symmetry_Int_Tables_number   1
_chemical_formula_structural   Hf2MnZnCo8
_chemical_formula_sum   'Hf2 Mn1 Zn1 Co8'
_cell_volume   153.47029429
_cell_formula_units_Z   1
loop_
 _symmetry_equiv_pos_site_id
 _symmetry_equiv_pos_as_xyz
  1  'x, y, z'
loop_
 _atom_site_type_symbol
 _atom_site_label
 _atom_site_symmetry_multiplicity
 _atom_site_fract_x
 _atom_site_fract_y
 _atom_site_fract_z
 _atom_site_occupancy
  Hf  Hf0  1  0.999965  0.000035  0.000102  1
  Hf  Hf1  1  0.499907  0.500093  0.500276  1
  Mn  Mn2  1  0.874609  0.125391  0.376173  1
  Zn  Zn3  1  0.374955  0.625045  0.875135  1
  Co  Co4  1  0.436517  0.563483  0.188397  1
  Co  Co5  1  0.937044  0.062956  0.686686  1
  Co  Co6  1  0.436517  0.061433  0.188397  1
  Co  Co7  1  0.937044  0.560775  0.686686  1
  Co  Co8  1  0.187861  0.812139  0.436417  1
  Co  Co9  1  0.687784  0.312216  0.936648  1
  Co  Co10  1  0.938567  0.563483  0.188397  1
  Co  Co11  1  0.439225  0.062956  0.686686  1
