# generated using pymatgen
data_CaLu3(Rh2O7)2
_symmetry_space_group_name_H-M   'P 1'
_cell_length_a   7.15650600
_cell_length_b   7.16610648
_cell_length_c   7.15650600
_cell_angle_alpha   60.04430725
_cell_angle_beta   60.00000001
_cell_angle_gamma   60.04430991
_symmetry_Int_Tables_number   1
_chemical_formula_structural   CaLu3(Rh2O7)2
_chemical_formula_sum   'Ca1 Lu3 Rh4 O14'
_cell_volume   259.69337566
_cell_formula_units_Z   1
loop_
 _symmetry_equiv_pos_site_id
 _symmetry_equiv_pos_as_xyz
  1  'x, y, z'
loop_
 _atom_site_type_symbol
 _atom_site_label
 _atom_site_symmetry_multiplicity
 _atom_site_fract_x
 _atom_site_fract_y
 _atom_site_fract_z
 _atom_site_occupancy
  Ca  Ca0  1  0.625000  0.125000  0.625000  1
  Lu  Lu1  1  0.625000  0.625000  0.125000  1
  Lu  Lu2  1  0.625000  0.625000  0.625000  1
  Lu  Lu3  1  0.125000  0.625000  0.625000  1
  Rh  Rh4  1  0.125000  0.125000  0.125000  1
  Rh  Rh5  1  0.625000  0.125000  0.125000  1
  Rh  Rh6  1  0.125000  0.125000  0.625000  1
  Rh  Rh7  1  0.125000  0.625000  0.125000  1
  O  O8  1  0.038307  0.462787  0.460599  1
  O  O9  1  0.789401  0.787213  0.211693  1
  O  O10  1  0.790368  0.221869  0.197396  1
  O  O11  1  0.459632  0.028131  0.459632  1
  O  O12  1  0.754989  0.735032  0.754989  1
  O  O13  1  0.038307  0.462787  0.038307  1
  O  O14  1  0.052604  0.028131  0.459632  1
  O  O15  1  0.211693  0.787213  0.211693  1
  O  O16  1  0.197396  0.221869  0.790368  1
  O  O17  1  0.790368  0.221869  0.790368  1
  O  O18  1  0.495011  0.514968  0.495011  1
  O  O19  1  0.459632  0.028131  0.052604  1
  O  O20  1  0.460599  0.462787  0.038307  1
  O  O21  1  0.211693  0.787213  0.789401  1
