# generated using pymatgen
data_Lu4VTcOs6
_symmetry_space_group_name_H-M   'P 1'
_cell_length_a   5.23948528
_cell_length_b   5.37280377
_cell_length_c   8.81852200
_cell_angle_alpha   90.00000000
_cell_angle_beta   90.00000000
_cell_angle_gamma   121.72810512
_symmetry_Int_Tables_number   1
_chemical_formula_structural   Lu4VTcOs6
_chemical_formula_sum   'Lu4 V1 Tc1 Os6'
_cell_volume   211.14797194
_cell_formula_units_Z   1
loop_
 _symmetry_equiv_pos_site_id
 _symmetry_equiv_pos_as_xyz
  1  'x, y, z'
loop_
 _atom_site_type_symbol
 _atom_site_label
 _atom_site_symmetry_multiplicity
 _atom_site_fract_x
 _atom_site_fract_y
 _atom_site_fract_z
 _atom_site_occupancy
  Lu  Lu0  1  0.337540  0.667902  0.436237  1
  Lu  Lu1  1  0.663648  0.333980  0.564852  1
  Lu  Lu2  1  0.663648  0.333980  0.935148  1
  Lu  Lu3  1  0.337540  0.667902  0.063763  1
  V  V4  1  0.333280  0.163665  0.250000  1
  Tc  Tc5  1  0.171260  0.344636  0.750000  1
  Os  Os6  1  0.172062  0.826279  0.750000  1
  Os  Os7  1  0.822153  0.646724  0.250000  1
  Os  Os8  1  0.658968  0.828568  0.750000  1
  Os  Os9  1  0.007241  0.007047  0.002403  1
  Os  Os10  1  0.825422  0.172270  0.250000  1
  Os  Os11  1  0.007241  0.007047  0.497597  1
