# generated using pymatgen
data_CaBMoO4
_symmetry_space_group_name_H-M   'P 1'
_cell_length_a   3.45036500
_cell_length_b   9.63767500
_cell_length_c   10.37950700
_cell_angle_alpha   90.00000000
_cell_angle_beta   90.00000000
_cell_angle_gamma   90.00000000
_symmetry_Int_Tables_number   1
_chemical_formula_structural   CaBMoO4
_chemical_formula_sum   'Ca4 B4 Mo4 O16'
_cell_volume   345.15489971
_cell_formula_units_Z   4
loop_
 _symmetry_equiv_pos_site_id
 _symmetry_equiv_pos_as_xyz
  1  'x, y, z'
loop_
 _atom_site_type_symbol
 _atom_site_label
 _atom_site_symmetry_multiplicity
 _atom_site_fract_x
 _atom_site_fract_y
 _atom_site_fract_z
 _atom_site_occupancy
  Ca  Ca0  1  0.250000  0.663247  0.084932  1
  Ca  Ca1  1  0.750000  0.336753  0.915068  1
  Ca  Ca2  1  0.750000  0.163247  0.415068  1
  Ca  Ca3  1  0.250000  0.836753  0.584932  1
  B  B4  1  0.250000  0.366844  0.189388  1
  B  B5  1  0.750000  0.633156  0.810612  1
  B  B6  1  0.750000  0.866844  0.310612  1
  B  B7  1  0.250000  0.133156  0.689388  1
  Mo  Mo8  1  0.250000  0.061608  0.119941  1
  Mo  Mo9  1  0.750000  0.938392  0.880059  1
  Mo  Mo10  1  0.750000  0.561608  0.380059  1
  Mo  Mo11  1  0.250000  0.438392  0.619941  1
  O  O12  1  0.250000  0.491965  0.261195  1
  O  O13  1  0.750000  0.508035  0.738805  1
  O  O14  1  0.750000  0.991965  0.238805  1
  O  O15  1  0.250000  0.008035  0.761195  1
  O  O16  1  0.250000  0.240367  0.253284  1
  O  O17  1  0.750000  0.759633  0.746716  1
  O  O18  1  0.750000  0.740367  0.246716  1
  O  O19  1  0.250000  0.259633  0.753284  1
  O  O20  1  0.250000  0.381374  0.058345  1
  O  O21  1  0.750000  0.618626  0.941655  1
  O  O22  1  0.750000  0.881374  0.441655  1
  O  O23  1  0.250000  0.118626  0.558345  1
  O  O24  1  0.250000  0.616364  0.496098  1
  O  O25  1  0.750000  0.383636  0.503902  1
  O  O26  1  0.750000  0.116364  0.003902  1
  O  O27  1  0.250000  0.883636  0.996098  1
