# generated using pymatgen
data_CeTm3As6Ru7
_symmetry_space_group_name_H-M   'P 1'
_cell_length_a   7.22415060
_cell_length_b   7.21037073
_cell_length_c   7.22414993
_cell_angle_alpha   109.43258699
_cell_angle_beta   109.50983129
_cell_angle_gamma   109.43259202
_symmetry_Int_Tables_number   1
_chemical_formula_structural   CeTm3As6Ru7
_chemical_formula_sum   'Ce1 Tm3 As6 Ru7'
_cell_volume   289.81178391
_cell_formula_units_Z   1
loop_
 _symmetry_equiv_pos_site_id
 _symmetry_equiv_pos_as_xyz
  1  'x, y, z'
loop_
 _atom_site_type_symbol
 _atom_site_label
 _atom_site_symmetry_multiplicity
 _atom_site_fract_x
 _atom_site_fract_y
 _atom_site_fract_z
 _atom_site_occupancy
  Ce  Ce0  1  0.000000  0.500000  0.000000  1
  Tm  Tm1  1  0.000000  0.000000  0.500000  1
  Tm  Tm2  1  0.500000  0.000000  0.000000  1
  Tm  Tm3  1  0.500000  0.500000  0.500000  1
  As  As4  1  0.318467  0.004955  0.318467  1
  As  As5  1  0.000000  0.313512  0.318467  1
  As  As6  1  0.000000  0.686488  0.681533  1
  As  As7  1  0.318467  0.313512  0.000000  1
  As  As8  1  0.681533  0.686488  0.000000  1
  As  As9  1  0.681533  0.995045  0.681533  1
  Ru  Ru10  1  0.750423  0.500000  0.249577  1
  Ru  Ru11  1  0.499154  0.749577  0.249577  1
  Ru  Ru12  1  0.500846  0.250423  0.750423  1
  Ru  Ru13  1  0.750423  0.250423  0.500846  1
  Ru  Ru14  1  0.249577  0.749577  0.499154  1
  Ru  Ru15  1  0.249577  0.500000  0.750423  1
  Ru  Ru16  1  0.000000  0.000000  0.000000  1
