# generated using pymatgen
data_LaSmCoNiO6
_symmetry_space_group_name_H-M   'P 1'
_cell_length_a   5.42706239
_cell_length_b   5.53201100
_cell_length_c   7.70626323
_cell_angle_alpha   90.00000000
_cell_angle_beta   89.90526853
_cell_angle_gamma   90.00000000
_symmetry_Int_Tables_number   1
_chemical_formula_structural   LaSmCoNiO6
_chemical_formula_sum   'La2 Sm2 Co2 Ni2 O12'
_cell_volume   231.36150208
_cell_formula_units_Z   2
loop_
 _symmetry_equiv_pos_site_id
 _symmetry_equiv_pos_as_xyz
  1  'x, y, z'
loop_
 _atom_site_type_symbol
 _atom_site_label
 _atom_site_symmetry_multiplicity
 _atom_site_fract_x
 _atom_site_fract_y
 _atom_site_fract_z
 _atom_site_occupancy
  La  La0  1  0.508570  0.540787  0.249737  1
  La  La1  1  0.991430  0.040787  0.250263  1
  Sm  Sm2  1  0.487330  0.446099  0.750829  1
  Sm  Sm3  1  0.012670  0.946099  0.749171  1
  Co  Co4  1  0.503234  0.000387  0.504739  1
  Co  Co5  1  0.996766  0.500387  0.995261  1
  Ni  Ni6  1  0.499509  0.998218  0.996973  1
  Ni  Ni7  1  0.000491  0.498218  0.503027  1
  O  O8  1  0.429072  0.985915  0.260057  1
  O  O9  1  0.070928  0.485915  0.239943  1
  O  O10  1  0.587151  0.022985  0.741667  1
  O  O11  1  0.912849  0.522985  0.758333  1
  O  O12  1  0.801253  0.782990  0.036607  1
  O  O13  1  0.698747  0.282990  0.463393  1
  O  O14  1  0.221549  0.202966  0.548613  1
  O  O15  1  0.278451  0.702966  0.951387  1
  O  O16  1  0.199283  0.219733  0.950704  1
  O  O17  1  0.300717  0.719733  0.549296  1
  O  O18  1  0.783615  0.799918  0.465384  1
  O  O19  1  0.716385  0.299918  0.034616  1
