# generated using pymatgen
data_Er14Tm6Sn3Pb13
_symmetry_space_group_name_H-M   'P 1'
_cell_length_a   8.13036603
_cell_length_b   8.17433894
_cell_length_c   15.47754501
_cell_angle_alpha   90.00319948
_cell_angle_beta   89.99905758
_cell_angle_gamma   89.81879339
_symmetry_Int_Tables_number   1
_chemical_formula_structural   Er14Tm6Sn3Pb13
_chemical_formula_sum   'Er14 Tm6 Sn3 Pb13'
_cell_volume   1028.63818468
_cell_formula_units_Z   1
loop_
 _symmetry_equiv_pos_site_id
 _symmetry_equiv_pos_as_xyz
  1  'x, y, z'
loop_
 _atom_site_type_symbol
 _atom_site_label
 _atom_site_symmetry_multiplicity
 _atom_site_fract_x
 _atom_site_fract_y
 _atom_site_fract_z
 _atom_site_occupancy
  Er  Er0  1  0.618598  0.161762  0.377708  1
  Er  Er1  1  0.123341  0.340799  0.121236  1
  Er  Er2  1  0.618594  0.161792  0.122312  1
  Er  Er3  1  0.123356  0.340787  0.378764  1
  Er  Er4  1  0.379506  0.838907  0.623426  1
  Er  Er5  1  0.878847  0.661692  0.876628  1
  Er  Er6  1  0.538213  0.327375  0.898300  1
  Er  Er7  1  0.037721  0.172219  0.601716  1
  Er  Er8  1  0.462328  0.672226  0.399551  1
  Er  Er9  1  0.962182  0.824179  0.099886  1
  Er  Er10  1  0.462323  0.672230  0.100422  1
  Er  Er11  1  0.962177  0.824176  0.400148  1
  Er  Er12  1  0.538226  0.327407  0.601701  1
  Er  Er13  1  0.037731  0.172206  0.898267  1
  Tm  Tm14  1  0.379496  0.838904  0.876530  1
  Tm  Tm15  1  0.878832  0.661709  0.623408  1
  Tm  Tm16  1  0.211246  0.507691  0.750004  1
  Tm  Tm17  1  0.711449  0.992594  0.750001  1
  Tm  Tm18  1  0.787604  0.494417  0.250000  1
  Tm  Tm19  1  0.290794  0.006641  0.249999  1
  Sn  Sn20  1  0.574654  0.624217  0.750010  1
  Sn  Sn21  1  0.074352  0.875765  0.749991  1
  Sn  Sn22  1  0.425135  0.375846  0.250002  1
  Pb  Pb23  1  0.281468  0.031722  0.041566  1
  Pb  Pb24  1  0.781933  0.467222  0.458604  1
  Pb  Pb25  1  0.717873  0.967850  0.541923  1
  Pb  Pb26  1  0.218035  0.533036  0.957317  1
  Pb  Pb27  1  0.717728  0.967928  0.958072  1
  Pb  Pb28  1  0.217910  0.532982  0.542682  1
  Pb  Pb29  1  0.281427  0.031783  0.458382  1
  Pb  Pb30  1  0.781895  0.467162  0.041444  1
  Pb  Pb31  1  0.926898  0.125342  0.249995  1
  Pb  Pb32  1  0.349234  0.153604  0.750026  1
  Pb  Pb33  1  0.848341  0.346842  0.749981  1
  Pb  Pb34  1  0.649992  0.845413  0.250000  1
  Pb  Pb35  1  0.150560  0.653578  0.249998  1
