# generated using pymatgen
data_Tm6Sn2BRh12C
_symmetry_space_group_name_H-M   'P 1'
_cell_length_a   5.75942300
_cell_length_b   5.75942307
_cell_length_c   13.75746300
_cell_angle_alpha   90.00000000
_cell_angle_beta   90.00000000
_cell_angle_gamma   119.99999385
_symmetry_Int_Tables_number   1
_chemical_formula_structural   Tm6Sn2BRh12C
_chemical_formula_sum   'Tm6 Sn2 B1 Rh12 C1'
_cell_volume   395.20913117
_cell_formula_units_Z   1
loop_
 _symmetry_equiv_pos_site_id
 _symmetry_equiv_pos_as_xyz
  1  'x, y, z'
loop_
 _atom_site_type_symbol
 _atom_site_label
 _atom_site_symmetry_multiplicity
 _atom_site_fract_x
 _atom_site_fract_y
 _atom_site_fract_z
 _atom_site_occupancy
  Tm  Tm0  1  0.000000  0.000000  0.751521  1
  Tm  Tm1  1  0.000000  0.000000  0.248479  1
  Tm  Tm2  1  0.333333  0.666667  0.409471  1
  Tm  Tm3  1  0.666667  0.333333  0.912874  1
  Tm  Tm4  1  0.666667  0.333333  0.590529  1
  Tm  Tm5  1  0.333333  0.666667  0.087126  1
  Sn  Sn6  1  0.333333  0.666667  0.748608  1
  Sn  Sn7  1  0.666667  0.333333  0.251392  1
  B  B8  1  0.000000  0.000000  0.000000  1
  Rh  Rh9  1  0.340031  0.170016  0.414617  1
  Rh  Rh10  1  0.829984  0.170016  0.414617  1
  Rh  Rh11  1  0.829984  0.659969  0.414617  1
  Rh  Rh12  1  0.172114  0.344228  0.912483  1
  Rh  Rh13  1  0.659969  0.829984  0.585383  1
  Rh  Rh14  1  0.655772  0.827886  0.912483  1
  Rh  Rh15  1  0.344228  0.172114  0.087517  1
  Rh  Rh16  1  0.170016  0.340031  0.585383  1
  Rh  Rh17  1  0.170016  0.829984  0.585383  1
  Rh  Rh18  1  0.827886  0.172114  0.087517  1
  Rh  Rh19  1  0.827886  0.655772  0.087517  1
  Rh  Rh20  1  0.172114  0.827886  0.912483  1
  C  C21  1  0.000000  0.000000  0.500000  1
