# generated using pymatgen
data_Tb2Lu2Al17SiIr6
_symmetry_space_group_name_H-M   'P 1'
_cell_length_a   7.54370891
_cell_length_b   7.54370815
_cell_length_c   9.39210100
_cell_angle_alpha   90.00000000
_cell_angle_beta   90.00000000
_cell_angle_gamma   119.66431272
_symmetry_Int_Tables_number   1
_chemical_formula_structural   Tb2Lu2Al17SiIr6
_chemical_formula_sum   'Tb2 Lu2 Al17 Si1 Ir6'
_cell_volume   464.43219453
_cell_formula_units_Z   1
loop_
 _symmetry_equiv_pos_site_id
 _symmetry_equiv_pos_as_xyz
  1  'x, y, z'
loop_
 _atom_site_type_symbol
 _atom_site_label
 _atom_site_symmetry_multiplicity
 _atom_site_fract_x
 _atom_site_fract_y
 _atom_site_fract_z
 _atom_site_occupancy
  Tb  Tb0  1  0.003443  0.330024  0.750000  1
  Tb  Tb1  1  0.330024  0.003443  0.750000  1
  Lu  Lu2  1  0.994360  0.675829  0.250000  1
  Lu  Lu3  1  0.675829  0.994360  0.250000  1
  Al  Al4  1  0.873567  0.873567  0.750000  1
  Al  Al5  1  0.000238  0.336882  0.078578  1
  Al  Al6  1  0.998282  0.665572  0.926655  1
  Al  Al7  1  0.998282  0.665572  0.573345  1
  Al  Al8  1  0.336882  0.000238  0.421422  1
  Al  Al9  1  0.000238  0.336882  0.421422  1
  Al  Al10  1  0.665572  0.998282  0.573345  1
  Al  Al11  1  0.665572  0.998282  0.926655  1
  Al  Al12  1  0.336882  0.000238  0.078578  1
  Al  Al13  1  0.333234  0.333234  0.555746  1
  Al  Al14  1  0.664322  0.664322  0.445379  1
  Al  Al15  1  0.664322  0.664322  0.054621  1
  Al  Al16  1  0.333234  0.333234  0.944254  1
  Al  Al17  1  0.336787  0.549638  0.250000  1
  Al  Al18  1  0.661332  0.452631  0.750000  1
  Al  Al19  1  0.549638  0.336787  0.250000  1
  Al  Al20  1  0.452631  0.661332  0.750000  1
  Si  Si21  1  0.130392  0.130392  0.250000  1
  Ir  Ir22  1  0.670963  0.327005  0.001475  1
  Ir  Ir23  1  0.327005  0.670963  0.001475  1
  Ir  Ir24  1  0.327005  0.670963  0.498525  1
  Ir  Ir25  1  0.670963  0.327005  0.498525  1
  Ir  Ir26  1  0.999501  0.999501  0.008848  1
  Ir  Ir27  1  0.999501  0.999501  0.491152  1
