# generated using pymatgen
data_Tm3Lu3Si10
_symmetry_space_group_name_H-M   'P 1'
_cell_length_a   6.54786949
_cell_length_b   6.54637117
_cell_length_c   8.16929277
_cell_angle_alpha   89.99701951
_cell_angle_beta   89.95836521
_cell_angle_gamma   120.02202580
_symmetry_Int_Tables_number   1
_chemical_formula_structural   Tm3Lu3Si10
_chemical_formula_sum   'Tm3 Lu3 Si10'
_cell_volume   303.19297499
_cell_formula_units_Z   1
loop_
 _symmetry_equiv_pos_site_id
 _symmetry_equiv_pos_as_xyz
  1  'x, y, z'
loop_
 _atom_site_type_symbol
 _atom_site_label
 _atom_site_symmetry_multiplicity
 _atom_site_fract_x
 _atom_site_fract_y
 _atom_site_fract_z
 _atom_site_occupancy
  Tm  Tm0  1  0.330569  0.000030  0.999991  1
  Tm  Tm1  1  0.330516  0.999977  0.499998  1
  Tm  Tm2  1  0.999992  0.330507  0.499997  1
  Lu  Lu3  1  0.999996  0.330659  0.000015  1
  Lu  Lu4  1  0.669337  0.669376  0.999996  1
  Lu  Lu5  1  0.669388  0.669372  0.500009  1
  Si  Si6  1  0.395388  0.332072  0.249925  1
  Si  Si7  1  0.669144  0.063774  0.249589  1
  Si  Si8  1  0.935764  0.604944  0.249670  1
  Si  Si9  1  0.605334  0.935751  0.750078  1
  Si  Si10  1  0.999588  0.999879  0.249743  1
  Si  Si11  1  0.666873  0.333697  0.750250  1
  Si  Si12  1  0.063314  0.668314  0.750329  1
  Si  Si13  1  0.331645  0.395406  0.750402  1
  Si  Si14  1  0.333548  0.666520  0.249746  1
  Si  Si15  1  0.999603  0.999721  0.750260  1
