# generated using pymatgen
data_TbDy3Er2(Si3Ru)8
_symmetry_space_group_name_H-M   'P 1'
_cell_length_a   10.11014175
_cell_length_b   10.11014147
_cell_length_c   8.13304900
_cell_angle_alpha   90.08208565
_cell_angle_beta   89.91791172
_cell_angle_gamma   132.57074865
_symmetry_Int_Tables_number   1
_chemical_formula_structural   TbDy3Er2(Si3Ru)8
_chemical_formula_sum   'Tb1 Dy3 Er2 Si24 Ru8'
_cell_volume   612.21816649
_cell_formula_units_Z   1
loop_
 _symmetry_equiv_pos_site_id
 _symmetry_equiv_pos_as_xyz
  1  'x, y, z'
loop_
 _atom_site_type_symbol
 _atom_site_label
 _atom_site_symmetry_multiplicity
 _atom_site_fract_x
 _atom_site_fract_y
 _atom_site_fract_z
 _atom_site_occupancy
  Tb  Tb0  1  0.497592  0.997592  0.250000  1
  Dy  Dy1  1  0.002054  0.502054  0.750000  1
  Dy  Dy2  1  0.502415  0.002415  0.750000  1
  Dy  Dy3  1  0.997295  0.497295  0.250000  1
  Er  Er4  1  0.499966  0.499926  0.500040  1
  Er  Er5  1  0.999926  0.999966  0.999960  1
  Si  Si6  1  0.387204  0.152910  0.004440  1
  Si  Si7  1  0.652910  0.887204  0.495560  1
  Si  Si8  1  0.110724  0.343146  0.503347  1
  Si  Si9  1  0.843146  0.610724  0.996653  1
  Si  Si10  1  0.613013  0.847736  0.993565  1
  Si  Si11  1  0.347736  0.113013  0.506435  1
  Si  Si12  1  0.889176  0.656665  0.495385  1
  Si  Si13  1  0.156665  0.389176  0.004615  1
  Si  Si14  1  0.612570  0.378067  0.228528  1
  Si  Si15  1  0.878067  0.112570  0.271472  1
  Si  Si16  1  0.886240  0.120025  0.728057  1
  Si  Si17  1  0.620025  0.386240  0.771943  1
  Si  Si18  1  0.388989  0.623074  0.771898  1
  Si  Si19  1  0.123074  0.888989  0.728102  1
  Si  Si20  1  0.704356  0.293808  0.999692  1
  Si  Si21  1  0.793808  0.204356  0.500308  1
  Si  Si22  1  0.295560  0.706090  0.000043  1
  Si  Si23  1  0.206090  0.795560  0.499957  1
  Si  Si24  1  0.168344  0.166787  0.332969  1
  Si  Si25  1  0.666787  0.668344  0.167031  1
  Si  Si26  1  0.332492  0.332351  0.833164  1
  Si  Si27  1  0.832351  0.832492  0.666836  1
  Si  Si28  1  0.378209  0.612573  0.229165  1
  Si  Si29  1  0.112573  0.878209  0.270835  1
  Ru  Ru30  1  0.626231  0.626364  0.873052  1
  Ru  Ru31  1  0.126364  0.126231  0.626948  1
  Ru  Ru32  1  0.873529  0.874243  0.372740  1
  Ru  Ru33  1  0.374243  0.373529  0.127260  1
  Ru  Ru34  1  0.327771  0.665648  0.501257  1
  Ru  Ru35  1  0.165648  0.827771  0.998743  1
  Ru  Ru36  1  0.672325  0.334531  0.500490  1
  Ru  Ru37  1  0.834531  0.172325  0.999510  1
