# generated using pymatgen
data_Ho3Tm7Cd2(In4Ir)2
_symmetry_space_group_name_H-M   'P 1'
_cell_length_a   3.60229600
_cell_length_b   8.25850955
_cell_length_c   18.41371400
_cell_angle_alpha   90.52647895
_cell_angle_beta   90.00000000
_cell_angle_gamma   90.00000000
_symmetry_Int_Tables_number   1
_chemical_formula_structural   Ho3Tm7Cd2(In4Ir)2
_chemical_formula_sum   'Ho3 Tm7 Cd2 In8 Ir2'
_cell_volume   547.77742490
_cell_formula_units_Z   1
loop_
 _symmetry_equiv_pos_site_id
 _symmetry_equiv_pos_as_xyz
  1  'x, y, z'
loop_
 _atom_site_type_symbol
 _atom_site_label
 _atom_site_symmetry_multiplicity
 _atom_site_fract_x
 _atom_site_fract_y
 _atom_site_fract_z
 _atom_site_occupancy
  Ho  Ho0  1  0.000000  0.765453  0.288149  1
  Ho  Ho1  1  0.000000  0.999614  0.999563  1
  Ho  Ho2  1  0.000000  0.500466  0.499899  1
  Tm  Tm3  1  0.000000  0.115586  0.415365  1
  Tm  Tm4  1  0.000000  0.885492  0.585268  1
  Tm  Tm5  1  0.000000  0.376603  0.924268  1
  Tm  Tm6  1  0.000000  0.622949  0.075273  1
  Tm  Tm7  1  0.000000  0.203055  0.224152  1
  Tm  Tm8  1  0.000000  0.796734  0.775874  1
  Tm  Tm9  1  0.000000  0.233219  0.712249  1
  Cd  Cd10  1  0.500000  0.480354  0.799465  1
  Cd  Cd11  1  0.500000  0.517808  0.199827  1
  In  In12  1  0.500000  0.414344  0.352952  1
  In  In13  1  0.500000  0.584703  0.647066  1
  In  In14  1  0.500000  0.088599  0.851003  1
  In  In15  1  0.500000  0.911903  0.148350  1
  In  In16  1  0.500000  0.289292  0.070053  1
  In  In17  1  0.500000  0.709358  0.929219  1
  In  In18  1  0.500000  0.204903  0.564524  1
  In  In19  1  0.500000  0.797603  0.436917  1
  Ir  Ir20  1  0.500000  0.022461  0.306891  1
  Ir  Ir21  1  0.500000  0.979500  0.693674  1
