# generated using pymatgen
data_Dy6Al21Co3Si3Os5
_symmetry_space_group_name_H-M   'P 1'
_cell_length_a   8.66504869
_cell_length_b   8.69944395
_cell_length_c   9.47126595
_cell_angle_alpha   89.99999924
_cell_angle_beta   89.78607505
_cell_angle_gamma   120.13138603
_symmetry_Int_Tables_number   1
_chemical_formula_structural   Dy6Al21Co3Si3Os5
_chemical_formula_sum   'Dy6 Al21 Co3 Si3 Os5'
_cell_volume   617.47676161
_cell_formula_units_Z   1
loop_
 _symmetry_equiv_pos_site_id
 _symmetry_equiv_pos_as_xyz
  1  'x, y, z'
loop_
 _atom_site_type_symbol
 _atom_site_label
 _atom_site_symmetry_multiplicity
 _atom_site_fract_x
 _atom_site_fract_y
 _atom_site_fract_z
 _atom_site_occupancy
  Dy  Dy0  1  0.197506  0.390047  0.250036  1
  Dy  Dy1  1  0.802463  0.609644  0.750683  1
  Dy  Dy2  1  0.608219  0.804110  0.248317  1
  Dy  Dy3  1  0.391912  0.195956  0.752343  1
  Dy  Dy4  1  0.197506  0.807459  0.250036  1
  Dy  Dy5  1  0.802463  0.192818  0.750683  1
  Al  Al6  1  0.333339  0.666670  0.482535  1
  Al  Al7  1  0.159269  0.320536  0.575149  1
  Al  Al8  1  0.839839  0.677693  0.422995  1
  Al  Al9  1  0.679476  0.839739  0.573802  1
  Al  Al10  1  0.840941  0.677150  0.075797  1
  Al  Al11  1  0.322637  0.161318  0.424349  1
  Al  Al12  1  0.159042  0.323556  0.923500  1
  Al  Al13  1  0.159269  0.838733  0.575149  1
  Al  Al14  1  0.323009  0.161504  0.076395  1
  Al  Al15  1  0.839839  0.162146  0.422995  1
  Al  Al16  1  0.676373  0.838187  0.922863  1
  Al  Al17  1  0.840941  0.163789  0.075797  1
  Al  Al18  1  0.159042  0.835488  0.923500  1
  Al  Al19  1  0.565533  0.128632  0.248482  1
  Al  Al20  1  0.435204  0.872714  0.748583  1
  Al  Al21  1  0.878079  0.439040  0.243994  1
  Al  Al22  1  0.121018  0.560508  0.752828  1
  Al  Al23  1  0.565533  0.436902  0.248482  1
  Al  Al24  1  0.435204  0.562490  0.748583  1
  Al  Al25  1  0.000692  0.000346  0.249777  1
  Al  Al26  1  0.999411  0.999705  0.749548  1
  Co  Co27  1  0.000684  0.500342  0.998478  1
  Co  Co28  1  0.999887  0.999944  0.999522  1
  Co  Co29  1  0.000032  0.000016  0.499422  1
  Si  Si30  1  0.327857  0.663929  0.036210  1
  Si  Si31  1  0.671709  0.335854  0.965157  1
  Si  Si32  1  0.666560  0.333280  0.534893  1
  Os  Os33  1  0.499654  0.999505  0.998693  1
  Os  Os34  1  0.504209  0.008375  0.500616  1
  Os  Os35  1  0.499654  0.500150  0.998693  1
  Os  Os36  1  0.991783  0.495891  0.500501  1
  Os  Os37  1  0.504209  0.495833  0.500616  1
