# generated using pymatgen
data_Gd6LuVO12
_symmetry_space_group_name_H-M   'P 1'
_cell_length_a   6.71017285
_cell_length_b   6.71017366
_cell_length_c   6.71017278
_cell_angle_alpha   93.34192195
_cell_angle_beta   93.34192692
_cell_angle_gamma   93.34192239
_symmetry_Int_Tables_number   1
_chemical_formula_structural   Gd6LuVO12
_chemical_formula_sum   'Gd6 Lu1 V1 O12'
_cell_volume   300.53088502
_cell_formula_units_Z   1
loop_
 _symmetry_equiv_pos_site_id
 _symmetry_equiv_pos_as_xyz
  1  'x, y, z'
loop_
 _atom_site_type_symbol
 _atom_site_label
 _atom_site_symmetry_multiplicity
 _atom_site_fract_x
 _atom_site_fract_y
 _atom_site_fract_z
 _atom_site_occupancy
  Gd  Gd0  1  0.740100  0.924525  0.435123  1
  Gd  Gd1  1  0.435123  0.740100  0.924525  1
  Gd  Gd2  1  0.075475  0.564877  0.259900  1
  Gd  Gd3  1  0.924525  0.435123  0.740100  1
  Gd  Gd4  1  0.564877  0.259900  0.075475  1
  Gd  Gd5  1  0.259900  0.075475  0.564877  1
  Lu  Lu6  1  0.000000  0.000000  0.000000  1
  V  V7  1  0.500000  0.500000  0.500000  1
  O  O8  1  0.066371  0.913798  0.311571  1
  O  O9  1  0.688429  0.933629  0.086202  1
  O  O10  1  0.459428  0.797199  0.586611  1
  O  O11  1  0.086202  0.688429  0.933629  1
  O  O12  1  0.797199  0.586611  0.459428  1
  O  O13  1  0.413389  0.540572  0.202801  1
  O  O14  1  0.586611  0.459428  0.797199  1
  O  O15  1  0.202801  0.413389  0.540572  1
  O  O16  1  0.913798  0.311571  0.066371  1
  O  O17  1  0.540572  0.202801  0.413389  1
  O  O18  1  0.311571  0.066371  0.913798  1
  O  O19  1  0.933629  0.086202  0.688429  1
