# generated using pymatgen
data_Zr8In4CuRh2Au5
_symmetry_space_group_name_H-M   'P 1'
_cell_length_a   7.55911875
_cell_length_b   7.55911977
_cell_length_c   7.05869004
_cell_angle_alpha   90.06780970
_cell_angle_beta   90.06781099
_cell_angle_gamma   90.75037610
_symmetry_Int_Tables_number   1
_chemical_formula_structural   Zr8In4CuRh2Au5
_chemical_formula_sum   'Zr8 In4 Cu1 Rh2 Au5'
_cell_volume   403.30039171
_cell_formula_units_Z   1
loop_
 _symmetry_equiv_pos_site_id
 _symmetry_equiv_pos_as_xyz
  1  'x, y, z'
loop_
 _atom_site_type_symbol
 _atom_site_label
 _atom_site_symmetry_multiplicity
 _atom_site_fract_x
 _atom_site_fract_y
 _atom_site_fract_z
 _atom_site_occupancy
  Zr  Zr0  1  0.150883  0.150883  0.010618  1
  Zr  Zr1  1  0.841713  0.841713  0.994136  1
  Zr  Zr2  1  0.644458  0.358388  0.496108  1
  Zr  Zr3  1  0.358388  0.644458  0.496108  1
  Zr  Zr4  1  0.684486  0.323196  0.002734  1
  Zr  Zr5  1  0.323196  0.684486  0.002734  1
  Zr  Zr6  1  0.797131  0.797131  0.502252  1
  Zr  Zr7  1  0.200610  0.200610  0.490642  1
  In  In8  1  0.501725  0.002492  0.246918  1
  In  In9  1  0.500005  0.993752  0.752461  1
  In  In10  1  0.002492  0.501725  0.246918  1
  In  In11  1  0.993752  0.500005  0.752461  1
  Cu  Cu12  1  0.629251  0.629251  0.202970  1
  Rh  Rh13  1  0.376980  0.376980  0.219493  1
  Rh  Rh14  1  0.630145  0.630145  0.782214  1
  Au  Au15  1  0.869602  0.130181  0.710030  1
  Au  Au16  1  0.868193  0.128273  0.291997  1
  Au  Au17  1  0.368534  0.368534  0.797177  1
  Au  Au18  1  0.128273  0.868193  0.291997  1
  Au  Au19  1  0.130181  0.869602  0.710030  1
