# generated using pymatgen
data_Dy4Fe11Co3
_symmetry_space_group_name_H-M   'P 1'
_cell_length_a   5.06076576
_cell_length_b   5.06304265
_cell_length_c   12.45374426
_cell_angle_alpha   78.30687594
_cell_angle_beta   78.24122878
_cell_angle_gamma   60.31221560
_symmetry_Int_Tables_number   1
_chemical_formula_structural   Dy4Fe11Co3
_chemical_formula_sum   'Dy4 Fe11 Co3'
_cell_volume   269.44839792
_cell_formula_units_Z   1
loop_
 _symmetry_equiv_pos_site_id
 _symmetry_equiv_pos_as_xyz
  1  'x, y, z'
loop_
 _atom_site_type_symbol
 _atom_site_label
 _atom_site_symmetry_multiplicity
 _atom_site_fract_x
 _atom_site_fract_y
 _atom_site_fract_z
 _atom_site_occupancy
  Dy  Dy0  1  0.947675  0.947768  0.156821  1
  Dy  Dy1  1  0.051995  0.052175  0.843958  1
  Dy  Dy2  1  0.849512  0.850965  0.449545  1
  Dy  Dy3  1  0.149307  0.148922  0.552619  1
  Fe  Fe4  1  0.720083  0.720990  0.835357  1
  Fe  Fe5  1  0.279621  0.280572  0.164487  1
  Fe  Fe6  1  0.611021  0.610323  0.163273  1
  Fe  Fe7  1  0.389185  0.388830  0.836294  1
  Fe  Fe8  1  0.000295  0.500013  0.999869  1
  Fe  Fe9  1  0.500261  0.999701  0.999873  1
  Fe  Fe10  1  0.390323  0.390441  0.328720  1
  Fe  Fe11  1  0.890251  0.390543  0.328744  1
  Fe  Fe12  1  0.390233  0.891012  0.328702  1
  Fe  Fe13  1  0.609580  0.609488  0.670715  1
  Fe  Fe14  1  0.110322  0.609415  0.670604  1
  Co  Co15  1  0.500462  0.499946  0.498990  1
  Co  Co16  1  0.500098  0.499852  0.999901  1
  Co  Co17  1  0.609774  0.109044  0.671527  1
