# generated using pymatgen
data_Ho19Tm(Bi2Os)4
_symmetry_space_group_name_H-M   'P 1'
_cell_length_a   7.92919616
_cell_length_b   9.02174018
_cell_length_c   12.46945418
_cell_angle_alpha   89.98628026
_cell_angle_beta   90.01414923
_cell_angle_gamma   89.98191124
_symmetry_Int_Tables_number   1
_chemical_formula_structural   Ho19Tm(Bi2Os)4
_chemical_formula_sum   'Ho19 Tm1 Bi8 Os4'
_cell_volume   892.00414786
_cell_formula_units_Z   1
loop_
 _symmetry_equiv_pos_site_id
 _symmetry_equiv_pos_as_xyz
  1  'x, y, z'
loop_
 _atom_site_type_symbol
 _atom_site_label
 _atom_site_symmetry_multiplicity
 _atom_site_fract_x
 _atom_site_fract_y
 _atom_site_fract_z
 _atom_site_occupancy
  Ho  Ho0  1  0.839422  0.750049  0.791990  1
  Ho  Ho1  1  0.160513  0.249966  0.207947  1
  Ho  Ho2  1  0.339641  0.249892  0.707920  1
  Ho  Ho3  1  0.660513  0.750026  0.292103  1
  Ho  Ho4  1  0.375330  0.750109  0.690360  1
  Ho  Ho5  1  0.624964  0.249819  0.309679  1
  Ho  Ho6  1  0.875075  0.249951  0.809513  1
  Ho  Ho7  1  0.124927  0.750035  0.190461  1
  Ho  Ho8  1  0.943179  0.750203  0.504459  1
  Ho  Ho9  1  0.056402  0.249876  0.495604  1
  Ho  Ho10  1  0.443475  0.249979  0.995595  1
  Ho  Ho11  1  0.556620  0.750003  0.004358  1
  Ho  Ho12  1  0.326703  0.958672  0.435422  1
  Ho  Ho13  1  0.173666  0.958546  0.935259  1
  Ho  Ho14  1  0.326250  0.541401  0.435254  1
  Ho  Ho15  1  0.826311  0.041408  0.064723  1
  Ho  Ho16  1  0.673633  0.458560  0.564722  1
  Ho  Ho17  1  0.826287  0.458593  0.064716  1
  Ho  Ho18  1  0.173669  0.541434  0.935268  1
  Tm  Tm19  1  0.672684  0.041482  0.564592  1
  Bi  Bi20  1  0.566226  0.493298  0.827424  1
  Bi  Bi21  1  0.433774  0.506679  0.172585  1
  Bi  Bi22  1  0.066257  0.506680  0.672565  1
  Bi  Bi23  1  0.433762  0.993310  0.172576  1
  Bi  Bi24  1  0.933743  0.493276  0.327444  1
  Bi  Bi25  1  0.566308  0.006696  0.827351  1
  Bi  Bi26  1  0.933812  0.006694  0.327441  1
  Bi  Bi27  1  0.065957  0.993352  0.672450  1
  Os  Os28  1  0.575546  0.750418  0.509587  1
  Os  Os29  1  0.425385  0.249591  0.490610  1
  Os  Os30  1  0.075269  0.250022  0.990454  1
  Os  Os31  1  0.924697  0.749981  0.009568  1
