# generated using pymatgen
data_Cs2SmZn2SbTe6
_symmetry_space_group_name_H-M   'P 1'
_cell_length_a   4.49516300
_cell_length_b   8.89164073
_cell_length_c   11.78863724
_cell_angle_alpha   89.38785159
_cell_angle_beta   90.00000000
_cell_angle_gamma   75.35823319
_symmetry_Int_Tables_number   1
_chemical_formula_structural   Cs2SmZn2SbTe6
_chemical_formula_sum   'Cs2 Sm1 Zn2 Sb1 Te6'
_cell_volume   455.85502208
_cell_formula_units_Z   1
loop_
 _symmetry_equiv_pos_site_id
 _symmetry_equiv_pos_as_xyz
  1  'x, y, z'
loop_
 _atom_site_type_symbol
 _atom_site_label
 _atom_site_symmetry_multiplicity
 _atom_site_fract_x
 _atom_site_fract_y
 _atom_site_fract_z
 _atom_site_occupancy
  Cs  Cs0  1  0.744505  0.510991  0.249966  1
  Cs  Cs1  1  0.255494  0.489009  0.750034  1
  Sm  Sm2  1  0.000000  0.000000  0.500000  1
  Zn  Zn3  1  0.462004  0.075992  0.253254  1
  Zn  Zn4  1  0.537995  0.924009  0.746746  1
  Sb  Sb5  1  0.000000  0.000000  0.000000  1
  Te  Te6  1  0.382540  0.234918  0.057659  1
  Te  Te7  1  0.058240  0.883519  0.246783  1
  Te  Te8  1  0.377525  0.244949  0.441758  1
  Te  Te9  1  0.622474  0.755051  0.558242  1
  Te  Te10  1  0.941760  0.116480  0.753217  1
  Te  Te11  1  0.617459  0.765082  0.942341  1
