# generated using pymatgen
data_Ta7Ti7As8
_symmetry_space_group_name_H-M   'P 1'
_cell_length_a   7.86477280
_cell_length_b   7.86477378
_cell_length_c   14.19219279
_cell_angle_alpha   76.08970921
_cell_angle_beta   76.08970832
_cell_angle_gamma   25.71338211
_symmetry_Int_Tables_number   1
_chemical_formula_structural   Ta7Ti7As8
_chemical_formula_sum   'Ta7 Ti7 As8'
_cell_volume   369.11290018
_cell_formula_units_Z   1
loop_
 _symmetry_equiv_pos_site_id
 _symmetry_equiv_pos_as_xyz
  1  'x, y, z'
loop_
 _atom_site_type_symbol
 _atom_site_label
 _atom_site_symmetry_multiplicity
 _atom_site_fract_x
 _atom_site_fract_y
 _atom_site_fract_z
 _atom_site_occupancy
  Ta  Ta0  1  0.001078  0.001078  0.998791  1
  Ta  Ta1  1  0.499537  0.499537  0.500684  1
  Ta  Ta2  1  0.427778  0.427778  0.170338  1
  Ta  Ta3  1  0.572548  0.572548  0.830240  1
  Ta  Ta4  1  0.195728  0.195728  0.693811  1
  Ta  Ta5  1  0.804406  0.804406  0.306661  1
  Ta  Ta6  1  0.210776  0.210776  0.203985  1
  Ti  Ti7  1  0.790297  0.790297  0.795219  1
  Ti  Ti8  1  0.338791  0.338791  0.966243  1
  Ti  Ti9  1  0.661270  0.661270  0.034197  1
  Ti  Ti10  1  0.998891  0.998891  0.338940  1
  Ti  Ti11  1  0.999611  0.999611  0.660601  1
  Ti  Ti12  1  0.181262  0.181262  0.453140  1
  Ti  Ti13  1  0.818446  0.818446  0.546872  1
  As  As14  1  0.181382  0.181382  0.894777  1
  As  As15  1  0.823049  0.823049  0.101855  1
  As  As16  1  0.370279  0.370279  0.406242  1
  As  As17  1  0.629241  0.629241  0.595962  1
  As  As18  1  0.372002  0.372002  0.664255  1
  As  As19  1  0.625977  0.625977  0.337627  1
  As  As20  1  0.061757  0.061757  0.155014  1
  As  As21  1  0.935894  0.935894  0.844541  1
