# generated using pymatgen
data_Dy5MoRuO12
_symmetry_space_group_name_H-M   'P 1'
_cell_length_a   6.83161451
_cell_length_b   6.83161416
_cell_length_c   7.52657768
_cell_angle_alpha   73.77364415
_cell_angle_beta   73.77364470
_cell_angle_gamma   49.64987593
_symmetry_Int_Tables_number   1
_chemical_formula_structural   Dy5MoRuO12
_chemical_formula_sum   'Dy5 Mo1 Ru1 O12'
_cell_volume   254.70161026
_cell_formula_units_Z   1
loop_
 _symmetry_equiv_pos_site_id
 _symmetry_equiv_pos_as_xyz
  1  'x, y, z'
loop_
 _atom_site_type_symbol
 _atom_site_label
 _atom_site_symmetry_multiplicity
 _atom_site_fract_x
 _atom_site_fract_y
 _atom_site_fract_z
 _atom_site_occupancy
  Dy  Dy0  1  0.315684  0.292359  0.358952  1
  Dy  Dy1  1  0.707641  0.684316  0.641048  1
  Dy  Dy2  1  0.319363  0.308053  0.825057  1
  Dy  Dy3  1  0.691947  0.680637  0.174943  1
  Dy  Dy4  1  0.007187  0.992813  0.500000  1
  Mo  Mo5  1  0.201896  0.798104  0.000000  1
  Ru  Ru6  1  0.763472  0.236528  0.000000  1
  O  O7  1  0.913249  0.427891  0.914727  1
  O  O8  1  0.412837  0.906840  0.917106  1
  O  O9  1  0.093160  0.587163  0.082894  1
  O  O10  1  0.572109  0.086751  0.085273  1
  O  O11  1  0.106796  0.589467  0.571654  1
  O  O12  1  0.598835  0.088621  0.576661  1
  O  O13  1  0.911379  0.401165  0.423339  1
  O  O14  1  0.410533  0.893204  0.428346  1
  O  O15  1  0.993907  0.003940  0.797054  1
  O  O16  1  0.996060  0.006093  0.202946  1
  O  O17  1  0.492721  0.508776  0.820433  1
  O  O18  1  0.491224  0.507279  0.179567  1
