# generated using pymatgen
data_Ta4Si4Ir2RuPt
_symmetry_space_group_name_H-M   'P 1'
_cell_length_a   3.81130900
_cell_length_b   6.44447877
_cell_length_c   7.34757783
_cell_angle_alpha   89.43843373
_cell_angle_beta   90.00000000
_cell_angle_gamma   90.00000000
_symmetry_Int_Tables_number   1
_chemical_formula_structural   Ta4Si4Ir2RuPt
_chemical_formula_sum   'Ta4 Si4 Ir2 Ru1 Pt1'
_cell_volume   180.46180338
_cell_formula_units_Z   1
loop_
 _symmetry_equiv_pos_site_id
 _symmetry_equiv_pos_as_xyz
  1  'x, y, z'
loop_
 _atom_site_type_symbol
 _atom_site_label
 _atom_site_symmetry_multiplicity
 _atom_site_fract_x
 _atom_site_fract_y
 _atom_site_fract_z
 _atom_site_occupancy
  Ta  Ta0  1  0.750000  0.524081  0.832208  1
  Ta  Ta1  1  0.250000  0.975646  0.324245  1
  Ta  Ta2  1  0.750000  0.021938  0.676593  1
  Ta  Ta3  1  0.250000  0.473918  0.167857  1
  Si  Si4  1  0.250000  0.229705  0.874372  1
  Si  Si5  1  0.250000  0.733633  0.631918  1
  Si  Si6  1  0.750000  0.769500  0.117598  1
  Si  Si7  1  0.750000  0.262179  0.376662  1
  Ir  Ir8  1  0.250000  0.356204  0.562522  1
  Ir  Ir9  1  0.750000  0.147867  0.065426  1
  Ru  Ru10  1  0.250000  0.857393  0.937933  1
  Pt  Pt11  1  0.750000  0.647935  0.432667  1
