# generated using pymatgen
data_Nd2MnAl9Pt2
_symmetry_space_group_name_H-M   'P 1'
_cell_length_a   7.64987315
_cell_length_b   7.64987205
_cell_length_c   9.59257615
_cell_angle_alpha   90.09526307
_cell_angle_beta   90.09526550
_cell_angle_gamma   119.46072877
_symmetry_Int_Tables_number   1
_chemical_formula_structural   Nd2MnAl9Pt2
_chemical_formula_sum   'Nd4 Mn2 Al18 Pt4'
_cell_volume   488.77203861
_cell_formula_units_Z   2
loop_
 _symmetry_equiv_pos_site_id
 _symmetry_equiv_pos_as_xyz
  1  'x, y, z'
loop_
 _atom_site_type_symbol
 _atom_site_label
 _atom_site_symmetry_multiplicity
 _atom_site_fract_x
 _atom_site_fract_y
 _atom_site_fract_z
 _atom_site_occupancy
  Nd  Nd0  1  0.005515  0.329655  0.750119  1
  Nd  Nd1  1  0.331144  0.006163  0.749843  1
  Nd  Nd2  1  0.993837  0.668856  0.250157  1
  Nd  Nd3  1  0.670345  0.994485  0.249881  1
  Mn  Mn4  1  0.000748  0.999252  0.500000  1
  Mn  Mn5  1  0.328985  0.671015  0.000000  1
  Al  Al6  1  0.657108  0.990699  0.927588  1
  Al  Al7  1  0.998486  0.671853  0.572057  1
  Al  Al8  1  0.129446  0.127925  0.254895  1
  Al  Al9  1  0.658028  0.666767  0.046130  1
  Al  Al10  1  0.328932  0.328496  0.548139  1
  Al  Al11  1  0.333233  0.341972  0.953870  1
  Al  Al12  1  0.671504  0.671068  0.451861  1
  Al  Al13  1  0.333815  0.993843  0.072118  1
  Al  Al14  1  0.003343  0.327642  0.427200  1
  Al  Al15  1  0.339697  0.548248  0.243551  1
  Al  Al16  1  0.009301  0.342892  0.072412  1
  Al  Al17  1  0.541774  0.338023  0.249528  1
  Al  Al18  1  0.661977  0.458226  0.750472  1
  Al  Al19  1  0.872075  0.870554  0.745105  1
  Al  Al20  1  0.006157  0.666185  0.927882  1
  Al  Al21  1  0.672358  0.996657  0.572800  1
  Al  Al22  1  0.328147  0.001514  0.427943  1
  Al  Al23  1  0.451752  0.660303  0.756449  1
  Pt  Pt24  1  0.672092  0.327908  0.500000  1
  Pt  Pt25  1  0.671317  0.328683  0.000000  1
  Pt  Pt26  1  0.329044  0.670956  0.500000  1
  Pt  Pt27  1  0.999840  0.000160  0.000000  1
