# generated using pymatgen
data_Si4Pd8Pt13Au
_symmetry_space_group_name_H-M   'P 1'
_cell_length_a   3.91347600
_cell_length_b   6.25956654
_cell_length_c   16.37092493
_cell_angle_alpha   90.21957662
_cell_angle_beta   90.00000000
_cell_angle_gamma   90.00000000
_symmetry_Int_Tables_number   1
_chemical_formula_structural   Si4Pd8Pt13Au
_chemical_formula_sum   'Si4 Pd8 Pt13 Au1'
_cell_volume   401.03009298
_cell_formula_units_Z   1
loop_
 _symmetry_equiv_pos_site_id
 _symmetry_equiv_pos_as_xyz
  1  'x, y, z'
loop_
 _atom_site_type_symbol
 _atom_site_label
 _atom_site_symmetry_multiplicity
 _atom_site_fract_x
 _atom_site_fract_y
 _atom_site_fract_z
 _atom_site_occupancy
  Si  Si0  1  0.500000  0.824896  0.300509  1
  Si  Si1  1  0.500000  0.175104  0.699491  1
  Si  Si2  1  0.500000  0.326651  0.201398  1
  Si  Si3  1  0.500000  0.673349  0.798602  1
  Pd  Pd4  1  0.000000  0.305309  0.457685  1
  Pd  Pd5  1  0.000000  0.694691  0.542315  1
  Pd  Pd6  1  0.000000  0.808542  0.042935  1
  Pd  Pd7  1  0.000000  0.191458  0.957065  1
  Pd  Pd8  1  0.000000  0.521791  0.286308  1
  Pd  Pd9  1  0.000000  0.478209  0.713692  1
  Pd  Pd10  1  0.000000  0.018099  0.214849  1
  Pd  Pd11  1  0.000000  0.981901  0.785151  1
  Pt  Pt12  1  0.000000  0.902587  0.383632  1
  Pt  Pt13  1  0.000000  0.097413  0.616368  1
  Pt  Pt14  1  0.000000  0.400275  0.118642  1
  Pt  Pt15  1  0.000000  0.599725  0.881358  1
  Pt  Pt16  1  0.500000  0.597932  0.419351  1
  Pt  Pt17  1  0.500000  0.402068  0.580649  1
  Pt  Pt18  1  0.500000  0.096571  0.082346  1
  Pt  Pt19  1  0.500000  0.903429  0.917654  1
  Pt  Pt20  1  0.500000  0.000000  0.500000  1
  Pt  Pt21  1  0.500000  0.207417  0.335139  1
  Pt  Pt22  1  0.500000  0.792583  0.664861  1
  Pt  Pt23  1  0.500000  0.707696  0.165658  1
  Pt  Pt24  1  0.500000  0.292304  0.834342  1
  Au  Au25  1  0.500000  0.500000  0.000000  1
