# generated using pymatgen
data_Dy10Ho2Tc3Ir
_symmetry_space_group_name_H-M   'P 1'
_cell_length_a   6.29400354
_cell_length_b   7.40886104
_cell_length_c   9.15420377
_cell_angle_alpha   90.00284619
_cell_angle_beta   90.04697229
_cell_angle_gamma   89.99155089
_symmetry_Int_Tables_number   1
_chemical_formula_structural   Dy10Ho2Tc3Ir
_chemical_formula_sum   'Dy10 Ho2 Tc3 Ir1'
_cell_volume   426.87316710
_cell_formula_units_Z   1
loop_
 _symmetry_equiv_pos_site_id
 _symmetry_equiv_pos_as_xyz
  1  'x, y, z'
loop_
 _atom_site_type_symbol
 _atom_site_label
 _atom_site_symmetry_multiplicity
 _atom_site_fract_x
 _atom_site_fract_y
 _atom_site_fract_z
 _atom_site_occupancy
  Dy  Dy0  1  0.333070  0.676025  0.064605  1
  Dy  Dy1  1  0.163320  0.175879  0.436536  1
  Dy  Dy2  1  0.664917  0.322881  0.561464  1
  Dy  Dy3  1  0.835637  0.825169  0.938129  1
  Dy  Dy4  1  0.665050  0.322686  0.938539  1
  Dy  Dy5  1  0.835526  0.824990  0.561865  1
  Dy  Dy6  1  0.874144  0.540908  0.250040  1
  Dy  Dy7  1  0.625236  0.038646  0.249973  1
  Dy  Dy8  1  0.131454  0.458384  0.749991  1
  Dy  Dy9  1  0.370509  0.960121  0.750024  1
  Ho  Ho10  1  0.333265  0.675943  0.435519  1
  Ho  Ho11  1  0.163223  0.175868  0.063268  1
  Tc  Tc12  1  0.040018  0.883545  0.250078  1
  Tc  Tc13  1  0.461986  0.386267  0.249961  1
  Tc  Tc14  1  0.960279  0.116438  0.750226  1
  Ir  Ir15  1  0.542368  0.616247  0.749782  1
