# generated using pymatgen
data_NaCdFeF6
_symmetry_space_group_name_H-M   'P 1'
_cell_length_a   9.41267400
_cell_length_b   9.41267331
_cell_length_c   5.18224200
_cell_angle_alpha   90.00000000
_cell_angle_beta   90.00000000
_cell_angle_gamma   120.00000244
_symmetry_Int_Tables_number   1
_chemical_formula_structural   NaCdFeF6
_chemical_formula_sum   'Na3 Cd3 Fe3 F18'
_cell_volume   397.62557837
_cell_formula_units_Z   3
loop_
 _symmetry_equiv_pos_site_id
 _symmetry_equiv_pos_as_xyz
  1  'x, y, z'
loop_
 _atom_site_type_symbol
 _atom_site_label
 _atom_site_symmetry_multiplicity
 _atom_site_fract_x
 _atom_site_fract_y
 _atom_site_fract_z
 _atom_site_occupancy
  Na  Na0  1  0.371436  0.000000  0.000000  1
  Na  Na1  1  0.000000  0.371436  0.000000  1
  Na  Na2  1  0.628564  0.628564  0.000000  1
  Cd  Cd3  1  0.702081  0.000000  0.500000  1
  Cd  Cd4  1  0.297919  0.297919  0.500000  1
  Cd  Cd5  1  0.000000  0.702081  0.500000  1
  Fe  Fe6  1  0.333333  0.666667  0.494765  1
  Fe  Fe7  1  0.666667  0.333333  0.505235  1
  Fe  Fe8  1  0.000000  0.000000  0.000000  1
  F  F9  1  0.775134  0.240594  0.293128  1
  F  F10  1  0.759406  0.534539  0.293128  1
  F  F11  1  0.465461  0.224866  0.293128  1
  F  F12  1  0.534539  0.759406  0.706872  1
  F  F13  1  0.224866  0.465461  0.706872  1
  F  F14  1  0.240594  0.775134  0.706872  1
  F  F15  1  0.409276  0.544452  0.283362  1
  F  F16  1  0.455548  0.864825  0.283362  1
  F  F17  1  0.135175  0.590724  0.283362  1
  F  F18  1  0.908312  0.106452  0.786303  1
  F  F19  1  0.893548  0.801860  0.786303  1
  F  F20  1  0.198140  0.091688  0.786303  1
  F  F21  1  0.801860  0.893548  0.213697  1
  F  F22  1  0.091688  0.198140  0.213697  1
  F  F23  1  0.106452  0.908312  0.213697  1
  F  F24  1  0.544452  0.409276  0.716638  1
  F  F25  1  0.590724  0.135175  0.716638  1
  F  F26  1  0.864825  0.455548  0.716638  1
