# generated using pymatgen
data_TbNd2Tl5
_symmetry_space_group_name_H-M   'P 1'
_cell_length_a   6.64012413
_cell_length_b   6.64012401
_cell_length_c   10.67988500
_cell_angle_alpha   90.00000000
_cell_angle_beta   90.00000000
_cell_angle_gamma   103.15513957
_symmetry_Int_Tables_number   1
_chemical_formula_structural   TbNd2Tl5
_chemical_formula_sum   'Tb2 Nd4 Tl10'
_cell_volume   458.53208848
_cell_formula_units_Z   2
loop_
 _symmetry_equiv_pos_site_id
 _symmetry_equiv_pos_as_xyz
  1  'x, y, z'
loop_
 _atom_site_type_symbol
 _atom_site_label
 _atom_site_symmetry_multiplicity
 _atom_site_fract_x
 _atom_site_fract_y
 _atom_site_fract_z
 _atom_site_occupancy
  Tb  Tb0  1  0.621314  0.621314  0.250000  1
  Tb  Tb1  1  0.378686  0.378686  0.750000  1
  Nd  Nd2  1  0.203833  0.796167  0.500000  1
  Nd  Nd3  1  0.203833  0.796167  0.000000  1
  Nd  Nd4  1  0.796167  0.203833  0.500000  1
  Nd  Nd5  1  0.796167  0.203833  0.000000  1
  Tl  Tl6  1  0.005259  0.005259  0.250000  1
  Tl  Tl7  1  0.994741  0.994741  0.750000  1
  Tl  Tl8  1  0.307559  0.307559  0.041016  1
  Tl  Tl9  1  0.692441  0.692441  0.958984  1
  Tl  Tl10  1  0.307559  0.307559  0.458984  1
  Tl  Tl11  1  0.692441  0.692441  0.541016  1
  Tl  Tl12  1  0.508259  0.064215  0.250000  1
  Tl  Tl13  1  0.935785  0.491741  0.750000  1
  Tl  Tl14  1  0.491741  0.935785  0.750000  1
  Tl  Tl15  1  0.064215  0.508259  0.250000  1
