# generated using pymatgen
data_Sr4SbAsO
_symmetry_space_group_name_H-M   'P 1'
_cell_length_a   9.29050826
_cell_length_b   9.29050792
_cell_length_c   9.29050843
_cell_angle_alpha   149.23019164
_cell_angle_beta   149.23019407
_cell_angle_gamma   44.07258394
_symmetry_Int_Tables_number   1
_chemical_formula_structural   Sr4SbAsO
_chemical_formula_sum   'Sr4 Sb1 As1 O1'
_cell_volume   209.27355459
_cell_formula_units_Z   1
loop_
 _symmetry_equiv_pos_site_id
 _symmetry_equiv_pos_as_xyz
  1  'x, y, z'
loop_
 _atom_site_type_symbol
 _atom_site_label
 _atom_site_symmetry_multiplicity
 _atom_site_fract_x
 _atom_site_fract_y
 _atom_site_fract_z
 _atom_site_occupancy
  Sr  Sr0  1  0.664980  0.664980  0.000000  1
  Sr  Sr1  1  0.314001  0.314001  0.000000  1
  Sr  Sr2  1  0.504044  0.004044  0.500000  1
  Sr  Sr3  1  0.004044  0.504044  0.500000  1
  Sb  Sb4  1  0.860973  0.860973  0.000000  1
  As  As5  1  0.133224  0.133224  0.000000  1
  O  O6  1  0.518734  0.518734  0.000000  1
