# generated using pymatgen
data_Ho(SiRh2)2
_symmetry_space_group_name_H-M   'P 1'
_cell_length_a   4.12112500
_cell_length_b   9.08098600
_cell_length_c   11.32181000
_cell_angle_alpha   90.00000000
_cell_angle_beta   90.00000000
_cell_angle_gamma   90.00000000
_symmetry_Int_Tables_number   1
_chemical_formula_structural   Ho(SiRh2)2
_chemical_formula_sum   'Ho4 Si8 Rh16'
_cell_volume   423.70604104
_cell_formula_units_Z   4
loop_
 _symmetry_equiv_pos_site_id
 _symmetry_equiv_pos_as_xyz
  1  'x, y, z'
loop_
 _atom_site_type_symbol
 _atom_site_label
 _atom_site_symmetry_multiplicity
 _atom_site_fract_x
 _atom_site_fract_y
 _atom_site_fract_z
 _atom_site_occupancy
  Ho  Ho0  1  0.250000  0.148481  0.825441  1
  Ho  Ho1  1  0.250000  0.351519  0.325441  1
  Ho  Ho2  1  0.750000  0.851519  0.174559  1
  Ho  Ho3  1  0.750000  0.648481  0.674559  1
  Si  Si4  1  0.250000  0.411943  0.637124  1
  Si  Si5  1  0.250000  0.088057  0.137124  1
  Si  Si6  1  0.750000  0.588057  0.362876  1
  Si  Si7  1  0.750000  0.911943  0.862876  1
  Si  Si8  1  0.250000  0.616452  0.058259  1
  Si  Si9  1  0.250000  0.883548  0.558259  1
  Si  Si10  1  0.750000  0.383548  0.941741  1
  Si  Si11  1  0.750000  0.116452  0.441741  1
  Rh  Rh12  1  0.250000  0.614894  0.500529  1
  Rh  Rh13  1  0.250000  0.885106  0.000529  1
  Rh  Rh14  1  0.750000  0.385106  0.499471  1
  Rh  Rh15  1  0.750000  0.114894  0.999471  1
  Rh  Rh16  1  0.250000  0.684036  0.268781  1
  Rh  Rh17  1  0.250000  0.815964  0.768781  1
  Rh  Rh18  1  0.750000  0.315964  0.731219  1
  Rh  Rh19  1  0.750000  0.184036  0.231219  1
  Rh  Rh20  1  0.250000  0.173268  0.559111  1
  Rh  Rh21  1  0.250000  0.326732  0.059111  1
  Rh  Rh22  1  0.750000  0.826732  0.440889  1
  Rh  Rh23  1  0.750000  0.673268  0.940889  1
  Rh  Rh24  1  0.250000  0.006742  0.344508  1
  Rh  Rh25  1  0.250000  0.493258  0.844508  1
  Rh  Rh26  1  0.750000  0.993258  0.655492  1
  Rh  Rh27  1  0.750000  0.506742  0.155492  1
