# generated using pymatgen
data_HfSO5
_symmetry_space_group_name_H-M   'P 1'
_cell_length_a   5.55480300
_cell_length_b   6.95824600
_cell_length_c   11.65520200
_cell_angle_alpha   90.00000000
_cell_angle_beta   90.00000000
_cell_angle_gamma   90.00000000
_symmetry_Int_Tables_number   1
_chemical_formula_structural   HfSO5
_chemical_formula_sum   'Hf4 S4 O20'
_cell_volume   450.49320512
_cell_formula_units_Z   4
loop_
 _symmetry_equiv_pos_site_id
 _symmetry_equiv_pos_as_xyz
  1  'x, y, z'
loop_
 _atom_site_type_symbol
 _atom_site_label
 _atom_site_symmetry_multiplicity
 _atom_site_fract_x
 _atom_site_fract_y
 _atom_site_fract_z
 _atom_site_occupancy
  Hf  Hf0  1  0.250000  0.838574  0.060930  1
  Hf  Hf1  1  0.750000  0.338574  0.439070  1
  Hf  Hf2  1  0.250000  0.661426  0.560930  1
  Hf  Hf3  1  0.750000  0.161426  0.939070  1
  S  S4  1  0.250000  0.475152  0.846716  1
  S  S5  1  0.750000  0.524848  0.153284  1
  S  S6  1  0.750000  0.975152  0.653284  1
  S  S7  1  0.250000  0.024848  0.346716  1
  O  O8  1  0.250000  0.651066  0.918929  1
  O  O9  1  0.500000  0.500000  0.500000  1
  O  O10  1  0.250000  0.962354  0.224836  1
  O  O11  1  0.250000  0.848934  0.418929  1
  O  O12  1  0.030091  0.363434  0.868598  1
  O  O13  1  0.469909  0.136566  0.368598  1
  O  O14  1  0.969909  0.636566  0.131402  1
  O  O15  1  0.750000  0.348934  0.081071  1
  O  O16  1  0.530091  0.636566  0.131402  1
  O  O17  1  0.750000  0.037646  0.775164  1
  O  O18  1  0.000000  0.000000  0.000000  1
  O  O19  1  0.750000  0.462354  0.275164  1
  O  O20  1  0.750000  0.151066  0.581071  1
  O  O21  1  0.530091  0.863434  0.631402  1
  O  O22  1  0.030091  0.136566  0.368598  1
  O  O23  1  0.969909  0.863434  0.631402  1
  O  O24  1  0.469909  0.363434  0.868598  1
  O  O25  1  0.500000  0.000000  0.000000  1
  O  O26  1  0.000000  0.500000  0.500000  1
  O  O27  1  0.250000  0.537646  0.724836  1
