# generated using pymatgen
data_HoEr3(Pd2O7)2
_symmetry_space_group_name_H-M   'P 1'
_cell_length_a   7.21689576
_cell_length_b   7.21740084
_cell_length_c   7.21689600
_cell_angle_alpha   60.00231384
_cell_angle_beta   59.99999892
_cell_angle_gamma   60.00230891
_symmetry_Int_Tables_number   1
_chemical_formula_structural   HoEr3(Pd2O7)2
_chemical_formula_sum   'Ho1 Er3 Pd4 O14'
_cell_volume   265.81646372
_cell_formula_units_Z   1
loop_
 _symmetry_equiv_pos_site_id
 _symmetry_equiv_pos_as_xyz
  1  'x, y, z'
loop_
 _atom_site_type_symbol
 _atom_site_label
 _atom_site_symmetry_multiplicity
 _atom_site_fract_x
 _atom_site_fract_y
 _atom_site_fract_z
 _atom_site_occupancy
  Ho  Ho0  1  0.125000  0.625000  0.125000  1
  Er  Er1  1  0.125000  0.125000  0.125000  1
  Er  Er2  1  0.125000  0.125000  0.625000  1
  Er  Er3  1  0.625000  0.125000  0.125000  1
  Pd  Pd4  1  0.625000  0.125000  0.625000  1
  Pd  Pd5  1  0.625000  0.625000  0.125000  1
  Pd  Pd6  1  0.125000  0.625000  0.625000  1
  Pd  Pd7  1  0.625000  0.625000  0.625000  1
  O  O8  1  0.966625  0.532917  0.966625  1
  O  O9  1  0.250431  0.248707  0.250431  1
  O  O10  1  0.716786  0.283233  0.716786  1
  O  O11  1  0.716168  0.717083  0.283375  1
  O  O12  1  0.283375  0.717083  0.716168  1
  O  O13  1  0.966804  0.966767  0.533214  1
  O  O14  1  0.533214  0.966767  0.966804  1
  O  O15  1  0.966625  0.532917  0.533832  1
  O  O16  1  0.533832  0.532917  0.966625  1
  O  O17  1  0.716786  0.283233  0.283196  1
  O  O18  1  0.283196  0.283233  0.716786  1
  O  O19  1  0.999569  0.001293  0.999569  1
  O  O20  1  0.283375  0.717083  0.283375  1
  O  O21  1  0.533214  0.966767  0.533214  1
