# generated using pymatgen
data_Nd4Al18Pd3RuRh2
_symmetry_space_group_name_H-M   'P 1'
_cell_length_a   7.66106038
_cell_length_b   7.66114811
_cell_length_c   9.61098551
_cell_angle_alpha   90.02178754
_cell_angle_beta   90.02147366
_cell_angle_gamma   119.39950613
_symmetry_Int_Tables_number   1
_chemical_formula_structural   Nd4Al18Pd3RuRh2
_chemical_formula_sum   'Nd4 Al18 Pd3 Ru1 Rh2'
_cell_volume   491.44781169
_cell_formula_units_Z   1
loop_
 _symmetry_equiv_pos_site_id
 _symmetry_equiv_pos_as_xyz
  1  'x, y, z'
loop_
 _atom_site_type_symbol
 _atom_site_label
 _atom_site_symmetry_multiplicity
 _atom_site_fract_x
 _atom_site_fract_y
 _atom_site_fract_z
 _atom_site_occupancy
  Nd  Nd0  1  0.994556  0.671673  0.750175  1
  Nd  Nd1  1  0.003092  0.326629  0.250340  1
  Nd  Nd2  1  0.673369  0.996902  0.749663  1
  Nd  Nd3  1  0.328320  0.005444  0.249820  1
  Al  Al4  1  0.135984  0.133915  0.750359  1
  Al  Al5  1  0.866085  0.864016  0.249641  1
  Al  Al6  1  0.009814  0.342284  0.575354  1
  Al  Al7  1  0.002322  0.664610  0.424998  1
  Al  Al8  1  0.998373  0.660507  0.074301  1
  Al  Al9  1  0.339492  0.001624  0.925699  1
  Al  Al10  1  0.002653  0.338834  0.925108  1
  Al  Al11  1  0.661162  0.997343  0.074892  1
  Al  Al12  1  0.657716  0.990186  0.424646  1
  Al  Al13  1  0.335393  0.997680  0.575003  1
  Al  Al14  1  0.337753  0.337891  0.048409  1
  Al  Al15  1  0.662108  0.662246  0.951592  1
  Al  Al16  1  0.658881  0.665031  0.550439  1
  Al  Al17  1  0.334970  0.341121  0.449561  1
  Al  Al18  1  0.340307  0.550298  0.749031  1
  Al  Al19  1  0.661575  0.454376  0.246270  1
  Al  Al20  1  0.545625  0.338425  0.753731  1
  Al  Al21  1  0.449703  0.659695  0.250969  1
  Pd  Pd22  1  0.671718  0.328284  0.500000  1
  Pd  Pd23  1  0.999934  0.000067  0.500000  1
  Pd  Pd24  1  0.000168  0.999833  0.000000  1
  Ru  Ru25  1  0.328381  0.671624  0.499999  1
  Rh  Rh26  1  0.329009  0.670996  0.000002  1
  Rh  Rh27  1  0.671537  0.328463  0.000000  1
