# generated using pymatgen
data_Hf3V(OF3)3
_symmetry_space_group_name_H-M   'P 1'
_cell_length_a   5.72251098
_cell_length_b   5.72265554
_cell_length_c   9.70372051
_cell_angle_alpha   73.53700398
_cell_angle_beta   73.46502807
_cell_angle_gamma   59.06294801
_symmetry_Int_Tables_number   1
_chemical_formula_structural   Hf3V(OF3)3
_chemical_formula_sum   'Hf3 V1 O3 F9'
_cell_volume   257.63918989
_cell_formula_units_Z   1
loop_
 _symmetry_equiv_pos_site_id
 _symmetry_equiv_pos_as_xyz
  1  'x, y, z'
loop_
 _atom_site_type_symbol
 _atom_site_label
 _atom_site_symmetry_multiplicity
 _atom_site_fract_x
 _atom_site_fract_y
 _atom_site_fract_z
 _atom_site_occupancy
  Hf  Hf0  1  0.752326  0.461201  0.638289  1
  Hf  Hf1  1  0.537265  0.242739  0.376407  1
  Hf  Hf2  1  0.225670  0.017600  0.120618  1
  V  V3  1  0.985199  0.775529  0.869298  1
  O  O4  1  0.687478  0.317014  0.501102  1
  O  O5  1  0.851074  0.144614  0.789101  1
  O  O6  1  0.847143  0.149522  0.214887  1
  F  F7  1  0.343451  0.654838  0.273216  1
  F  F8  1  0.343127  0.665346  0.721251  1
  F  F9  1  0.822074  0.683619  0.750859  1
  F  F10  1  0.149068  0.364448  0.522118  1
  F  F11  1  0.155504  0.355250  0.965685  1
  F  F12  1  0.315118  0.176483  0.250770  1
  F  F13  1  0.195373  0.800032  0.998283  1
  F  F14  1  0.647504  0.843708  0.030761  1
  F  F15  1  0.642626  0.848056  0.477354  1
