# generated using pymatgen
data_La5TcIr
_symmetry_space_group_name_H-M   'P 1'
_cell_length_a   9.14268542
_cell_length_b   9.14268577
_cell_length_c   7.47364096
_cell_angle_alpha   84.69929166
_cell_angle_beta   84.69929058
_cell_angle_gamma   43.09310263
_symmetry_Int_Tables_number   1
_chemical_formula_structural   La5TcIr
_chemical_formula_sum   'La10 Tc2 Ir2'
_cell_volume   424.68394126
_cell_formula_units_Z   2
loop_
 _symmetry_equiv_pos_site_id
 _symmetry_equiv_pos_as_xyz
  1  'x, y, z'
loop_
 _atom_site_type_symbol
 _atom_site_label
 _atom_site_symmetry_multiplicity
 _atom_site_fract_x
 _atom_site_fract_y
 _atom_site_fract_z
 _atom_site_occupancy
  La  La0  1  0.018034  0.798470  0.906149  1
  La  La1  1  0.201530  0.981966  0.593851  1
  La  La2  1  0.994609  0.192091  0.087184  1
  La  La3  1  0.807909  0.005391  0.412816  1
  La  La4  1  0.354961  0.211724  0.817604  1
  La  La5  1  0.788276  0.645039  0.682396  1
  La  La6  1  0.637701  0.787672  0.178829  1
  La  La7  1  0.212328  0.362299  0.321171  1
  La  La8  1  0.577383  0.422617  0.750000  1
  La  La9  1  0.429290  0.570710  0.250000  1
  Tc  Tc10  1  0.170559  0.611461  0.573330  1
  Tc  Tc11  1  0.388539  0.829441  0.926670  1
  Ir  Ir12  1  0.822866  0.403986  0.419428  1
  Ir  Ir13  1  0.596014  0.177134  0.080572  1
