# generated using pymatgen
data_Y4PaPt9
_symmetry_space_group_name_H-M   'P 1'
_cell_length_a   9.87090300
_cell_length_b   9.87090300
_cell_length_c   5.76967000
_cell_angle_alpha   90.00000000
_cell_angle_beta   90.00000000
_cell_angle_gamma   90.00000000
_symmetry_Int_Tables_number   1
_chemical_formula_structural   Y4PaPt9
_chemical_formula_sum   'Y8 Pa2 Pt18'
_cell_volume   562.16621576
_cell_formula_units_Z   2
loop_
 _symmetry_equiv_pos_site_id
 _symmetry_equiv_pos_as_xyz
  1  'x, y, z'
loop_
 _atom_site_type_symbol
 _atom_site_label
 _atom_site_symmetry_multiplicity
 _atom_site_fract_x
 _atom_site_fract_y
 _atom_site_fract_z
 _atom_site_occupancy
  Y  Y0  1  0.453682  0.809284  0.000000  1
  Y  Y1  1  0.546318  0.190716  0.000000  1
  Y  Y2  1  0.190716  0.546318  0.000000  1
  Y  Y3  1  0.809284  0.453682  0.000000  1
  Y  Y4  1  0.309284  0.046318  0.500000  1
  Y  Y5  1  0.690716  0.953682  0.500000  1
  Y  Y6  1  0.953682  0.690716  0.500000  1
  Y  Y7  1  0.046318  0.309284  0.500000  1
  Pa  Pa8  1  0.500000  0.500000  0.500000  1
  Pa  Pa9  1  0.000000  0.000000  0.000000  1
  Pt  Pt10  1  0.191406  0.808594  0.249742  1
  Pt  Pt11  1  0.808594  0.191406  0.750258  1
  Pt  Pt12  1  0.808594  0.191406  0.249742  1
  Pt  Pt13  1  0.191406  0.808594  0.750258  1
  Pt  Pt14  1  0.439447  0.774868  0.500000  1
  Pt  Pt15  1  0.560553  0.225132  0.500000  1
  Pt  Pt16  1  0.225132  0.560553  0.500000  1
  Pt  Pt17  1  0.774868  0.439447  0.500000  1
  Pt  Pt18  1  0.308594  0.308594  0.250258  1
  Pt  Pt19  1  0.691406  0.691406  0.749742  1
  Pt  Pt20  1  0.691406  0.691406  0.250258  1
  Pt  Pt21  1  0.308594  0.308594  0.749742  1
  Pt  Pt22  1  0.274868  0.060553  0.000000  1
  Pt  Pt23  1  0.725132  0.939447  0.000000  1
  Pt  Pt24  1  0.939447  0.725132  0.000000  1
  Pt  Pt25  1  0.060553  0.274868  0.000000  1
  Pt  Pt26  1  0.000000  0.000000  0.500000  1
  Pt  Pt27  1  0.500000  0.500000  0.000000  1
