# generated using pymatgen
data_HoTh2(GaRh)3
_symmetry_space_group_name_H-M   'P 1'
_cell_length_a   7.30979634
_cell_length_b   7.27918204
_cell_length_c   3.94522700
_cell_angle_alpha   90.00000000
_cell_angle_beta   90.00000000
_cell_angle_gamma   119.86156232
_symmetry_Int_Tables_number   1
_chemical_formula_structural   HoTh2(GaRh)3
_chemical_formula_sum   'Ho1 Th2 Ga3 Rh3'
_cell_volume   182.05165597
_cell_formula_units_Z   1
loop_
 _symmetry_equiv_pos_site_id
 _symmetry_equiv_pos_as_xyz
  1  'x, y, z'
loop_
 _atom_site_type_symbol
 _atom_site_label
 _atom_site_symmetry_multiplicity
 _atom_site_fract_x
 _atom_site_fract_y
 _atom_site_fract_z
 _atom_site_occupancy
  Ho  Ho0  1  0.000000  0.408411  0.500000  1
  Th  Th1  1  0.586005  0.587097  0.500000  1
  Th  Th2  1  0.413995  0.001092  0.500000  1
  Ga  Ga3  1  0.000000  0.744700  0.000000  1
  Ga  Ga4  1  0.231208  0.243479  0.000000  1
  Ga  Ga5  1  0.768792  0.012271  0.000000  1
  Rh  Rh6  1  0.345137  0.677686  0.000000  1
  Rh  Rh7  1  0.654863  0.332548  0.000000  1
  Rh  Rh8  1  0.000000  0.992714  0.500000  1
