# generated using pymatgen
data_LaErLuRh9
_symmetry_space_group_name_H-M   'P 1'
_cell_length_a   5.30185000
_cell_length_b   5.30184968
_cell_length_c   17.52961000
_cell_angle_alpha   90.00000000
_cell_angle_beta   90.00000000
_cell_angle_gamma   119.99998949
_symmetry_Int_Tables_number   1
_chemical_formula_structural   LaErLuRh9
_chemical_formula_sum   'La2 Er2 Lu2 Rh18'
_cell_volume   426.73452295
_cell_formula_units_Z   2
loop_
 _symmetry_equiv_pos_site_id
 _symmetry_equiv_pos_as_xyz
  1  'x, y, z'
loop_
 _atom_site_type_symbol
 _atom_site_label
 _atom_site_symmetry_multiplicity
 _atom_site_fract_x
 _atom_site_fract_y
 _atom_site_fract_z
 _atom_site_occupancy
  La  La0  1  0.333333  0.666667  0.749772  1
  La  La1  1  0.666667  0.333333  0.249772  1
  Er  Er2  1  0.666667  0.333333  0.459387  1
  Er  Er3  1  0.333333  0.666667  0.959387  1
  Lu  Lu4  1  0.333333  0.666667  0.541133  1
  Lu  Lu5  1  0.666667  0.333333  0.041133  1
  Rh  Rh6  1  0.167442  0.334886  0.123403  1
  Rh  Rh7  1  0.832558  0.665114  0.623403  1
  Rh  Rh8  1  0.665114  0.832558  0.123403  1
  Rh  Rh9  1  0.167442  0.832558  0.123403  1
  Rh  Rh10  1  0.832558  0.167442  0.623403  1
  Rh  Rh11  1  0.334886  0.167442  0.623403  1
  Rh  Rh12  1  0.832459  0.664918  0.876429  1
  Rh  Rh13  1  0.832459  0.167541  0.876429  1
  Rh  Rh14  1  0.335082  0.167541  0.876429  1
  Rh  Rh15  1  0.664918  0.832459  0.376429  1
  Rh  Rh16  1  0.167541  0.832459  0.376429  1
  Rh  Rh17  1  0.167541  0.335082  0.376429  1
  Rh  Rh18  1  0.000000  0.000000  0.250136  1
  Rh  Rh19  1  0.000000  0.000000  0.750136  1
  Rh  Rh20  1  0.333333  0.666667  0.249992  1
  Rh  Rh21  1  0.666667  0.333333  0.749992  1
  Rh  Rh22  1  0.000000  0.000000  0.000085  1
  Rh  Rh23  1  0.000000  0.000000  0.500085  1
