# generated using pymatgen
data_Y5In4CoAg
_symmetry_space_group_name_H-M   'P 1'
_cell_length_a   3.61830200
_cell_length_b   8.16017932
_cell_length_c   18.29228778
_cell_angle_alpha   89.82016638
_cell_angle_beta   90.00000000
_cell_angle_gamma   90.00000000
_symmetry_Int_Tables_number   1
_chemical_formula_structural   Y5In4CoAg
_chemical_formula_sum   'Y10 In8 Co2 Ag2'
_cell_volume   540.09530332
_cell_formula_units_Z   2
loop_
 _symmetry_equiv_pos_site_id
 _symmetry_equiv_pos_as_xyz
  1  'x, y, z'
loop_
 _atom_site_type_symbol
 _atom_site_label
 _atom_site_symmetry_multiplicity
 _atom_site_fract_x
 _atom_site_fract_y
 _atom_site_fract_z
 _atom_site_occupancy
  Y  Y0  1  0.500000  0.212791  0.775052  1
  Y  Y1  1  0.500000  0.787209  0.224948  1
  Y  Y2  1  0.500000  0.231935  0.283998  1
  Y  Y3  1  0.500000  0.768065  0.716002  1
  Y  Y4  1  0.500000  0.115059  0.587303  1
  Y  Y5  1  0.500000  0.884941  0.412697  1
  Y  Y6  1  0.500000  0.376370  0.078378  1
  Y  Y7  1  0.500000  0.623630  0.921622  1
  Y  Y8  1  0.500000  0.000000  0.000000  1
  Y  Y9  1  0.500000  0.500000  0.500000  1
  In  In10  1  0.000000  0.079053  0.151303  1
  In  In11  1  0.000000  0.920947  0.848697  1
  In  In12  1  0.000000  0.421321  0.648807  1
  In  In13  1  0.000000  0.578679  0.351193  1
  In  In14  1  0.000000  0.204897  0.432113  1
  In  In15  1  0.000000  0.795103  0.567887  1
  In  In16  1  0.000000  0.290640  0.929174  1
  In  In17  1  0.000000  0.709360  0.070826  1
  Co  Co18  1  0.000000  0.020090  0.693578  1
  Co  Co19  1  0.000000  0.979910  0.306422  1
  Ag  Ag20  1  0.000000  0.478846  0.199640  1
  Ag  Ag21  1  0.000000  0.521154  0.800360  1
