# generated using pymatgen
data_TmPa3(Rh2Pb)2
_symmetry_space_group_name_H-M   'P 1'
_cell_length_a   7.80922885
_cell_length_b   7.80922897
_cell_length_c   3.57195900
_cell_angle_alpha   90.00000000
_cell_angle_beta   90.00000000
_cell_angle_gamma   91.90186426
_symmetry_Int_Tables_number   1
_chemical_formula_structural   TmPa3(Rh2Pb)2
_chemical_formula_sum   'Tm1 Pa3 Rh4 Pb2'
_cell_volume   217.71255229
_cell_formula_units_Z   1
loop_
 _symmetry_equiv_pos_site_id
 _symmetry_equiv_pos_as_xyz
  1  'x, y, z'
loop_
 _atom_site_type_symbol
 _atom_site_label
 _atom_site_symmetry_multiplicity
 _atom_site_fract_x
 _atom_site_fract_y
 _atom_site_fract_z
 _atom_site_occupancy
  Tm  Tm0  1  0.829869  0.670131  0.500000  1
  Pa  Pa1  1  0.331029  0.828589  0.500000  1
  Pa  Pa2  1  0.671411  0.168971  0.500000  1
  Pa  Pa3  1  0.166542  0.333458  0.500000  1
  Rh  Rh4  1  0.875270  0.355235  0.000000  1
  Rh  Rh5  1  0.614208  0.885792  0.000000  1
  Rh  Rh6  1  0.361308  0.138692  0.000000  1
  Rh  Rh7  1  0.144765  0.624730  0.000000  1
  Pb  Pb8  1  0.510067  0.504470  0.000000  1
  Pb  Pb9  1  0.995530  0.989933  0.000000  1
