# generated using pymatgen
data_HoLu5TcSb2
_symmetry_space_group_name_H-M   'P 1'
_cell_length_a   8.02217100
_cell_length_b   8.00396352
_cell_length_c   4.22389700
_cell_angle_alpha   90.00000000
_cell_angle_beta   90.00000000
_cell_angle_gamma   120.07527450
_symmetry_Int_Tables_number   1
_chemical_formula_structural   HoLu5TcSb2
_chemical_formula_sum   'Ho1 Lu5 Tc1 Sb2'
_cell_volume   234.69889632
_cell_formula_units_Z   1
loop_
 _symmetry_equiv_pos_site_id
 _symmetry_equiv_pos_as_xyz
  1  'x, y, z'
loop_
 _atom_site_type_symbol
 _atom_site_label
 _atom_site_symmetry_multiplicity
 _atom_site_fract_x
 _atom_site_fract_y
 _atom_site_fract_z
 _atom_site_occupancy
  Ho  Ho0  1  0.605908  0.000000  0.000000  1
  Lu  Lu1  1  0.235011  0.000000  0.500000  1
  Lu  Lu2  1  0.000710  0.235393  0.500000  1
  Lu  Lu3  1  0.765318  0.764607  0.500000  1
  Lu  Lu4  1  0.999737  0.607524  0.000000  1
  Lu  Lu5  1  0.392213  0.392476  0.000000  1
  Tc  Tc6  1  0.001841  0.000000  0.000000  1
  Sb  Sb7  1  0.332555  0.665849  0.500000  1
  Sb  Sb8  1  0.666707  0.334151  0.500000  1
