# generated using pymatgen
data_YbY5HoFeI12
_symmetry_space_group_name_H-M   'P 1'
_cell_length_a   9.82625985
_cell_length_b   9.73849163
_cell_length_c   9.72882400
_cell_angle_alpha   106.68886606
_cell_angle_beta   106.81592167
_cell_angle_gamma   107.22680362
_symmetry_Int_Tables_number   1
_chemical_formula_structural   YbY5HoFeI12
_chemical_formula_sum   'Yb1 Y5 Ho1 Fe1 I12'
_cell_volume   777.19895016
_cell_formula_units_Z   1
loop_
 _symmetry_equiv_pos_site_id
 _symmetry_equiv_pos_as_xyz
  1  'x, y, z'
loop_
 _atom_site_type_symbol
 _atom_site_label
 _atom_site_symmetry_multiplicity
 _atom_site_fract_x
 _atom_site_fract_y
 _atom_site_fract_z
 _atom_site_occupancy
  Yb  Yb0  1  0.500018  0.500036  0.500012  1
  Y  Y1  1  0.975509  0.907055  0.713237  1
  Y  Y2  1  0.092129  0.287321  0.024198  1
  Y  Y3  1  0.301373  0.024751  0.097262  1
  Y  Y4  1  0.906879  0.712561  0.975466  1
  Y  Y5  1  0.023989  0.092911  0.286609  1
  Ho  Ho6  1  0.701811  0.975414  0.903580  1
  Fe  Fe7  1  0.999670  0.999926  0.999929  1
  I  I8  1  0.072791  0.224418  0.682031  1
  I  I9  1  0.377047  0.149938  0.456340  1
  I  I10  1  0.622685  0.850518  0.544817  1
  I  I11  1  0.222784  0.680241  0.072100  1
  I  I12  1  0.776259  0.318458  0.927673  1
  I  I13  1  0.681534  0.072565  0.224574  1
  I  I14  1  0.545261  0.622404  0.850683  1
  I  I15  1  0.848521  0.543757  0.620881  1
  I  I16  1  0.927286  0.775653  0.317998  1
  I  I17  1  0.318285  0.927064  0.774190  1
  I  I18  1  0.454688  0.378863  0.149312  1
  I  I19  1  0.151481  0.456145  0.379106  1
