# generated using pymatgen
data_Gd3Cd2(SiAu)2
_symmetry_space_group_name_H-M   'P 1'
_cell_length_a   4.43805900
_cell_length_b   7.36595622
_cell_length_c   7.24607700
_cell_angle_alpha   120.54880324
_cell_angle_beta   90.00000000
_cell_angle_gamma   90.00000000
_symmetry_Int_Tables_number   1
_chemical_formula_structural   Gd3Cd2(SiAu)2
_chemical_formula_sum   'Gd3 Cd2 Si2 Au2'
_cell_volume   203.99871185
_cell_formula_units_Z   1
loop_
 _symmetry_equiv_pos_site_id
 _symmetry_equiv_pos_as_xyz
  1  'x, y, z'
loop_
 _atom_site_type_symbol
 _atom_site_label
 _atom_site_symmetry_multiplicity
 _atom_site_fract_x
 _atom_site_fract_y
 _atom_site_fract_z
 _atom_site_occupancy
  Gd  Gd0  1  0.000000  0.420437  0.000000  1
  Gd  Gd1  1  0.000000  0.588120  0.590690  1
  Gd  Gd2  1  0.000000  0.997431  0.409310  1
  Cd  Cd3  1  0.500000  0.251589  0.252215  1
  Cd  Cd4  1  0.500000  0.999374  0.747785  1
  Si  Si5  1  0.500000  0.669917  0.329092  1
  Si  Si6  1  0.500000  0.340823  0.670908  1
  Au  Au7  1  0.000000  0.005556  0.000000  1
  Au  Au8  1  0.500000  0.726853  0.000000  1
