# generated using pymatgen
data_Yb4Si4PdPt7
_symmetry_space_group_name_H-M   'P 1'
_cell_length_a   5.55631637
_cell_length_b   6.90534869
_cell_length_c   7.32731167
_cell_angle_alpha   90.11329666
_cell_angle_beta   89.98148733
_cell_angle_gamma   89.49799095
_symmetry_Int_Tables_number   1
_chemical_formula_structural   Yb4Si4PdPt7
_chemical_formula_sum   'Yb4 Si4 Pd1 Pt7'
_cell_volume   281.12514965
_cell_formula_units_Z   1
loop_
 _symmetry_equiv_pos_site_id
 _symmetry_equiv_pos_as_xyz
  1  'x, y, z'
loop_
 _atom_site_type_symbol
 _atom_site_label
 _atom_site_symmetry_multiplicity
 _atom_site_fract_x
 _atom_site_fract_y
 _atom_site_fract_z
 _atom_site_occupancy
  Yb  Yb0  1  0.129098  0.748313  0.479635  1
  Yb  Yb1  1  0.368828  0.750164  0.978980  1
  Yb  Yb2  1  0.629570  0.251685  0.020063  1
  Yb  Yb3  1  0.870564  0.250637  0.521796  1
  Si  Si4  1  0.127753  0.250803  0.876310  1
  Si  Si5  1  0.374788  0.253057  0.376475  1
  Si  Si6  1  0.627453  0.749041  0.623935  1
  Si  Si7  1  0.867866  0.747054  0.122555  1
  Pd  Pd8  1  0.101846  0.049191  0.174479  1
  Pt  Pt9  1  0.105121  0.444689  0.172321  1
  Pt  Pt10  1  0.396238  0.051334  0.671841  1
  Pt  Pt11  1  0.397300  0.448324  0.673186  1
  Pt  Pt12  1  0.602638  0.553217  0.327680  1
  Pt  Pt13  1  0.602186  0.949689  0.326192  1
  Pt  Pt14  1  0.898223  0.553217  0.826705  1
  Pt  Pt15  1  0.900526  0.949585  0.827845  1
