# generated using pymatgen
data_Tb5CeCoTe2
_symmetry_space_group_name_H-M   'P 1'
_cell_length_a   8.47341862
_cell_length_b   8.43127161
_cell_length_c   3.86670300
_cell_angle_alpha   90.00000000
_cell_angle_beta   90.00000000
_cell_angle_gamma   119.83559261
_symmetry_Int_Tables_number   1
_chemical_formula_structural   Tb5CeCoTe2
_chemical_formula_sum   'Tb5 Ce1 Co1 Te2'
_cell_volume   239.62950724
_cell_formula_units_Z   1
loop_
 _symmetry_equiv_pos_site_id
 _symmetry_equiv_pos_as_xyz
  1  'x, y, z'
loop_
 _atom_site_type_symbol
 _atom_site_label
 _atom_site_symmetry_multiplicity
 _atom_site_fract_x
 _atom_site_fract_y
 _atom_site_fract_z
 _atom_site_occupancy
  Tb  Tb0  1  0.000000  0.424388  0.500000  1
  Tb  Tb1  1  0.602651  0.597789  0.500000  1
  Tb  Tb2  1  0.397349  0.995138  0.500000  1
  Tb  Tb3  1  0.234836  0.239562  0.000000  1
  Tb  Tb4  1  0.765164  0.004726  0.000000  1
  Ce  Ce5  1  0.000000  0.769271  0.000000  1
  Co  Co6  1  0.000000  0.973333  0.500000  1
  Te  Te7  1  0.342417  0.669106  0.000000  1
  Te  Te8  1  0.657583  0.326688  0.000000  1
