# generated using pymatgen
data_Zr6Mn8Fe8Si6Sb
_symmetry_space_group_name_H-M   'P 1'
_cell_length_a   8.24528421
_cell_length_b   8.24334411
_cell_length_c   8.24529301
_cell_angle_alpha   59.99166649
_cell_angle_beta   59.99958403
_cell_angle_gamma   59.99188388
_symmetry_Int_Tables_number   1
_chemical_formula_structural   Zr6Mn8Fe8Si6Sb
_chemical_formula_sum   'Zr6 Mn8 Fe8 Si6 Sb1'
_cell_volume   396.22765884
_cell_formula_units_Z   1
loop_
 _symmetry_equiv_pos_site_id
 _symmetry_equiv_pos_as_xyz
  1  'x, y, z'
loop_
 _atom_site_type_symbol
 _atom_site_label
 _atom_site_symmetry_multiplicity
 _atom_site_fract_x
 _atom_site_fract_y
 _atom_site_fract_z
 _atom_site_occupancy
  Zr  Zr0  1  0.704475  0.704396  0.295550  1
  Zr  Zr1  1  0.295610  0.704366  0.295522  1
  Zr  Zr2  1  0.704405  0.295649  0.295483  1
  Zr  Zr3  1  0.295525  0.295604  0.704450  1
  Zr  Zr4  1  0.704390  0.295634  0.704478  1
  Zr  Zr5  1  0.295595  0.704351  0.704517  1
  Mn  Mn6  1  0.872305  0.872285  0.383085  1
  Mn  Mn7  1  0.872281  0.383082  0.872328  1
  Mn  Mn8  1  0.383182  0.872232  0.872302  1
  Mn  Mn9  1  0.872268  0.872247  0.872308  1
  Mn  Mn10  1  0.127695  0.127715  0.616915  1
  Mn  Mn11  1  0.127719  0.616918  0.127672  1
  Mn  Mn12  1  0.616818  0.127768  0.127698  1
  Mn  Mn13  1  0.127732  0.127753  0.127692  1
  Fe  Fe14  1  0.676719  0.676641  0.969874  1
  Fe  Fe15  1  0.676710  0.969759  0.676771  1
  Fe  Fe16  1  0.969741  0.676667  0.676803  1
  Fe  Fe17  1  0.676739  0.676661  0.676800  1
  Fe  Fe18  1  0.323281  0.323359  0.030126  1
  Fe  Fe19  1  0.323290  0.030241  0.323229  1
  Fe  Fe20  1  0.030259  0.323333  0.323197  1
  Fe  Fe21  1  0.323261  0.323339  0.323200  1
  Si  Si22  1  0.000000  0.000000  0.500000  1
  Si  Si23  1  0.500000  0.000000  0.500000  1
  Si  Si24  1  0.000000  0.500000  0.500000  1
  Si  Si25  1  0.500000  0.500000  0.000000  1
  Si  Si26  1  0.000000  0.500000  0.000000  1
  Si  Si27  1  0.500000  0.000000  0.000000  1
  Sb  Sb28  1  0.000000  0.000000  0.000000  1
