# generated using pymatgen
data_Ba3Tm2Cl2O5
_symmetry_space_group_name_H-M   'P 1'
_cell_length_a   4.40767508
_cell_length_b   4.40767540
_cell_length_c   12.95009121
_cell_angle_alpha   99.79824377
_cell_angle_beta   99.79824201
_cell_angle_gamma   90.00000176
_symmetry_Int_Tables_number   1
_chemical_formula_structural   Ba3Tm2Cl2O5
_chemical_formula_sum   'Ba3 Tm2 Cl2 O5'
_cell_volume   244.19425372
_cell_formula_units_Z   1
loop_
 _symmetry_equiv_pos_site_id
 _symmetry_equiv_pos_as_xyz
  1  'x, y, z'
loop_
 _atom_site_type_symbol
 _atom_site_label
 _atom_site_symmetry_multiplicity
 _atom_site_fract_x
 _atom_site_fract_y
 _atom_site_fract_z
 _atom_site_occupancy
  Ba  Ba0  1  0.499999  0.499999  0.000000  1
  Ba  Ba1  1  0.660836  0.660836  0.321675  1
  Ba  Ba2  1  0.339163  0.339163  0.678326  1
  Tm  Tm3  1  0.083765  0.083765  0.167529  1
  Tm  Tm4  1  0.916234  0.916234  0.832471  1
  Cl  Cl5  1  0.204207  0.204207  0.408413  1
  Cl  Cl6  1  0.795792  0.795792  0.591587  1
  O  O7  1  0.000000  0.000000  0.000000  1
  O  O8  1  0.594725  0.094726  0.189451  1
  O  O9  1  0.094726  0.594725  0.189451  1
  O  O10  1  0.905274  0.405275  0.810549  1
  O  O11  1  0.405275  0.905274  0.810549  1
