# generated using pymatgen
data_Sr4H12PdPt
_symmetry_space_group_name_H-M   'P 1'
_cell_length_a   7.50630633
_cell_length_b   7.50630663
_cell_length_c   5.59466762
_cell_angle_alpha   90.16903972
_cell_angle_beta   90.16903372
_cell_angle_gamma   136.14665545
_symmetry_Int_Tables_number   1
_chemical_formula_structural   Sr4H12PdPt
_chemical_formula_sum   'Sr4 H12 Pd1 Pt1'
_cell_volume   218.38887675
_cell_formula_units_Z   1
loop_
 _symmetry_equiv_pos_site_id
 _symmetry_equiv_pos_as_xyz
  1  'x, y, z'
loop_
 _atom_site_type_symbol
 _atom_site_label
 _atom_site_symmetry_multiplicity
 _atom_site_fract_x
 _atom_site_fract_y
 _atom_site_fract_z
 _atom_site_occupancy
  Sr  Sr0  1  0.648066  0.351934  0.000000  1
  Sr  Sr1  1  0.351934  0.648066  0.000000  1
  Sr  Sr2  1  0.853386  0.146614  0.500000  1
  Sr  Sr3  1  0.146614  0.853386  0.500000  1
  H  H4  1  0.879356  0.120644  0.000000  1
  H  H5  1  0.120644  0.879356  0.000000  1
  H  H6  1  0.619898  0.380102  0.500000  1
  H  H7  1  0.380102  0.619898  0.500000  1
  H  H8  1  0.000757  0.501044  0.251935  1
  H  H9  1  0.999243  0.498956  0.748065  1
  H  H10  1  0.498956  0.999243  0.748065  1
  H  H11  1  0.501044  0.000757  0.251935  1
  H  H12  1  0.217453  0.217453  0.225237  1
  H  H13  1  0.782547  0.782547  0.774763  1
  H  H14  1  0.290576  0.290576  0.717616  1
  H  H15  1  0.709424  0.709424  0.282384  1
  Pd  Pd16  1  0.000000  0.000000  0.000000  1
  Pt  Pt17  1  0.500000  0.500000  0.500000  1
