# generated using pymatgen
data_Hf4Cr3Si4Mo
_symmetry_space_group_name_H-M   'P 1'
_cell_length_a   3.47651100
_cell_length_b   6.78065535
_cell_length_c   7.95663879
_cell_angle_alpha   90.09572437
_cell_angle_beta   90.00000000
_cell_angle_gamma   90.00000000
_symmetry_Int_Tables_number   1
_chemical_formula_structural   Hf4Cr3Si4Mo
_chemical_formula_sum   'Hf4 Cr3 Si4 Mo1'
_cell_volume   187.56176684
_cell_formula_units_Z   1
loop_
 _symmetry_equiv_pos_site_id
 _symmetry_equiv_pos_as_xyz
  1  'x, y, z'
loop_
 _atom_site_type_symbol
 _atom_site_label
 _atom_site_symmetry_multiplicity
 _atom_site_fract_x
 _atom_site_fract_y
 _atom_site_fract_z
 _atom_site_occupancy
  Hf  Hf0  1  0.750000  0.459303  0.167784  1
  Hf  Hf1  1  0.750000  0.953824  0.330516  1
  Hf  Hf2  1  0.250000  0.545194  0.833118  1
  Hf  Hf3  1  0.250000  0.043099  0.671192  1
  Cr  Cr4  1  0.750000  0.872951  0.941894  1
  Cr  Cr5  1  0.250000  0.633629  0.436870  1
  Cr  Cr6  1  0.250000  0.122221  0.060300  1
  Si  Si7  1  0.750000  0.237757  0.872933  1
  Si  Si8  1  0.750000  0.744003  0.634910  1
  Si  Si9  1  0.250000  0.760059  0.132880  1
  Si  Si10  1  0.250000  0.256428  0.357216  1
  Mo  Mo11  1  0.750000  0.371531  0.560385  1
