# generated using pymatgen
data_Cu3SiPt
_symmetry_space_group_name_H-M   'P 1'
_cell_length_a   6.47694500
_cell_length_b   6.47694500
_cell_length_c   6.47694500
_cell_angle_alpha   90.00000000
_cell_angle_beta   90.00000000
_cell_angle_gamma   90.00000000
_symmetry_Int_Tables_number   1
_chemical_formula_structural   Cu3SiPt
_chemical_formula_sum   'Cu12 Si4 Pt4'
_cell_volume   271.71313139
_cell_formula_units_Z   4
loop_
 _symmetry_equiv_pos_site_id
 _symmetry_equiv_pos_as_xyz
  1  'x, y, z'
loop_
 _atom_site_type_symbol
 _atom_site_label
 _atom_site_symmetry_multiplicity
 _atom_site_fract_x
 _atom_site_fract_y
 _atom_site_fract_z
 _atom_site_occupancy
  Cu  Cu0  1  0.116610  0.211107  0.457934  1
  Cu  Cu1  1  0.383390  0.788893  0.957934  1
  Cu  Cu2  1  0.883390  0.711107  0.042066  1
  Cu  Cu3  1  0.457934  0.116610  0.211107  1
  Cu  Cu4  1  0.616610  0.288893  0.542066  1
  Cu  Cu5  1  0.957934  0.383390  0.788893  1
  Cu  Cu6  1  0.042066  0.883390  0.711107  1
  Cu  Cu7  1  0.542066  0.616610  0.288893  1
  Cu  Cu8  1  0.211107  0.457934  0.116610  1
  Cu  Cu9  1  0.711107  0.042066  0.883390  1
  Cu  Cu10  1  0.288893  0.542066  0.616610  1
  Cu  Cu11  1  0.788893  0.957934  0.383390  1
  Si  Si12  1  0.056176  0.056176  0.056176  1
  Si  Si13  1  0.443824  0.943824  0.556176  1
  Si  Si14  1  0.943824  0.556176  0.443824  1
  Si  Si15  1  0.556176  0.443824  0.943824  1
  Pt  Pt16  1  0.679724  0.679724  0.679724  1
  Pt  Pt17  1  0.820276  0.320276  0.179724  1
  Pt  Pt18  1  0.320276  0.179724  0.820276  1
  Pt  Pt19  1  0.179724  0.820276  0.320276  1
