# generated using pymatgen
data_Tm6Lu4Si5P
_symmetry_space_group_name_H-M   'P 1'
_cell_length_a   8.24896200
_cell_length_b   8.25614146
_cell_length_c   6.14688700
_cell_angle_alpha   90.00000000
_cell_angle_beta   90.00000000
_cell_angle_gamma   119.97124635
_symmetry_Int_Tables_number   1
_chemical_formula_structural   Tm6Lu4Si5P
_chemical_formula_sum   'Tm6 Lu4 Si5 P1'
_cell_volume   362.65030727
_cell_formula_units_Z   1
loop_
 _symmetry_equiv_pos_site_id
 _symmetry_equiv_pos_as_xyz
  1  'x, y, z'
loop_
 _atom_site_type_symbol
 _atom_site_label
 _atom_site_symmetry_multiplicity
 _atom_site_fract_x
 _atom_site_fract_y
 _atom_site_fract_z
 _atom_site_occupancy
  Tm  Tm0  1  0.756246  0.000000  0.750000  1
  Tm  Tm1  1  0.757452  0.756754  0.250000  1
  Tm  Tm2  1  0.000699  0.243246  0.250000  1
  Tm  Tm3  1  0.000952  0.757580  0.750000  1
  Tm  Tm4  1  0.243371  0.242420  0.750000  1
  Tm  Tm5  1  0.243019  0.000000  0.250000  1
  Lu  Lu6  1  0.666217  0.332645  0.999755  1
  Lu  Lu7  1  0.333571  0.667355  0.500245  1
  Lu  Lu8  1  0.333571  0.667355  0.999755  1
  Lu  Lu9  1  0.666217  0.332645  0.500245  1
  Si  Si10  1  0.395278  0.394676  0.250000  1
  Si  Si11  1  0.000602  0.605324  0.250000  1
  Si  Si12  1  0.999952  0.394806  0.750000  1
  Si  Si13  1  0.605146  0.605194  0.750000  1
  Si  Si14  1  0.605728  0.000000  0.250000  1
  P  P15  1  0.391979  0.000000  0.750000  1
