# generated using pymatgen
data_Lu4VMoOs6
_symmetry_space_group_name_H-M   'P 1'
_cell_length_a   5.40322600
_cell_length_b   5.40322775
_cell_length_c   8.42902000
_cell_angle_alpha   90.00000000
_cell_angle_beta   90.00000000
_cell_angle_gamma   119.99998928
_symmetry_Int_Tables_number   1
_chemical_formula_structural   Lu4VMoOs6
_chemical_formula_sum   'Lu4 V1 Mo1 Os6'
_cell_volume   213.11507431
_cell_formula_units_Z   1
loop_
 _symmetry_equiv_pos_site_id
 _symmetry_equiv_pos_as_xyz
  1  'x, y, z'
loop_
 _atom_site_type_symbol
 _atom_site_label
 _atom_site_symmetry_multiplicity
 _atom_site_fract_x
 _atom_site_fract_y
 _atom_site_fract_z
 _atom_site_occupancy
  Lu  Lu0  1  0.333333  0.666667  0.435616  1
  Lu  Lu1  1  0.666667  0.333333  0.564384  1
  Lu  Lu2  1  0.666667  0.333333  0.936245  1
  Lu  Lu3  1  0.333333  0.666667  0.063755  1
  V  V4  1  0.000000  0.000000  0.500000  1
  Mo  Mo5  1  0.000000  0.000000  0.000000  1
  Os  Os6  1  0.171591  0.343184  0.746393  1
  Os  Os7  1  0.171591  0.828409  0.746393  1
  Os  Os8  1  0.343184  0.171591  0.253607  1
  Os  Os9  1  0.828409  0.656816  0.253607  1
  Os  Os10  1  0.656816  0.828409  0.746393  1
  Os  Os11  1  0.828409  0.171591  0.253607  1
