# generated using pymatgen
data_Pr8Ir3RuO24
_symmetry_space_group_name_H-M   'P 1'
_cell_length_a   5.48571911
_cell_length_b   9.47688565
_cell_length_c   10.24120541
_cell_angle_alpha   89.93527630
_cell_angle_beta   90.10223229
_cell_angle_gamma   89.88940047
_symmetry_Int_Tables_number   1
_chemical_formula_structural   Pr8Ir3RuO24
_chemical_formula_sum   'Pr8 Ir3 Ru1 O24'
_cell_volume   532.41281957
_cell_formula_units_Z   1
loop_
 _symmetry_equiv_pos_site_id
 _symmetry_equiv_pos_as_xyz
  1  'x, y, z'
loop_
 _atom_site_type_symbol
 _atom_site_label
 _atom_site_symmetry_multiplicity
 _atom_site_fract_x
 _atom_site_fract_y
 _atom_site_fract_z
 _atom_site_occupancy
  Pr  Pr0  1  0.033929  0.219004  0.133671  1
  Pr  Pr1  1  0.464846  0.777542  0.632602  1
  Pr  Pr2  1  0.967927  0.716880  0.368869  1
  Pr  Pr3  1  0.532993  0.283176  0.865688  1
  Pr  Pr4  1  0.025769  0.103491  0.537985  1
  Pr  Pr5  1  0.475602  0.898321  0.038941  1
  Pr  Pr6  1  0.975220  0.603681  0.961314  1
  Pr  Pr7  1  0.526028  0.399539  0.462728  1
  Ir  Ir8  1  0.544907  0.003124  0.357956  1
  Ir  Ir9  1  0.955736  0.997144  0.857214  1
  Ir  Ir10  1  0.456024  0.503698  0.142055  1
  Ru  Ru11  1  0.042349  0.494694  0.645093  1
  O  O12  1  0.435573  0.148966  0.479804  1
  O  O13  1  0.065028  0.852359  0.980818  1
  O  O14  1  0.563999  0.649646  0.019581  1
  O  O15  1  0.934265  0.349742  0.520817  1
  O  O16  1  0.723623  0.388374  0.064672  1
  O  O17  1  0.776456  0.608993  0.563001  1
  O  O18  1  0.277972  0.887476  0.434786  1
  O  O19  1  0.222576  0.113059  0.934074  1
  O  O20  1  0.248128  0.412045  0.005398  1
  O  O21  1  0.251461  0.589078  0.507394  1
  O  O22  1  0.752476  0.911576  0.494809  1
  O  O23  1  0.747866  0.089330  0.993260  1
  O  O24  1  0.185342  0.631694  0.178814  1
  O  O25  1  0.310224  0.365480  0.675814  1
  O  O26  1  0.813737  0.131762  0.320499  1
  O  O27  1  0.687858  0.867786  0.821220  1
  O  O28  1  0.337083  0.057171  0.215891  1
  O  O29  1  0.162541  0.942152  0.716379  1
  O  O30  1  0.662824  0.557826  0.283259  1
  O  O31  1  0.832504  0.447226  0.784430  1
  O  O32  1  0.324980  0.361397  0.257268  1
  O  O33  1  0.180774  0.635305  0.758883  1
  O  O34  1  0.678044  0.861234  0.242488  1
  O  O35  1  0.823339  0.140023  0.742529  1
