# generated using pymatgen
data_ErLu15Tl3In3Co2
_symmetry_space_group_name_H-M   'P 1'
_cell_length_a   10.14648800
_cell_length_b   10.15565161
_cell_length_c   6.92248801
_cell_angle_alpha   89.99735458
_cell_angle_beta   90.00000000
_cell_angle_gamma   119.97015611
_symmetry_Int_Tables_number   1
_chemical_formula_structural   ErLu15Tl3In3Co2
_chemical_formula_sum   'Er1 Lu15 Tl3 In3 Co2'
_cell_volume   617.94085446
_cell_formula_units_Z   1
loop_
 _symmetry_equiv_pos_site_id
 _symmetry_equiv_pos_as_xyz
  1  'x, y, z'
loop_
 _atom_site_type_symbol
 _atom_site_label
 _atom_site_symmetry_multiplicity
 _atom_site_fract_x
 _atom_site_fract_y
 _atom_site_fract_z
 _atom_site_occupancy
  Er  Er0  1  0.534691  0.069380  0.520381  1
  Lu  Lu1  1  0.929646  0.464472  0.521705  1
  Lu  Lu2  1  0.534826  0.464472  0.521705  1
  Lu  Lu3  1  0.463552  0.927104  0.023832  1
  Lu  Lu4  1  0.072503  0.536585  0.024859  1
  Lu  Lu5  1  0.464083  0.536585  0.024859  1
  Lu  Lu6  1  0.178731  0.357461  0.728449  1
  Lu  Lu7  1  0.642016  0.819926  0.727979  1
  Lu  Lu8  1  0.177911  0.819926  0.727979  1
  Lu  Lu9  1  0.820752  0.641504  0.226026  1
  Lu  Lu10  1  0.359125  0.180472  0.224263  1
  Lu  Lu11  1  0.821346  0.180472  0.224263  1
  Lu  Lu12  1  0.667135  0.334267  0.912842  1
  Lu  Lu13  1  0.333077  0.666154  0.413623  1
  Lu  Lu14  1  0.000221  0.000443  0.505778  1
  Lu  Lu15  1  0.999899  0.999799  0.010034  1
  Tl  Tl16  1  0.836623  0.673246  0.770175  1
  Tl  Tl17  1  0.325293  0.162075  0.770658  1
  Tl  Tl18  1  0.836781  0.162075  0.770658  1
  In  In19  1  0.162738  0.325476  0.271301  1
  In  In20  1  0.675390  0.838375  0.270607  1
  In  In21  1  0.162986  0.838375  0.270607  1
  Co  Co22  1  0.667489  0.334977  0.296129  1
  Co  Co23  1  0.333188  0.666378  0.796967  1
