# generated using pymatgen
data_Pr2HoSn2Hg3
_symmetry_space_group_name_H-M   'P 1'
_cell_length_a   6.44299663
_cell_length_b   6.44299625
_cell_length_c   10.64172900
_cell_angle_alpha   90.00000000
_cell_angle_beta   90.00000000
_cell_angle_gamma   102.32682753
_symmetry_Int_Tables_number   1
_chemical_formula_structural   Pr2HoSn2Hg3
_chemical_formula_sum   'Pr4 Ho2 Sn4 Hg6'
_cell_volume   431.57711985
_cell_formula_units_Z   2
loop_
 _symmetry_equiv_pos_site_id
 _symmetry_equiv_pos_as_xyz
  1  'x, y, z'
loop_
 _atom_site_type_symbol
 _atom_site_label
 _atom_site_symmetry_multiplicity
 _atom_site_fract_x
 _atom_site_fract_y
 _atom_site_fract_z
 _atom_site_occupancy
  Pr  Pr0  1  0.201681  0.798319  0.500000  1
  Pr  Pr1  1  0.201681  0.798319  0.000000  1
  Pr  Pr2  1  0.798319  0.201681  0.500000  1
  Pr  Pr3  1  0.798319  0.201681  0.000000  1
  Ho  Ho4  1  0.632708  0.632708  0.250000  1
  Ho  Ho5  1  0.367292  0.367292  0.750000  1
  Sn  Sn6  1  0.318711  0.318711  0.045934  1
  Sn  Sn7  1  0.681289  0.681289  0.954066  1
  Sn  Sn8  1  0.318711  0.318711  0.454066  1
  Sn  Sn9  1  0.681289  0.681289  0.545934  1
  Hg  Hg10  1  0.011002  0.011002  0.250000  1
  Hg  Hg11  1  0.988998  0.988998  0.750000  1
  Hg  Hg12  1  0.507596  0.070044  0.250000  1
  Hg  Hg13  1  0.929956  0.492404  0.750000  1
  Hg  Hg14  1  0.492404  0.929956  0.750000  1
  Hg  Hg15  1  0.070044  0.507596  0.250000  1
