# generated using pymatgen
data_NdLuPa2(Al8Pt3)3
_symmetry_space_group_name_H-M   'P 1'
_cell_length_a   7.57365519
_cell_length_b   7.58113734
_cell_length_c   13.12411216
_cell_angle_alpha   84.49457249
_cell_angle_beta   78.92544500
_cell_angle_gamma   59.91378125
_symmetry_Int_Tables_number   1
_chemical_formula_structural   NdLuPa2(Al8Pt3)3
_chemical_formula_sum   'Nd1 Lu1 Pa2 Al24 Pt9'
_cell_volume   639.88038607
_cell_formula_units_Z   1
loop_
 _symmetry_equiv_pos_site_id
 _symmetry_equiv_pos_as_xyz
  1  'x, y, z'
loop_
 _atom_site_type_symbol
 _atom_site_label
 _atom_site_symmetry_multiplicity
 _atom_site_fract_x
 _atom_site_fract_y
 _atom_site_fract_z
 _atom_site_occupancy
  Nd  Nd0  1  0.732987  0.498249  0.810061  1
  Lu  Lu1  1  0.265236  0.501311  0.193880  1
  Pa  Pa2  1  0.395423  0.168335  0.804387  1
  Pa  Pa3  1  0.604158  0.832395  0.195395  1
  Al  Al4  1  0.683587  0.835663  0.946787  1
  Al  Al5  1  0.315701  0.167349  0.056574  1
  Al  Al6  1  0.145947  0.832440  0.560322  1
  Al  Al7  1  0.854838  0.166932  0.438112  1
  Al  Al8  1  0.480805  0.167759  0.557078  1
  Al  Al9  1  0.519464  0.832376  0.441411  1
  Al  Al10  1  0.214608  0.168514  0.329851  1
  Al  Al11  1  0.786737  0.831842  0.667025  1
  Al  Al12  1  0.437644  0.509700  0.668006  1
  Al  Al13  1  0.562659  0.490373  0.329076  1
  Al  Al14  1  0.108691  0.159056  0.666018  1
  Al  Al15  1  0.893120  0.840203  0.330925  1
  Al  Al16  1  0.350165  0.499699  0.946250  1
  Al  Al17  1  0.644428  0.500935  0.059244  1
  Al  Al18  1  0.016733  0.166023  0.954720  1
  Al  Al19  1  0.984324  0.831360  0.049467  1
  Al  Al20  1  0.186191  0.500225  0.440551  1
  Al  Al21  1  0.814780  0.499718  0.557829  1
  Al  Al22  1  0.735904  0.162289  0.182848  1
  Al  Al23  1  0.261436  0.840146  0.817068  1
  Al  Al24  1  0.065088  0.630690  0.815897  1
  Al  Al25  1  0.938162  0.369104  0.184015  1
  Al  Al26  1  0.854802  0.037642  0.816764  1
  Al  Al27  1  0.145112  0.958983  0.183130  1
  Pt  Pt28  1  0.121724  0.490989  0.639002  1
  Pt  Pt29  1  0.880607  0.509269  0.359481  1
  Pt  Pt30  1  0.656466  0.172492  0.000572  1
  Pt  Pt31  1  0.342483  0.827910  0.000675  1
  Pt  Pt32  1  0.536933  0.166804  0.359748  1
  Pt  Pt33  1  0.461934  0.834846  0.638677  1
  Pt  Pt34  1  0.778275  0.174086  0.637587  1
  Pt  Pt35  1  0.222721  0.823836  0.360760  1
  Pt  Pt36  1  0.000126  0.500459  0.000805  1
