# generated using pymatgen
data_DyErPa4(Al3Os)8
_symmetry_space_group_name_H-M   'P 1'
_cell_length_a   8.85034916
_cell_length_b   8.85035017
_cell_length_c   9.45474100
_cell_angle_alpha   90.00000000
_cell_angle_beta   90.00000000
_cell_angle_gamma   119.65590684
_symmetry_Int_Tables_number   1
_chemical_formula_structural   DyErPa4(Al3Os)8
_chemical_formula_sum   'Dy1 Er1 Pa4 Al24 Os8'
_cell_volume   643.57111303
_cell_formula_units_Z   1
loop_
 _symmetry_equiv_pos_site_id
 _symmetry_equiv_pos_as_xyz
  1  'x, y, z'
loop_
 _atom_site_type_symbol
 _atom_site_label
 _atom_site_symmetry_multiplicity
 _atom_site_fract_x
 _atom_site_fract_y
 _atom_site_fract_z
 _atom_site_occupancy
  Dy  Dy0  1  0.197027  0.802973  0.250000  1
  Er  Er1  1  0.802372  0.197628  0.750000  1
  Pa  Pa2  1  0.198819  0.393388  0.250000  1
  Pa  Pa3  1  0.801121  0.606399  0.750000  1
  Pa  Pa4  1  0.606612  0.801181  0.250000  1
  Pa  Pa5  1  0.393601  0.198879  0.750000  1
  Al  Al6  1  0.331540  0.668460  0.019028  1
  Al  Al7  1  0.668597  0.331403  0.980725  1
  Al  Al8  1  0.668597  0.331403  0.519275  1
  Al  Al9  1  0.331540  0.668460  0.480972  1
  Al  Al10  1  0.161691  0.324704  0.577864  1
  Al  Al11  1  0.838165  0.675207  0.422134  1
  Al  Al12  1  0.675296  0.838309  0.577864  1
  Al  Al13  1  0.838165  0.675207  0.077866  1
  Al  Al14  1  0.324793  0.161835  0.422134  1
  Al  Al15  1  0.161691  0.324704  0.922136  1
  Al  Al16  1  0.162591  0.837409  0.579412  1
  Al  Al17  1  0.324793  0.161835  0.077866  1
  Al  Al18  1  0.837415  0.162585  0.420741  1
  Al  Al19  1  0.675296  0.838309  0.922136  1
  Al  Al20  1  0.837415  0.162585  0.079259  1
  Al  Al21  1  0.162591  0.837409  0.920588  1
  Al  Al22  1  0.560455  0.122891  0.250000  1
  Al  Al23  1  0.439754  0.877355  0.750000  1
  Al  Al24  1  0.877109  0.439545  0.250000  1
  Al  Al25  1  0.122645  0.560246  0.750000  1
  Al  Al26  1  0.564203  0.435797  0.250000  1
  Al  Al27  1  0.435798  0.564202  0.750000  1
  Al  Al28  1  0.999563  0.000437  0.250000  1
  Al  Al29  1  0.000260  0.999740  0.750000  1
  Os  Os30  1  0.500285  0.000065  0.999814  1
  Os  Os31  1  0.999935  0.499715  0.999814  1
  Os  Os32  1  0.500285  0.000065  0.500186  1
  Os  Os33  1  0.500017  0.499983  0.999981  1
  Os  Os34  1  0.999935  0.499715  0.500186  1
  Os  Os35  1  0.500017  0.499983  0.500019  1
  Os  Os36  1  0.000006  0.999994  0.999934  1
  Os  Os37  1  0.000006  0.999994  0.500066  1
