# generated using pymatgen
data_Er16Al4Ru3Au
_symmetry_space_group_name_H-M   'P 1'
_cell_length_a   9.46520311
_cell_length_b   9.46520382
_cell_length_c   9.46520408
_cell_angle_alpha   60.17769899
_cell_angle_beta   60.17769673
_cell_angle_gamma   60.17770126
_symmetry_Int_Tables_number   1
_chemical_formula_structural   Er16Al4Ru3Au
_chemical_formula_sum   'Er16 Al4 Ru3 Au1'
_cell_volume   602.03138905
_cell_formula_units_Z   1
loop_
 _symmetry_equiv_pos_site_id
 _symmetry_equiv_pos_as_xyz
  1  'x, y, z'
loop_
 _atom_site_type_symbol
 _atom_site_label
 _atom_site_symmetry_multiplicity
 _atom_site_fract_x
 _atom_site_fract_y
 _atom_site_fract_z
 _atom_site_occupancy
  Er  Er0  1  0.060983  0.060983  0.433994  1
  Er  Er1  1  0.640086  0.065471  0.640086  1
  Er  Er2  1  0.193573  0.806364  0.193573  1
  Er  Er3  1  0.437970  0.060826  0.437970  1
  Er  Er4  1  0.193573  0.193573  0.806364  1
  Er  Er5  1  0.650652  0.650652  0.650652  1
  Er  Er6  1  0.065471  0.640086  0.640086  1
  Er  Er7  1  0.433994  0.060983  0.060983  1
  Er  Er8  1  0.640086  0.640086  0.065471  1
  Er  Er9  1  0.205901  0.804076  0.804076  1
  Er  Er10  1  0.804076  0.205901  0.804076  1
  Er  Er11  1  0.806364  0.193573  0.193573  1
  Er  Er12  1  0.804076  0.804076  0.205901  1
  Er  Er13  1  0.060826  0.437970  0.437970  1
  Er  Er14  1  0.437970  0.437970  0.060826  1
  Er  Er15  1  0.060983  0.433994  0.060983  1
  Al  Al16  1  0.733143  0.422993  0.422993  1
  Al  Al17  1  0.422993  0.422993  0.733143  1
  Al  Al18  1  0.422993  0.733143  0.422993  1
  Al  Al19  1  0.421836  0.421836  0.421836  1
  Ru  Ru20  1  0.424975  0.860567  0.860567  1
  Ru  Ru21  1  0.860567  0.860567  0.424975  1
  Ru  Ru22  1  0.860567  0.424975  0.860567  1
  Au  Au23  1  0.856342  0.856342  0.856342  1
