# generated using pymatgen
data_Dy2Tm2Al13Ga5Ir6
_symmetry_space_group_name_H-M   'P 1'
_cell_length_a   7.52067706
_cell_length_b   7.52200766
_cell_length_c   9.54200600
_cell_angle_alpha   90.00000000
_cell_angle_beta   90.00000000
_cell_angle_gamma   119.58015610
_symmetry_Int_Tables_number   1
_chemical_formula_structural   Dy2Tm2Al13Ga5Ir6
_chemical_formula_sum   'Dy2 Tm2 Al13 Ga5 Ir6'
_cell_volume   469.44299554
_cell_formula_units_Z   1
loop_
 _symmetry_equiv_pos_site_id
 _symmetry_equiv_pos_as_xyz
  1  'x, y, z'
loop_
 _atom_site_type_symbol
 _atom_site_label
 _atom_site_symmetry_multiplicity
 _atom_site_fract_x
 _atom_site_fract_y
 _atom_site_fract_z
 _atom_site_occupancy
  Dy  Dy0  1  0.995067  0.670193  0.250000  1
  Dy  Dy1  1  0.670541  0.996492  0.250000  1
  Tm  Tm2  1  0.000843  0.326171  0.750000  1
  Tm  Tm3  1  0.329832  0.006336  0.750000  1
  Al  Al4  1  0.002567  0.334969  0.071920  1
  Al  Al5  1  0.999555  0.665311  0.926166  1
  Al  Al6  1  0.999555  0.665311  0.573834  1
  Al  Al7  1  0.334866  0.001985  0.428255  1
  Al  Al8  1  0.002567  0.334969  0.428080  1
  Al  Al9  1  0.664760  0.998351  0.574062  1
  Al  Al10  1  0.664760  0.998351  0.925938  1
  Al  Al11  1  0.334866  0.001985  0.071745  1
  Al  Al12  1  0.333431  0.333812  0.558014  1
  Al  Al13  1  0.665783  0.665801  0.446669  1
  Al  Al14  1  0.665783  0.665801  0.053331  1
  Al  Al15  1  0.333431  0.333812  0.941986  1
  Al  Al16  1  0.449976  0.661602  0.750000  1
  Ga  Ga17  1  0.129696  0.129728  0.250000  1
  Ga  Ga18  1  0.869970  0.869216  0.750000  1
  Ga  Ga19  1  0.338745  0.547418  0.250000  1
  Ga  Ga20  1  0.661594  0.453078  0.750000  1
  Ga  Ga21  1  0.547069  0.339232  0.250000  1
  Ir  Ir22  1  0.672406  0.327705  0.999703  1
  Ir  Ir23  1  0.329033  0.671714  0.997205  1
  Ir  Ir24  1  0.329033  0.671714  0.502795  1
  Ir  Ir25  1  0.672406  0.327705  0.500297  1
  Ir  Ir26  1  0.000934  0.000619  0.999363  1
  Ir  Ir27  1  0.000934  0.000619  0.500637  1
