# generated using pymatgen
data_Dy19HoSn16
_symmetry_space_group_name_H-M   'P 1'
_cell_length_a   8.04105003
_cell_length_b   8.18342303
_cell_length_c   15.47997100
_cell_angle_alpha   90.00000000
_cell_angle_beta   90.00000000
_cell_angle_gamma   89.98949024
_symmetry_Int_Tables_number   1
_chemical_formula_structural   Dy19HoSn16
_chemical_formula_sum   'Dy19 Ho1 Sn16'
_cell_volume   1018.63337633
_cell_formula_units_Z   1
loop_
 _symmetry_equiv_pos_site_id
 _symmetry_equiv_pos_as_xyz
  1  'x, y, z'
loop_
 _atom_site_type_symbol
 _atom_site_label
 _atom_site_symmetry_multiplicity
 _atom_site_fract_x
 _atom_site_fract_y
 _atom_site_fract_z
 _atom_site_occupancy
  Dy  Dy0  1  0.367714  0.835707  0.878269  1
  Dy  Dy1  1  0.867855  0.664192  0.621729  1
  Dy  Dy2  1  0.632237  0.164245  0.378272  1
  Dy  Dy3  1  0.132232  0.335753  0.121699  1
  Dy  Dy4  1  0.632237  0.164245  0.121728  1
  Dy  Dy5  1  0.132232  0.335753  0.378301  1
  Dy  Dy6  1  0.367714  0.835707  0.621731  1
  Dy  Dy7  1  0.867855  0.664192  0.878271  1
  Dy  Dy8  1  0.521294  0.320047  0.902253  1
  Dy  Dy9  1  0.021375  0.180041  0.597739  1
  Dy  Dy10  1  0.478674  0.680000  0.402271  1
  Dy  Dy11  1  0.978655  0.820012  0.097744  1
  Dy  Dy12  1  0.478674  0.680000  0.097729  1
  Dy  Dy13  1  0.978655  0.820012  0.402256  1
  Dy  Dy14  1  0.521294  0.320047  0.597747  1
  Dy  Dy15  1  0.021375  0.180041  0.902261  1
  Dy  Dy16  1  0.698187  0.997276  0.750000  1
  Dy  Dy17  1  0.801785  0.497253  0.250000  1
  Dy  Dy18  1  0.301782  0.002760  0.250000  1
  Ho  Ho19  1  0.198301  0.502701  0.750000  1
  Sn  Sn20  1  0.291961  0.034340  0.041847  1
  Sn  Sn21  1  0.791961  0.465638  0.458152  1
  Sn  Sn22  1  0.708039  0.965665  0.541870  1
  Sn  Sn23  1  0.208041  0.534310  0.958020  1
  Sn  Sn24  1  0.708039  0.965665  0.958130  1
  Sn  Sn25  1  0.208041  0.534310  0.541980  1
  Sn  Sn26  1  0.291961  0.034340  0.458153  1
  Sn  Sn27  1  0.791961  0.465638  0.041848  1
  Sn  Sn28  1  0.565088  0.619005  0.750000  1
  Sn  Sn29  1  0.065418  0.880760  0.750000  1
  Sn  Sn30  1  0.434601  0.380924  0.250000  1
  Sn  Sn31  1  0.934644  0.119108  0.250000  1
  Sn  Sn32  1  0.329001  0.146806  0.750000  1
  Sn  Sn33  1  0.829154  0.353563  0.750000  1
  Sn  Sn34  1  0.670950  0.853475  0.250000  1
  Sn  Sn35  1  0.171014  0.646467  0.250000  1
