# generated using pymatgen
data_Ho2FeB6
_symmetry_space_group_name_H-M   'P 1'
_cell_length_a   3.54200900
_cell_length_b   9.07026500
_cell_length_c   11.42528700
_cell_angle_alpha   90.00000000
_cell_angle_beta   90.00000000
_cell_angle_gamma   90.00000000
_symmetry_Int_Tables_number   1
_chemical_formula_structural   Ho2FeB6
_chemical_formula_sum   'Ho8 Fe4 B24'
_cell_volume   367.05974144
_cell_formula_units_Z   4
loop_
 _symmetry_equiv_pos_site_id
 _symmetry_equiv_pos_as_xyz
  1  'x, y, z'
loop_
 _atom_site_type_symbol
 _atom_site_label
 _atom_site_symmetry_multiplicity
 _atom_site_fract_x
 _atom_site_fract_y
 _atom_site_fract_z
 _atom_site_occupancy
  Ho  Ho0  1  0.000000  0.824213  0.085477  1
  Ho  Ho1  1  0.000000  0.175787  0.914523  1
  Ho  Ho2  1  0.000000  0.324213  0.414523  1
  Ho  Ho3  1  0.000000  0.675787  0.585477  1
  Ho  Ho4  1  0.000000  0.443036  0.129556  1
  Ho  Ho5  1  0.000000  0.556964  0.870444  1
  Ho  Ho6  1  0.000000  0.943036  0.370444  1
  Ho  Ho7  1  0.000000  0.056964  0.629556  1
  Fe  Fe8  1  0.000000  0.138420  0.179221  1
  Fe  Fe9  1  0.000000  0.861580  0.820779  1
  Fe  Fe10  1  0.000000  0.638420  0.320779  1
  Fe  Fe11  1  0.000000  0.361580  0.679221  1
  B  B12  1  0.500000  0.054292  0.067893  1
  B  B13  1  0.500000  0.945708  0.932107  1
  B  B14  1  0.500000  0.554292  0.432107  1
  B  B15  1  0.500000  0.445708  0.567893  1
  B  B16  1  0.500000  0.246482  0.081465  1
  B  B17  1  0.500000  0.753518  0.918535  1
  B  B18  1  0.500000  0.746482  0.418535  1
  B  B19  1  0.500000  0.253518  0.581465  1
  B  B20  1  0.500000  0.289247  0.233711  1
  B  B21  1  0.500000  0.710753  0.766289  1
  B  B22  1  0.500000  0.789247  0.266289  1
  B  B23  1  0.500000  0.210753  0.733711  1
  B  B24  1  0.500000  0.132231  0.314229  1
  B  B25  1  0.500000  0.867769  0.685771  1
  B  B26  1  0.500000  0.632231  0.185771  1
  B  B27  1  0.500000  0.367769  0.814229  1
  B  B28  1  0.500000  0.486083  0.288447  1
  B  B29  1  0.500000  0.513917  0.711553  1
  B  B30  1  0.500000  0.986083  0.211553  1
  B  B31  1  0.500000  0.013917  0.788447  1
  B  B32  1  0.500000  0.109374  0.470024  1
  B  B33  1  0.500000  0.890626  0.529976  1
  B  B34  1  0.500000  0.609374  0.029976  1
  B  B35  1  0.500000  0.390626  0.970024  1
