# generated using pymatgen
data_Er4Sn5PRh7
_symmetry_space_group_name_H-M   'P 1'
_cell_length_a   7.48881288
_cell_length_b   7.48881447
_cell_length_c   7.48881379
_cell_angle_alpha   109.82409226
_cell_angle_beta   108.76774987
_cell_angle_gamma   109.82409662
_symmetry_Int_Tables_number   1
_chemical_formula_structural   Er4Sn5PRh7
_chemical_formula_sum   'Er4 Sn5 P1 Rh7'
_cell_volume   323.27207267
_cell_formula_units_Z   1
loop_
 _symmetry_equiv_pos_site_id
 _symmetry_equiv_pos_as_xyz
  1  'x, y, z'
loop_
 _atom_site_type_symbol
 _atom_site_label
 _atom_site_symmetry_multiplicity
 _atom_site_fract_x
 _atom_site_fract_y
 _atom_site_fract_z
 _atom_site_occupancy
  Er  Er0  1  0.467846  0.453778  0.467846  1
  Er  Er1  1  0.014068  0.546222  0.014068  1
  Er  Er2  1  0.467846  0.000000  0.014068  1
  Er  Er3  1  0.014068  0.000000  0.467846  1
  Sn  Sn4  1  0.713416  0.000000  0.713416  1
  Sn  Sn5  1  0.668309  0.685804  0.982506  1
  Sn  Sn6  1  0.296702  0.314196  0.982506  1
  Sn  Sn7  1  0.982506  0.685804  0.668309  1
  Sn  Sn8  1  0.982506  0.314196  0.296702  1
  P  P9  1  0.355325  0.000000  0.355325  1
  Rh  Rh10  1  0.503046  0.758019  0.261065  1
  Rh  Rh11  1  0.745027  0.241981  0.503046  1
  Rh  Rh12  1  0.261065  0.758019  0.503046  1
  Rh  Rh13  1  0.237177  0.500000  0.737177  1
  Rh  Rh14  1  0.050869  0.000000  0.050869  1
  Rh  Rh15  1  0.503046  0.241981  0.745027  1
  Rh  Rh16  1  0.737177  0.500000  0.237177  1
