# generated using pymatgen
data_Hf2TaRe3SiGe2
_symmetry_space_group_name_H-M   'P 1'
_cell_length_a   7.00607000
_cell_length_b   7.04859983
_cell_length_c   3.37637100
_cell_angle_alpha   90.00000000
_cell_angle_beta   90.00000000
_cell_angle_gamma   120.20104055
_symmetry_Int_Tables_number   1
_chemical_formula_structural   Hf2TaRe3SiGe2
_chemical_formula_sum   'Hf2 Ta1 Re3 Si1 Ge2'
_cell_volume   144.10357322
_cell_formula_units_Z   1
loop_
 _symmetry_equiv_pos_site_id
 _symmetry_equiv_pos_as_xyz
  1  'x, y, z'
loop_
 _atom_site_type_symbol
 _atom_site_label
 _atom_site_symmetry_multiplicity
 _atom_site_fract_x
 _atom_site_fract_y
 _atom_site_fract_z
 _atom_site_occupancy
  Hf  Hf0  1  0.397619  0.399127  0.500000  1
  Hf  Hf1  1  0.602381  0.001508  0.500000  1
  Ta  Ta2  1  0.000000  0.602270  0.500000  1
  Re  Re3  1  0.750403  0.746817  0.000000  1
  Re  Re4  1  0.249597  0.996414  0.000000  1
  Re  Re5  1  0.000000  0.252677  0.000000  1
  Si  Si6  1  0.000000  0.998637  0.500000  1
  Ge  Ge7  1  0.670279  0.336413  0.000000  1
  Ge  Ge8  1  0.329721  0.666135  0.000000  1
