# generated using pymatgen
data_Cs4KRb3(ZrTe3)4
_symmetry_space_group_name_H-M   'P 1'
_cell_length_a   14.89565118
_cell_length_b   6.97747231
_cell_length_c   10.04366390
_cell_angle_alpha   70.43669634
_cell_angle_beta   89.77832469
_cell_angle_gamma   89.85515304
_symmetry_Int_Tables_number   1
_chemical_formula_structural   Cs4KRb3(ZrTe3)4
_chemical_formula_sum   'Cs4 K1 Rb3 Zr4 Te12'
_cell_volume   983.60901295
_cell_formula_units_Z   1
loop_
 _symmetry_equiv_pos_site_id
 _symmetry_equiv_pos_as_xyz
  1  'x, y, z'
loop_
 _atom_site_type_symbol
 _atom_site_label
 _atom_site_symmetry_multiplicity
 _atom_site_fract_x
 _atom_site_fract_y
 _atom_site_fract_z
 _atom_site_occupancy
  Cs  Cs0  1  0.951080  0.671151  0.658321  1
  Cs  Cs1  1  0.453250  0.831180  0.340779  1
  Cs  Cs2  1  0.048795  0.326287  0.343945  1
  Cs  Cs3  1  0.546952  0.171465  0.657554  1
  K  K4  1  0.865407  0.064506  0.905249  1
  Rb  Rb5  1  0.365100  0.432062  0.099030  1
  Rb  Rb6  1  0.134176  0.929730  0.100542  1
  Rb  Rb7  1  0.636493  0.568579  0.899155  1
  Zr  Zr8  1  0.749795  0.659992  0.287551  1
  Zr  Zr9  1  0.247366  0.840574  0.711586  1
  Zr  Zr10  1  0.249479  0.340490  0.711803  1
  Zr  Zr11  1  0.752735  0.159503  0.289860  1
  Te  Te12  1  0.909774  0.895596  0.262680  1
  Te  Te13  1  0.408000  0.605221  0.731765  1
  Te  Te14  1  0.088492  0.106359  0.735332  1
  Te  Te15  1  0.592055  0.395296  0.266490  1
  Te  Te16  1  0.812308  0.272851  0.520514  1
  Te  Te17  1  0.310273  0.225641  0.481530  1
  Te  Te18  1  0.187143  0.726178  0.482152  1
  Te  Te19  1  0.688369  0.775066  0.517152  1
  Te  Te20  1  0.846975  0.485115  0.084010  1
  Te  Te21  1  0.343888  0.014159  0.915339  1
  Te  Te22  1  0.153711  0.514357  0.916766  1
  Te  Te23  1  0.658383  0.988645  0.080895  1
