# generated using pymatgen
data_PrNd3Be4(GeO7)2
_symmetry_space_group_name_H-M   'P 1'
_cell_length_a   7.64591961
_cell_length_b   7.64591961
_cell_length_c   4.94126264
_cell_angle_alpha   89.95845955
_cell_angle_beta   90.04154045
_cell_angle_gamma   90.06154537
_symmetry_Int_Tables_number   1
_chemical_formula_structural   PrNd3Be4(GeO7)2
_chemical_formula_sum   'Pr1 Nd3 Be4 Ge2 O14'
_cell_volume   288.86632404
_cell_formula_units_Z   1
loop_
 _symmetry_equiv_pos_site_id
 _symmetry_equiv_pos_as_xyz
  1  'x, y, z'
loop_
 _atom_site_type_symbol
 _atom_site_label
 _atom_site_symmetry_multiplicity
 _atom_site_fract_x
 _atom_site_fract_y
 _atom_site_fract_z
 _atom_site_occupancy
  Pr  Pr0  1  0.159648  0.340353  0.495851  1
  Nd  Nd1  1  0.340484  0.840345  0.503945  1
  Nd  Nd2  1  0.659655  0.159517  0.503945  1
  Nd  Nd3  1  0.839837  0.660163  0.496523  1
  Be  Be4  1  0.132797  0.634012  0.959901  1
  Be  Be5  1  0.865987  0.367201  0.959901  1
  Be  Be6  1  0.633053  0.866946  0.040518  1
  Be  Be7  1  0.367841  0.132157  0.040102  1
  Ge  Ge8  1  0.999813  0.999428  0.999694  1
  Ge  Ge9  1  0.500572  0.500187  0.999694  1
  O  O10  1  0.078115  0.826613  0.794094  1
  O  O11  1  0.920919  0.173569  0.796468  1
  O  O12  1  0.578481  0.673631  0.204908  1
  O  O13  1  0.422989  0.325721  0.203112  1
  O  O14  1  0.326430  0.579081  0.796468  1
  O  O15  1  0.673387  0.421886  0.794094  1
  O  O16  1  0.174278  0.077012  0.203112  1
  O  O17  1  0.826369  0.921519  0.204908  1
  O  O18  1  0.141552  0.643461  0.281043  1
  O  O19  1  0.856539  0.358449  0.281043  1
  O  O20  1  0.641980  0.858020  0.719205  1
  O  O21  1  0.359900  0.140101  0.718761  1
  O  O22  1  0.998950  0.501050  0.829282  1
  O  O23  1  0.500423  0.999577  0.173441  1
