# generated using pymatgen
data_TaFe4Pt
_symmetry_space_group_name_H-M   'P 1'
_cell_length_a   4.78091489
_cell_length_b   4.78091569
_cell_length_c   4.78091500
_cell_angle_alpha   60.00001168
_cell_angle_beta   60.00000613
_cell_angle_gamma   60.00001363
_symmetry_Int_Tables_number   1
_chemical_formula_structural   TaFe4Pt
_chemical_formula_sum   'Ta1 Fe4 Pt1'
_cell_volume   77.27130107
_cell_formula_units_Z   1
loop_
 _symmetry_equiv_pos_site_id
 _symmetry_equiv_pos_as_xyz
  1  'x, y, z'
loop_
 _atom_site_type_symbol
 _atom_site_label
 _atom_site_symmetry_multiplicity
 _atom_site_fract_x
 _atom_site_fract_y
 _atom_site_fract_z
 _atom_site_occupancy
  Ta  Ta0  1  0.000000  0.000000  0.000000  1
  Fe  Fe1  1  0.875510  0.374830  0.374830  1
  Fe  Fe2  1  0.374830  0.875510  0.374830  1
  Fe  Fe3  1  0.374830  0.374830  0.374830  1
  Fe  Fe4  1  0.374830  0.374830  0.875510  1
  Pt  Pt5  1  0.750000  0.750000  0.750000  1
