# generated using pymatgen
data_Lu6CuTcSn
_symmetry_space_group_name_H-M   'P 1'
_cell_length_a   8.34103978
_cell_length_b   8.34104077
_cell_length_c   8.34103995
_cell_angle_alpha   113.36813362
_cell_angle_beta   111.12523388
_cell_angle_gamma   104.06100363
_symmetry_Int_Tables_number   1
_chemical_formula_structural   Lu6CuTcSn
_chemical_formula_sum   'Lu12 Cu2 Tc2 Sn2'
_cell_volume   443.58550717
_cell_formula_units_Z   2
loop_
 _symmetry_equiv_pos_site_id
 _symmetry_equiv_pos_as_xyz
  1  'x, y, z'
loop_
 _atom_site_type_symbol
 _atom_site_label
 _atom_site_symmetry_multiplicity
 _atom_site_fract_x
 _atom_site_fract_y
 _atom_site_fract_z
 _atom_site_occupancy
  Lu  Lu0  1  0.663527  0.848832  0.185305  1
  Lu  Lu1  1  0.336473  0.521778  0.185305  1
  Lu  Lu2  1  0.813885  0.781932  0.595817  1
  Lu  Lu3  1  0.186115  0.781932  0.968047  1
  Lu  Lu4  1  0.813885  0.218068  0.031953  1
  Lu  Lu5  1  0.186115  0.218068  0.404183  1
  Lu  Lu6  1  0.663527  0.478222  0.814695  1
  Lu  Lu7  1  0.336473  0.151168  0.814695  1
  Lu  Lu8  1  0.558427  0.258832  0.299595  1
  Lu  Lu9  1  0.441573  0.741168  0.700405  1
  Lu  Lu10  1  0.040763  0.741168  0.299595  1
  Lu  Lu11  1  0.959237  0.258832  0.700405  1
  Cu  Cu12  1  0.879732  0.879732  0.000000  1
  Cu  Cu13  1  0.120268  0.120268  0.000000  1
  Tc  Tc14  1  0.324472  0.500000  0.824472  1
  Tc  Tc15  1  0.675528  0.500000  0.175528  1
  Sn  Sn16  1  0.000000  0.500000  0.500000  1
  Sn  Sn17  1  0.500000  0.000000  0.500000  1
