# generated using pymatgen
data_TmPu4W2C7
_symmetry_space_group_name_H-M   'P 1'
_cell_length_a   8.46930879
_cell_length_b   8.46930848
_cell_length_c   3.40072900
_cell_angle_alpha   90.00000000
_cell_angle_beta   90.00000000
_cell_angle_gamma   124.91931839
_symmetry_Int_Tables_number   1
_chemical_formula_structural   TmPu4W2C7
_chemical_formula_sum   'Tm1 Pu4 W2 C7'
_cell_volume   200.01383556
_cell_formula_units_Z   1
loop_
 _symmetry_equiv_pos_site_id
 _symmetry_equiv_pos_as_xyz
  1  'x, y, z'
loop_
 _atom_site_type_symbol
 _atom_site_label
 _atom_site_symmetry_multiplicity
 _atom_site_fract_x
 _atom_site_fract_y
 _atom_site_fract_z
 _atom_site_occupancy
  Tm  Tm0  1  0.500000  0.500000  0.000000  1
  Pu  Pu1  1  0.317830  0.059267  0.500000  1
  Pu  Pu2  1  0.682170  0.940733  0.500000  1
  Pu  Pu3  1  0.059267  0.317830  0.500000  1
  Pu  Pu4  1  0.940733  0.682170  0.500000  1
  W  W5  1  0.290082  0.709918  0.000000  1
  W  W6  1  0.709918  0.290082  0.000000  1
  C  C7  1  0.174552  0.174552  0.000000  1
  C  C8  1  0.825448  0.825448  0.000000  1
  C  C9  1  0.000000  0.000000  0.000000  1
  C  C10  1  0.377396  0.622604  0.500000  1
  C  C11  1  0.622604  0.377396  0.500000  1
  C  C12  1  0.500000  0.000000  0.000000  1
  C  C13  1  0.000000  0.500000  0.000000  1
