# generated using pymatgen
data_YbSm6TcI12
_symmetry_space_group_name_H-M   'P 1'
_cell_length_a   9.92252486
_cell_length_b   9.92252341
_cell_length_c   9.92252600
_cell_angle_alpha   107.03084493
_cell_angle_beta   107.03083632
_cell_angle_gamma   107.03083609
_symmetry_Int_Tables_number   1
_chemical_formula_structural   YbSm6TcI12
_chemical_formula_sum   'Yb1 Sm6 Tc1 I12'
_cell_volume   812.91709350
_cell_formula_units_Z   1
loop_
 _symmetry_equiv_pos_site_id
 _symmetry_equiv_pos_as_xyz
  1  'x, y, z'
loop_
 _atom_site_type_symbol
 _atom_site_label
 _atom_site_symmetry_multiplicity
 _atom_site_fract_x
 _atom_site_fract_y
 _atom_site_fract_z
 _atom_site_occupancy
  Yb  Yb0  1  0.500000  0.500000  0.500000  1
  Sm  Sm1  1  0.099155  0.027265  0.302936  1
  Sm  Sm2  1  0.302936  0.099155  0.027265  1
  Sm  Sm3  1  0.027265  0.302936  0.099155  1
  Sm  Sm4  1  0.900845  0.972735  0.697064  1
  Sm  Sm5  1  0.697064  0.900845  0.972735  1
  Sm  Sm6  1  0.972735  0.697064  0.900845  1
  Tc  Tc7  1  0.000000  0.000000  0.000000  1
  I  I8  1  0.073892  0.682795  0.225801  1
  I  I9  1  0.225801  0.073892  0.682795  1
  I  I10  1  0.682795  0.225801  0.073892  1
  I  I11  1  0.926108  0.317205  0.774199  1
  I  I12  1  0.774199  0.926108  0.317205  1
  I  I13  1  0.317205  0.774199  0.926108  1
  I  I14  1  0.461064  0.156309  0.383654  1
  I  I15  1  0.383654  0.461064  0.156309  1
  I  I16  1  0.156309  0.383654  0.461064  1
  I  I17  1  0.538936  0.843691  0.616346  1
  I  I18  1  0.616346  0.538936  0.843691  1
  I  I19  1  0.843691  0.616346  0.538936  1
