# generated using pymatgen
data_ZrNbFe12P7
_symmetry_space_group_name_H-M   'P 1'
_cell_length_a   8.85010600
_cell_length_b   8.85010669
_cell_length_c   3.57314800
_cell_angle_alpha   90.00000000
_cell_angle_beta   90.00000000
_cell_angle_gamma   119.99998993
_symmetry_Int_Tables_number   1
_chemical_formula_structural   ZrNbFe12P7
_chemical_formula_sum   'Zr1 Nb1 Fe12 P7'
_cell_volume   242.36988658
_cell_formula_units_Z   1
loop_
 _symmetry_equiv_pos_site_id
 _symmetry_equiv_pos_as_xyz
  1  'x, y, z'
loop_
 _atom_site_type_symbol
 _atom_site_label
 _atom_site_symmetry_multiplicity
 _atom_site_fract_x
 _atom_site_fract_y
 _atom_site_fract_z
 _atom_site_occupancy
  Zr  Zr0  1  0.333333  0.666667  0.500000  1
  Nb  Nb1  1  0.000000  0.000000  0.000000  1
  Fe  Fe2  1  0.098625  0.393891  0.000000  1
  Fe  Fe3  1  0.295266  0.901375  0.000000  1
  Fe  Fe4  1  0.606109  0.704734  0.000000  1
  Fe  Fe5  1  0.822894  0.610312  0.000000  1
  Fe  Fe6  1  0.787417  0.177106  0.000000  1
  Fe  Fe7  1  0.389688  0.212583  0.000000  1
  Fe  Fe8  1  0.050450  0.774679  0.500000  1
  Fe  Fe9  1  0.724230  0.949550  0.500000  1
  Fe  Fe10  1  0.225321  0.275770  0.500000  1
  Fe  Fe11  1  0.891696  0.434429  0.500000  1
  Fe  Fe12  1  0.542732  0.108304  0.500000  1
  Fe  Fe13  1  0.565571  0.457268  0.500000  1
  P  P14  1  0.078827  0.630360  0.000000  1
  P  P15  1  0.551533  0.921173  0.000000  1
  P  P16  1  0.369640  0.448467  0.000000  1
  P  P17  1  0.783298  0.739191  0.500000  1
  P  P18  1  0.955893  0.216702  0.500000  1
  P  P19  1  0.260809  0.044107  0.500000  1
  P  P20  1  0.666667  0.333333  0.000000  1
