# generated using pymatgen
data_Ca2Mn5FeNi6As7
_symmetry_space_group_name_H-M   'P 1'
_cell_length_a   9.65272411
_cell_length_b   9.59035630
_cell_length_c   3.79308000
_cell_angle_alpha   90.00000000
_cell_angle_beta   90.00000000
_cell_angle_gamma   120.06862435
_symmetry_Int_Tables_number   1
_chemical_formula_structural   Ca2Mn5FeNi6As7
_chemical_formula_sum   'Ca2 Mn5 Fe1 Ni6 As7'
_cell_volume   303.88309270
_cell_formula_units_Z   1
loop_
 _symmetry_equiv_pos_site_id
 _symmetry_equiv_pos_as_xyz
  1  'x, y, z'
loop_
 _atom_site_type_symbol
 _atom_site_label
 _atom_site_symmetry_multiplicity
 _atom_site_fract_x
 _atom_site_fract_y
 _atom_site_fract_z
 _atom_site_occupancy
  Ca  Ca0  1  0.997239  0.997325  0.000000  1
  Ca  Ca1  1  0.667408  0.335164  0.500000  1
  Mn  Mn2  1  0.955357  0.241774  0.500000  1
  Mn  Mn3  1  0.287956  0.043001  0.500000  1
  Mn  Mn4  1  0.429527  0.547944  0.500000  1
  Mn  Mn5  1  0.115003  0.571396  0.500000  1
  Mn  Mn6  1  0.456810  0.887385  0.500000  1
  Fe  Fe7  1  0.759400  0.713994  0.500000  1
  Ni  Ni8  1  0.388334  0.285916  0.000000  1
  Ni  Ni9  1  0.900210  0.611919  0.000000  1
  Ni  Ni10  1  0.714213  0.100244  0.000000  1
  Ni  Ni11  1  0.609075  0.789090  0.000000  1
  Ni  Ni12  1  0.176655  0.388605  0.000000  1
  Ni  Ni13  1  0.210296  0.822644  0.000000  1
  As  As14  1  0.624146  0.547572  0.000000  1
  As  As15  1  0.922317  0.377808  0.000000  1
  As  As16  1  0.457522  0.076243  0.000000  1
  As  As17  1  0.746057  0.959385  0.500000  1
  As  As18  1  0.216249  0.251894  0.500000  1
  As  As19  1  0.033260  0.783680  0.500000  1
  As  As20  1  0.332966  0.667017  0.000000  1
