# generated using pymatgen
data_KAl(PSe3)2
_symmetry_space_group_name_H-M   'P 1'
_cell_length_a   12.77714767
_cell_length_b   12.25146388
_cell_length_c   7.55096117
_cell_angle_alpha   76.28726722
_cell_angle_beta   68.67406384
_cell_angle_gamma   35.03866232
_symmetry_Int_Tables_number   1
_chemical_formula_structural   KAl(PSe3)2
_chemical_formula_sum   'K2 Al2 P4 Se12'
_cell_volume   628.07688011
_cell_formula_units_Z   2
loop_
 _symmetry_equiv_pos_site_id
 _symmetry_equiv_pos_as_xyz
  1  'x, y, z'
loop_
 _atom_site_type_symbol
 _atom_site_label
 _atom_site_symmetry_multiplicity
 _atom_site_fract_x
 _atom_site_fract_y
 _atom_site_fract_z
 _atom_site_occupancy
  K  K0  1  0.839991  0.839991  0.660009  1
  K  K1  1  0.589991  0.589991  0.410009  1
  Al  Al2  1  0.179070  0.179070  0.320930  1
  Al  Al3  1  0.929070  0.929070  0.070930  1
  P  P4  1  0.975889  0.057988  0.641940  1
  P  P5  1  0.057988  0.975889  0.324184  1
  P  P6  1  0.925816  0.608060  0.192012  1
  P  P7  1  0.608060  0.925816  0.274111  1
  Se  Se8  1  0.079087  0.630808  0.968860  1
  Se  Se9  1  0.630808  0.079087  0.321244  1
  Se  Se10  1  0.928756  0.281140  0.619192  1
  Se  Se11  1  0.281140  0.928756  0.170913  1
  Se  Se12  1  0.203693  0.802221  0.770058  1
  Se  Se13  1  0.802221  0.203693  0.224029  1
  Se  Se14  1  0.025971  0.479942  0.447779  1
  Se  Se15  1  0.479942  0.025971  0.046307  1
  Se  Se16  1  0.169627  0.719588  0.273401  1
  Se  Se17  1  0.719588  0.169627  0.837384  1
  Se  Se18  1  0.412616  0.976599  0.530412  1
  Se  Se19  1  0.976599  0.412616  0.080373  1
