# generated using pymatgen
data_Cs6YLuBr12
_symmetry_space_group_name_H-M   'P 1'
_cell_length_a   9.99106300
_cell_length_b   9.99354587
_cell_length_c   8.28857200
_cell_angle_alpha   90.00000000
_cell_angle_beta   90.00000000
_cell_angle_gamma   90.06212008
_symmetry_Int_Tables_number   1
_chemical_formula_structural   Cs6YLuBr12
_chemical_formula_sum   'Cs6 Y1 Lu1 Br12'
_cell_volume   827.58148709
_cell_formula_units_Z   1
loop_
 _symmetry_equiv_pos_site_id
 _symmetry_equiv_pos_as_xyz
  1  'x, y, z'
loop_
 _atom_site_type_symbol
 _atom_site_label
 _atom_site_symmetry_multiplicity
 _atom_site_fract_x
 _atom_site_fract_y
 _atom_site_fract_z
 _atom_site_occupancy
  Cs  Cs0  1  0.000000  0.000000  0.500000  1
  Cs  Cs1  1  0.000000  0.000000  0.000000  1
  Cs  Cs2  1  0.236237  0.580803  0.500000  1
  Cs  Cs3  1  0.763763  0.419197  0.500000  1
  Cs  Cs4  1  0.419431  0.235224  0.000000  1
  Cs  Cs5  1  0.580569  0.764776  0.000000  1
  Y  Y6  1  0.000000  0.500000  0.000000  1
  Lu  Lu7  1  0.500000  0.000000  0.500000  1
  Br  Br8  1  0.688687  0.055031  0.736654  1
  Br  Br9  1  0.311313  0.944969  0.736654  1
  Br  Br10  1  0.944003  0.692102  0.240746  1
  Br  Br11  1  0.055997  0.307898  0.240746  1
  Br  Br12  1  0.311313  0.944969  0.263346  1
  Br  Br13  1  0.688687  0.055031  0.263346  1
  Br  Br14  1  0.055997  0.307898  0.759254  1
  Br  Br15  1  0.944003  0.692102  0.759254  1
  Br  Br16  1  0.569432  0.733560  0.500000  1
  Br  Br17  1  0.430568  0.266440  0.500000  1
  Br  Br18  1  0.271374  0.570848  0.000000  1
  Br  Br19  1  0.728626  0.429152  0.000000  1
