# generated using pymatgen
data_Zr3Mn(Co4P3)2
_symmetry_space_group_name_H-M   'P 1'
_cell_length_a   11.94372510
_cell_length_b   11.97871382
_cell_length_c   3.62717600
_cell_angle_alpha   90.00000000
_cell_angle_beta   90.00000000
_cell_angle_gamma   120.09694531
_symmetry_Int_Tables_number   1
_chemical_formula_structural   Zr3Mn(Co4P3)2
_chemical_formula_sum   'Zr6 Mn2 Co16 P12'
_cell_volume   448.97707265
_cell_formula_units_Z   2
loop_
 _symmetry_equiv_pos_site_id
 _symmetry_equiv_pos_as_xyz
  1  'x, y, z'
loop_
 _atom_site_type_symbol
 _atom_site_label
 _atom_site_symmetry_multiplicity
 _atom_site_fract_x
 _atom_site_fract_y
 _atom_site_fract_z
 _atom_site_occupancy
  Zr  Zr0  1  0.000000  0.555758  0.000000  1
  Zr  Zr1  1  0.666067  0.332132  0.000000  1
  Zr  Zr2  1  0.333933  0.666066  0.000000  1
  Zr  Zr3  1  0.817629  0.817812  0.500000  1
  Zr  Zr4  1  0.182371  0.000182  0.500000  1
  Zr  Zr5  1  0.000000  0.176810  0.500000  1
  Mn  Mn6  1  0.446048  0.445806  0.000000  1
  Mn  Mn7  1  0.553952  0.999758  0.000000  1
  Co  Co8  1  0.199474  0.374495  0.000000  1
  Co  Co9  1  0.182630  0.810534  0.000000  1
  Co  Co10  1  0.817370  0.627904  0.000000  1
  Co  Co11  1  0.800526  0.175021  0.000000  1
  Co  Co12  1  0.376443  0.198058  0.000000  1
  Co  Co13  1  0.128097  0.478829  0.500000  1
  Co  Co14  1  0.359996  0.875535  0.500000  1
  Co  Co15  1  0.516763  0.644878  0.500000  1
  Co  Co16  1  0.640004  0.515539  0.500000  1
  Co  Co17  1  0.871903  0.350732  0.500000  1
  Co  Co18  1  0.483237  0.128116  0.500000  1
  Co  Co19  1  0.000000  0.001241  0.000000  1
  Co  Co20  1  0.715663  0.999454  0.500000  1
  Co  Co21  1  0.000000  0.722662  0.500000  1
  Co  Co22  1  0.623557  0.821615  0.000000  1
  Co  Co23  1  0.284337  0.283791  0.500000  1
  P  P24  1  0.638582  0.642801  0.000000  1
  P  P25  1  0.361418  0.004220  0.000000  1
  P  P26  1  0.000000  0.344475  0.000000  1
  P  P27  1  0.481682  0.314844  0.500000  1
  P  P28  1  0.683491  0.165305  0.500000  1
  P  P29  1  0.823596  0.516692  0.500000  1
  P  P30  1  0.518318  0.833162  0.500000  1
  P  P31  1  0.176404  0.693096  0.500000  1
  P  P32  1  0.821563  0.998360  0.000000  1
  P  P33  1  0.000000  0.825709  0.000000  1
  P  P34  1  0.316509  0.481814  0.500000  1
  P  P35  1  0.178437  0.176797  0.000000  1
