# generated using pymatgen
data_Fe4Mo3P4Ru
_symmetry_space_group_name_H-M   'P 1'
_cell_length_a   3.72914900
_cell_length_b   5.85357706
_cell_length_c   6.66987148
_cell_angle_alpha   90.11707931
_cell_angle_beta   90.00000000
_cell_angle_gamma   90.00000000
_symmetry_Int_Tables_number   1
_chemical_formula_structural   Fe4Mo3P4Ru
_chemical_formula_sum   'Fe4 Mo3 P4 Ru1'
_cell_volume   145.59539363
_cell_formula_units_Z   1
loop_
 _symmetry_equiv_pos_site_id
 _symmetry_equiv_pos_as_xyz
  1  'x, y, z'
loop_
 _atom_site_type_symbol
 _atom_site_label
 _atom_site_symmetry_multiplicity
 _atom_site_fract_x
 _atom_site_fract_y
 _atom_site_fract_z
 _atom_site_occupancy
  Fe  Fe0  1  0.250000  0.862170  0.932027  1
  Fe  Fe1  1  0.250000  0.360646  0.562726  1
  Fe  Fe2  1  0.750000  0.138467  0.067740  1
  Fe  Fe3  1  0.750000  0.642628  0.435282  1
  Mo  Mo4  1  0.250000  0.476765  0.172890  1
  Mo  Mo5  1  0.750000  0.028475  0.668572  1
  Mo  Mo6  1  0.750000  0.525750  0.828994  1
  P  P7  1  0.250000  0.232546  0.879167  1
  P  P8  1  0.250000  0.730867  0.618085  1
  P  P9  1  0.750000  0.770018  0.120967  1
  P  P10  1  0.750000  0.266141  0.380975  1
  Ru  Ru11  1  0.250000  0.965528  0.332576  1
