# generated using pymatgen
data_Hf4PdRhN
_symmetry_space_group_name_H-M   'P 1'
_cell_length_a   8.73475052
_cell_length_b   8.73475036
_cell_length_c   8.73475200
_cell_angle_alpha   60.00000137
_cell_angle_beta   60.00000198
_cell_angle_gamma   60.00000290
_symmetry_Int_Tables_number   1
_chemical_formula_structural   Hf4PdRhN
_chemical_formula_sum   'Hf16 Pd4 Rh4 N4'
_cell_volume   471.23398556
_cell_formula_units_Z   4
loop_
 _symmetry_equiv_pos_site_id
 _symmetry_equiv_pos_as_xyz
  1  'x, y, z'
loop_
 _atom_site_type_symbol
 _atom_site_label
 _atom_site_symmetry_multiplicity
 _atom_site_fract_x
 _atom_site_fract_y
 _atom_site_fract_z
 _atom_site_occupancy
  Hf  Hf0  1  0.111150  0.629617  0.629617  1
  Hf  Hf1  1  0.629617  0.111150  0.629617  1
  Hf  Hf2  1  0.629617  0.629617  0.111150  1
  Hf  Hf3  1  0.629617  0.629617  0.629617  1
  Hf  Hf4  1  0.818253  0.818253  0.181747  1
  Hf  Hf5  1  0.181747  0.181747  0.818253  1
  Hf  Hf6  1  0.818253  0.181747  0.818253  1
  Hf  Hf7  1  0.181747  0.818253  0.181747  1
  Hf  Hf8  1  0.181747  0.818253  0.818253  1
  Hf  Hf9  1  0.818253  0.181747  0.181747  1
  Hf  Hf10  1  0.432750  0.432750  0.067250  1
  Hf  Hf11  1  0.067250  0.067250  0.432750  1
  Hf  Hf12  1  0.432750  0.067250  0.432750  1
  Hf  Hf13  1  0.067250  0.432750  0.067250  1
  Hf  Hf14  1  0.067250  0.432750  0.432750  1
  Hf  Hf15  1  0.432750  0.067250  0.067250  1
  Pd  Pd16  1  0.766856  0.411048  0.411048  1
  Pd  Pd17  1  0.411048  0.766856  0.411048  1
  Pd  Pd18  1  0.411048  0.411048  0.766856  1
  Pd  Pd19  1  0.411048  0.411048  0.411048  1
  Rh  Rh20  1  0.467688  0.844104  0.844104  1
  Rh  Rh21  1  0.844104  0.467688  0.844104  1
  Rh  Rh22  1  0.844104  0.844104  0.467688  1
  Rh  Rh23  1  0.844104  0.844104  0.844104  1
  N  N24  1  0.623825  0.125392  0.125392  1
  N  N25  1  0.125392  0.623825  0.125392  1
  N  N26  1  0.125392  0.125392  0.623825  1
  N  N27  1  0.125392  0.125392  0.125392  1
