# generated using pymatgen
data_CsTbEr9(C2Br9)2
_symmetry_space_group_name_H-M   'P 1'
_cell_length_a   10.62543435
_cell_length_b   10.71008077
_cell_length_c   10.83247063
_cell_angle_alpha   113.43581348
_cell_angle_beta   87.51393458
_cell_angle_gamma   118.83240930
_symmetry_Int_Tables_number   1
_chemical_formula_structural   CsTbEr9(C2Br9)2
_chemical_formula_sum   'Cs1 Tb1 Er9 C4 Br18'
_cell_volume   973.78501918
_cell_formula_units_Z   1
loop_
 _symmetry_equiv_pos_site_id
 _symmetry_equiv_pos_as_xyz
  1  'x, y, z'
loop_
 _atom_site_type_symbol
 _atom_site_label
 _atom_site_symmetry_multiplicity
 _atom_site_fract_x
 _atom_site_fract_y
 _atom_site_fract_z
 _atom_site_occupancy
  Cs  Cs0  1  0.499989  0.999943  0.500092  1
  Tb  Tb1  1  0.887396  0.058417  0.999099  1
  Er  Er2  1  0.664922  0.718092  0.703959  1
  Er  Er3  1  0.282104  0.363580  0.012431  1
  Er  Er4  1  0.093366  0.404609  0.299374  1
  Er  Er5  1  0.960318  0.036511  0.332486  1
  Er  Er6  1  0.906893  0.594693  0.700212  1
  Er  Er7  1  0.110318  0.942166  0.000977  1
  Er  Er8  1  0.040115  0.963338  0.667517  1
  Er  Er9  1  0.336003  0.282151  0.296451  1
  Er  Er10  1  0.718280  0.636165  0.987559  1
  C  C11  1  0.158812  0.228473  0.123796  1
  C  C12  1  0.842867  0.770512  0.876108  1
  C  C13  1  0.922661  0.850544  0.794874  1
  C  C14  1  0.078968  0.148569  0.205109  1
  Br  Br15  1  0.451332  0.530559  0.833649  1
  Br  Br16  1  0.382506  0.039943  0.159448  1
  Br  Br17  1  0.778701  0.857358  0.501467  1
  Br  Br18  1  0.838725  0.315141  0.157106  1
  Br  Br19  1  0.548928  0.469611  0.166377  1
  Br  Br20  1  0.221414  0.142591  0.498706  1
  Br  Br21  1  0.314931  0.099648  0.828982  1
  Br  Br22  1  0.684421  0.899422  0.171964  1
  Br  Br23  1  0.973951  0.760404  0.172690  1
  Br  Br24  1  0.933075  0.301956  0.500701  1
  Br  Br25  1  0.027368  0.240543  0.826245  1
  Br  Br26  1  0.067140  0.698049  0.499243  1
  Br  Br27  1  0.259830  0.621752  0.186061  1
  Br  Br28  1  0.740082  0.377940  0.813890  1
  Br  Br29  1  0.639564  0.434818  0.500289  1
  Br  Br30  1  0.161185  0.689439  0.845841  1
  Br  Br31  1  0.613476  0.957912  0.837605  1
  Br  Br32  1  0.360359  0.565150  0.499693  1
