# generated using pymatgen
data_YbEu3(AlH5)4
_symmetry_space_group_name_H-M   'P 1'
_cell_length_a   4.38597415
_cell_length_b   5.04219137
_cell_length_c   12.36180360
_cell_angle_alpha   90.14812362
_cell_angle_beta   90.07653282
_cell_angle_gamma   90.01287464
_symmetry_Int_Tables_number   1
_chemical_formula_structural   YbEu3(AlH5)4
_chemical_formula_sum   'Yb1 Eu3 Al4 H20'
_cell_volume   273.37914607
_cell_formula_units_Z   1
loop_
 _symmetry_equiv_pos_site_id
 _symmetry_equiv_pos_as_xyz
  1  'x, y, z'
loop_
 _atom_site_type_symbol
 _atom_site_label
 _atom_site_symmetry_multiplicity
 _atom_site_fract_x
 _atom_site_fract_y
 _atom_site_fract_z
 _atom_site_occupancy
  Yb  Yb0  1  0.712843  0.644750  0.841364  1
  Eu  Eu1  1  0.291805  0.144067  0.660850  1
  Eu  Eu2  1  0.790112  0.356294  0.341279  1
  Eu  Eu3  1  0.209513  0.856474  0.158745  1
  Al  Al4  1  0.319743  0.127698  0.913828  1
  Al  Al5  1  0.816810  0.370525  0.083850  1
  Al  Al6  1  0.183006  0.871111  0.415211  1
  Al  Al7  1  0.683284  0.629653  0.586624  1
  H  H8  1  0.519695  0.384879  0.511678  1
  H  H9  1  0.019580  0.116029  0.489503  1
  H  H10  1  0.976123  0.614951  0.008406  1
  H  H11  1  0.482144  0.880321  0.986705  1
  H  H12  1  0.160724  0.899993  0.825804  1
  H  H13  1  0.667737  0.598734  0.173420  1
  H  H14  1  0.331982  0.098750  0.325775  1
  H  H15  1  0.831823  0.404025  0.676876  1
  H  H16  1  0.188724  0.393616  0.838781  1
  H  H17  1  0.690086  0.108023  0.161393  1
  H  H18  1  0.310065  0.607872  0.338127  1
  H  H19  1  0.810576  0.893269  0.662365  1
  H  H20  1  0.630717  0.131018  0.826291  1
  H  H21  1  0.128568  0.366518  0.173151  1
  H  H22  1  0.870919  0.866272  0.326238  1
  H  H23  1  0.372516  0.634630  0.675278  1
  H  H24  1  0.013646  0.123872  0.005580  1
  H  H25  1  0.513251  0.376318  0.992153  1
  H  H26  1  0.487417  0.876103  0.506981  1
  H  H27  1  0.986587  0.624234  0.493743  1
