# generated using pymatgen
data_Lu3CdHgRu
_symmetry_space_group_name_H-M   'P 1'
_cell_length_a   3.45889600
_cell_length_b   3.45889600
_cell_length_c   11.35936800
_cell_angle_alpha   90.00000000
_cell_angle_beta   90.00000000
_cell_angle_gamma   90.00000000
_symmetry_Int_Tables_number   1
_chemical_formula_structural   Lu3CdHgRu
_chemical_formula_sum   'Lu3 Cd1 Hg1 Ru1'
_cell_volume   135.90304186
_cell_formula_units_Z   1
loop_
 _symmetry_equiv_pos_site_id
 _symmetry_equiv_pos_as_xyz
  1  'x, y, z'
loop_
 _atom_site_type_symbol
 _atom_site_label
 _atom_site_symmetry_multiplicity
 _atom_site_fract_x
 _atom_site_fract_y
 _atom_site_fract_z
 _atom_site_occupancy
  Lu  Lu0  1  0.000000  0.000000  0.974077  1
  Lu  Lu1  1  0.000000  0.000000  0.329458  1
  Lu  Lu2  1  0.000000  0.000000  0.696376  1
  Cd  Cd3  1  0.500001  0.500001  0.508546  1
  Hg  Hg4  1  0.500001  0.500001  0.157393  1
  Ru  Ru5  1  0.500001  0.500001  0.834149  1
