# generated using pymatgen
data_ThCu3RhAu
_symmetry_space_group_name_H-M   'P 1'
_cell_length_a   5.06999266
_cell_length_b   5.06999355
_cell_length_c   5.29683367
_cell_angle_alpha   61.40682374
_cell_angle_beta   61.40681974
_cell_angle_gamma   60.00000332
_symmetry_Int_Tables_number   1
_chemical_formula_structural   ThCu3RhAu
_chemical_formula_sum   'Th1 Cu3 Rh1 Au1'
_cell_volume   98.27223793
_cell_formula_units_Z   1
loop_
 _symmetry_equiv_pos_site_id
 _symmetry_equiv_pos_as_xyz
  1  'x, y, z'
loop_
 _atom_site_type_symbol
 _atom_site_label
 _atom_site_symmetry_multiplicity
 _atom_site_fract_x
 _atom_site_fract_y
 _atom_site_fract_z
 _atom_site_occupancy
  Th  Th0  1  0.998124  0.998124  0.005628  1
  Cu  Cu1  1  0.627673  0.131814  0.612840  1
  Cu  Cu2  1  0.131814  0.627673  0.612840  1
  Cu  Cu3  1  0.627673  0.627673  0.612840  1
  Rh  Rh4  1  0.629033  0.629033  0.112900  1
  Au  Au5  1  0.235682  0.235682  0.292954  1
