# generated using pymatgen
data_BaNdPd10
_symmetry_space_group_name_H-M   'P 1'
_cell_length_a   4.48506400
_cell_length_b   5.47722100
_cell_length_c   9.46071400
_cell_angle_alpha   90.00000000
_cell_angle_beta   90.00000000
_cell_angle_gamma   90.00000000
_symmetry_Int_Tables_number   1
_chemical_formula_structural   BaNdPd10
_chemical_formula_sum   'Ba1 Nd1 Pd10'
_cell_volume   232.40893634
_cell_formula_units_Z   1
loop_
 _symmetry_equiv_pos_site_id
 _symmetry_equiv_pos_as_xyz
  1  'x, y, z'
loop_
 _atom_site_type_symbol
 _atom_site_label
 _atom_site_symmetry_multiplicity
 _atom_site_fract_x
 _atom_site_fract_y
 _atom_site_fract_z
 _atom_site_occupancy
  Ba  Ba0  1  0.000000  0.000000  0.000000  1
  Nd  Nd1  1  0.000000  0.500000  0.500000  1
  Pd  Pd2  1  0.000000  0.000000  0.341704  1
  Pd  Pd3  1  0.000000  0.500000  0.821906  1
  Pd  Pd4  1  0.000000  0.500000  0.178094  1
  Pd  Pd5  1  0.000000  0.000000  0.658296  1
  Pd  Pd6  1  0.500000  0.500000  0.000000  1
  Pd  Pd7  1  0.500000  0.000000  0.500000  1
  Pd  Pd8  1  0.500000  0.253290  0.257142  1
  Pd  Pd9  1  0.500000  0.746710  0.742858  1
  Pd  Pd10  1  0.500000  0.746710  0.257142  1
  Pd  Pd11  1  0.500000  0.253290  0.742858  1
