# generated using pymatgen
data_TbY5(Er2Pb3)2
_symmetry_space_group_name_H-M   'P 1'
_cell_length_a   9.05757926
_cell_length_b   9.05757912
_cell_length_c   6.63023000
_cell_angle_alpha   90.00000000
_cell_angle_beta   90.00000000
_cell_angle_gamma   120.02731316
_symmetry_Int_Tables_number   1
_chemical_formula_structural   TbY5(Er2Pb3)2
_chemical_formula_sum   'Tb1 Y5 Er4 Pb6'
_cell_volume   470.93819036
_cell_formula_units_Z   1
loop_
 _symmetry_equiv_pos_site_id
 _symmetry_equiv_pos_as_xyz
  1  'x, y, z'
loop_
 _atom_site_type_symbol
 _atom_site_label
 _atom_site_symmetry_multiplicity
 _atom_site_fract_x
 _atom_site_fract_y
 _atom_site_fract_z
 _atom_site_occupancy
  Tb  Tb0  1  0.760597  0.760597  0.750000  1
  Y  Y1  1  0.239401  0.000043  0.750000  1
  Y  Y2  1  0.000043  0.239401  0.750000  1
  Y  Y3  1  0.239335  0.239335  0.250000  1
  Y  Y4  1  0.760574  0.999973  0.250000  1
  Y  Y5  1  0.999973  0.760574  0.250000  1
  Er  Er6  1  0.666654  0.333307  0.000014  1
  Er  Er7  1  0.333307  0.666654  0.000014  1
  Er  Er8  1  0.333307  0.666654  0.499986  1
  Er  Er9  1  0.666654  0.333307  0.499986  1
  Pb  Pb10  1  0.394783  0.394783  0.750000  1
  Pb  Pb11  1  0.604972  0.000246  0.750000  1
  Pb  Pb12  1  0.000246  0.604972  0.750000  1
  Pb  Pb13  1  0.605167  0.605167  0.250000  1
  Pb  Pb14  1  0.394940  0.000048  0.250000  1
  Pb  Pb15  1  0.000048  0.394940  0.250000  1
