# generated using pymatgen
data_CsV3CoO9
_symmetry_space_group_name_H-M   'P 1'
_cell_length_a   6.74153885
_cell_length_b   6.73568470
_cell_length_c   6.73756707
_cell_angle_alpha   103.85661209
_cell_angle_beta   103.47587792
_cell_angle_gamma   103.76321527
_symmetry_Int_Tables_number   1
_chemical_formula_structural   CsV3CoO9
_chemical_formula_sum   'Cs1 V3 Co1 O9'
_cell_volume   274.53045355
_cell_formula_units_Z   1
loop_
 _symmetry_equiv_pos_site_id
 _symmetry_equiv_pos_as_xyz
  1  'x, y, z'
loop_
 _atom_site_type_symbol
 _atom_site_label
 _atom_site_symmetry_multiplicity
 _atom_site_fract_x
 _atom_site_fract_y
 _atom_site_fract_z
 _atom_site_occupancy
  Cs  Cs0  1  0.526096  0.526849  0.526788  1
  V  V1  1  0.961971  0.518274  0.117191  1
  V  V2  1  0.117417  0.962227  0.518844  1
  V  V3  1  0.518313  0.117242  0.961894  1
  Co  Co4  1  0.997618  0.997092  0.997595  1
  O  O5  1  0.071575  0.326967  0.032851  1
  O  O6  1  0.327895  0.033113  0.072550  1
  O  O7  1  0.695469  0.385906  0.126238  1
  O  O8  1  0.035692  0.073462  0.328996  1
  O  O9  1  0.125985  0.695100  0.384993  1
  O  O10  1  0.947273  0.936264  0.665704  1
  O  O11  1  0.385062  0.126055  0.695919  1
  O  O12  1  0.665923  0.948376  0.935287  1
  O  O13  1  0.937912  0.667270  0.949350  1
