# generated using pymatgen
data_LiPr2(ErSi2)2
_symmetry_space_group_name_H-M   'P 1'
_cell_length_a   7.23307300
_cell_length_b   7.75897600
_cell_length_c   14.83327100
_cell_angle_alpha   90.00000000
_cell_angle_beta   90.00000000
_cell_angle_gamma   90.00000000
_symmetry_Int_Tables_number   1
_chemical_formula_structural   LiPr2(ErSi2)2
_chemical_formula_sum   'Li4 Pr8 Er8 Si16'
_cell_volume   832.46155901
_cell_formula_units_Z   4
loop_
 _symmetry_equiv_pos_site_id
 _symmetry_equiv_pos_as_xyz
  1  'x, y, z'
loop_
 _atom_site_type_symbol
 _atom_site_label
 _atom_site_symmetry_multiplicity
 _atom_site_fract_x
 _atom_site_fract_y
 _atom_site_fract_z
 _atom_site_occupancy
  Li  Li0  1  0.655850  0.989488  0.750000  1
  Li  Li1  1  0.844150  0.489488  0.250000  1
  Li  Li2  1  0.344150  0.010512  0.250000  1
  Li  Li3  1  0.155850  0.510512  0.750000  1
  Pr  Pr4  1  0.021930  0.185030  0.397204  1
  Pr  Pr5  1  0.521930  0.314970  0.397204  1
  Pr  Pr6  1  0.478070  0.685030  0.897204  1
  Pr  Pr7  1  0.478070  0.685030  0.602796  1
  Pr  Pr8  1  0.978070  0.814970  0.602796  1
  Pr  Pr9  1  0.978070  0.814970  0.897204  1
  Pr  Pr10  1  0.521930  0.314970  0.102796  1
  Pr  Pr11  1  0.021930  0.185030  0.102796  1
  Er  Er12  1  0.328401  0.182075  0.626452  1
  Er  Er13  1  0.671599  0.817925  0.373548  1
  Er  Er14  1  0.171599  0.682075  0.373548  1
  Er  Er15  1  0.828401  0.317925  0.873548  1
  Er  Er16  1  0.828401  0.317925  0.626452  1
  Er  Er17  1  0.328401  0.182075  0.873548  1
  Er  Er18  1  0.171599  0.682075  0.126452  1
  Er  Er19  1  0.671599  0.817925  0.126452  1
  Si  Si20  1  0.273786  0.886969  0.750000  1
  Si  Si21  1  0.470845  0.597989  0.250000  1
  Si  Si22  1  0.029155  0.097989  0.750000  1
  Si  Si23  1  0.529155  0.402011  0.750000  1
  Si  Si24  1  0.150652  0.464556  0.534275  1
  Si  Si25  1  0.970845  0.902011  0.250000  1
  Si  Si26  1  0.726214  0.113031  0.250000  1
  Si  Si27  1  0.849348  0.535444  0.034275  1
  Si  Si28  1  0.349348  0.964556  0.034275  1
  Si  Si29  1  0.150652  0.464556  0.965725  1
  Si  Si30  1  0.650652  0.035444  0.534275  1
  Si  Si31  1  0.349348  0.964556  0.465725  1
  Si  Si32  1  0.849348  0.535444  0.465725  1
  Si  Si33  1  0.773786  0.613031  0.750000  1
  Si  Si34  1  0.226214  0.386969  0.250000  1
  Si  Si35  1  0.650652  0.035444  0.965725  1
