# generated using pymatgen
data_Ho4Al2Ga2Pd3Ru
_symmetry_space_group_name_H-M   'P 1'
_cell_length_a   4.33588000
_cell_length_b   6.87675359
_cell_length_c   7.86423352
_cell_angle_alpha   89.79569425
_cell_angle_beta   90.00000000
_cell_angle_gamma   90.00000000
_symmetry_Int_Tables_number   1
_chemical_formula_structural   Ho4Al2Ga2Pd3Ru
_chemical_formula_sum   'Ho4 Al2 Ga2 Pd3 Ru1'
_cell_volume   234.48461706
_cell_formula_units_Z   1
loop_
 _symmetry_equiv_pos_site_id
 _symmetry_equiv_pos_as_xyz
  1  'x, y, z'
loop_
 _atom_site_type_symbol
 _atom_site_label
 _atom_site_symmetry_multiplicity
 _atom_site_fract_x
 _atom_site_fract_y
 _atom_site_fract_z
 _atom_site_occupancy
  Ho  Ho0  1  0.250000  0.035550  0.682772  1
  Ho  Ho1  1  0.250000  0.531253  0.820383  1
  Ho  Ho2  1  0.750000  0.978061  0.315510  1
  Ho  Ho3  1  0.750000  0.465517  0.184380  1
  Al  Al4  1  0.250000  0.635151  0.437362  1
  Al  Al5  1  0.750000  0.354439  0.558324  1
  Ga  Ga6  1  0.250000  0.154477  0.065482  1
  Ga  Ga7  1  0.750000  0.849471  0.936845  1
  Pd  Pd8  1  0.250000  0.770864  0.121700  1
  Pd  Pd9  1  0.750000  0.729358  0.616548  1
  Pd  Pd10  1  0.750000  0.232526  0.876565  1
  Ru  Ru11  1  0.250000  0.263334  0.384129  1
