# generated using pymatgen
data_Th3ZnSn3Ru2
_symmetry_space_group_name_H-M   'P 1'
_cell_length_a   7.50955800
_cell_length_b   7.50955800
_cell_length_c   4.26205700
_cell_angle_alpha   90.00000000
_cell_angle_beta   90.00000000
_cell_angle_gamma   120.00000000
_symmetry_Int_Tables_number   1
_chemical_formula_structural   Th3ZnSn3Ru2
_chemical_formula_sum   'Th3 Zn1 Sn3 Ru2'
_cell_volume   208.15106494
_cell_formula_units_Z   1
loop_
 _symmetry_equiv_pos_site_id
 _symmetry_equiv_pos_as_xyz
  1  'x, y, z'
loop_
 _atom_site_type_symbol
 _atom_site_label
 _atom_site_symmetry_multiplicity
 _atom_site_fract_x
 _atom_site_fract_y
 _atom_site_fract_z
 _atom_site_occupancy
  Th  Th0  1  0.398008  0.984958  0.500000  1
  Th  Th1  1  0.015042  0.413051  0.500000  1
  Th  Th2  1  0.586949  0.601992  0.500000  1
  Zn  Zn3  1  0.666667  0.333333  0.000000  1
  Sn  Sn4  1  0.750158  0.000352  0.000000  1
  Sn  Sn5  1  0.999648  0.749805  0.000000  1
  Sn  Sn6  1  0.250195  0.249842  0.000000  1
  Ru  Ru7  1  0.333333  0.666667  0.000000  1
  Ru  Ru8  1  0.000000  0.000000  0.500000  1
