# generated using pymatgen
data_Na3DyCo16(ReP3)4
_symmetry_space_group_name_H-M   'P 1'
_cell_length_a   3.67248800
_cell_length_b   10.33138533
_cell_length_c   11.80277648
_cell_angle_alpha   89.94219832
_cell_angle_beta   90.00000000
_cell_angle_gamma   90.00000000
_symmetry_Int_Tables_number   1
_chemical_formula_structural   Na3DyCo16(ReP3)4
_chemical_formula_sum   'Na3 Dy1 Co16 Re4 P12'
_cell_volume   447.81940320
_cell_formula_units_Z   1
loop_
 _symmetry_equiv_pos_site_id
 _symmetry_equiv_pos_as_xyz
  1  'x, y, z'
loop_
 _atom_site_type_symbol
 _atom_site_label
 _atom_site_symmetry_multiplicity
 _atom_site_fract_x
 _atom_site_fract_y
 _atom_site_fract_z
 _atom_site_occupancy
  Na  Na0  1  0.250000  0.581256  0.704549  1
  Na  Na1  1  0.250000  0.918363  0.203487  1
  Na  Na2  1  0.750000  0.417440  0.296168  1
  Dy  Dy3  1  0.750000  0.084132  0.795061  1
  Co  Co4  1  0.250000  0.404968  0.490472  1
  Co  Co5  1  0.250000  0.095638  0.987578  1
  Co  Co6  1  0.750000  0.592415  0.510965  1
  Co  Co7  1  0.750000  0.907421  0.010113  1
  Co  Co8  1  0.250000  0.219209  0.176520  1
  Co  Co9  1  0.250000  0.277835  0.677975  1
  Co  Co10  1  0.750000  0.781221  0.821965  1
  Co  Co11  1  0.750000  0.719197  0.323602  1
  Co  Co12  1  0.250000  0.886547  0.698021  1
  Co  Co13  1  0.250000  0.615942  0.199648  1
  Co  Co14  1  0.750000  0.115539  0.300875  1
  Co  Co15  1  0.750000  0.385212  0.801108  1
  Co  Co16  1  0.250000  0.466078  0.936162  1
  Co  Co17  1  0.250000  0.034007  0.433937  1
  Co  Co18  1  0.750000  0.536178  0.064773  1
  Co  Co19  1  0.750000  0.962567  0.564108  1
  Re  Re20  1  0.250000  0.708636  0.987794  1
  Re  Re21  1  0.250000  0.790040  0.487576  1
  Re  Re22  1  0.750000  0.291578  0.014730  1
  Re  Re23  1  0.750000  0.208204  0.514085  1
  P  P24  1  0.250000  0.419523  0.119406  1
  P  P25  1  0.250000  0.080601  0.613730  1
  P  P26  1  0.750000  0.582351  0.881458  1
  P  P27  1  0.750000  0.918243  0.380188  1
  P  P28  1  0.250000  0.270899  0.866636  1
  P  P29  1  0.250000  0.234170  0.364900  1
  P  P30  1  0.750000  0.734909  0.135723  1
  P  P31  1  0.750000  0.762905  0.633707  1
  P  P32  1  0.250000  0.593170  0.389872  1
  P  P33  1  0.250000  0.903516  0.890619  1
  P  P34  1  0.750000  0.406009  0.610898  1
  P  P35  1  0.750000  0.094081  0.111591  1
