# generated using pymatgen
data_Ho10TlIn3Bi2
_symmetry_space_group_name_H-M   'P 1'
_cell_length_a   8.99434600
_cell_length_b   8.98757671
_cell_length_c   6.57718000
_cell_angle_alpha   90.00000000
_cell_angle_beta   90.00000000
_cell_angle_gamma   120.00118254
_symmetry_Int_Tables_number   1
_chemical_formula_structural   Ho10TlIn3Bi2
_chemical_formula_sum   'Ho10 Tl1 In3 Bi2'
_cell_volume   460.44460047
_cell_formula_units_Z   1
loop_
 _symmetry_equiv_pos_site_id
 _symmetry_equiv_pos_as_xyz
  1  'x, y, z'
loop_
 _atom_site_type_symbol
 _atom_site_label
 _atom_site_symmetry_multiplicity
 _atom_site_fract_x
 _atom_site_fract_y
 _atom_site_fract_z
 _atom_site_occupancy
  Ho  Ho0  1  0.993061  0.758265  0.750000  1
  Ho  Ho1  1  0.992214  0.234209  0.250000  1
  Ho  Ho2  1  0.767368  0.766187  0.250000  1
  Ho  Ho3  1  0.767768  0.001922  0.750000  1
  Ho  Ho4  1  0.234562  0.242528  0.750000  1
  Ho  Ho5  1  0.234037  0.991633  0.250000  1
  Ho  Ho6  1  0.332636  0.666246  0.499774  1
  Ho  Ho7  1  0.677198  0.338281  0.000162  1
  Ho  Ho8  1  0.677198  0.338281  0.499838  1
  Ho  Ho9  1  0.332636  0.666246  0.000226  1
  Tl  Tl10  1  0.601892  0.604148  0.750000  1
  In  In11  1  0.001342  0.601804  0.250000  1
  In  In12  1  0.001724  0.399990  0.750000  1
  In  In13  1  0.600394  0.997884  0.250000  1
  Bi  Bi14  1  0.393498  0.003086  0.750000  1
  Bi  Bi15  1  0.392473  0.389289  0.250000  1
