# generated using pymatgen
data_Na2Nb5Co16P12Ru
_symmetry_space_group_name_H-M   'P 1'
_cell_length_a   11.92574400
_cell_length_b   11.94950152
_cell_length_c   3.59815000
_cell_angle_alpha   90.00000000
_cell_angle_beta   90.00000000
_cell_angle_gamma   119.93425396
_symmetry_Int_Tables_number   1
_chemical_formula_structural   Na2Nb5Co16P12Ru
_chemical_formula_sum   'Na2 Nb5 Co16 P12 Ru1'
_cell_volume   444.35749170
_cell_formula_units_Z   1
loop_
 _symmetry_equiv_pos_site_id
 _symmetry_equiv_pos_as_xyz
  1  'x, y, z'
loop_
 _atom_site_type_symbol
 _atom_site_label
 _atom_site_symmetry_multiplicity
 _atom_site_fract_x
 _atom_site_fract_y
 _atom_site_fract_z
 _atom_site_occupancy
  Na  Na0  1  0.333180  0.668149  0.000000  1
  Na  Na1  1  0.665032  0.331851  0.000000  1
  Nb  Nb2  1  0.819959  0.000000  0.500000  1
  Nb  Nb3  1  0.998456  0.820205  0.500000  1
  Nb  Nb4  1  0.178251  0.179795  0.500000  1
  Nb  Nb5  1  0.000145  0.444299  0.000000  1
  Nb  Nb6  1  0.555846  0.555701  0.000000  1
  Co  Co7  1  0.278127  0.000000  0.500000  1
  Co  Co8  1  0.998772  0.274122  0.500000  1
  Co  Co9  1  0.724649  0.725878  0.500000  1
  Co  Co10  1  0.633755  0.810270  0.000000  1
  Co  Co11  1  0.192968  0.827982  0.000000  1
  Co  Co12  1  0.173150  0.363196  0.000000  1
  Co  Co13  1  0.364986  0.172018  0.000000  1
  Co  Co14  1  0.809954  0.636804  0.000000  1
  Co  Co15  1  0.823485  0.189730  0.000000  1
  Co  Co16  1  0.523171  0.876702  0.500000  1
  Co  Co17  1  0.127291  0.652071  0.500000  1
  Co  Co18  1  0.350524  0.472854  0.500000  1
  Co  Co19  1  0.475220  0.347929  0.500000  1
  Co  Co20  1  0.877669  0.527146  0.500000  1
  Co  Co21  1  0.646469  0.123298  0.500000  1
  Co  Co22  1  0.000978  0.000000  0.000000  1
  P  P23  1  0.173861  0.000000  0.000000  1
  P  P24  1  0.998479  0.171377  0.000000  1
  P  P25  1  0.827102  0.828623  0.000000  1
  P  P26  1  0.516060  0.688042  0.500000  1
  P  P27  1  0.317391  0.836279  0.500000  1
  P  P28  1  0.171009  0.482951  0.500000  1
  P  P29  1  0.481111  0.163721  0.500000  1
  P  P30  1  0.688058  0.517049  0.500000  1
  P  P31  1  0.828019  0.311958  0.500000  1
  P  P32  1  0.642650  0.000000  0.000000  1
  P  P33  1  0.003088  0.650812  0.000000  1
  P  P34  1  0.352276  0.349188  0.000000  1
  Ru  Ru35  1  0.448862  0.000000  0.000000  1
