# generated using pymatgen
data_Tm7Sn23Ir6
_symmetry_space_group_name_H-M   'P 1'
_cell_length_a   9.82359600
_cell_length_b   9.82359640
_cell_length_c   10.08775000
_cell_angle_alpha   90.00000000
_cell_angle_beta   90.00000000
_cell_angle_gamma   120.00001212
_symmetry_Int_Tables_number   1
_chemical_formula_structural   Tm7Sn23Ir6
_chemical_formula_sum   'Tm7 Sn23 Ir6'
_cell_volume   843.07438485
_cell_formula_units_Z   1
loop_
 _symmetry_equiv_pos_site_id
 _symmetry_equiv_pos_as_xyz
  1  'x, y, z'
loop_
 _atom_site_type_symbol
 _atom_site_label
 _atom_site_symmetry_multiplicity
 _atom_site_fract_x
 _atom_site_fract_y
 _atom_site_fract_z
 _atom_site_occupancy
  Tm  Tm0  1  0.000000  0.000000  0.000000  1
  Tm  Tm1  1  0.481619  0.518381  0.306324  1
  Tm  Tm2  1  0.518381  0.481619  0.693676  1
  Tm  Tm3  1  0.481619  0.963239  0.306324  1
  Tm  Tm4  1  0.518381  0.036761  0.693676  1
  Tm  Tm5  1  0.036761  0.518381  0.306324  1
  Tm  Tm6  1  0.963239  0.481619  0.693676  1
  Sn  Sn7  1  0.352256  0.000000  0.000000  1
  Sn  Sn8  1  0.647744  0.000000  0.000000  1
  Sn  Sn9  1  0.000000  0.352256  0.000000  1
  Sn  Sn10  1  0.000000  0.647744  0.000000  1
  Sn  Sn11  1  0.647744  0.647744  0.000000  1
  Sn  Sn12  1  0.352256  0.352256  0.000000  1
  Sn  Sn13  1  0.333333  0.666667  0.827567  1
  Sn  Sn14  1  0.666667  0.333333  0.172433  1
  Sn  Sn15  1  0.000000  0.000000  0.500000  1
  Sn  Sn16  1  0.776849  0.223151  0.457482  1
  Sn  Sn17  1  0.223151  0.776849  0.542518  1
  Sn  Sn18  1  0.776849  0.553698  0.457482  1
  Sn  Sn19  1  0.223151  0.446302  0.542518  1
  Sn  Sn20  1  0.446302  0.223151  0.457482  1
  Sn  Sn21  1  0.553698  0.776849  0.542518  1
  Sn  Sn22  1  0.333333  0.666667  0.127428  1
  Sn  Sn23  1  0.666667  0.333333  0.872572  1
  Sn  Sn24  1  0.119813  0.880187  0.284416  1
  Sn  Sn25  1  0.880187  0.119813  0.715584  1
  Sn  Sn26  1  0.119813  0.239626  0.284416  1
  Sn  Sn27  1  0.880187  0.760374  0.715584  1
  Sn  Sn28  1  0.760374  0.880187  0.284416  1
  Sn  Sn29  1  0.239626  0.119813  0.715584  1
  Ir  Ir30  1  0.830878  0.169122  0.199065  1
  Ir  Ir31  1  0.169122  0.830878  0.800935  1
  Ir  Ir32  1  0.830878  0.661756  0.199065  1
  Ir  Ir33  1  0.169122  0.338244  0.800935  1
  Ir  Ir34  1  0.338244  0.169122  0.199065  1
  Ir  Ir35  1  0.661756  0.830878  0.800935  1
