# generated using pymatgen
data_La2BeGaBO7
_symmetry_space_group_name_H-M   'P 1'
_cell_length_a   7.70797700
_cell_length_b   4.92759982
_cell_length_c   7.72009823
_cell_angle_alpha   89.57950339
_cell_angle_beta   90.00000000
_cell_angle_gamma   90.00000000
_symmetry_Int_Tables_number   1
_chemical_formula_structural   La2BeGaBO7
_chemical_formula_sum   'La4 Be2 Ga2 B2 O14'
_cell_volume   293.21553164
_cell_formula_units_Z   2
loop_
 _symmetry_equiv_pos_site_id
 _symmetry_equiv_pos_as_xyz
  1  'x, y, z'
loop_
 _atom_site_type_symbol
 _atom_site_label
 _atom_site_symmetry_multiplicity
 _atom_site_fract_x
 _atom_site_fract_y
 _atom_site_fract_z
 _atom_site_occupancy
  La  La0  1  0.664337  0.507390  0.577582  1
  La  La1  1  0.164337  0.492610  0.422418  1
  La  La2  1  0.334741  0.503231  0.907099  1
  La  La3  1  0.834741  0.496769  0.092901  1
  Be  Be4  1  0.868445  0.954213  0.382033  1
  Be  Be5  1  0.368445  0.045787  0.617967  1
  Ga  Ga6  1  0.497444  0.000604  0.246137  1
  Ga  Ga7  1  0.997444  0.999396  0.753863  1
  B  B8  1  0.132948  0.942286  0.117320  1
  B  B9  1  0.632948  0.057714  0.882680  1
  O  O10  1  0.577665  0.202143  0.054232  1
  O  O11  1  0.077665  0.797857  0.945768  1
  O  O12  1  0.424663  0.209041  0.430060  1
  O  O13  1  0.924663  0.790959  0.569940  1
  O  O14  1  0.682106  0.788500  0.318119  1
  O  O15  1  0.182106  0.211500  0.681881  1
  O  O16  1  0.306771  0.801577  0.164448  1
  O  O17  1  0.806771  0.198423  0.835552  1
  O  O18  1  0.858965  0.277068  0.386505  1
  O  O19  1  0.358965  0.722932  0.613495  1
  O  O20  1  0.142172  0.233661  0.103311  1
  O  O21  1  0.642172  0.766339  0.896689  1
  O  O22  1  0.509743  0.161484  0.754177  1
  O  O23  1  0.009743  0.838516  0.245823  1
