# generated using pymatgen
data_Ce2Zn3HgRh2
_symmetry_space_group_name_H-M   'P 1'
_cell_length_a   5.09745422
_cell_length_b   5.09745348
_cell_length_c   8.37357684
_cell_angle_alpha   90.53373834
_cell_angle_beta   89.46625038
_cell_angle_gamma   133.37061776
_symmetry_Int_Tables_number   1
_chemical_formula_structural   Ce2Zn3HgRh2
_chemical_formula_sum   'Ce2 Zn3 Hg1 Rh2'
_cell_volume   158.15612844
_cell_formula_units_Z   1
loop_
 _symmetry_equiv_pos_site_id
 _symmetry_equiv_pos_as_xyz
  1  'x, y, z'
loop_
 _atom_site_type_symbol
 _atom_site_label
 _atom_site_symmetry_multiplicity
 _atom_site_fract_x
 _atom_site_fract_y
 _atom_site_fract_z
 _atom_site_occupancy
  Ce  Ce0  1  0.065220  0.934780  0.240549  1
  Ce  Ce1  1  0.935942  0.064058  0.761434  1
  Zn  Zn2  1  0.349804  0.650196  0.037078  1
  Zn  Zn3  1  0.646840  0.353160  0.959168  1
  Zn  Zn4  1  0.653706  0.346294  0.543964  1
  Hg  Hg5  1  0.362158  0.637842  0.464039  1
  Rh  Rh6  1  0.788317  0.211683  0.234635  1
  Rh  Rh7  1  0.198013  0.801987  0.759133  1
