# generated using pymatgen
data_Dy7HoAl3Si8Ge
_symmetry_space_group_name_H-M   'P 1'
_cell_length_a   5.59994757
_cell_length_b   5.59994842
_cell_length_c   19.50105882
_cell_angle_alpha   82.30689456
_cell_angle_beta   82.30689320
_cell_angle_gamma   42.49300574
_symmetry_Int_Tables_number   1
_chemical_formula_structural   Dy7HoAl3Si8Ge
_chemical_formula_sum   'Dy7 Ho1 Al3 Si8 Ge1'
_cell_volume   408.81346369
_cell_formula_units_Z   1
loop_
 _symmetry_equiv_pos_site_id
 _symmetry_equiv_pos_as_xyz
  1  'x, y, z'
loop_
 _atom_site_type_symbol
 _atom_site_label
 _atom_site_symmetry_multiplicity
 _atom_site_fract_x
 _atom_site_fract_y
 _atom_site_fract_z
 _atom_site_occupancy
  Dy  Dy0  1  0.462618  0.462618  0.676572  1
  Dy  Dy1  1  0.703273  0.703273  0.928720  1
  Dy  Dy2  1  0.973755  0.973755  0.179242  1
  Dy  Dy3  1  0.216775  0.216775  0.428021  1
  Dy  Dy4  1  0.783221  0.783221  0.571941  1
  Dy  Dy5  1  0.026254  0.026254  0.820792  1
  Dy  Dy6  1  0.296705  0.296705  0.071294  1
  Ho  Ho7  1  0.537349  0.537349  0.323444  1
  Al  Al8  1  0.254640  0.254640  0.252351  1
  Al  Al9  1  0.500019  0.500019  0.499988  1
  Al  Al10  1  0.745315  0.745315  0.747665  1
  Si  Si11  1  0.172631  0.172631  0.676291  1
  Si  Si12  1  0.415728  0.415728  0.923099  1
  Si  Si13  1  0.686988  0.686988  0.180103  1
  Si  Si14  1  0.928142  0.928142  0.427827  1
  Si  Si15  1  0.071928  0.071928  0.572116  1
  Si  Si16  1  0.312967  0.312967  0.819945  1
  Si  Si17  1  0.584270  0.584270  0.076902  1
  Si  Si18  1  0.827419  0.827419  0.323687  1
  Ge  Ge19  1  0.000003  0.000003  0.999999  1
