# generated using pymatgen
data_Pr3Si2BiO10
_symmetry_space_group_name_H-M   'P 1'
_cell_length_a   7.41183000
_cell_length_b   6.98806485
_cell_length_c   9.43697928
_cell_angle_alpha   71.29859609
_cell_angle_beta   90.00000000
_cell_angle_gamma   90.00000000
_symmetry_Int_Tables_number   1
_chemical_formula_structural   Pr3Si2BiO10
_chemical_formula_sum   'Pr6 Si4 Bi2 O20'
_cell_volume   462.97567906
_cell_formula_units_Z   2
loop_
 _symmetry_equiv_pos_site_id
 _symmetry_equiv_pos_as_xyz
  1  'x, y, z'
loop_
 _atom_site_type_symbol
 _atom_site_label
 _atom_site_symmetry_multiplicity
 _atom_site_fract_x
 _atom_site_fract_y
 _atom_site_fract_z
 _atom_site_occupancy
  Pr  Pr0  1  0.655869  0.096911  0.606174  1
  Pr  Pr1  1  0.846083  0.592419  0.610333  1
  Pr  Pr2  1  0.155869  0.403089  0.393826  1
  Pr  Pr3  1  0.346083  0.907581  0.389667  1
  Pr  Pr4  1  0.877814  0.731302  0.977973  1
  Pr  Pr5  1  0.377814  0.768698  0.022027  1
  Si  Si6  1  0.080083  0.039377  0.700453  1
  Si  Si7  1  0.580083  0.460623  0.299547  1
  Si  Si8  1  0.416936  0.545790  0.703103  1
  Si  Si9  1  0.916936  0.954210  0.296897  1
  Bi  Bi10  1  0.631795  0.217403  0.979800  1
  Bi  Bi11  1  0.131795  0.282597  0.020200  1
  O  O12  1  0.567037  0.364713  0.710608  1
  O  O13  1  0.357428  0.509508  0.879075  1
  O  O14  1  0.381125  0.048898  0.116492  1
  O  O15  1  0.857428  0.990492  0.120925  1
  O  O16  1  0.248003  0.057949  0.586619  1
  O  O17  1  0.748323  0.941408  0.408879  1
  O  O18  1  0.039242  0.747002  0.365245  1
  O  O19  1  0.137260  0.977278  0.878194  1
  O  O20  1  0.461760  0.249959  0.365036  1
  O  O21  1  0.626997  0.960885  0.883000  1
  O  O22  1  0.067037  0.135287  0.289392  1
  O  O23  1  0.126997  0.539115  0.117000  1
  O  O24  1  0.748003  0.442051  0.413381  1
  O  O25  1  0.539242  0.752998  0.634755  1
  O  O26  1  0.961760  0.250041  0.634964  1
  O  O27  1  0.924244  0.866103  0.702826  1
  O  O28  1  0.637260  0.522722  0.121806  1
  O  O29  1  0.881125  0.451102  0.883508  1
  O  O30  1  0.424244  0.633897  0.297174  1
  O  O31  1  0.248323  0.558592  0.591121  1
