# generated using pymatgen
data_AcB2OsRu
_symmetry_space_group_name_H-M   'P 1'
_cell_length_a   7.00856291
_cell_length_b   6.13468172
_cell_length_c   5.73340804
_cell_angle_alpha   72.30081937
_cell_angle_beta   56.49941912
_cell_angle_gamma   51.19976729
_symmetry_Int_Tables_number   1
_chemical_formula_structural   AcB2OsRu
_chemical_formula_sum   'Ac2 B4 Os2 Ru2'
_cell_volume   159.86753766
_cell_formula_units_Z   2
loop_
 _symmetry_equiv_pos_site_id
 _symmetry_equiv_pos_as_xyz
  1  'x, y, z'
loop_
 _atom_site_type_symbol
 _atom_site_label
 _atom_site_symmetry_multiplicity
 _atom_site_fract_x
 _atom_site_fract_y
 _atom_site_fract_z
 _atom_site_occupancy
  Ac  Ac0  1  0.000000  0.000000  0.000000  1
  Ac  Ac1  1  0.250000  0.250000  0.250000  1
  B  B2  1  0.321329  0.678671  0.321329  1
  B  B3  1  0.678671  0.321329  0.678671  1
  B  B4  1  0.577383  0.922617  0.577383  1
  B  B5  1  0.922617  0.577383  0.922617  1
  Os  Os6  1  0.613775  0.613775  0.886225  1
  Os  Os7  1  0.886225  0.886225  0.613775  1
  Ru  Ru8  1  0.635218  0.635218  0.364782  1
  Ru  Ru9  1  0.364782  0.364782  0.635218  1
