# generated using pymatgen
data_YEr2Al3Ga2Ir
_symmetry_space_group_name_H-M   'P 1'
_cell_length_a   6.95034577
_cell_length_b   6.95034636
_cell_length_c   4.27292000
_cell_angle_alpha   90.00000000
_cell_angle_beta   90.00000000
_cell_angle_gamma   120.07099763
_symmetry_Int_Tables_number   1
_chemical_formula_structural   YEr2Al3Ga2Ir
_chemical_formula_sum   'Y1 Er2 Al3 Ga2 Ir1'
_cell_volume   178.63111300
_cell_formula_units_Z   1
loop_
 _symmetry_equiv_pos_site_id
 _symmetry_equiv_pos_as_xyz
  1  'x, y, z'
loop_
 _atom_site_type_symbol
 _atom_site_label
 _atom_site_symmetry_multiplicity
 _atom_site_fract_x
 _atom_site_fract_y
 _atom_site_fract_z
 _atom_site_occupancy
  Y  Y0  1  0.582496  0.582496  0.000000  1
  Er  Er1  1  0.415355  0.999704  0.000000  1
  Er  Er2  1  0.999704  0.415355  0.000000  1
  Al  Al3  1  0.769434  0.000192  0.500001  1
  Al  Al4  1  0.230376  0.230376  0.500001  1
  Al  Al5  1  0.000192  0.769434  0.500001  1
  Ga  Ga6  1  0.667106  0.332227  0.500001  1
  Ga  Ga7  1  0.332227  0.667106  0.500001  1
  Ir  Ir8  1  0.003110  0.003110  0.000000  1
