# generated using pymatgen
data_Tm3Zn3Cu2Pt
_symmetry_space_group_name_H-M   'P 1'
_cell_length_a   7.24734700
_cell_length_b   7.24734659
_cell_length_c   3.65512200
_cell_angle_alpha   90.00000000
_cell_angle_beta   90.00000000
_cell_angle_gamma   119.99998820
_symmetry_Int_Tables_number   1
_chemical_formula_structural   Tm3Zn3Cu2Pt
_chemical_formula_sum   'Tm3 Zn3 Cu2 Pt1'
_cell_volume   166.26109911
_cell_formula_units_Z   1
loop_
 _symmetry_equiv_pos_site_id
 _symmetry_equiv_pos_as_xyz
  1  'x, y, z'
loop_
 _atom_site_type_symbol
 _atom_site_label
 _atom_site_symmetry_multiplicity
 _atom_site_fract_x
 _atom_site_fract_y
 _atom_site_fract_z
 _atom_site_occupancy
  Tm  Tm0  1  0.409078  0.406949  0.000000  1
  Tm  Tm1  1  0.593051  0.002129  0.000000  1
  Tm  Tm2  1  0.997871  0.590922  0.000000  1
  Zn  Zn3  1  0.748528  0.753932  0.500000  1
  Zn  Zn4  1  0.246068  0.994596  0.500000  1
  Zn  Zn5  1  0.005404  0.251472  0.500000  1
  Cu  Cu6  1  0.000000  0.000000  0.000000  1
  Cu  Cu7  1  0.333333  0.666667  0.500000  1
  Pt  Pt8  1  0.666667  0.333333  0.500000  1
