# generated using pymatgen
data_Pr3NdAl18(IrPt2)2
_symmetry_space_group_name_H-M   'P 1'
_cell_length_a   7.67606300
_cell_length_b   7.67627671
_cell_length_c   9.59865700
_cell_angle_alpha   90.00000000
_cell_angle_beta   90.00000000
_cell_angle_gamma   119.60690335
_symmetry_Int_Tables_number   1
_chemical_formula_structural   Pr3NdAl18(IrPt2)2
_chemical_formula_sum   'Pr3 Nd1 Al18 Ir2 Pt4'
_cell_volume   491.74159887
_cell_formula_units_Z   1
loop_
 _symmetry_equiv_pos_site_id
 _symmetry_equiv_pos_as_xyz
  1  'x, y, z'
loop_
 _atom_site_type_symbol
 _atom_site_label
 _atom_site_symmetry_multiplicity
 _atom_site_fract_x
 _atom_site_fract_y
 _atom_site_fract_z
 _atom_site_occupancy
  Pr  Pr0  1  0.993873  0.667656  0.250000  1
  Pr  Pr1  1  0.006136  0.332329  0.750000  1
  Pr  Pr2  1  0.667658  0.993868  0.250000  1
  Nd  Nd3  1  0.332285  0.006116  0.750000  1
  Al  Al4  1  0.129017  0.129010  0.250000  1
  Al  Al5  1  0.871170  0.871055  0.750000  1
  Al  Al6  1  0.001420  0.330868  0.073857  1
  Al  Al7  1  0.998729  0.669278  0.926062  1
  Al  Al8  1  0.998729  0.669278  0.573938  1
  Al  Al9  1  0.330868  0.001415  0.426256  1
  Al  Al10  1  0.001420  0.330868  0.426143  1
  Al  Al11  1  0.668992  0.998583  0.573932  1
  Al  Al12  1  0.668992  0.998583  0.926068  1
  Al  Al13  1  0.330868  0.001415  0.073744  1
  Al  Al14  1  0.331335  0.331208  0.552046  1
  Al  Al15  1  0.668663  0.668664  0.448047  1
  Al  Al16  1  0.668663  0.668664  0.051953  1
  Al  Al17  1  0.331335  0.331208  0.947954  1
  Al  Al18  1  0.340303  0.544368  0.250000  1
  Al  Al19  1  0.659567  0.455446  0.750000  1
  Al  Al20  1  0.544361  0.340292  0.250000  1
  Al  Al21  1  0.455587  0.659803  0.750000  1
  Ir  Ir22  1  0.000083  0.000009  0.999936  1
  Ir  Ir23  1  0.000083  0.000009  0.500064  1
  Pt  Pt24  1  0.671117  0.328753  0.999947  1
  Pt  Pt25  1  0.328815  0.671251  0.999949  1
  Pt  Pt26  1  0.328815  0.671251  0.500051  1
  Pt  Pt27  1  0.671117  0.328753  0.500053  1
