# generated using pymatgen
data_Tb10Tl5In3Pd3Ru
_symmetry_space_group_name_H-M   'P 1'
_cell_length_a   8.22396323
_cell_length_b   18.50409059
_cell_length_c   3.63878900
_cell_angle_alpha   90.00000000
_cell_angle_beta   90.00000000
_cell_angle_gamma   89.98316853
_symmetry_Int_Tables_number   1
_chemical_formula_structural   Tb10Tl5In3Pd3Ru
_chemical_formula_sum   'Tb10 Tl5 In3 Pd3 Ru1'
_cell_volume   553.73982639
_cell_formula_units_Z   1
loop_
 _symmetry_equiv_pos_site_id
 _symmetry_equiv_pos_as_xyz
  1  'x, y, z'
loop_
 _atom_site_type_symbol
 _atom_site_label
 _atom_site_symmetry_multiplicity
 _atom_site_fract_x
 _atom_site_fract_y
 _atom_site_fract_z
 _atom_site_occupancy
  Tb  Tb0  1  0.499569  0.498197  0.000000  1
  Tb  Tb1  1  0.000647  0.001512  0.000000  1
  Tb  Tb2  1  0.731793  0.279590  0.000000  1
  Tb  Tb3  1  0.258197  0.718110  0.000000  1
  Tb  Tb4  1  0.756924  0.781647  0.000000  1
  Tb  Tb5  1  0.253857  0.219100  0.000000  1
  Tb  Tb6  1  0.616121  0.089034  0.000000  1
  Tb  Tb7  1  0.381777  0.915402  0.000000  1
  Tb  Tb8  1  0.883391  0.585273  0.000000  1
  Tb  Tb9  1  0.118412  0.412533  0.000000  1
  Tl  Tl10  1  0.708331  0.933616  0.500000  1
  Tl  Tl11  1  0.293679  0.068406  0.500000  1
  Tl  Tl12  1  0.793174  0.434010  0.500000  1
  Tl  Tl13  1  0.205137  0.564541  0.500000  1
  Tl  Tl14  1  0.581981  0.649236  0.500000  1
  In  In15  1  0.423635  0.348831  0.500000  1
  In  In16  1  0.918716  0.151116  0.500000  1
  In  In17  1  0.080973  0.849777  0.500000  1
  Pd  Pd18  1  0.469621  0.803535  0.500000  1
  Pd  Pd19  1  0.973994  0.698311  0.500000  1
  Pd  Pd20  1  0.026396  0.300401  0.500000  1
  Ru  Ru21  1  0.523677  0.197818  0.500000  1
