# generated using pymatgen
data_Th2Ni15P2H3
_symmetry_space_group_name_H-M   'P 1'
_cell_length_a   6.30074942
_cell_length_b   6.30074873
_cell_length_c   6.25575839
_cell_angle_alpha   84.01268647
_cell_angle_beta   84.01267563
_cell_angle_gamma   85.15026194
_symmetry_Int_Tables_number   1
_chemical_formula_structural   Th2Ni15P2H3
_chemical_formula_sum   'Th2 Ni15 P2 H3'
_cell_volume   244.96583610
_cell_formula_units_Z   1
loop_
 _symmetry_equiv_pos_site_id
 _symmetry_equiv_pos_as_xyz
  1  'x, y, z'
loop_
 _atom_site_type_symbol
 _atom_site_label
 _atom_site_symmetry_multiplicity
 _atom_site_fract_x
 _atom_site_fract_y
 _atom_site_fract_z
 _atom_site_occupancy
  Th  Th0  1  0.661420  0.661420  0.646455  1
  Th  Th1  1  0.338580  0.338580  0.353545  1
  Ni  Ni2  1  0.000000  0.000000  0.500000  1
  Ni  Ni3  1  0.706812  0.293188  0.000000  1
  Ni  Ni4  1  0.000960  0.706814  0.281976  1
  Ni  Ni5  1  0.293186  0.999040  0.718024  1
  Ni  Ni6  1  0.999040  0.293186  0.718024  1
  Ni  Ni7  1  0.706814  0.000960  0.281976  1
  Ni  Ni8  1  0.293188  0.706812  0.000000  1
  Ni  Ni9  1  0.340915  0.340915  0.867651  1
  Ni  Ni10  1  0.853875  0.343314  0.342186  1
  Ni  Ni11  1  0.343314  0.853875  0.342186  1
  Ni  Ni12  1  0.659085  0.659085  0.132349  1
  Ni  Ni13  1  0.146125  0.656686  0.657814  1
  Ni  Ni14  1  0.656686  0.146125  0.657814  1
  Ni  Ni15  1  0.901460  0.901460  0.895204  1
  Ni  Ni16  1  0.098540  0.098540  0.104796  1
  P  P17  1  0.500000  0.000000  0.000000  1
  P  P18  1  0.000000  0.500000  0.000000  1
  H  H19  1  0.500000  0.500000  0.000000  1
  H  H20  1  0.000000  0.500000  0.500000  1
  H  H21  1  0.500000  0.000000  0.500000  1
