# generated using pymatgen
data_YEr3Tc5Os3
_symmetry_space_group_name_H-M   'P 1'
_cell_length_a   5.30570393
_cell_length_b   5.23917460
_cell_length_c   9.00398701
_cell_angle_alpha   90.00180757
_cell_angle_beta   89.99560148
_cell_angle_gamma   119.49662706
_symmetry_Int_Tables_number   1
_chemical_formula_structural   YEr3Tc5Os3
_chemical_formula_sum   'Y1 Er3 Tc5 Os3'
_cell_volume   217.84719954
_cell_formula_units_Z   1
loop_
 _symmetry_equiv_pos_site_id
 _symmetry_equiv_pos_as_xyz
  1  'x, y, z'
loop_
 _atom_site_type_symbol
 _atom_site_label
 _atom_site_symmetry_multiplicity
 _atom_site_fract_x
 _atom_site_fract_y
 _atom_site_fract_z
 _atom_site_occupancy
  Y  Y0  1  0.332225  0.665956  0.437273  1
  Er  Er1  1  0.669677  0.334970  0.564920  1
  Er  Er2  1  0.669644  0.334944  0.935476  1
  Er  Er3  1  0.332055  0.665861  0.062406  1
  Tc  Tc4  1  0.828552  0.171373  0.249357  1
  Tc  Tc5  1  0.828123  0.656376  0.249355  1
  Tc  Tc6  1  0.341373  0.171092  0.249287  1
  Tc  Tc7  1  0.169603  0.829951  0.750515  1
  Tc  Tc8  1  0.170030  0.339967  0.750508  1
  Os  Os9  1  0.002465  0.001295  0.500902  1
  Os  Os10  1  0.002764  0.001443  0.999468  1
  Os  Os11  1  0.653491  0.826772  0.750532  1
