# generated using pymatgen
data_Ba2Cd14Pd3
_symmetry_space_group_name_H-M   'P 1'
_cell_length_a   7.68052325
_cell_length_b   7.68052245
_cell_length_c   7.68052433
_cell_angle_alpha   83.95668527
_cell_angle_beta   83.95667676
_cell_angle_gamma   83.95670013
_symmetry_Int_Tables_number   1
_chemical_formula_structural   Ba2Cd14Pd3
_chemical_formula_sum   'Ba2 Cd14 Pd3'
_cell_volume   446.01833836
_cell_formula_units_Z   1
loop_
 _symmetry_equiv_pos_site_id
 _symmetry_equiv_pos_as_xyz
  1  'x, y, z'
loop_
 _atom_site_type_symbol
 _atom_site_label
 _atom_site_symmetry_multiplicity
 _atom_site_fract_x
 _atom_site_fract_y
 _atom_site_fract_z
 _atom_site_occupancy
  Ba  Ba0  1  0.655558  0.655558  0.655558  1
  Ba  Ba1  1  0.344442  0.344442  0.344442  1
  Cd  Cd2  1  0.344095  0.344095  0.859883  1
  Cd  Cd3  1  0.859883  0.344095  0.344095  1
  Cd  Cd4  1  0.104335  0.104335  0.104335  1
  Cd  Cd5  1  0.895665  0.895665  0.895665  1
  Cd  Cd6  1  0.293483  0.706517  0.000000  1
  Cd  Cd7  1  0.706517  0.000000  0.293483  1
  Cd  Cd8  1  0.000000  0.293483  0.706517  1
  Cd  Cd9  1  0.706517  0.293483  0.000000  1
  Cd  Cd10  1  0.293483  0.000000  0.706517  1
  Cd  Cd11  1  0.000000  0.706517  0.293483  1
  Cd  Cd12  1  0.140117  0.655905  0.655905  1
  Cd  Cd13  1  0.655905  0.655905  0.140117  1
  Cd  Cd14  1  0.655905  0.140117  0.655905  1
  Cd  Cd15  1  0.344095  0.859883  0.344095  1
  Pd  Pd16  1  0.000000  0.000000  0.500000  1
  Pd  Pd17  1  0.000000  0.500000  0.000000  1
  Pd  Pd18  1  0.500000  0.000000  0.000000  1
