# generated using pymatgen
data_Cs2Pr10Al2Br17
_symmetry_space_group_name_H-M   'P 1'
_cell_length_a   9.61257163
_cell_length_b   11.24708756
_cell_length_c   11.24733900
_cell_angle_alpha   106.62888794
_cell_angle_beta   94.42285978
_cell_angle_gamma   94.42724834
_symmetry_Int_Tables_number   1
_chemical_formula_structural   Cs2Pr10Al2Br17
_chemical_formula_sum   'Cs2 Pr10 Al2 Br17'
_cell_volume   1155.37651739
_cell_formula_units_Z   1
loop_
 _symmetry_equiv_pos_site_id
 _symmetry_equiv_pos_as_xyz
  1  'x, y, z'
loop_
 _atom_site_type_symbol
 _atom_site_label
 _atom_site_symmetry_multiplicity
 _atom_site_fract_x
 _atom_site_fract_y
 _atom_site_fract_z
 _atom_site_occupancy
  Cs  Cs0  1  0.999448  0.816631  0.182526  1
  Cs  Cs1  1  0.999413  0.182477  0.816597  1
  Pr  Pr2  1  0.435446  0.156097  0.156091  1
  Pr  Pr3  1  0.571439  0.517261  0.194900  1
  Pr  Pr4  1  0.840541  0.288195  0.288210  1
  Pr  Pr5  1  0.288372  0.427994  0.427981  1
  Pr  Pr6  1  0.428654  0.805277  0.482845  1
  Pr  Pr7  1  0.571362  0.194873  0.517245  1
  Pr  Pr8  1  0.711739  0.572079  0.572058  1
  Pr  Pr9  1  0.159548  0.711827  0.711843  1
  Pr  Pr10  1  0.428651  0.482864  0.805285  1
  Pr  Pr11  1  0.564639  0.843962  0.843973  1
  Al  Al12  1  0.569691  0.361806  0.361812  1
  Al  Al13  1  0.430410  0.638224  0.638230  1
  Br  Br14  1  0.582851  0.691666  0.024074  1
  Br  Br15  1  0.715770  0.068953  0.068947  1
  Br  Br16  1  0.855213  0.452936  0.120033  1
  Br  Br17  1  0.134994  0.204555  0.204508  1
  Br  Br18  1  0.283195  0.602178  0.254796  1
  Br  Br19  1  0.417450  0.976110  0.308424  1
  Br  Br20  1  0.716899  0.745343  0.397885  1
  Br  Br21  1  0.855170  0.120038  0.452957  1
  Br  Br22  1  0.000038  0.500023  0.500022  1
  Br  Br23  1  0.144699  0.879839  0.547010  1
  Br  Br24  1  0.283169  0.254824  0.602172  1
  Br  Br25  1  0.582742  0.024077  0.691696  1
  Br  Br26  1  0.716868  0.397884  0.745297  1
  Br  Br27  1  0.865100  0.795552  0.795533  1
  Br  Br28  1  0.144668  0.546961  0.879803  1
  Br  Br29  1  0.284350  0.931034  0.931103  1
  Br  Br30  1  0.417473  0.308458  0.976146  1
