# generated using pymatgen
data_Na2AsPRu2
_symmetry_space_group_name_H-M   'P 1'
_cell_length_a   4.11018900
_cell_length_b   4.11018900
_cell_length_c   6.68369800
_cell_angle_alpha   90.00000000
_cell_angle_beta   90.00000000
_cell_angle_gamma   90.00000000
_symmetry_Int_Tables_number   1
_chemical_formula_structural   Na2AsPRu2
_chemical_formula_sum   'Na2 As1 P1 Ru2'
_cell_volume   112.91207888
_cell_formula_units_Z   1
loop_
 _symmetry_equiv_pos_site_id
 _symmetry_equiv_pos_as_xyz
  1  'x, y, z'
loop_
 _atom_site_type_symbol
 _atom_site_label
 _atom_site_symmetry_multiplicity
 _atom_site_fract_x
 _atom_site_fract_y
 _atom_site_fract_z
 _atom_site_occupancy
  Na  Na0  1  0.000000  0.500000  0.352832  1
  Na  Na1  1  0.500000  0.000000  0.650515  1
  As  As2  1  0.500000  0.000000  0.194891  1
  P  P3  1  0.000000  0.500000  0.821343  1
  Ru  Ru4  1  0.000000  0.000000  0.990209  1
  Ru  Ru5  1  0.500000  0.500000  0.990209  1
