# generated using pymatgen
data_KAg(IO3)4
_symmetry_space_group_name_H-M   'P 1'
_cell_length_a   5.80045400
_cell_length_b   7.44689155
_cell_length_c   8.34340672
_cell_angle_alpha   106.69291436
_cell_angle_beta   90.00000000
_cell_angle_gamma   112.92056588
_symmetry_Int_Tables_number   1
_chemical_formula_structural   KAg(IO3)4
_chemical_formula_sum   'K1 Ag1 I4 O12'
_cell_volume   315.38640487
_cell_formula_units_Z   1
loop_
 _symmetry_equiv_pos_site_id
 _symmetry_equiv_pos_as_xyz
  1  'x, y, z'
loop_
 _atom_site_type_symbol
 _atom_site_label
 _atom_site_symmetry_multiplicity
 _atom_site_fract_x
 _atom_site_fract_y
 _atom_site_fract_z
 _atom_site_occupancy
  K  K0  1  0.969936  0.000000  0.000000  1
  Ag  Ag1  1  0.778083  0.000000  0.500000  1
  I  I2  1  0.710636  0.361525  0.837573  1
  I  I3  1  0.349110  0.638475  0.162427  1
  I  I4  1  0.316075  0.702788  0.657835  1
  I  I5  1  0.613286  0.297212  0.342165  1
  O  O6  1  0.894038  0.203924  0.734951  1
  O  O7  1  0.690113  0.796076  0.265049  1
  O  O8  1  0.924261  0.604041  0.812020  1
  O  O9  1  0.320220  0.395959  0.187980  1
  O  O10  1  0.849577  0.395038  0.047075  1
  O  O11  1  0.454540  0.604962  0.952925  1
  O  O12  1  0.361225  0.953478  0.797786  1
  O  O13  1  0.407748  0.046522  0.202214  1
  O  O14  1  0.176580  0.706662  0.463118  1
  O  O15  1  0.469918  0.293338  0.536883  1
  O  O16  1  0.652438  0.765551  0.602208  1
  O  O17  1  0.886887  0.234449  0.397792  1
