# generated using pymatgen
data_Gd3CdIn3Ir2
_symmetry_space_group_name_H-M   'P 1'
_cell_length_a   7.80986700
_cell_length_b   7.80986656
_cell_length_c   3.87290100
_cell_angle_alpha   90.00000000
_cell_angle_beta   90.00000000
_cell_angle_gamma   119.99999764
_symmetry_Int_Tables_number   1
_chemical_formula_structural   Gd3CdIn3Ir2
_chemical_formula_sum   'Gd3 Cd1 In3 Ir2'
_cell_volume   204.57581455
_cell_formula_units_Z   1
loop_
 _symmetry_equiv_pos_site_id
 _symmetry_equiv_pos_as_xyz
  1  'x, y, z'
loop_
 _atom_site_type_symbol
 _atom_site_label
 _atom_site_symmetry_multiplicity
 _atom_site_fract_x
 _atom_site_fract_y
 _atom_site_fract_z
 _atom_site_occupancy
  Gd  Gd0  1  0.584518  0.614462  0.000000  1
  Gd  Gd1  1  0.385538  0.970056  0.000000  1
  Gd  Gd2  1  0.029944  0.415482  0.000000  1
  Cd  Cd3  1  0.666667  0.333333  0.500000  1
  In  In4  1  0.002324  0.745430  0.500000  1
  In  In5  1  0.254570  0.256894  0.500000  1
  In  In6  1  0.743106  0.997676  0.500000  1
  Ir  Ir7  1  0.000000  0.000000  0.000000  1
  Ir  Ir8  1  0.333333  0.666667  0.500000  1
