# generated using pymatgen
data_K6CrWS8
_symmetry_space_group_name_H-M   'P 1'
_cell_length_a   9.49245400
_cell_length_b   9.55267300
_cell_length_c   11.25560500
_cell_angle_alpha   90.00000000
_cell_angle_beta   90.00000000
_cell_angle_gamma   90.00000000
_symmetry_Int_Tables_number   1
_chemical_formula_structural   K6CrWS8
_chemical_formula_sum   'K12 Cr2 W2 S16'
_cell_volume   1020.63922850
_cell_formula_units_Z   2
loop_
 _symmetry_equiv_pos_site_id
 _symmetry_equiv_pos_as_xyz
  1  'x, y, z'
loop_
 _atom_site_type_symbol
 _atom_site_label
 _atom_site_symmetry_multiplicity
 _atom_site_fract_x
 _atom_site_fract_y
 _atom_site_fract_z
 _atom_site_occupancy
  K  K0  1  0.548182  0.215366  0.072400  1
  K  K1  1  0.048182  0.284634  0.427600  1
  K  K2  1  0.450090  0.793422  0.521047  1
  K  K3  1  0.950090  0.706578  0.978953  1
  K  K4  1  0.450090  0.793422  0.978953  1
  K  K5  1  0.950090  0.706578  0.521047  1
  K  K6  1  0.548182  0.215366  0.427600  1
  K  K7  1  0.048182  0.284634  0.072400  1
  K  K8  1  0.644097  0.420299  0.750000  1
  K  K9  1  0.144097  0.079701  0.750000  1
  K  K10  1  0.362106  0.581286  0.250000  1
  K  K11  1  0.862106  0.918714  0.250000  1
  Cr  Cr12  1  0.275404  0.014926  0.250000  1
  Cr  Cr13  1  0.775404  0.485074  0.250000  1
  W  W14  1  0.720959  0.984879  0.750000  1
  W  W15  1  0.220959  0.515121  0.750000  1
  S  S16  1  0.835905  0.053105  0.589215  1
  S  S17  1  0.335905  0.446895  0.910785  1
  S  S18  1  0.166702  0.952435  0.084939  1
  S  S19  1  0.666702  0.547565  0.415061  1
  S  S20  1  0.166702  0.952435  0.415061  1
  S  S21  1  0.666702  0.547565  0.084939  1
  S  S22  1  0.835905  0.053105  0.910785  1
  S  S23  1  0.335905  0.446895  0.589215  1
  S  S24  1  0.506597  0.078612  0.750000  1
  S  S25  1  0.006597  0.421388  0.750000  1
  S  S26  1  0.488101  0.924523  0.250000  1
  S  S27  1  0.988101  0.575477  0.250000  1
  S  S28  1  0.704914  0.753144  0.750000  1
  S  S29  1  0.204914  0.746856  0.750000  1
  S  S30  1  0.296066  0.245372  0.250000  1
  S  S31  1  0.796066  0.254628  0.250000  1
