# generated using pymatgen
data_Zr8Ti11Si16Mo
_symmetry_space_group_name_H-M   'P 1'
_cell_length_a   6.65301305
_cell_length_b   6.81115769
_cell_length_c   12.97103500
_cell_angle_alpha   90.00000000
_cell_angle_beta   90.00000000
_cell_angle_gamma   89.98110508
_symmetry_Int_Tables_number   1
_chemical_formula_structural   Zr8Ti11Si16Mo
_chemical_formula_sum   'Zr8 Ti11 Si16 Mo1'
_cell_volume   587.77879951
_cell_formula_units_Z   1
loop_
 _symmetry_equiv_pos_site_id
 _symmetry_equiv_pos_as_xyz
  1  'x, y, z'
loop_
 _atom_site_type_symbol
 _atom_site_label
 _atom_site_symmetry_multiplicity
 _atom_site_fract_x
 _atom_site_fract_y
 _atom_site_fract_z
 _atom_site_occupancy
  Zr  Zr0  1  0.999522  0.174197  0.094633  1
  Zr  Zr1  1  0.002057  0.827330  0.903713  1
  Zr  Zr2  1  0.501271  0.674363  0.904429  1
  Zr  Zr3  1  0.002057  0.827330  0.596287  1
  Zr  Zr4  1  0.500442  0.326182  0.094992  1
  Zr  Zr5  1  0.999522  0.174197  0.405367  1
  Zr  Zr6  1  0.500442  0.326182  0.405008  1
  Zr  Zr7  1  0.501271  0.674363  0.595571  1
  Ti  Ti8  1  0.164275  0.492997  0.750000  1
  Ti  Ti9  1  0.835187  0.505263  0.250000  1
  Ti  Ti10  1  0.335854  0.995223  0.250000  1
  Ti  Ti11  1  0.336631  0.171784  0.625359  1
  Ti  Ti12  1  0.662599  0.827553  0.374173  1
  Ti  Ti13  1  0.162525  0.672237  0.374327  1
  Ti  Ti14  1  0.662599  0.827553  0.125827  1
  Ti  Ti15  1  0.835581  0.326782  0.625539  1
  Ti  Ti16  1  0.336631  0.171784  0.874641  1
  Ti  Ti17  1  0.835581  0.326782  0.874461  1
  Ti  Ti18  1  0.162525  0.672237  0.125673  1
  Si  Si19  1  0.038039  0.118959  0.750000  1
  Si  Si20  1  0.961147  0.880789  0.250000  1
  Si  Si21  1  0.461116  0.619272  0.250000  1
  Si  Si22  1  0.537272  0.381391  0.750000  1
  Si  Si23  1  0.296959  0.864605  0.750000  1
  Si  Si24  1  0.704104  0.133428  0.250000  1
  Si  Si25  1  0.203546  0.366097  0.250000  1
  Si  Si26  1  0.797712  0.633007  0.750000  1
  Si  Si27  1  0.168956  0.461859  0.539064  1
  Si  Si28  1  0.831054  0.539137  0.460927  1
  Si  Si29  1  0.330766  0.961308  0.460845  1
  Si  Si30  1  0.831054  0.539137  0.039073  1
  Si  Si31  1  0.669157  0.038433  0.539226  1
  Si  Si32  1  0.168956  0.461859  0.960936  1
  Si  Si33  1  0.669157  0.038433  0.960774  1
  Si  Si34  1  0.330766  0.961308  0.039155  1
  Mo  Mo35  1  0.663665  0.006637  0.750000  1
