# generated using pymatgen
data_Pr7Ir4PbO24
_symmetry_space_group_name_H-M   'P 1'
_cell_length_a   5.48564019
_cell_length_b   9.48880770
_cell_length_c   10.23059800
_cell_angle_alpha   90.07774247
_cell_angle_beta   89.98487610
_cell_angle_gamma   90.03688403
_symmetry_Int_Tables_number   1
_chemical_formula_structural   Pr7Ir4PbO24
_chemical_formula_sum   'Pr7 Ir4 Pb1 O24'
_cell_volume   532.52435953
_cell_formula_units_Z   1
loop_
 _symmetry_equiv_pos_site_id
 _symmetry_equiv_pos_as_xyz
  1  'x, y, z'
loop_
 _atom_site_type_symbol
 _atom_site_label
 _atom_site_symmetry_multiplicity
 _atom_site_fract_x
 _atom_site_fract_y
 _atom_site_fract_z
 _atom_site_occupancy
  Pr  Pr0  1  0.472078  0.603169  0.537571  1
  Pr  Pr1  1  0.975794  0.894890  0.463137  1
  Pr  Pr2  1  0.526444  0.101781  0.961008  1
  Pr  Pr3  1  0.027943  0.399225  0.037610  1
  Pr  Pr4  1  0.966439  0.783404  0.865953  1
  Pr  Pr5  1  0.464135  0.718093  0.134243  1
  Pr  Pr6  1  0.037262  0.281556  0.633600  1
  Ir  Ir7  1  0.458468  0.998434  0.640743  1
  Ir  Ir8  1  0.951437  0.498931  0.357409  1
  Ir  Ir9  1  0.545179  0.497175  0.857082  1
  Ir  Ir10  1  0.043064  0.004684  0.144506  1
  Pb  Pb11  1  0.527225  0.218998  0.362758  1
  O  O12  1  0.254350  0.088189  0.504428  1
  O  O13  1  0.748164  0.412588  0.494051  1
  O  O14  1  0.750960  0.588410  0.994608  1
  O  O15  1  0.251392  0.911484  0.007943  1
  O  O16  1  0.727431  0.108526  0.568355  1
  O  O17  1  0.219780  0.388491  0.435846  1
  O  O18  1  0.275941  0.611935  0.934116  1
  O  O19  1  0.776920  0.890289  0.065237  1
  O  O20  1  0.564279  0.850267  0.519644  1
  O  O21  1  0.067643  0.648982  0.476103  1
  O  O22  1  0.436179  0.350891  0.978699  1
  O  O23  1  0.935724  0.150804  0.021640  1
  O  O24  1  0.175211  0.860723  0.258151  1
  O  O25  1  0.676578  0.639424  0.741884  1
  O  O26  1  0.820906  0.359441  0.243134  1
  O  O27  1  0.324356  0.140012  0.757071  1
  O  O28  1  0.841420  0.056170  0.287750  1
  O  O29  1  0.338769  0.442652  0.715087  1
  O  O30  1  0.161661  0.556981  0.216266  1
  O  O31  1  0.657837  0.941423  0.785839  1
  O  O32  1  0.314730  0.133534  0.177147  1
  O  O33  1  0.817326  0.369448  0.820395  1
  O  O34  1  0.682571  0.629339  0.322145  1
  O  O35  1  0.184405  0.869661  0.678842  1
