# generated using pymatgen
data_Sc12Co5Te
_symmetry_space_group_name_H-M   'P 1'
_cell_length_a   7.72172881
_cell_length_b   7.72172782
_cell_length_c   7.72172706
_cell_angle_alpha   106.59826421
_cell_angle_beta   110.81331565
_cell_angle_gamma   111.03980605
_symmetry_Int_Tables_number   1
_chemical_formula_structural   Sc12Co5Te
_chemical_formula_sum   'Sc12 Co5 Te1'
_cell_volume   353.75719675
_cell_formula_units_Z   1
loop_
 _symmetry_equiv_pos_site_id
 _symmetry_equiv_pos_as_xyz
  1  'x, y, z'
loop_
 _atom_site_type_symbol
 _atom_site_label
 _atom_site_symmetry_multiplicity
 _atom_site_fract_x
 _atom_site_fract_y
 _atom_site_fract_z
 _atom_site_occupancy
  Sc  Sc0  1  0.454875  0.275258  0.179617  1
  Sc  Sc1  1  0.095642  0.275258  0.820383  1
  Sc  Sc2  1  0.904358  0.724742  0.179617  1
  Sc  Sc3  1  0.545125  0.724742  0.820383  1
  Sc  Sc4  1  0.310647  0.628924  0.318278  1
  Sc  Sc5  1  0.310647  0.992370  0.681722  1
  Sc  Sc6  1  0.689353  0.371076  0.681722  1
  Sc  Sc7  1  0.689353  0.007630  0.318278  1
  Sc  Sc8  1  0.197067  0.220264  0.417330  1
  Sc  Sc9  1  0.802933  0.779736  0.582670  1
  Sc  Sc10  1  0.197067  0.779736  0.976803  1
  Sc  Sc11  1  0.802933  0.220264  0.023197  1
  Co  Co12  1  0.500000  0.618985  0.118985  1
  Co  Co13  1  0.500000  0.381015  0.881015  1
  Co  Co14  1  0.348495  0.000000  0.348495  1
  Co  Co15  1  0.651505  0.000000  0.651505  1
  Co  Co16  1  0.000000  0.000000  0.000000  1
  Te  Te17  1  0.000000  0.500000  0.500000  1
