# generated using pymatgen
data_LiDy4Co12Ni7P12
_symmetry_space_group_name_H-M   'P 1'
_cell_length_a   3.69122100
_cell_length_b   10.27370711
_cell_length_c   11.87913755
_cell_angle_alpha   90.08886889
_cell_angle_beta   90.00000000
_cell_angle_gamma   90.00000000
_symmetry_Int_Tables_number   1
_chemical_formula_structural   LiDy4Co12Ni7P12
_chemical_formula_sum   'Li1 Dy4 Co12 Ni7 P12'
_cell_volume   450.48633016
_cell_formula_units_Z   1
loop_
 _symmetry_equiv_pos_site_id
 _symmetry_equiv_pos_as_xyz
  1  'x, y, z'
loop_
 _atom_site_type_symbol
 _atom_site_label
 _atom_site_symmetry_multiplicity
 _atom_site_fract_x
 _atom_site_fract_y
 _atom_site_fract_z
 _atom_site_occupancy
  Li  Li0  1  0.250000  0.703625  0.991373  1
  Dy  Dy1  1  0.250000  0.581352  0.703385  1
  Dy  Dy2  1  0.250000  0.919196  0.203672  1
  Dy  Dy3  1  0.750000  0.419262  0.296348  1
  Dy  Dy4  1  0.750000  0.081849  0.795601  1
  Co  Co5  1  0.250000  0.222494  0.175511  1
  Co  Co6  1  0.250000  0.278014  0.675604  1
  Co  Co7  1  0.750000  0.781116  0.823305  1
  Co  Co8  1  0.750000  0.721632  0.327200  1
  Co  Co9  1  0.250000  0.881757  0.695447  1
  Co  Co10  1  0.250000  0.620086  0.199744  1
  Co  Co11  1  0.750000  0.119278  0.301722  1
  Co  Co12  1  0.750000  0.379904  0.802553  1
  Co  Co13  1  0.250000  0.466430  0.932674  1
  Co  Co14  1  0.250000  0.033523  0.432114  1
  Co  Co15  1  0.750000  0.532496  0.066611  1
  Co  Co16  1  0.750000  0.967503  0.566374  1
  Ni  Ni17  1  0.250000  0.786952  0.490078  1
  Ni  Ni18  1  0.750000  0.288858  0.011208  1
  Ni  Ni19  1  0.750000  0.213026  0.509715  1
  Ni  Ni20  1  0.250000  0.407823  0.485713  1
  Ni  Ni21  1  0.250000  0.092505  0.984583  1
  Ni  Ni22  1  0.750000  0.591479  0.515572  1
  Ni  Ni23  1  0.750000  0.908232  0.013824  1
  P  P24  1  0.250000  0.421840  0.113208  1
  P  P25  1  0.250000  0.079912  0.611875  1
  P  P26  1  0.750000  0.579221  0.885039  1
  P  P27  1  0.750000  0.920864  0.387250  1
  P  P28  1  0.250000  0.271401  0.864394  1
  P  P29  1  0.250000  0.228465  0.364731  1
  P  P30  1  0.750000  0.726570  0.140496  1
  P  P31  1  0.750000  0.772786  0.634676  1
  P  P32  1  0.250000  0.604648  0.389374  1
  P  P33  1  0.250000  0.895673  0.884964  1
  P  P34  1  0.750000  0.394020  0.612309  1
  P  P35  1  0.750000  0.106208  0.111750  1
