# generated using pymatgen
data_EuYSe2
_symmetry_space_group_name_H-M   'P 1'
_cell_length_a   7.30350991
_cell_length_b   7.30350962
_cell_length_c   7.30351013
_cell_angle_alpha   33.16909296
_cell_angle_beta   33.16909399
_cell_angle_gamma   33.16910321
_symmetry_Int_Tables_number   1
_chemical_formula_structural   EuYSe2
_chemical_formula_sum   'Eu1 Y1 Se2'
_cell_volume   103.80402760
_cell_formula_units_Z   1
loop_
 _symmetry_equiv_pos_site_id
 _symmetry_equiv_pos_as_xyz
  1  'x, y, z'
loop_
 _atom_site_type_symbol
 _atom_site_label
 _atom_site_symmetry_multiplicity
 _atom_site_fract_x
 _atom_site_fract_y
 _atom_site_fract_z
 _atom_site_occupancy
  Eu  Eu0  1  0.000000  0.000000  0.000000  1
  Y  Y1  1  0.500000  0.500000  0.500000  1
  Se  Se2  1  0.754186  0.754186  0.754186  1
  Se  Se3  1  0.245814  0.245814  0.245814  1
