# generated using pymatgen
data_La2YLu3Ta2O14
_symmetry_space_group_name_H-M   'P 1'
_cell_length_a   6.46406935
_cell_length_b   6.47107709
_cell_length_c   7.56960100
_cell_angle_alpha   90.00000000
_cell_angle_beta   90.00000000
_cell_angle_gamma   108.91034978
_symmetry_Int_Tables_number   1
_chemical_formula_structural   La2YLu3Ta2O14
_chemical_formula_sum   'La2 Y1 Lu3 Ta2 O14'
_cell_volume   299.54289527
_cell_formula_units_Z   1
loop_
 _symmetry_equiv_pos_site_id
 _symmetry_equiv_pos_as_xyz
  1  'x, y, z'
loop_
 _atom_site_type_symbol
 _atom_site_label
 _atom_site_symmetry_multiplicity
 _atom_site_fract_x
 _atom_site_fract_y
 _atom_site_fract_z
 _atom_site_occupancy
  La  La0  1  0.501645  0.500963  0.498852  1
  La  La1  1  0.501645  0.500963  0.001148  1
  Y  Y2  1  0.999325  0.466983  0.750000  1
  Lu  Lu3  1  0.529304  0.002458  0.750000  1
  Lu  Lu4  1  0.002150  0.531496  0.250000  1
  Lu  Lu5  1  0.469984  0.997773  0.250000  1
  Ta  Ta6  1  0.999948  0.000060  0.498892  1
  Ta  Ta7  1  0.999948  0.000060  0.001108  1
  O  O8  1  0.678574  0.936170  0.465239  1
  O  O9  1  0.930421  0.677890  0.528193  1
  O  O10  1  0.678574  0.936170  0.034761  1
  O  O11  1  0.930421  0.677890  0.971807  1
  O  O12  1  0.320272  0.064226  0.535053  1
  O  O13  1  0.066842  0.320090  0.462247  1
  O  O14  1  0.320272  0.064226  0.964947  1
  O  O15  1  0.066842  0.320090  0.037753  1
  O  O16  1  0.934325  0.062796  0.750000  1
  O  O17  1  0.067968  0.936055  0.250000  1
  O  O18  1  0.366491  0.645362  0.750000  1
  O  O19  1  0.641630  0.357442  0.250000  1
  O  O20  1  0.642008  0.350858  0.750000  1
  O  O21  1  0.351408  0.649978  0.250000  1
