# generated using pymatgen
data_HoLu11Co5Bi
_symmetry_space_group_name_H-M   'P 1'
_cell_length_a   8.14649553
_cell_length_b   8.14911598
_cell_length_c   8.14911587
_cell_angle_alpha   111.08858206
_cell_angle_beta   111.01759334
_cell_angle_gamma   106.36410174
_symmetry_Int_Tables_number   1
_chemical_formula_structural   HoLu11Co5Bi
_chemical_formula_sum   'Ho1 Lu11 Co5 Bi1'
_cell_volume   415.47765222
_cell_formula_units_Z   1
loop_
 _symmetry_equiv_pos_site_id
 _symmetry_equiv_pos_as_xyz
  1  'x, y, z'
loop_
 _atom_site_type_symbol
 _atom_site_label
 _atom_site_symmetry_multiplicity
 _atom_site_fract_x
 _atom_site_fract_y
 _atom_site_fract_z
 _atom_site_occupancy
  Ho  Ho0  1  0.015387  0.211373  0.804014  1
  Lu  Lu1  1  0.816470  0.713591  0.531064  1
  Lu  Lu2  1  0.182877  0.284917  0.467046  1
  Lu  Lu3  1  0.182877  0.715830  0.897960  1
  Lu  Lu4  1  0.816470  0.285407  0.102879  1
  Lu  Lu5  1  0.687761  0.380436  0.691105  1
  Lu  Lu6  1  0.312255  0.620770  0.309507  1
  Lu  Lu7  1  0.687761  0.996656  0.307324  1
  Lu  Lu8  1  0.312255  0.002749  0.691487  1
  Lu  Lu9  1  0.592854  0.788842  0.804012  1
  Lu  Lu10  1  0.407839  0.210857  0.196982  1
  Lu  Lu11  1  0.985566  0.789343  0.196223  1
  Co  Co12  1  0.624401  0.999206  0.625195  1
  Co  Co13  1  0.374401  0.000358  0.374043  1
  Co  Co14  1  0.112851  0.612603  0.500248  1
  Co  Co15  1  0.886924  0.387831  0.499094  1
  Co  Co16  1  0.000102  0.998795  0.001307  1
  Bi  Bi17  1  0.500949  0.500439  0.000511  1
