# generated using pymatgen
data_MnRhS4
_symmetry_space_group_name_H-M   'P 1'
_cell_length_a   5.56735400
_cell_length_b   5.56430876
_cell_length_c   5.57136016
_cell_angle_alpha   89.67616425
_cell_angle_beta   90.00000000
_cell_angle_gamma   90.00000000
_symmetry_Int_Tables_number   1
_chemical_formula_structural   MnRhS4
_chemical_formula_sum   'Mn2 Rh2 S8'
_cell_volume   172.58949391
_cell_formula_units_Z   2
loop_
 _symmetry_equiv_pos_site_id
 _symmetry_equiv_pos_as_xyz
  1  'x, y, z'
loop_
 _atom_site_type_symbol
 _atom_site_label
 _atom_site_symmetry_multiplicity
 _atom_site_fract_x
 _atom_site_fract_y
 _atom_site_fract_z
 _atom_site_occupancy
  Mn  Mn0  1  0.500000  0.000000  0.500000  1
  Mn  Mn1  1  0.000000  0.000000  0.000000  1
  Rh  Rh2  1  0.500000  0.500000  0.000000  1
  Rh  Rh3  1  0.000000  0.500000  0.500000  1
  S  S4  1  0.876874  0.101925  0.375088  1
  S  S5  1  0.376874  0.898075  0.124912  1
  S  S6  1  0.107464  0.371451  0.894156  1
  S  S7  1  0.607464  0.628549  0.605844  1
  S  S8  1  0.123126  0.898075  0.624912  1
  S  S9  1  0.623126  0.101925  0.875088  1
  S  S10  1  0.892536  0.628549  0.105844  1
  S  S11  1  0.392536  0.371451  0.394156  1
