# generated using pymatgen
data_YHo2Mg3CuGe2
_symmetry_space_group_name_H-M   'P 1'
_cell_length_a   7.23348935
_cell_length_b   7.23348978
_cell_length_c   4.27153200
_cell_angle_alpha   90.00000000
_cell_angle_beta   90.00000000
_cell_angle_gamma   120.12569906
_symmetry_Int_Tables_number   1
_chemical_formula_structural   YHo2Mg3CuGe2
_chemical_formula_sum   'Y1 Ho2 Mg3 Cu1 Ge2'
_cell_volume   193.31187391
_cell_formula_units_Z   1
loop_
 _symmetry_equiv_pos_site_id
 _symmetry_equiv_pos_as_xyz
  1  'x, y, z'
loop_
 _atom_site_type_symbol
 _atom_site_label
 _atom_site_symmetry_multiplicity
 _atom_site_fract_x
 _atom_site_fract_y
 _atom_site_fract_z
 _atom_site_occupancy
  Y  Y0  1  0.415137  0.415137  0.000000  1
  Ho  Ho1  1  0.000669  0.586003  0.000000  1
  Ho  Ho2  1  0.586003  0.000669  0.000000  1
  Mg  Mg3  1  0.999233  0.240440  0.500000  1
  Mg  Mg4  1  0.759777  0.759777  0.500000  1
  Mg  Mg5  1  0.240440  0.999233  0.500000  1
  Cu  Cu6  1  0.997754  0.997754  0.000000  1
  Ge  Ge7  1  0.333297  0.667689  0.500000  1
  Ge  Ge8  1  0.667689  0.333297  0.500000  1
