# generated using pymatgen
data_Y4AlPt
_symmetry_space_group_name_H-M   'P 1'
_cell_length_a   9.64031415
_cell_length_b   9.64031367
_cell_length_c   9.64031400
_cell_angle_alpha   59.99999888
_cell_angle_beta   60.00000052
_cell_angle_gamma   59.99999871
_symmetry_Int_Tables_number   1
_chemical_formula_structural   Y4AlPt
_chemical_formula_sum   'Y16 Al4 Pt4'
_cell_volume   633.51737064
_cell_formula_units_Z   4
loop_
 _symmetry_equiv_pos_site_id
 _symmetry_equiv_pos_as_xyz
  1  'x, y, z'
loop_
 _atom_site_type_symbol
 _atom_site_label
 _atom_site_symmetry_multiplicity
 _atom_site_fract_x
 _atom_site_fract_y
 _atom_site_fract_z
 _atom_site_occupancy
  Y  Y0  1  0.354247  0.354247  0.354247  1
  Y  Y1  1  0.354247  0.354247  0.937259  1
  Y  Y2  1  0.354247  0.937259  0.354247  1
  Y  Y3  1  0.937259  0.354247  0.354247  1
  Y  Y4  1  0.806572  0.193428  0.193428  1
  Y  Y5  1  0.193428  0.806572  0.806572  1
  Y  Y6  1  0.193428  0.806572  0.193428  1
  Y  Y7  1  0.806572  0.193428  0.806572  1
  Y  Y8  1  0.193428  0.193428  0.806572  1
  Y  Y9  1  0.806572  0.806572  0.193428  1
  Y  Y10  1  0.935637  0.564363  0.564363  1
  Y  Y11  1  0.564363  0.935637  0.935637  1
  Y  Y12  1  0.564363  0.935637  0.564363  1
  Y  Y13  1  0.935637  0.564363  0.935637  1
  Y  Y14  1  0.564363  0.564363  0.935637  1
  Y  Y15  1  0.935637  0.935637  0.564363  1
  Al  Al16  1  0.577993  0.577993  0.577993  1
  Al  Al17  1  0.577993  0.577993  0.266021  1
  Al  Al18  1  0.577993  0.266021  0.577993  1
  Al  Al19  1  0.266021  0.577993  0.577993  1
  Pt  Pt20  1  0.143439  0.143439  0.143439  1
  Pt  Pt21  1  0.143439  0.143439  0.569684  1
  Pt  Pt22  1  0.143439  0.569684  0.143439  1
  Pt  Pt23  1  0.569684  0.143439  0.143439  1
