# generated using pymatgen
data_Sc18Re7MoP2
_symmetry_space_group_name_H-M   'P 1'
_cell_length_a   8.67573300
_cell_length_b   8.62168478
_cell_length_c   8.61029200
_cell_angle_alpha   90.00000000
_cell_angle_beta   90.00000000
_cell_angle_gamma   120.20343353
_symmetry_Int_Tables_number   1
_chemical_formula_structural   Sc18Re7MoP2
_chemical_formula_sum   'Sc18 Re7 Mo1 P2'
_cell_volume   556.61243072
_cell_formula_units_Z   1
loop_
 _symmetry_equiv_pos_site_id
 _symmetry_equiv_pos_as_xyz
  1  'x, y, z'
loop_
 _atom_site_type_symbol
 _atom_site_label
 _atom_site_symmetry_multiplicity
 _atom_site_fract_x
 _atom_site_fract_y
 _atom_site_fract_z
 _atom_site_occupancy
  Sc  Sc0  1  0.803653  0.607284  0.549901  1
  Sc  Sc1  1  0.801126  0.196834  0.548261  1
  Sc  Sc2  1  0.395728  0.196860  0.548247  1
  Sc  Sc3  1  0.195936  0.391858  0.445964  1
  Sc  Sc4  1  0.196680  0.803019  0.450018  1
  Sc  Sc5  1  0.606207  0.802946  0.450106  1
  Sc  Sc6  1  0.195936  0.391858  0.054036  1
  Sc  Sc7  1  0.196680  0.803019  0.049982  1
  Sc  Sc8  1  0.606207  0.802946  0.049894  1
  Sc  Sc9  1  0.803653  0.607284  0.950099  1
  Sc  Sc10  1  0.801126  0.196834  0.951739  1
  Sc  Sc11  1  0.395728  0.196860  0.951753  1
  Sc  Sc12  1  0.461632  0.923274  0.750000  1
  Sc  Sc13  1  0.469620  0.543873  0.750000  1
  Sc  Sc14  1  0.074336  0.543925  0.750000  1
  Sc  Sc15  1  0.537621  0.075197  0.250000  1
  Sc  Sc16  1  0.538238  0.461075  0.250000  1
  Sc  Sc17  1  0.922842  0.461105  0.250000  1
  Re  Re18  1  0.108161  0.890888  0.750000  1
  Re  Re19  1  0.782778  0.890917  0.750000  1
  Re  Re20  1  0.893269  0.786524  0.250000  1
  Re  Re21  1  0.890846  0.107887  0.250000  1
  Re  Re22  1  0.217188  0.107984  0.250000  1
  Re  Re23  1  0.999401  0.998889  0.498651  1
  Re  Re24  1  0.999401  0.998889  0.001349  1
  Mo  Mo25  1  0.105292  0.210491  0.750000  1
  P  P26  1  0.666645  0.333349  0.750000  1
  P  P27  1  0.334071  0.668130  0.250000  1
