# generated using pymatgen
data_LiFeNiF6
_symmetry_space_group_name_H-M   'P 1'
_cell_length_a   4.71154800
_cell_length_b   4.71154800
_cell_length_c   9.16235200
_cell_angle_alpha   90.00000000
_cell_angle_beta   90.00000000
_cell_angle_gamma   90.00000000
_symmetry_Int_Tables_number   1
_chemical_formula_structural   LiFeNiF6
_chemical_formula_sum   'Li2 Fe2 Ni2 F12'
_cell_volume   203.39216184
_cell_formula_units_Z   2
loop_
 _symmetry_equiv_pos_site_id
 _symmetry_equiv_pos_as_xyz
  1  'x, y, z'
loop_
 _atom_site_type_symbol
 _atom_site_label
 _atom_site_symmetry_multiplicity
 _atom_site_fract_x
 _atom_site_fract_y
 _atom_site_fract_z
 _atom_site_occupancy
  Li  Li0  1  0.500000  0.500000  0.165376  1
  Li  Li1  1  0.000000  0.000000  0.665376  1
  Fe  Fe2  1  0.500000  0.500000  0.499060  1
  Fe  Fe3  1  0.000000  0.000000  0.999060  1
  Ni  Ni4  1  0.500000  0.500000  0.835124  1
  Ni  Ni5  1  0.000000  0.000000  0.335123  1
  F  F6  1  0.192935  0.807065  0.161489  1
  F  F7  1  0.807065  0.192935  0.161489  1
  F  F8  1  0.307065  0.307065  0.661489  1
  F  F9  1  0.692935  0.692935  0.661489  1
  F  F10  1  0.804116  0.195884  0.839552  1
  F  F11  1  0.195884  0.804116  0.839552  1
  F  F12  1  0.695884  0.695884  0.339552  1
  F  F13  1  0.304116  0.304116  0.339552  1
  F  F14  1  0.204794  0.795206  0.499179  1
  F  F15  1  0.795206  0.204794  0.499179  1
  F  F16  1  0.295206  0.295206  0.999179  1
  F  F17  1  0.704794  0.704794  0.999179  1
