# generated using pymatgen
data_Nd6Dy5Y5(CdIr)4
_symmetry_space_group_name_H-M   'P 1'
_cell_length_a   9.75236676
_cell_length_b   9.76428731
_cell_length_c   9.76428698
_cell_angle_alpha   59.99033158
_cell_angle_beta   60.04037465
_cell_angle_gamma   60.04037811
_symmetry_Int_Tables_number   1
_chemical_formula_structural   Nd6Dy5Y5(CdIr)4
_chemical_formula_sum   'Nd6 Dy5 Y5 Cd4 Ir4'
_cell_volume   657.82307900
_cell_formula_units_Z   1
loop_
 _symmetry_equiv_pos_site_id
 _symmetry_equiv_pos_as_xyz
  1  'x, y, z'
loop_
 _atom_site_type_symbol
 _atom_site_label
 _atom_site_symmetry_multiplicity
 _atom_site_fract_x
 _atom_site_fract_y
 _atom_site_fract_z
 _atom_site_occupancy
  Nd  Nd0  1  0.940424  0.559576  0.559576  1
  Nd  Nd1  1  0.559237  0.940763  0.940763  1
  Nd  Nd2  1  0.559710  0.940915  0.558716  1
  Nd  Nd3  1  0.940659  0.558716  0.940915  1
  Nd  Nd4  1  0.559710  0.558716  0.940915  1
  Nd  Nd5  1  0.940659  0.940915  0.558716  1
  Dy  Dy6  1  0.347065  0.347884  0.347884  1
  Dy  Dy7  1  0.347448  0.347940  0.957164  1
  Dy  Dy8  1  0.347448  0.957164  0.347940  1
  Dy  Dy9  1  0.957168  0.347884  0.347884  1
  Dy  Dy10  1  0.812186  0.187814  0.187814  1
  Y  Y11  1  0.188135  0.811865  0.811865  1
  Y  Y12  1  0.188662  0.811414  0.187533  1
  Y  Y13  1  0.812391  0.187533  0.811414  1
  Y  Y14  1  0.188662  0.187533  0.811414  1
  Y  Y15  1  0.812391  0.811414  0.187533  1
  Cd  Cd16  1  0.579489  0.579538  0.579538  1
  Cd  Cd17  1  0.579498  0.579881  0.261121  1
  Cd  Cd18  1  0.579498  0.261121  0.579881  1
  Cd  Cd19  1  0.261433  0.579538  0.579538  1
  Ir  Ir20  1  0.139886  0.142684  0.142684  1
  Ir  Ir21  1  0.141747  0.142442  0.574064  1
  Ir  Ir22  1  0.141747  0.574064  0.142442  1
  Ir  Ir23  1  0.574745  0.142684  0.142684  1
