# generated using pymatgen
data_Sc12Tl(NiI8)2
_symmetry_space_group_name_H-M   'P 1'
_cell_length_a   9.30100969
_cell_length_b   12.02913557
_cell_length_c   12.64337700
_cell_angle_alpha   117.18126912
_cell_angle_beta   101.33595392
_cell_angle_gamma   100.80801291
_symmetry_Int_Tables_number   1
_chemical_formula_structural   Sc12Tl(NiI8)2
_chemical_formula_sum   'Sc12 Tl1 Ni2 I16'
_cell_volume   1169.79265975
_cell_formula_units_Z   1
loop_
 _symmetry_equiv_pos_site_id
 _symmetry_equiv_pos_as_xyz
  1  'x, y, z'
loop_
 _atom_site_type_symbol
 _atom_site_label
 _atom_site_symmetry_multiplicity
 _atom_site_fract_x
 _atom_site_fract_y
 _atom_site_fract_z
 _atom_site_occupancy
  Sc  Sc0  1  0.103076  0.266645  0.356206  1
  Sc  Sc1  1  0.896924  0.733355  0.643794  1
  Sc  Sc2  1  0.764004  0.535800  0.326742  1
  Sc  Sc3  1  0.235996  0.464200  0.673258  1
  Sc  Sc4  1  0.292843  0.733412  0.642948  1
  Sc  Sc5  1  0.707157  0.266588  0.357052  1
  Sc  Sc6  1  0.160128  0.535576  0.326382  1
  Sc  Sc7  1  0.839872  0.464424  0.673618  1
  Sc  Sc8  1  0.411189  0.367230  0.287165  1
  Sc  Sc9  1  0.588811  0.632770  0.712835  1
  Sc  Sc10  1  0.461389  0.319771  0.520165  1
  Sc  Sc11  1  0.538611  0.680229  0.479835  1
  Tl  Tl12  1  0.000000  0.500000  0.500000  1
  Ni  Ni13  1  0.348241  0.500080  0.499700  1
  Ni  Ni14  1  0.651760  0.499920  0.500300  1
  I  I15  1  0.397481  0.738004  0.880931  1
  I  I16  1  0.602519  0.261996  0.119069  1
  I  I17  1  0.184430  0.954222  0.777862  1
  I  I18  1  0.815570  0.045778  0.222138  1
  I  I19  1  0.337112  0.097960  0.252844  1
  I  I20  1  0.662888  0.902040  0.747156  1
  I  I21  1  0.561914  0.438646  0.798789  1
  I  I22  1  0.438086  0.561354  0.201211  1
  I  I23  1  0.308783  0.823289  0.462743  1
  I  I24  1  0.691217  0.176711  0.537257  1
  I  I25  1  0.170395  0.176209  0.535557  1
  I  I26  1  0.829605  0.823791  0.464443  1
  I  I27  1  0.926572  0.571551  0.164471  1
  I  I28  1  0.073428  0.428449  0.835529  1
  I  I29  1  0.920281  0.737338  0.881547  1
  I  I30  1  0.079719  0.262662  0.118453  1
