# generated using pymatgen
data_Ho8Hg2IrRh
_symmetry_space_group_name_H-M   'P 1'
_cell_length_a   9.56640595
_cell_length_b   9.56640607
_cell_length_c   9.55189100
_cell_angle_alpha   60.05017560
_cell_angle_beta   60.05017521
_cell_angle_gamma   60.11517921
_symmetry_Int_Tables_number   1
_chemical_formula_structural   Ho8Hg2IrRh
_chemical_formula_sum   'Ho16 Hg4 Ir2 Rh2'
_cell_volume   619.12468247
_cell_formula_units_Z   2
loop_
 _symmetry_equiv_pos_site_id
 _symmetry_equiv_pos_as_xyz
  1  'x, y, z'
loop_
 _atom_site_type_symbol
 _atom_site_label
 _atom_site_symmetry_multiplicity
 _atom_site_fract_x
 _atom_site_fract_y
 _atom_site_fract_z
 _atom_site_occupancy
  Ho  Ho0  1  0.600999  0.600999  0.600111  1
  Ho  Ho1  1  0.600999  0.600999  0.197892  1
  Ho  Ho2  1  0.601853  0.196494  0.600827  1
  Ho  Ho3  1  0.196494  0.601853  0.600827  1
  Ho  Ho4  1  0.059963  0.439415  0.439430  1
  Ho  Ho5  1  0.439415  0.059963  0.061192  1
  Ho  Ho6  1  0.439415  0.059963  0.439430  1
  Ho  Ho7  1  0.059963  0.439415  0.061192  1
  Ho  Ho8  1  0.439463  0.439463  0.060537  1
  Ho  Ho9  1  0.060519  0.060519  0.439481  1
  Ho  Ho10  1  0.187512  0.813385  0.812140  1
  Ho  Ho11  1  0.813385  0.187512  0.186962  1
  Ho  Ho12  1  0.813385  0.187512  0.812140  1
  Ho  Ho13  1  0.187512  0.813385  0.186962  1
  Ho  Ho14  1  0.812134  0.812134  0.187866  1
  Ho  Ho15  1  0.186672  0.186672  0.813328  1
  Hg  Hg16  1  0.834509  0.834509  0.834366  1
  Hg  Hg17  1  0.834509  0.834509  0.496615  1
  Hg  Hg18  1  0.834676  0.496111  0.834607  1
  Hg  Hg19  1  0.496111  0.834676  0.834607  1
  Ir  Ir20  1  0.392813  0.822545  0.392322  1
  Ir  Ir21  1  0.822545  0.392813  0.392322  1
  Rh  Rh22  1  0.392578  0.392578  0.392153  1
  Rh  Rh23  1  0.392578  0.392578  0.822694  1
