# generated using pymatgen
data_Nb8V2Ga5SiB2
_symmetry_space_group_name_H-M   'P 1'
_cell_length_a   7.75214732
_cell_length_b   7.73896091
_cell_length_c   5.22647002
_cell_angle_alpha   90.00988630
_cell_angle_beta   89.99506937
_cell_angle_gamma   119.94375513
_symmetry_Int_Tables_number   1
_chemical_formula_structural   Nb8V2Ga5SiB2
_chemical_formula_sum   'Nb8 V2 Ga5 Si1 B2'
_cell_volume   271.69998942
_cell_formula_units_Z   1
loop_
 _symmetry_equiv_pos_site_id
 _symmetry_equiv_pos_as_xyz
  1  'x, y, z'
loop_
 _atom_site_type_symbol
 _atom_site_label
 _atom_site_symmetry_multiplicity
 _atom_site_fract_x
 _atom_site_fract_y
 _atom_site_fract_z
 _atom_site_occupancy
  Nb  Nb0  1  0.329134  0.663382  0.998905  1
  Nb  Nb1  1  0.670866  0.334247  0.998905  1
  Nb  Nb2  1  0.756496  0.755751  0.245998  1
  Nb  Nb3  1  0.243504  0.999255  0.245998  1
  Nb  Nb4  1  0.000000  0.246231  0.248531  1
  Nb  Nb5  1  0.240416  0.246066  0.753360  1
  Nb  Nb6  1  0.759584  0.005650  0.753360  1
  Nb  Nb7  1  0.000000  0.753859  0.753842  1
  V  V8  1  0.672234  0.334079  0.500686  1
  V  V9  1  0.327766  0.661846  0.500686  1
  Ga  Ga10  1  0.405567  0.403066  0.265055  1
  Ga  Ga11  1  0.594433  0.997499  0.265055  1
  Ga  Ga12  1  0.000000  0.597387  0.266103  1
  Ga  Ga13  1  0.596530  0.597072  0.734857  1
  Ga  Ga14  1  0.403470  0.000542  0.734857  1
  Si  Si15  1  0.000000  0.405855  0.733815  1
  B  B16  1  0.000000  0.998826  0.499348  1
  B  B17  1  0.000000  0.999386  0.000639  1
