# generated using pymatgen
data_Y2LuIr7Rh2
_symmetry_space_group_name_H-M   'P 1'
_cell_length_a   5.29588600
_cell_length_b   5.29588703
_cell_length_c   17.44109100
_cell_angle_alpha   90.00000000
_cell_angle_beta   90.00000000
_cell_angle_gamma   119.99999357
_symmetry_Int_Tables_number   1
_chemical_formula_structural   Y2LuIr7Rh2
_chemical_formula_sum   'Y4 Lu2 Ir14 Rh4'
_cell_volume   423.62506451
_cell_formula_units_Z   2
loop_
 _symmetry_equiv_pos_site_id
 _symmetry_equiv_pos_as_xyz
  1  'x, y, z'
loop_
 _atom_site_type_symbol
 _atom_site_label
 _atom_site_symmetry_multiplicity
 _atom_site_fract_x
 _atom_site_fract_y
 _atom_site_fract_z
 _atom_site_occupancy
  Y  Y0  1  0.666667  0.333333  0.459072  1
  Y  Y1  1  0.333333  0.666667  0.540928  1
  Y  Y2  1  0.333333  0.666667  0.750461  1
  Y  Y3  1  0.666667  0.333333  0.249539  1
  Lu  Lu4  1  0.333333  0.666667  0.959076  1
  Lu  Lu5  1  0.666667  0.333333  0.040924  1
  Ir  Ir6  1  0.167450  0.832550  0.374103  1
  Ir  Ir7  1  0.167450  0.334901  0.374103  1
  Ir  Ir8  1  0.665099  0.832550  0.374103  1
  Ir  Ir9  1  0.832550  0.167450  0.625897  1
  Ir  Ir10  1  0.832550  0.665099  0.625897  1
  Ir  Ir11  1  0.334901  0.167450  0.625897  1
  Ir  Ir12  1  0.832110  0.167890  0.875623  1
  Ir  Ir13  1  0.832110  0.664219  0.875623  1
  Ir  Ir14  1  0.335781  0.167890  0.875623  1
  Ir  Ir15  1  0.167890  0.832110  0.124377  1
  Ir  Ir16  1  0.167890  0.335781  0.124377  1
  Ir  Ir17  1  0.664219  0.832110  0.124377  1
  Ir  Ir18  1  0.000000  0.000000  0.500000  1
  Ir  Ir19  1  0.000000  0.000000  0.000000  1
  Rh  Rh20  1  0.333333  0.666667  0.249745  1
  Rh  Rh21  1  0.666667  0.333333  0.750255  1
  Rh  Rh22  1  0.000000  0.000000  0.249439  1
  Rh  Rh23  1  0.000000  0.000000  0.750561  1
