# generated using pymatgen
data_YTm5(Lu2Pb3)2
_symmetry_space_group_name_H-M   'P 1'
_cell_length_a   6.49192401
_cell_length_b   8.93978608
_cell_length_c   8.94607953
_cell_angle_alpha   119.97672738
_cell_angle_beta   90.00338433
_cell_angle_gamma   89.99323117
_symmetry_Int_Tables_number   1
_chemical_formula_structural   YTm5(Lu2Pb3)2
_chemical_formula_sum   'Y1 Tm5 Lu4 Pb6'
_cell_volume   449.74437105
_cell_formula_units_Z   1
loop_
 _symmetry_equiv_pos_site_id
 _symmetry_equiv_pos_as_xyz
  1  'x, y, z'
loop_
 _atom_site_type_symbol
 _atom_site_label
 _atom_site_symmetry_multiplicity
 _atom_site_fract_x
 _atom_site_fract_y
 _atom_site_fract_z
 _atom_site_occupancy
  Y  Y0  1  0.749995  0.237820  0.000000  1
  Tm  Tm1  1  0.749994  0.761786  0.761999  1
  Tm  Tm2  1  0.749994  0.999787  0.238001  1
  Tm  Tm3  1  0.250006  0.762371  0.000000  1
  Tm  Tm4  1  0.250001  0.237924  0.238147  1
  Tm  Tm5  1  0.250001  0.999777  0.761853  1
  Lu  Lu6  1  0.499957  0.333351  0.666617  1
  Lu  Lu7  1  0.499957  0.666733  0.333383  1
  Lu  Lu8  1  0.000026  0.666756  0.333381  1
  Lu  Lu9  1  0.000026  0.333375  0.666619  1
  Pb  Pb10  1  0.749969  0.606049  0.000000  1
  Pb  Pb11  1  0.749980  0.394996  0.395762  1
  Pb  Pb12  1  0.749980  0.999233  0.604238  1
  Pb  Pb13  1  0.250041  0.394507  0.000000  1
  Pb  Pb14  1  0.250038  0.605420  0.605302  1
  Pb  Pb15  1  0.250038  0.000117  0.394698  1
