# generated using pymatgen
data_Np2Al9IrPd2
_symmetry_space_group_name_H-M   'P 1'
_cell_length_a   7.64300505
_cell_length_b   7.64300724
_cell_length_c   9.50659620
_cell_angle_alpha   90.00010958
_cell_angle_beta   90.00010216
_cell_angle_gamma   119.59651042
_symmetry_Int_Tables_number   1
_chemical_formula_structural   Np2Al9IrPd2
_chemical_formula_sum   'Np4 Al18 Ir2 Pd4'
_cell_volume   482.87591428
_cell_formula_units_Z   2
loop_
 _symmetry_equiv_pos_site_id
 _symmetry_equiv_pos_as_xyz
  1  'x, y, z'
loop_
 _atom_site_type_symbol
 _atom_site_label
 _atom_site_symmetry_multiplicity
 _atom_site_fract_x
 _atom_site_fract_y
 _atom_site_fract_z
 _atom_site_occupancy
  Np  Np0  1  0.995132  0.669811  0.253363  1
  Np  Np1  1  0.005475  0.330154  0.746703  1
  Np  Np2  1  0.669846  0.994525  0.253297  1
  Np  Np3  1  0.330189  0.004868  0.746637  1
  Al  Al4  1  0.128931  0.129768  0.251199  1
  Al  Al5  1  0.870232  0.871069  0.748801  1
  Al  Al6  1  0.999666  0.335428  0.075556  1
  Al  Al7  1  0.000830  0.665129  0.923668  1
  Al  Al8  1  0.997069  0.664754  0.575253  1
  Al  Al9  1  0.335246  0.002931  0.424747  1
  Al  Al10  1  0.997956  0.331625  0.425492  1
  Al  Al11  1  0.668375  0.002044  0.574508  1
  Al  Al12  1  0.664572  0.000334  0.924444  1
  Al  Al13  1  0.334871  0.999170  0.076332  1
  Al  Al14  1  0.333567  0.330841  0.552188  1
  Al  Al15  1  0.669159  0.666433  0.447812  1
  Al  Al16  1  0.667373  0.667457  0.059117  1
  Al  Al17  1  0.332543  0.332627  0.940883  1
  Al  Al18  1  0.339964  0.547976  0.250211  1
  Al  Al19  1  0.659056  0.452320  0.748052  1
  Al  Al20  1  0.547680  0.340944  0.251948  1
  Al  Al21  1  0.452024  0.660036  0.749789  1
  Ir  Ir22  1  0.671428  0.328572  0.500000  1
  Ir  Ir23  1  0.000405  0.999595  0.500000  1
  Pd  Pd24  1  0.670416  0.329584  0.000000  1
  Pd  Pd25  1  0.329426  0.670574  0.000000  1
  Pd  Pd26  1  0.328759  0.671241  0.500000  1
  Pd  Pd27  1  0.999809  0.000191  0.000000  1
