# generated using pymatgen
data_HfZn6Sn5Rh12
_symmetry_space_group_name_H-M   'P 1'
_cell_length_a   4.37824200
_cell_length_b   6.45074000
_cell_length_c   13.18280000
_cell_angle_alpha   89.99997808
_cell_angle_beta   90.00065748
_cell_angle_gamma   89.99990324
_symmetry_Int_Tables_number   1
_chemical_formula_structural   HfZn6Sn5Rh12
_chemical_formula_sum   'Hf1 Zn6 Sn5 Rh12'
_cell_volume   372.32051264
_cell_formula_units_Z   1
loop_
 _symmetry_equiv_pos_site_id
 _symmetry_equiv_pos_as_xyz
  1  'x, y, z'
loop_
 _atom_site_type_symbol
 _atom_site_label
 _atom_site_symmetry_multiplicity
 _atom_site_fract_x
 _atom_site_fract_y
 _atom_site_fract_z
 _atom_site_occupancy
  Hf  Hf0  1  0.000000  0.500000  0.000000  1
  Zn  Zn1  1  0.000000  0.000000  0.000000  1
  Zn  Zn2  1  0.500028  0.500000  0.161302  1
  Zn  Zn3  1  0.000004  0.000000  0.334836  1
  Zn  Zn4  1  0.500000  0.500000  0.500000  1
  Zn  Zn5  1  0.999997  0.000000  0.665164  1
  Zn  Zn6  1  0.499973  0.500000  0.838698  1
  Sn  Sn7  1  0.500036  0.999998  0.168271  1
  Sn  Sn8  1  0.000093  0.499997  0.332707  1
  Sn  Sn9  1  0.500000  0.000000  0.500000  1
  Sn  Sn10  1  0.999907  0.500003  0.667292  1
  Sn  Sn11  1  0.499965  0.000002  0.831729  1
  Rh  Rh12  1  0.499998  0.244238  0.000000  1
  Rh  Rh13  1  0.500002  0.755762  0.000000  1
  Rh  Rh14  1  0.000005  0.250103  0.167308  1
  Rh  Rh15  1  0.000005  0.749899  0.167309  1
  Rh  Rh16  1  0.499998  0.249998  0.333219  1
  Rh  Rh17  1  0.499995  0.750000  0.333219  1
  Rh  Rh18  1  0.999999  0.250839  0.500002  1
  Rh  Rh19  1  0.000001  0.749160  0.499998  1
  Rh  Rh20  1  0.500006  0.249999  0.666781  1
  Rh  Rh21  1  0.500003  0.750001  0.666781  1
  Rh  Rh22  1  0.999995  0.250100  0.832691  1
  Rh  Rh23  1  0.999995  0.749896  0.832692  1
