# generated using pymatgen
data_Gd8Ga12CuIr3
_symmetry_space_group_name_H-M   'P 1'
_cell_length_a   7.04650000
_cell_length_b   8.86078260
_cell_length_c   8.86078200
_cell_angle_alpha   119.99999777
_cell_angle_beta   90.00000000
_cell_angle_gamma   90.00000000
_symmetry_Int_Tables_number   1
_chemical_formula_structural   Gd8Ga12CuIr3
_chemical_formula_sum   'Gd8 Ga12 Cu1 Ir3'
_cell_volume   479.12433635
_cell_formula_units_Z   1
loop_
 _symmetry_equiv_pos_site_id
 _symmetry_equiv_pos_as_xyz
  1  'x, y, z'
loop_
 _atom_site_type_symbol
 _atom_site_label
 _atom_site_symmetry_multiplicity
 _atom_site_fract_x
 _atom_site_fract_y
 _atom_site_fract_z
 _atom_site_occupancy
  Gd  Gd0  1  0.752024  0.000000  0.000000  1
  Gd  Gd1  1  0.249604  0.000000  0.000000  1
  Gd  Gd2  1  0.749067  0.474259  0.525741  1
  Gd  Gd3  1  0.245870  0.520069  0.479931  1
  Gd  Gd4  1  0.749067  0.051482  0.525741  1
  Gd  Gd5  1  0.245870  0.959862  0.479931  1
  Gd  Gd6  1  0.749067  0.474259  0.948518  1
  Gd  Gd7  1  0.245870  0.520069  0.040138  1
  Ga  Ga8  1  0.948133  0.829534  0.170466  1
  Ga  Ga9  1  0.047470  0.169025  0.830975  1
  Ga  Ga10  1  0.948133  0.340931  0.170466  1
  Ga  Ga11  1  0.451165  0.168099  0.831901  1
  Ga  Ga12  1  0.047470  0.661950  0.830975  1
  Ga  Ga13  1  0.546186  0.831111  0.168889  1
  Ga  Ga14  1  0.948133  0.829534  0.659069  1
  Ga  Ga15  1  0.451165  0.663800  0.831901  1
  Ga  Ga16  1  0.047470  0.169025  0.338050  1
  Ga  Ga17  1  0.546186  0.337778  0.168889  1
  Ga  Ga18  1  0.451165  0.168099  0.336200  1
  Ga  Ga19  1  0.546186  0.831111  0.662222  1
  Cu  Cu20  1  0.557970  0.666667  0.333333  1
  Ir  Ir21  1  0.980285  0.666667  0.333333  1
  Ir  Ir22  1  0.031087  0.333333  0.666667  1
  Ir  Ir23  1  0.465351  0.333333  0.666667  1
