# generated using pymatgen
data_La10Sn3HgRu6
_symmetry_space_group_name_H-M   'P 1'
_cell_length_a   8.81293392
_cell_length_b   8.81293214
_cell_length_c   8.81144500
_cell_angle_alpha   109.46780697
_cell_angle_beta   109.46780289
_cell_angle_gamma   109.47463639
_symmetry_Int_Tables_number   1
_chemical_formula_structural   La10Sn3HgRu6
_chemical_formula_sum   'La10 Sn3 Hg1 Ru6'
_cell_volume   526.84697169
_cell_formula_units_Z   1
loop_
 _symmetry_equiv_pos_site_id
 _symmetry_equiv_pos_as_xyz
  1  'x, y, z'
loop_
 _atom_site_type_symbol
 _atom_site_label
 _atom_site_symmetry_multiplicity
 _atom_site_fract_x
 _atom_site_fract_y
 _atom_site_fract_z
 _atom_site_occupancy
  La  La0  1  0.792675  0.997596  0.005683  1
  La  La1  1  0.244404  0.311618  0.055447  1
  La  La2  1  0.704923  0.707327  0.213009  1
  La  La3  1  0.188382  0.932786  0.243828  1
  La  La4  1  0.000000  0.500001  0.297392  1
  La  La5  1  0.748090  0.185201  0.440173  1
  La  La6  1  0.502405  0.795079  0.508087  1
  La  La7  1  0.937111  0.751910  0.692083  1
  La  La8  1  0.314799  0.562889  0.754972  1
  La  La9  1  0.567214  0.255596  0.811042  1
  Sn  Sn10  1  0.406522  0.003216  0.998298  1
  Sn  Sn11  1  0.496784  0.403306  0.495083  1
  Sn  Sn12  1  0.096694  0.093478  0.591776  1
  Hg  Hg13  1  0.000000  0.500000  0.913360  1
  Ru  Ru14  1  0.399576  0.760526  0.134742  1
  Ru  Ru15  1  0.630814  0.379794  0.248750  1
  Ru  Ru16  1  0.120206  0.251020  0.368956  1
  Ru  Ru17  1  0.248980  0.869186  0.617937  1
  Ru  Ru18  1  0.860949  0.100424  0.735166  1
  Ru  Ru19  1  0.739474  0.639050  0.874216  1
