# generated using pymatgen
data_Dy2Al9IrPt2
_symmetry_space_group_name_H-M   'P 1'
_cell_length_a   7.60278850
_cell_length_b   7.60278867
_cell_length_c   9.43938400
_cell_angle_alpha   90.00000000
_cell_angle_beta   90.00000000
_cell_angle_gamma   119.61764520
_symmetry_Int_Tables_number   1
_chemical_formula_structural   Dy2Al9IrPt2
_chemical_formula_sum   'Dy4 Al18 Ir2 Pt4'
_cell_volume   474.32992912
_cell_formula_units_Z   2
loop_
 _symmetry_equiv_pos_site_id
 _symmetry_equiv_pos_as_xyz
  1  'x, y, z'
loop_
 _atom_site_type_symbol
 _atom_site_label
 _atom_site_symmetry_multiplicity
 _atom_site_fract_x
 _atom_site_fract_y
 _atom_site_fract_z
 _atom_site_occupancy
  Dy  Dy0  1  0.994170  0.669560  0.750000  1
  Dy  Dy1  1  0.005830  0.330440  0.250000  1
  Dy  Dy2  1  0.669560  0.994170  0.750000  1
  Dy  Dy3  1  0.330440  0.005830  0.250000  1
  Al  Al4  1  0.126955  0.126955  0.750000  1
  Al  Al5  1  0.873045  0.873045  0.250000  1
  Al  Al6  1  0.999924  0.331273  0.575820  1
  Al  Al7  1  0.000076  0.668727  0.424180  1
  Al  Al8  1  0.000076  0.668727  0.075820  1
  Al  Al9  1  0.331273  0.999924  0.924180  1
  Al  Al10  1  0.999924  0.331273  0.924180  1
  Al  Al11  1  0.668727  0.000076  0.075820  1
  Al  Al12  1  0.668727  0.000076  0.424180  1
  Al  Al13  1  0.331273  0.999924  0.575820  1
  Al  Al14  1  0.330158  0.330158  0.056110  1
  Al  Al15  1  0.669842  0.669842  0.943890  1
  Al  Al16  1  0.669842  0.669842  0.556110  1
  Al  Al17  1  0.330158  0.330158  0.443890  1
  Al  Al18  1  0.339970  0.546525  0.750000  1
  Al  Al19  1  0.660030  0.453475  0.250000  1
  Al  Al20  1  0.546525  0.339970  0.750000  1
  Al  Al21  1  0.453475  0.660030  0.250000  1
  Ir  Ir22  1  0.000000  0.000000  0.500000  1
  Ir  Ir23  1  0.000000  0.000000  0.000000  1
  Pt  Pt24  1  0.672414  0.327586  0.500000  1
  Pt  Pt25  1  0.327586  0.672414  0.500000  1
  Pt  Pt26  1  0.327586  0.672414  0.000000  1
  Pt  Pt27  1  0.672414  0.327586  0.000000  1
