# generated using pymatgen
data_Tm4Ga4Ru2PtRh
_symmetry_space_group_name_H-M   'P 1'
_cell_length_a   4.26419300
_cell_length_b   6.80898996
_cell_length_c   7.78372606
_cell_angle_alpha   89.97060407
_cell_angle_beta   90.00000000
_cell_angle_gamma   90.00000000
_symmetry_Int_Tables_number   1
_chemical_formula_structural   Tm4Ga4Ru2PtRh
_chemical_formula_sum   'Tm4 Ga4 Ru2 Pt1 Rh1'
_cell_volume   225.99926801
_cell_formula_units_Z   1
loop_
 _symmetry_equiv_pos_site_id
 _symmetry_equiv_pos_as_xyz
  1  'x, y, z'
loop_
 _atom_site_type_symbol
 _atom_site_label
 _atom_site_symmetry_multiplicity
 _atom_site_fract_x
 _atom_site_fract_y
 _atom_site_fract_z
 _atom_site_occupancy
  Tm  Tm0  1  0.250000  0.973095  0.311248  1
  Tm  Tm1  1  0.250000  0.476167  0.184370  1
  Tm  Tm2  1  0.750000  0.022193  0.693725  1
  Tm  Tm3  1  0.750000  0.522338  0.810040  1
  Ga  Ga4  1  0.250000  0.345742  0.575406  1
  Ga  Ga5  1  0.250000  0.841866  0.928882  1
  Ga  Ga6  1  0.750000  0.665093  0.431373  1
  Ga  Ga7  1  0.750000  0.158505  0.066264  1
  Ru  Ru8  1  0.250000  0.228268  0.891132  1
  Ru  Ru9  1  0.250000  0.731541  0.608228  1
  Pt  Pt10  1  0.750000  0.268463  0.390280  1
  Rh  Rh11  1  0.750000  0.766731  0.109052  1
