# generated using pymatgen
data_CaCrCo4As3
_symmetry_space_group_name_H-M   'P 1'
_cell_length_a   3.75690900
_cell_length_b   10.75234800
_cell_length_c   12.32076800
_cell_angle_alpha   90.00000000
_cell_angle_beta   90.00000000
_cell_angle_gamma   90.00000000
_symmetry_Int_Tables_number   1
_chemical_formula_structural   CaCrCo4As3
_chemical_formula_sum   'Ca4 Cr4 Co16 As12'
_cell_volume   497.70472923
_cell_formula_units_Z   4
loop_
 _symmetry_equiv_pos_site_id
 _symmetry_equiv_pos_as_xyz
  1  'x, y, z'
loop_
 _atom_site_type_symbol
 _atom_site_label
 _atom_site_symmetry_multiplicity
 _atom_site_fract_x
 _atom_site_fract_y
 _atom_site_fract_z
 _atom_site_occupancy
  Ca  Ca0  1  0.250000  0.581557  0.704745  1
  Ca  Ca1  1  0.250000  0.918443  0.204745  1
  Ca  Ca2  1  0.750000  0.418443  0.295255  1
  Ca  Ca3  1  0.750000  0.081557  0.795255  1
  Cr  Cr4  1  0.250000  0.704043  0.988697  1
  Cr  Cr5  1  0.250000  0.795957  0.488697  1
  Cr  Cr6  1  0.750000  0.295957  0.011303  1
  Cr  Cr7  1  0.750000  0.204043  0.511303  1
  Co  Co8  1  0.250000  0.404207  0.489667  1
  Co  Co9  1  0.250000  0.095793  0.989667  1
  Co  Co10  1  0.750000  0.595793  0.510333  1
  Co  Co11  1  0.750000  0.904207  0.010333  1
  Co  Co12  1  0.250000  0.215563  0.173948  1
  Co  Co13  1  0.250000  0.284437  0.673948  1
  Co  Co14  1  0.750000  0.784437  0.826052  1
  Co  Co15  1  0.750000  0.715563  0.326052  1
  Co  Co16  1  0.250000  0.882423  0.697553  1
  Co  Co17  1  0.250000  0.617577  0.197553  1
  Co  Co18  1  0.750000  0.117577  0.302447  1
  Co  Co19  1  0.750000  0.382423  0.802447  1
  Co  Co20  1  0.250000  0.464274  0.935016  1
  Co  Co21  1  0.250000  0.035726  0.435016  1
  Co  Co22  1  0.750000  0.535726  0.064984  1
  Co  Co23  1  0.750000  0.964274  0.564984  1
  As  As24  1  0.250000  0.418419  0.116492  1
  As  As25  1  0.250000  0.081581  0.616492  1
  As  As26  1  0.750000  0.581581  0.883508  1
  As  As27  1  0.750000  0.918419  0.383508  1
  As  As28  1  0.250000  0.267096  0.865254  1
  As  As29  1  0.250000  0.232904  0.365254  1
  As  As30  1  0.750000  0.732904  0.134746  1
  As  As31  1  0.750000  0.767096  0.634746  1
  As  As32  1  0.250000  0.594870  0.389742  1
  As  As33  1  0.250000  0.905130  0.889742  1
  As  As34  1  0.750000  0.405130  0.610258  1
  As  As35  1  0.750000  0.094870  0.110258  1
