# generated using pymatgen
data_DyY2Sc3FeSb2
_symmetry_space_group_name_H-M   'P 1'
_cell_length_a   7.85040132
_cell_length_b   7.83612857
_cell_length_c   4.13839500
_cell_angle_alpha   90.00000000
_cell_angle_beta   90.00000000
_cell_angle_gamma   119.93988136
_symmetry_Int_Tables_number   1
_chemical_formula_structural   DyY2Sc3FeSb2
_chemical_formula_sum   'Dy1 Y2 Sc3 Fe1 Sb2'
_cell_volume   220.60673114
_cell_formula_units_Z   1
loop_
 _symmetry_equiv_pos_site_id
 _symmetry_equiv_pos_as_xyz
  1  'x, y, z'
loop_
 _atom_site_type_symbol
 _atom_site_label
 _atom_site_symmetry_multiplicity
 _atom_site_fract_x
 _atom_site_fract_y
 _atom_site_fract_z
 _atom_site_occupancy
  Dy  Dy0  1  0.000000  0.607008  0.500000  1
  Y  Y1  1  0.605928  0.999864  0.500000  1
  Y  Y2  1  0.394072  0.393936  0.500000  1
  Sc  Sc3  1  0.225424  0.999602  0.000000  1
  Sc  Sc4  1  0.774576  0.774178  0.000000  1
  Sc  Sc5  1  0.000000  0.225944  0.000000  1
  Fe  Fe6  1  0.000000  0.999242  0.500000  1
  Sb  Sb7  1  0.333258  0.666743  0.000000  1
  Sb  Sb8  1  0.666742  0.333484  0.000000  1
