# generated using pymatgen
data_Er3Tm7NiBi5
_symmetry_space_group_name_H-M   'P 1'
_cell_length_a   8.00991100
_cell_length_b   9.31852900
_cell_length_c   11.99983300
_cell_angle_alpha   90.00000000
_cell_angle_beta   90.00000000
_cell_angle_gamma   90.00000000
_symmetry_Int_Tables_number   1
_chemical_formula_structural   Er3Tm7NiBi5
_chemical_formula_sum   'Er6 Tm14 Ni2 Bi10'
_cell_volume   895.67459031
_cell_formula_units_Z   2
loop_
 _symmetry_equiv_pos_site_id
 _symmetry_equiv_pos_as_xyz
  1  'x, y, z'
loop_
 _atom_site_type_symbol
 _atom_site_label
 _atom_site_symmetry_multiplicity
 _atom_site_fract_x
 _atom_site_fract_y
 _atom_site_fract_z
 _atom_site_occupancy
  Er  Er0  1  0.573800  0.500000  0.773784  1
  Er  Er1  1  0.426200  0.500000  0.273784  1
  Er  Er2  1  0.259903  0.500000  0.993519  1
  Er  Er3  1  0.740097  0.500000  0.493519  1
  Er  Er4  1  0.089746  0.500000  0.717650  1
  Er  Er5  1  0.910254  0.500000  0.217650  1
  Tm  Tm6  1  0.432218  0.176875  0.562950  1
  Tm  Tm7  1  0.567782  0.823125  0.062950  1
  Tm  Tm8  1  0.071471  0.725222  0.435975  1
  Tm  Tm9  1  0.928529  0.274778  0.935975  1
  Tm  Tm10  1  0.071471  0.274778  0.435975  1
  Tm  Tm11  1  0.928529  0.725222  0.935975  1
  Tm  Tm12  1  0.432218  0.823125  0.562950  1
  Tm  Tm13  1  0.567782  0.176875  0.062950  1
  Tm  Tm14  1  0.906448  0.000000  0.201881  1
  Tm  Tm15  1  0.093552  0.000000  0.701881  1
  Tm  Tm16  1  0.198573  0.000000  0.998726  1
  Tm  Tm17  1  0.801427  0.000000  0.498726  1
  Tm  Tm18  1  0.376376  0.000000  0.305812  1
  Tm  Tm19  1  0.623624  0.000000  0.805812  1
  Ni  Ni20  1  0.171015  0.000000  0.486088  1
  Ni  Ni21  1  0.828985  0.000000  0.986088  1
  Bi  Bi22  1  0.814938  0.742331  0.672684  1
  Bi  Bi23  1  0.185062  0.257669  0.172684  1
  Bi  Bi24  1  0.680927  0.240694  0.325135  1
  Bi  Bi25  1  0.319073  0.759306  0.825135  1
  Bi  Bi26  1  0.680927  0.759306  0.325135  1
  Bi  Bi27  1  0.319073  0.240694  0.825135  1
  Bi  Bi28  1  0.814938  0.257669  0.672684  1
  Bi  Bi29  1  0.185062  0.742331  0.172684  1
  Bi  Bi30  1  0.347505  0.500000  0.529055  1
  Bi  Bi31  1  0.652495  0.500000  0.029055  1
