# generated using pymatgen
data_Er3TaPd12
_symmetry_space_group_name_H-M   'P 1'
_cell_length_a   5.76033100
_cell_length_b   5.76033120
_cell_length_c   8.12312300
_cell_angle_alpha   90.00000000
_cell_angle_beta   90.00000000
_cell_angle_gamma   90.01508901
_symmetry_Int_Tables_number   1
_chemical_formula_structural   Er3TaPd12
_chemical_formula_sum   'Er3 Ta1 Pd12'
_cell_volume   269.53670098
_cell_formula_units_Z   1
loop_
 _symmetry_equiv_pos_site_id
 _symmetry_equiv_pos_as_xyz
  1  'x, y, z'
loop_
 _atom_site_type_symbol
 _atom_site_label
 _atom_site_symmetry_multiplicity
 _atom_site_fract_x
 _atom_site_fract_y
 _atom_site_fract_z
 _atom_site_occupancy
  Er  Er0  1  0.500000  0.000000  0.249896  1
  Er  Er1  1  0.000000  0.500000  0.250039  1
  Er  Er2  1  0.500000  0.000000  0.750115  1
  Ta  Ta3  1  0.000000  0.500000  0.749935  1
  Pd  Pd4  1  0.243125  0.256875  0.991341  1
  Pd  Pd5  1  0.757113  0.257113  0.508715  1
  Pd  Pd6  1  0.754865  0.254865  0.991882  1
  Pd  Pd7  1  0.756875  0.743125  0.991341  1
  Pd  Pd8  1  0.500000  0.500000  0.750017  1
  Pd  Pd9  1  0.245477  0.254523  0.508065  1
  Pd  Pd10  1  0.754523  0.745477  0.508065  1
  Pd  Pd11  1  0.242887  0.742887  0.508715  1
  Pd  Pd12  1  0.500000  0.500000  0.249988  1
  Pd  Pd13  1  0.000000  0.000000  0.750017  1
  Pd  Pd14  1  0.000000  0.000000  0.249988  1
  Pd  Pd15  1  0.245135  0.745135  0.991882  1
