# generated using pymatgen
data_Ho6C3Cl5
_symmetry_space_group_name_H-M   'P 1'
_cell_length_a   3.64013827
_cell_length_b   8.27988569
_cell_length_c   10.16942967
_cell_angle_alpha   85.67750063
_cell_angle_beta   79.60041144
_cell_angle_gamma   77.38043418
_symmetry_Int_Tables_number   1
_chemical_formula_structural   Ho6C3Cl5
_chemical_formula_sum   'Ho6 C3 Cl5'
_cell_volume   293.98174303
_cell_formula_units_Z   1
loop_
 _symmetry_equiv_pos_site_id
 _symmetry_equiv_pos_as_xyz
  1  'x, y, z'
loop_
 _atom_site_type_symbol
 _atom_site_label
 _atom_site_symmetry_multiplicity
 _atom_site_fract_x
 _atom_site_fract_y
 _atom_site_fract_z
 _atom_site_occupancy
  Ho  Ho0  1  0.573344  0.075927  0.780138  1
  Ho  Ho1  1  0.959372  0.429399  0.658240  1
  Ho  Ho2  1  0.683872  0.180542  0.454920  1
  Ho  Ho3  1  0.047913  0.568509  0.341472  1
  Ho  Ho4  1  0.319960  0.819553  0.542996  1
  Ho  Ho5  1  0.432028  0.921740  0.217760  1
  C  C6  1  0.127331  0.123643  0.625437  1
  C  C7  1  0.877310  0.874693  0.372454  1
  C  C8  1  0.504210  0.498288  0.499897  1
  Cl  Cl9  1  0.746534  0.746280  0.756787  1
  Cl  Cl10  1  0.379830  0.380001  0.870900  1
  Cl  Cl11  1  0.251970  0.252131  0.240190  1
  Cl  Cl12  1  0.631436  0.616229  0.129563  1
  Cl  Cl13  1  0.002112  0.996653  0.998561  1
