# generated using pymatgen
data_LiBe5(SiIr2)6
_symmetry_space_group_name_H-M   'P 1'
_cell_length_a   4.08501000
_cell_length_b   5.77986900
_cell_length_c   12.25688800
_cell_angle_alpha   90.00000000
_cell_angle_beta   90.00042078
_cell_angle_gamma   90.00000000
_symmetry_Int_Tables_number   1
_chemical_formula_structural   LiBe5(SiIr2)6
_chemical_formula_sum   'Li1 Be5 Si6 Ir12'
_cell_volume   289.39520898
_cell_formula_units_Z   1
loop_
 _symmetry_equiv_pos_site_id
 _symmetry_equiv_pos_as_xyz
  1  'x, y, z'
loop_
 _atom_site_type_symbol
 _atom_site_label
 _atom_site_symmetry_multiplicity
 _atom_site_fract_x
 _atom_site_fract_y
 _atom_site_fract_z
 _atom_site_occupancy
  Li  Li0  1  0.000000  0.000000  0.000000  1
  Be  Be1  1  0.499675  0.500001  0.166380  1
  Be  Be2  1  0.999681  0.000000  0.332840  1
  Be  Be3  1  0.499999  0.500001  0.500000  1
  Be  Be4  1  0.000319  0.000000  0.667160  1
  Be  Be5  1  0.500325  0.500001  0.833620  1
  Si  Si6  1  0.000000  0.500001  0.000000  1
  Si  Si7  1  0.499767  0.000000  0.163323  1
  Si  Si8  1  0.999761  0.500001  0.333570  1
  Si  Si9  1  0.499999  0.000000  0.500000  1
  Si  Si10  1  0.000239  0.500001  0.666430  1
  Si  Si11  1  0.500233  0.000000  0.836677  1
  Ir  Ir12  1  0.499999  0.256922  0.000000  1
  Ir  Ir13  1  0.499999  0.743078  0.000000  1
  Ir  Ir14  1  0.999826  0.252442  0.170852  1
  Ir  Ir15  1  0.999826  0.747557  0.170852  1
  Ir  Ir16  1  0.499834  0.249240  0.334832  1
  Ir  Ir17  1  0.499834  0.750760  0.334832  1
  Ir  Ir18  1  0.000000  0.250137  0.500000  1
  Ir  Ir19  1  0.000000  0.749862  0.500000  1
  Ir  Ir20  1  0.500166  0.249240  0.665168  1
  Ir  Ir21  1  0.500166  0.750760  0.665168  1
  Ir  Ir22  1  0.000174  0.252442  0.829148  1
  Ir  Ir23  1  0.000174  0.747557  0.829148  1
