# generated using pymatgen
data_Hf4Mg(ReTc)12
_symmetry_space_group_name_H-M   'P 1'
_cell_length_a   8.43939708
_cell_length_b   8.43939710
_cell_length_c   8.43939700
_cell_angle_alpha   109.47121799
_cell_angle_beta   109.47121804
_cell_angle_gamma   109.47122317
_symmetry_Int_Tables_number   1
_chemical_formula_structural   Hf4Mg(ReTc)12
_chemical_formula_sum   'Hf4 Mg1 Re12 Tc12'
_cell_volume   462.71372807
_cell_formula_units_Z   1
loop_
 _symmetry_equiv_pos_site_id
 _symmetry_equiv_pos_as_xyz
  1  'x, y, z'
loop_
 _atom_site_type_symbol
 _atom_site_label
 _atom_site_symmetry_multiplicity
 _atom_site_fract_x
 _atom_site_fract_y
 _atom_site_fract_z
 _atom_site_occupancy
  Hf  Hf0  1  0.630618  0.000000  0.000000  1
  Hf  Hf1  1  0.000000  0.630618  0.000000  1
  Hf  Hf2  1  0.000000  0.000000  0.630618  1
  Hf  Hf3  1  0.369382  0.369382  0.369382  1
  Mg  Mg4  1  0.000000  0.000000  0.000000  1
  Re  Re5  1  0.375475  0.193350  0.000000  1
  Re  Re6  1  0.182126  0.806650  0.806650  1
  Re  Re7  1  0.375475  0.000000  0.193350  1
  Re  Re8  1  0.193350  0.375475  0.000000  1
  Re  Re9  1  0.000000  0.375475  0.193350  1
  Re  Re10  1  0.806650  0.182126  0.806650  1
  Re  Re11  1  0.806650  0.806650  0.182126  1
  Re  Re12  1  0.000000  0.193350  0.375475  1
  Re  Re13  1  0.193350  0.000000  0.375475  1
  Re  Re14  1  0.624525  0.624525  0.817874  1
  Re  Re15  1  0.817874  0.624525  0.624525  1
  Re  Re16  1  0.624525  0.817874  0.624525  1
  Tc  Tc17  1  0.396090  0.675554  0.000000  1
  Tc  Tc18  1  0.720536  0.324446  0.324446  1
  Tc  Tc19  1  0.396090  0.000000  0.675554  1
  Tc  Tc20  1  0.675554  0.396090  0.000000  1
  Tc  Tc21  1  0.000000  0.396090  0.675554  1
  Tc  Tc22  1  0.324446  0.720536  0.324446  1
  Tc  Tc23  1  0.324446  0.324446  0.720536  1
  Tc  Tc24  1  0.000000  0.675554  0.396090  1
  Tc  Tc25  1  0.675554  0.000000  0.396090  1
  Tc  Tc26  1  0.603910  0.603910  0.279464  1
  Tc  Tc27  1  0.279464  0.603910  0.603910  1
  Tc  Tc28  1  0.603910  0.279464  0.603910  1
