# generated using pymatgen
data_TbU7AsS17
_symmetry_space_group_name_H-M   'P 1'
_cell_length_a   7.80533181
_cell_length_b   7.81222197
_cell_length_c   10.36935800
_cell_angle_alpha   80.77268982
_cell_angle_beta   80.64473187
_cell_angle_gamma   64.73720472
_symmetry_Int_Tables_number   1
_chemical_formula_structural   TbU7AsS17
_chemical_formula_sum   'Tb1 U7 As1 S17'
_cell_volume   561.27399536
_cell_formula_units_Z   1
loop_
 _symmetry_equiv_pos_site_id
 _symmetry_equiv_pos_as_xyz
  1  'x, y, z'
loop_
 _atom_site_type_symbol
 _atom_site_label
 _atom_site_symmetry_multiplicity
 _atom_site_fract_x
 _atom_site_fract_y
 _atom_site_fract_z
 _atom_site_occupancy
  Tb  Tb0  1  0.812230  0.310362  0.300561  1
  U  U1  1  0.304790  0.818365  0.303323  1
  U  U2  1  0.183303  0.694048  0.696807  1
  U  U3  1  0.696456  0.181138  0.698012  1
  U  U4  1  0.204232  0.202883  0.541924  1
  U  U5  1  0.796426  0.792050  0.458245  1
  U  U6  1  0.675831  0.678976  0.981227  1
  U  U7  1  0.320987  0.325055  0.017809  1
  As  As8  1  0.998828  0.003616  0.002268  1
  S  S9  1  0.823151  0.431503  0.539022  1
  S  S10  1  0.434849  0.818329  0.537824  1
  S  S11  1  0.181237  0.563954  0.462493  1
  S  S12  1  0.568980  0.173751  0.467098  1
  S  S13  1  0.947652  0.330189  0.030026  1
  S  S14  1  0.326183  0.950856  0.035901  1
  S  S15  1  0.051478  0.673066  0.962549  1
  S  S16  1  0.671797  0.054869  0.963560  1
  S  S17  1  0.218452  0.209251  0.280629  1
  S  S18  1  0.785871  0.786364  0.720026  1
  S  S19  1  0.058014  0.053845  0.767108  1
  S  S20  1  0.947241  0.940826  0.235582  1
  S  S21  1  0.300585  0.300577  0.754831  1
  S  S22  1  0.695375  0.705828  0.243904  1
  S  S23  1  0.519973  0.522542  0.827457  1
  S  S24  1  0.472821  0.485612  0.167256  1
  S  S25  1  0.003256  0.992147  0.504558  1
