# generated using pymatgen
data_LiTa5(TiB5)4
_symmetry_space_group_name_H-M   'P 1'
_cell_length_a   6.12397826
_cell_length_b   6.94308318
_cell_length_c   7.24579875
_cell_angle_alpha   93.22283369
_cell_angle_beta   102.19814968
_cell_angle_gamma   116.12194183
_symmetry_Int_Tables_number   1
_chemical_formula_structural   LiTa5(TiB5)4
_chemical_formula_sum   'Li1 Ta5 Ti4 B20'
_cell_volume   266.43408636
_cell_formula_units_Z   1
loop_
 _symmetry_equiv_pos_site_id
 _symmetry_equiv_pos_as_xyz
  1  'x, y, z'
loop_
 _atom_site_type_symbol
 _atom_site_label
 _atom_site_symmetry_multiplicity
 _atom_site_fract_x
 _atom_site_fract_y
 _atom_site_fract_z
 _atom_site_occupancy
  Li  Li0  1  0.000287  0.000505  0.002171  1
  Ta  Ta1  1  0.499750  0.999633  0.999924  1
  Ta  Ta2  1  0.502444  0.601033  0.800588  1
  Ta  Ta3  1  0.498252  0.399023  0.199915  1
  Ta  Ta4  1  0.001371  0.202619  0.600583  1
  Ta  Ta5  1  0.998902  0.602002  0.799641  1
  Ti  Ti6  1  0.499466  0.799648  0.399160  1
  Ti  Ti7  1  0.001038  0.397973  0.200395  1
  Ti  Ti8  1  0.500327  0.200221  0.599801  1
  Ti  Ti9  1  0.998477  0.797859  0.399265  1
  B  B10  1  0.330835  0.230018  0.868144  1
  B  B11  1  0.332460  0.632300  0.071615  1
  B  B12  1  0.164047  0.361861  0.938547  1
  B  B13  1  0.330583  0.030759  0.269235  1
  B  B14  1  0.165562  0.767007  0.135672  1
  B  B15  1  0.834027  0.230558  0.870664  1
  B  B16  1  0.165037  0.164476  0.331135  1
  B  B17  1  0.836377  0.636275  0.068012  1
  B  B18  1  0.332814  0.433493  0.463855  1
  B  B19  1  0.668253  0.366551  0.933046  1
  B  B20  1  0.835302  0.033058  0.265634  1
  B  B21  1  0.670618  0.769198  0.134462  1
  B  B22  1  0.333737  0.837716  0.659681  1
  B  B23  1  0.167252  0.570536  0.526478  1
  B  B24  1  0.665716  0.163735  0.335408  1
  B  B25  1  0.832999  0.433838  0.464176  1
  B  B26  1  0.165786  0.967436  0.732613  1
  B  B27  1  0.833719  0.834956  0.666047  1
  B  B28  1  0.666762  0.568208  0.531294  1
  B  B29  1  0.667800  0.967504  0.732838  1
