# generated using pymatgen
data_Ti3CrTc2AsP2
_symmetry_space_group_name_H-M   'P 1'
_cell_length_a   6.64033527
_cell_length_b   6.61267198
_cell_length_c   3.28151300
_cell_angle_alpha   90.00000000
_cell_angle_beta   90.00000000
_cell_angle_gamma   119.75049250
_symmetry_Int_Tables_number   1
_chemical_formula_structural   Ti3CrTc2AsP2
_chemical_formula_sum   'Ti3 Cr1 Tc2 As1 P2'
_cell_volume   125.10024827
_cell_formula_units_Z   1
loop_
 _symmetry_equiv_pos_site_id
 _symmetry_equiv_pos_as_xyz
  1  'x, y, z'
loop_
 _atom_site_type_symbol
 _atom_site_label
 _atom_site_symmetry_multiplicity
 _atom_site_fract_x
 _atom_site_fract_y
 _atom_site_fract_z
 _atom_site_occupancy
  Ti  Ti0  1  0.404405  0.393096  0.500000  1
  Ti  Ti1  1  0.611787  0.019147  0.500000  1
  Ti  Ti2  1  0.985238  0.585455  0.500000  1
  Cr  Cr3  1  0.992432  0.248970  0.000000  1
  Tc  Tc4  1  0.751747  0.744335  0.000000  1
  Tc  Tc5  1  0.254315  0.005051  0.000000  1
  As  As6  1  0.329248  0.659562  0.000000  1
  P  P7  1  0.671002  0.330881  0.000000  1
  P  P8  1  0.999826  0.013503  0.500000  1
