# generated using pymatgen
data_Lu4Zn2FeOs5
_symmetry_space_group_name_H-M   'P 1'
_cell_length_a   5.17699300
_cell_length_b   5.17699374
_cell_length_c   8.60605300
_cell_angle_alpha   90.00000000
_cell_angle_beta   90.00000000
_cell_angle_gamma   119.71185729
_symmetry_Int_Tables_number   1
_chemical_formula_structural   Lu4Zn2FeOs5
_chemical_formula_sum   'Lu4 Zn2 Fe1 Os5'
_cell_volume   200.32886895
_cell_formula_units_Z   1
loop_
 _symmetry_equiv_pos_site_id
 _symmetry_equiv_pos_as_xyz
  1  'x, y, z'
loop_
 _atom_site_type_symbol
 _atom_site_label
 _atom_site_symmetry_multiplicity
 _atom_site_fract_x
 _atom_site_fract_y
 _atom_site_fract_z
 _atom_site_occupancy
  Lu  Lu0  1  0.336995  0.663005  0.431937  1
  Lu  Lu1  1  0.673554  0.326446  0.555775  1
  Lu  Lu2  1  0.673554  0.326446  0.944225  1
  Lu  Lu3  1  0.336995  0.663005  0.068063  1
  Zn  Zn4  1  0.160963  0.354740  0.750000  1
  Zn  Zn5  1  0.645260  0.839037  0.750000  1
  Fe  Fe6  1  0.830242  0.169758  0.250000  1
  Os  Os7  1  0.008233  0.991767  0.501265  1
  Os  Os8  1  0.008233  0.991767  0.998735  1
  Os  Os9  1  0.829580  0.657586  0.250000  1
  Os  Os10  1  0.342414  0.170420  0.250000  1
  Os  Os11  1  0.153979  0.846021  0.750000  1
