# generated using pymatgen
data_Er3ScGa2IrPt2
_symmetry_space_group_name_H-M   'P 1'
_cell_length_a   7.26717309
_cell_length_b   7.26717277
_cell_length_c   4.01559100
_cell_angle_alpha   90.00000000
_cell_angle_beta   90.00000000
_cell_angle_gamma   120.64999822
_symmetry_Int_Tables_number   1
_chemical_formula_structural   Er3ScGa2IrPt2
_chemical_formula_sum   'Er3 Sc1 Ga2 Ir1 Pt2'
_cell_volume   182.44380392
_cell_formula_units_Z   1
loop_
 _symmetry_equiv_pos_site_id
 _symmetry_equiv_pos_as_xyz
  1  'x, y, z'
loop_
 _atom_site_type_symbol
 _atom_site_label
 _atom_site_symmetry_multiplicity
 _atom_site_fract_x
 _atom_site_fract_y
 _atom_site_fract_z
 _atom_site_occupancy
  Er  Er0  1  0.387356  0.387356  0.500000  1
  Er  Er1  1  0.585883  0.014316  0.500000  1
  Er  Er2  1  0.014316  0.585883  0.500000  1
  Sc  Sc3  1  0.768710  0.768710  0.000000  1
  Ga  Ga4  1  0.244073  0.993637  0.000000  1
  Ga  Ga5  1  0.993637  0.244073  0.000000  1
  Ir  Ir6  1  0.003734  0.003734  0.500000  1
  Pt  Pt7  1  0.664804  0.337490  0.000000  1
  Pt  Pt8  1  0.337490  0.664804  0.000000  1
