# generated using pymatgen
data_Lu8Ti11Si16Ag
_symmetry_space_group_name_H-M   'P 1'
_cell_length_a   7.00062535
_cell_length_b   7.00062445
_cell_length_c   12.77541310
_cell_angle_alpha   90.08508716
_cell_angle_beta   89.91491239
_cell_angle_gamma   89.71648847
_symmetry_Int_Tables_number   1
_chemical_formula_structural   Lu8Ti11Si16Ag
_chemical_formula_sum   'Lu8 Ti11 Si16 Ag1'
_cell_volume   626.09796077
_cell_formula_units_Z   1
loop_
 _symmetry_equiv_pos_site_id
 _symmetry_equiv_pos_as_xyz
  1  'x, y, z'
loop_
 _atom_site_type_symbol
 _atom_site_label
 _atom_site_symmetry_multiplicity
 _atom_site_fract_x
 _atom_site_fract_y
 _atom_site_fract_z
 _atom_site_occupancy
  Lu  Lu0  1  0.340809  0.001620  0.466917  1
  Lu  Lu1  1  0.498242  0.840772  0.716976  1
  Lu  Lu2  1  0.501319  0.157521  0.215035  1
  Lu  Lu3  1  0.840772  0.498242  0.283024  1
  Lu  Lu4  1  0.157521  0.501319  0.784965  1
  Lu  Lu5  1  0.656674  0.001304  0.968423  1
  Lu  Lu6  1  0.001620  0.340809  0.533083  1
  Lu  Lu7  1  0.001304  0.656674  0.031577  1
  Ti  Ti8  1  0.173707  0.826332  0.250066  1
  Ti  Ti9  1  0.826332  0.173707  0.749934  1
  Ti  Ti10  1  0.672413  0.672413  0.500000  1
  Ti  Ti11  1  0.146920  0.007224  0.876235  1
  Ti  Ti12  1  0.495866  0.650467  0.123118  1
  Ti  Ti13  1  0.506566  0.351273  0.624852  1
  Ti  Ti14  1  0.650467  0.495866  0.876882  1
  Ti  Ti15  1  0.351273  0.506566  0.375148  1
  Ti  Ti16  1  0.851061  0.992842  0.374118  1
  Ti  Ti17  1  0.007224  0.146920  0.123765  1
  Ti  Ti18  1  0.992842  0.851061  0.625882  1
  Si  Si19  1  0.202890  0.134520  0.682953  1
  Si  Si20  1  0.372485  0.719884  0.927436  1
  Si  Si21  1  0.632946  0.293529  0.431325  1
  Si  Si22  1  0.719884  0.372485  0.072564  1
  Si  Si23  1  0.293529  0.632946  0.568675  1
  Si  Si24  1  0.797000  0.865439  0.181553  1
  Si  Si25  1  0.134520  0.202890  0.317047  1
  Si  Si26  1  0.865439  0.797000  0.818447  1
  Si  Si27  1  0.287639  0.939295  0.065989  1
  Si  Si28  1  0.546137  0.792657  0.314363  1
  Si  Si29  1  0.455148  0.206265  0.809249  1
  Si  Si30  1  0.792657  0.546137  0.685637  1
  Si  Si31  1  0.206265  0.455148  0.190751  1
  Si  Si32  1  0.706947  0.046616  0.564045  1
  Si  Si33  1  0.939295  0.287639  0.934011  1
  Si  Si34  1  0.046616  0.706947  0.435955  1
  Ag  Ag35  1  0.327674  0.327674  0.000000  1
