# generated using pymatgen
data_Np2Zn21Pd
_symmetry_space_group_name_H-M   'P 1'
_cell_length_a   8.24416124
_cell_length_b   8.26492620
_cell_length_c   8.26492635
_cell_angle_alpha   99.84018676
_cell_angle_beta   100.23200223
_cell_angle_gamma   130.81005086
_symmetry_Int_Tables_number   1
_chemical_formula_structural   Np2Zn21Pd
_chemical_formula_sum   'Np2 Zn21 Pd1'
_cell_volume   387.07164270
_cell_formula_units_Z   1
loop_
 _symmetry_equiv_pos_site_id
 _symmetry_equiv_pos_as_xyz
  1  'x, y, z'
loop_
 _atom_site_type_symbol
 _atom_site_label
 _atom_site_symmetry_multiplicity
 _atom_site_fract_x
 _atom_site_fract_y
 _atom_site_fract_z
 _atom_site_occupancy
  Np  Np0  1  0.499746  0.503093  0.996653  1
  Np  Np1  1  0.750254  0.246907  0.503347  1
  Zn  Zn2  1  0.406774  0.079556  0.086489  1
  Zn  Zn3  1  0.994959  0.319977  0.916194  1
  Zn  Zn4  1  0.255041  0.671235  0.825018  1
  Zn  Zn5  1  0.843226  0.429715  0.172782  1
  Zn  Zn6  1  0.921286  0.595408  0.916572  1
  Zn  Zn7  1  0.679634  0.006471  0.083997  1
  Zn  Zn8  1  0.328714  0.745286  0.174121  1
  Zn  Zn9  1  0.570366  0.154362  0.826837  1
  Zn  Zn10  1  0.843226  0.670444  0.413511  1
  Zn  Zn11  1  0.255041  0.430023  0.583806  1
  Zn  Zn12  1  0.994959  0.078765  0.674982  1
  Zn  Zn13  1  0.406774  0.320285  0.327218  1
  Zn  Zn14  1  0.328714  0.154592  0.583428  1
  Zn  Zn15  1  0.570366  0.743529  0.416003  1
  Zn  Zn16  1  0.921286  0.004714  0.325879  1
  Zn  Zn17  1  0.679634  0.595638  0.673163  1
  Zn  Zn18  1  0.248693  0.753467  0.495225  1
  Zn  Zn19  1  0.001307  0.996533  0.004775  1
  Zn  Zn20  1  0.125000  0.875000  0.750000  1
  Zn  Zn21  1  0.125000  0.375000  0.250000  1
  Zn  Zn22  1  0.625000  0.875000  0.750000  1
  Pd  Pd23  1  0.125000  0.875000  0.250000  1
