# generated using pymatgen
data_Tm5Sn2(HgPt)2
_symmetry_space_group_name_H-M   'P 1'
_cell_length_a   3.61614000
_cell_length_b   7.99622200
_cell_length_c   17.91458800
_cell_angle_alpha   90.00000000
_cell_angle_beta   90.00000000
_cell_angle_gamma   90.00000000
_symmetry_Int_Tables_number   1
_chemical_formula_structural   Tm5Sn2(HgPt)2
_chemical_formula_sum   'Tm10 Sn4 Hg4 Pt4'
_cell_volume   518.00852090
_cell_formula_units_Z   2
loop_
 _symmetry_equiv_pos_site_id
 _symmetry_equiv_pos_as_xyz
  1  'x, y, z'
loop_
 _atom_site_type_symbol
 _atom_site_label
 _atom_site_symmetry_multiplicity
 _atom_site_fract_x
 _atom_site_fract_y
 _atom_site_fract_z
 _atom_site_occupancy
  Tm  Tm0  1  0.000000  0.110979  0.414862  1
  Tm  Tm1  1  0.000000  0.889021  0.585138  1
  Tm  Tm2  1  0.000000  0.389021  0.914862  1
  Tm  Tm3  1  0.000000  0.610979  0.085138  1
  Tm  Tm4  1  0.000000  0.244032  0.216709  1
  Tm  Tm5  1  0.000000  0.755968  0.783291  1
  Tm  Tm6  1  0.000000  0.255968  0.716709  1
  Tm  Tm7  1  0.000000  0.744032  0.283291  1
  Tm  Tm8  1  0.000000  0.000000  0.000000  1
  Tm  Tm9  1  0.000000  0.500000  0.500000  1
  Sn  Sn10  1  0.500000  0.420783  0.352973  1
  Sn  Sn11  1  0.500000  0.579217  0.647027  1
  Sn  Sn12  1  0.500000  0.079217  0.852973  1
  Sn  Sn13  1  0.500000  0.920783  0.147027  1
  Hg  Hg14  1  0.500000  0.292152  0.062921  1
  Hg  Hg15  1  0.500000  0.707848  0.937079  1
  Hg  Hg16  1  0.500000  0.207848  0.562921  1
  Hg  Hg17  1  0.500000  0.792152  0.437079  1
  Pt  Pt18  1  0.500000  0.028482  0.301348  1
  Pt  Pt19  1  0.500000  0.971518  0.698652  1
  Pt  Pt20  1  0.500000  0.471518  0.801348  1
  Pt  Pt21  1  0.500000  0.528482  0.198652  1
