# generated using pymatgen
data_Yb2DyHo(SiPt2)4
_symmetry_space_group_name_H-M   'P 1'
_cell_length_a   5.52510514
_cell_length_b   6.95919500
_cell_length_c   7.32636300
_cell_angle_alpha   90.00000000
_cell_angle_beta   89.98557769
_cell_angle_gamma   90.00000000
_symmetry_Int_Tables_number   1
_chemical_formula_structural   Yb2DyHo(SiPt2)4
_chemical_formula_sum   'Yb2 Dy1 Ho1 Si4 Pt8'
_cell_volume   281.70072977
_cell_formula_units_Z   1
loop_
 _symmetry_equiv_pos_site_id
 _symmetry_equiv_pos_as_xyz
  1  'x, y, z'
loop_
 _atom_site_type_symbol
 _atom_site_label
 _atom_site_symmetry_multiplicity
 _atom_site_fract_x
 _atom_site_fract_y
 _atom_site_fract_z
 _atom_site_occupancy
  Yb  Yb0  1  0.135745  0.750000  0.523395  1
  Yb  Yb1  1  0.635877  0.250000  0.976501  1
  Dy  Dy2  1  0.364574  0.750000  0.025748  1
  Ho  Ho3  1  0.864006  0.250000  0.474166  1
  Si  Si4  1  0.634635  0.750000  0.379556  1
  Si  Si5  1  0.865606  0.750000  0.877102  1
  Si  Si6  1  0.365249  0.250000  0.622678  1
  Si  Si7  1  0.134671  0.250000  0.120945  1
  Pt  Pt8  1  0.906200  0.550901  0.180559  1
  Pt  Pt9  1  0.594076  0.948799  0.676125  1
  Pt  Pt10  1  0.093090  0.051569  0.823252  1
  Pt  Pt11  1  0.406453  0.448786  0.320017  1
  Pt  Pt12  1  0.093090  0.448431  0.823252  1
  Pt  Pt13  1  0.406453  0.051214  0.320017  1
  Pt  Pt14  1  0.906200  0.949099  0.180559  1
  Pt  Pt15  1  0.594076  0.551201  0.676125  1
