# generated using pymatgen
data_Sr4Tc(MoO4)3
_symmetry_space_group_name_H-M   'P 1'
_cell_length_a   5.72833142
_cell_length_b   5.74673161
_cell_length_c   8.07627878
_cell_angle_alpha   90.03979349
_cell_angle_beta   89.97747798
_cell_angle_gamma   90.19527246
_symmetry_Int_Tables_number   1
_chemical_formula_structural   Sr4Tc(MoO4)3
_chemical_formula_sum   'Sr4 Tc1 Mo3 O12'
_cell_volume   265.86287251
_cell_formula_units_Z   1
loop_
 _symmetry_equiv_pos_site_id
 _symmetry_equiv_pos_as_xyz
  1  'x, y, z'
loop_
 _atom_site_type_symbol
 _atom_site_label
 _atom_site_symmetry_multiplicity
 _atom_site_fract_x
 _atom_site_fract_y
 _atom_site_fract_z
 _atom_site_occupancy
  Sr  Sr0  1  0.997269  0.025291  0.255552  1
  Sr  Sr1  1  0.504620  0.521355  0.254570  1
  Sr  Sr2  1  0.495380  0.478643  0.745430  1
  Sr  Sr3  1  0.002731  0.974708  0.744448  1
  Tc  Tc4  1  0.000000  0.500001  0.500000  1
  Mo  Mo5  1  0.500001  0.999999  0.000001  1
  Mo  Mo6  1  0.000001  0.500000  0.000000  1
  Mo  Mo7  1  0.500000  0.000000  0.499999  1
  O  O8  1  0.718868  0.290439  0.035709  1
  O  O9  1  0.784658  0.789769  0.025576  1
  O  O10  1  0.060837  0.487871  0.254017  1
  O  O11  1  0.447947  0.990277  0.249902  1
  O  O12  1  0.718692  0.279750  0.473662  1
  O  O13  1  0.785190  0.775870  0.468542  1
  O  O14  1  0.214811  0.224130  0.531458  1
  O  O15  1  0.281309  0.720250  0.526338  1
  O  O16  1  0.552053  0.009725  0.750098  1
  O  O17  1  0.939163  0.512127  0.745984  1
  O  O18  1  0.215343  0.210231  0.974423  1
  O  O19  1  0.281132  0.709561  0.964290  1
