# generated using pymatgen
data_Th2B2Ir5
_symmetry_space_group_name_H-M   'P 1'
_cell_length_a   11.20717890
_cell_length_b   11.20717868
_cell_length_c   11.20717889
_cell_angle_alpha   28.62173773
_cell_angle_beta   28.62173944
_cell_angle_gamma   28.62173958
_symmetry_Int_Tables_number   1
_chemical_formula_structural   Th2B2Ir5
_chemical_formula_sum   'Th4 B4 Ir10'
_cell_volume   285.53793939
_cell_formula_units_Z   2
loop_
 _symmetry_equiv_pos_site_id
 _symmetry_equiv_pos_as_xyz
  1  'x, y, z'
loop_
 _atom_site_type_symbol
 _atom_site_label
 _atom_site_symmetry_multiplicity
 _atom_site_fract_x
 _atom_site_fract_y
 _atom_site_fract_z
 _atom_site_occupancy
  Th  Th0  1  0.153875  0.153875  0.153875  1
  Th  Th1  1  0.948201  0.948201  0.948201  1
  Th  Th2  1  0.846125  0.846125  0.846125  1
  Th  Th3  1  0.051799  0.051799  0.051799  1
  B  B4  1  0.617572  0.617572  0.617572  1
  B  B5  1  0.716752  0.716752  0.716752  1
  B  B6  1  0.382428  0.382428  0.382428  1
  B  B7  1  0.283248  0.283248  0.283248  1
  Ir  Ir8  1  0.406826  0.900302  0.406826  1
  Ir  Ir9  1  0.900302  0.406826  0.406826  1
  Ir  Ir10  1  0.500000  0.500000  0.000000  1
  Ir  Ir11  1  0.500000  0.000000  0.500000  1
  Ir  Ir12  1  0.000000  0.500000  0.500000  1
  Ir  Ir13  1  0.500000  0.500000  0.500000  1
  Ir  Ir14  1  0.593174  0.099698  0.593174  1
  Ir  Ir15  1  0.593174  0.593174  0.099698  1
  Ir  Ir16  1  0.099698  0.593174  0.593174  1
  Ir  Ir17  1  0.406826  0.406826  0.900302  1
