# generated using pymatgen
data_K2YbCeB24
_symmetry_space_group_name_H-M   'P 1'
_cell_length_a   4.17156300
_cell_length_b   4.17156300
_cell_length_c   16.68367300
_cell_angle_alpha   90.00000000
_cell_angle_beta   90.00000000
_cell_angle_gamma   90.00000000
_symmetry_Int_Tables_number   1
_chemical_formula_structural   K2YbCeB24
_chemical_formula_sum   'K2 Yb1 Ce1 B24'
_cell_volume   290.32824087
_cell_formula_units_Z   1
loop_
 _symmetry_equiv_pos_site_id
 _symmetry_equiv_pos_as_xyz
  1  'x, y, z'
loop_
 _atom_site_type_symbol
 _atom_site_label
 _atom_site_symmetry_multiplicity
 _atom_site_fract_x
 _atom_site_fract_y
 _atom_site_fract_z
 _atom_site_occupancy
  K  K0  1  0.000000  0.000000  0.246809  1
  K  K1  1  0.000000  0.000000  0.753191  1
  Yb  Yb2  1  0.000000  0.000000  0.000000  1
  Ce  Ce3  1  0.000000  0.000000  0.500000  1
  B  B4  1  0.500000  0.500000  0.198315  1
  B  B5  1  0.500000  0.500000  0.450745  1
  B  B6  1  0.500000  0.500000  0.699079  1
  B  B7  1  0.500000  0.500000  0.950862  1
  B  B8  1  0.500000  0.200595  0.122850  1
  B  B9  1  0.500000  0.201717  0.377086  1
  B  B10  1  0.500000  0.201717  0.622914  1
  B  B11  1  0.500000  0.200595  0.877150  1
  B  B12  1  0.200595  0.500000  0.122850  1
  B  B13  1  0.201717  0.500000  0.377086  1
  B  B14  1  0.201717  0.500000  0.622914  1
  B  B15  1  0.200595  0.500000  0.877150  1
  B  B16  1  0.500000  0.500000  0.049138  1
  B  B17  1  0.500000  0.500000  0.300921  1
  B  B18  1  0.500000  0.500000  0.549255  1
  B  B19  1  0.500000  0.500000  0.801685  1
  B  B20  1  0.500000  0.799405  0.122850  1
  B  B21  1  0.500000  0.798283  0.377086  1
  B  B22  1  0.500000  0.798283  0.622914  1
  B  B23  1  0.500000  0.799405  0.877150  1
  B  B24  1  0.799405  0.500000  0.122850  1
  B  B25  1  0.798283  0.500000  0.377086  1
  B  B26  1  0.798283  0.500000  0.622914  1
  B  B27  1  0.799405  0.500000  0.877150  1
