# generated using pymatgen
data_HoCdIr2O7
_symmetry_space_group_name_H-M   'P 1'
_cell_length_a   7.24548803
_cell_length_b   7.35226588
_cell_length_c   7.24548740
_cell_angle_alpha   59.51128464
_cell_angle_beta   59.31056532
_cell_angle_gamma   59.51128959
_symmetry_Int_Tables_number   1
_chemical_formula_structural   HoCdIr2O7
_chemical_formula_sum   'Ho2 Cd2 Ir4 O14'
_cell_volume   269.47168238
_cell_formula_units_Z   2
loop_
 _symmetry_equiv_pos_site_id
 _symmetry_equiv_pos_as_xyz
  1  'x, y, z'
loop_
 _atom_site_type_symbol
 _atom_site_label
 _atom_site_symmetry_multiplicity
 _atom_site_fract_x
 _atom_site_fract_y
 _atom_site_fract_z
 _atom_site_occupancy
  Ho  Ho0  1  0.125000  0.625000  0.125000  1
  Ho  Ho1  1  0.125000  0.125000  0.125000  1
  Cd  Cd2  1  0.625000  0.125000  0.125000  1
  Cd  Cd3  1  0.125000  0.125000  0.625000  1
  Ir  Ir4  1  0.125000  0.625000  0.625000  1
  Ir  Ir5  1  0.625000  0.125000  0.625000  1
  Ir  Ir6  1  0.625000  0.625000  0.125000  1
  Ir  Ir7  1  0.625000  0.625000  0.625000  1
  O  O8  1  0.713660  0.695130  0.293819  1
  O  O9  1  0.293819  0.297391  0.713660  1
  O  O10  1  0.700913  0.299087  0.700913  1
  O  O11  1  0.289398  0.710602  0.289398  1
  O  O12  1  0.293819  0.695130  0.713660  1
  O  O13  1  0.713660  0.297391  0.293819  1
  O  O14  1  0.536340  0.554870  0.956181  1
  O  O15  1  0.956181  0.952609  0.536340  1
  O  O16  1  0.549087  0.950913  0.549087  1
  O  O17  1  0.960602  0.539398  0.960602  1
  O  O18  1  0.956181  0.554870  0.536340  1
  O  O19  1  0.536340  0.952609  0.956181  1
  O  O20  1  0.248348  0.251652  0.248348  1
  O  O21  1  0.001652  0.998348  0.001652  1
