# generated using pymatgen
data_KEu(CO3)2
_symmetry_space_group_name_H-M   'P 1'
_cell_length_a   6.65032416
_cell_length_b   6.65032390
_cell_length_c   7.29356180
_cell_angle_alpha   75.73629966
_cell_angle_beta   75.73629965
_cell_angle_gamma   96.12387278
_symmetry_Int_Tables_number   1
_chemical_formula_structural   KEu(CO3)2
_chemical_formula_sum   'K2 Eu2 C4 O12'
_cell_volume   298.13945350
_cell_formula_units_Z   2
loop_
 _symmetry_equiv_pos_site_id
 _symmetry_equiv_pos_as_xyz
  1  'x, y, z'
loop_
 _atom_site_type_symbol
 _atom_site_label
 _atom_site_symmetry_multiplicity
 _atom_site_fract_x
 _atom_site_fract_y
 _atom_site_fract_z
 _atom_site_occupancy
  K  K0  1  0.620718  0.379282  0.750000  1
  K  K1  1  0.379282  0.620718  0.250000  1
  Eu  Eu2  1  0.099270  0.900730  0.750000  1
  Eu  Eu3  1  0.900730  0.099270  0.250000  1
  C  C4  1  0.646471  0.889882  0.756347  1
  C  C5  1  0.353529  0.110118  0.243653  1
  C  C6  1  0.110118  0.353529  0.743653  1
  C  C7  1  0.889882  0.646471  0.256347  1
  O  O8  1  0.450160  0.897229  0.778753  1
  O  O9  1  0.549840  0.102771  0.221247  1
  O  O10  1  0.102771  0.549840  0.721247  1
  O  O11  1  0.897229  0.450160  0.278753  1
  O  O12  1  0.709727  0.751486  0.877966  1
  O  O13  1  0.290273  0.248514  0.122034  1
  O  O14  1  0.248514  0.290273  0.622034  1
  O  O15  1  0.751486  0.709727  0.377966  1
  O  O16  1  0.792081  0.027810  0.611220  1
  O  O17  1  0.207919  0.972190  0.388780  1
  O  O18  1  0.972190  0.207919  0.888780  1
  O  O19  1  0.027810  0.792081  0.111220  1
