# generated using pymatgen
data_Tb3In3CuHgRh
_symmetry_space_group_name_H-M   'P 1'
_cell_length_a   7.75692300
_cell_length_b   7.75692293
_cell_length_c   3.91384200
_cell_angle_alpha   90.00000000
_cell_angle_beta   90.00000000
_cell_angle_gamma   120.00000458
_symmetry_Int_Tables_number   1
_chemical_formula_structural   Tb3In3CuHgRh
_chemical_formula_sum   'Tb3 In3 Cu1 Hg1 Rh1'
_cell_volume   203.94490388
_cell_formula_units_Z   1
loop_
 _symmetry_equiv_pos_site_id
 _symmetry_equiv_pos_as_xyz
  1  'x, y, z'
loop_
 _atom_site_type_symbol
 _atom_site_label
 _atom_site_symmetry_multiplicity
 _atom_site_fract_x
 _atom_site_fract_y
 _atom_site_fract_z
 _atom_site_occupancy
  Tb  Tb0  1  0.026945  0.603809  0.500000  1
  Tb  Tb1  1  0.396191  0.423136  0.500000  1
  Tb  Tb2  1  0.576864  0.973055  0.500000  1
  In  In3  1  0.750094  0.755413  0.000000  1
  In  In4  1  0.005319  0.249906  0.000000  1
  In  In5  1  0.244587  0.994681  0.000000  1
  Cu  Cu6  1  0.000000  0.000000  0.500000  1
  Hg  Hg7  1  0.666667  0.333333  0.000000  1
  Rh  Rh8  1  0.333333  0.666667  0.000000  1
