# generated using pymatgen
data_Nd4RuSeO12
_symmetry_space_group_name_H-M   'P 1'
_cell_length_a   10.25636128
_cell_length_b   10.25636127
_cell_length_c   5.61135458
_cell_angle_alpha   73.82117702
_cell_angle_beta   73.82118569
_cell_angle_gamma   69.23912861
_symmetry_Int_Tables_number   1
_chemical_formula_structural   Nd4RuSeO12
_chemical_formula_sum   'Nd8 Ru2 Se2 O24'
_cell_volume   519.34683171
_cell_formula_units_Z   2
loop_
 _symmetry_equiv_pos_site_id
 _symmetry_equiv_pos_as_xyz
  1  'x, y, z'
loop_
 _atom_site_type_symbol
 _atom_site_label
 _atom_site_symmetry_multiplicity
 _atom_site_fract_x
 _atom_site_fract_y
 _atom_site_fract_z
 _atom_site_occupancy
  Nd  Nd0  1  0.108132  0.891868  0.750000  1
  Nd  Nd1  1  0.889578  0.110422  0.250000  1
  Nd  Nd2  1  0.058289  0.283801  0.636144  1
  Nd  Nd3  1  0.716199  0.941711  0.863856  1
  Nd  Nd4  1  0.937102  0.713963  0.379913  1
  Nd  Nd5  1  0.286037  0.062898  0.120087  1
  Nd  Nd6  1  0.640213  0.359787  0.750000  1
  Nd  Nd7  1  0.369325  0.630675  0.250000  1
  Ru  Ru8  1  0.504142  0.797236  0.542119  1
  Ru  Ru9  1  0.202764  0.495858  0.957881  1
  Se  Se10  1  0.471669  0.212707  0.437860  1
  Se  Se11  1  0.787293  0.528331  0.062140  1
  O  O12  1  0.604280  0.176331  0.186619  1
  O  O13  1  0.823669  0.395720  0.313381  1
  O  O14  1  0.391265  0.829468  0.847723  1
  O  O15  1  0.170532  0.608735  0.652277  1
  O  O16  1  0.476761  0.089579  0.709575  1
  O  O17  1  0.910421  0.523239  0.790425  1
  O  O18  1  0.525376  0.930197  0.251297  1
  O  O19  1  0.069803  0.474624  0.248703  1
  O  O20  1  0.320411  0.220266  0.365124  1
  O  O21  1  0.779734  0.679589  0.134876  1
  O  O22  1  0.674475  0.789091  0.619203  1
  O  O23  1  0.210909  0.325525  0.880797  1
  O  O24  1  0.888183  0.920368  0.077418  1
  O  O25  1  0.079632  0.111817  0.422582  1
  O  O26  1  0.118205  0.069106  0.926314  1
  O  O27  1  0.930894  0.881795  0.573686  1
  O  O28  1  0.166494  0.688240  0.088635  1
  O  O29  1  0.311760  0.833506  0.411365  1
  O  O30  1  0.844085  0.281065  0.883660  1
  O  O31  1  0.718935  0.155915  0.616340  1
  O  O32  1  0.385333  0.458290  0.983994  1
  O  O33  1  0.541710  0.614667  0.516006  1
  O  O34  1  0.627222  0.540832  0.015985  1
  O  O35  1  0.459168  0.372778  0.484015  1
