# generated using pymatgen
data_Tb6Nd2Cd2OsPt
_symmetry_space_group_name_H-M   'P 1'
_cell_length_a   9.75856532
_cell_length_b   9.75968218
_cell_length_c   9.80605307
_cell_angle_alpha   59.83514623
_cell_angle_beta   59.84644417
_cell_angle_gamma   59.87157155
_symmetry_Int_Tables_number   1
_chemical_formula_structural   Tb6Nd2Cd2OsPt
_chemical_formula_sum   'Tb12 Nd4 Cd4 Os2 Pt2'
_cell_volume   658.15826559
_cell_formula_units_Z   2
loop_
 _symmetry_equiv_pos_site_id
 _symmetry_equiv_pos_as_xyz
  1  'x, y, z'
loop_
 _atom_site_type_symbol
 _atom_site_label
 _atom_site_symmetry_multiplicity
 _atom_site_fract_x
 _atom_site_fract_y
 _atom_site_fract_z
 _atom_site_occupancy
  Tb  Tb0  1  0.348561  0.349365  0.351416  1
  Tb  Tb1  1  0.349365  0.348561  0.950657  1
  Tb  Tb2  1  0.344784  0.956465  0.349644  1
  Tb  Tb3  1  0.956465  0.344784  0.349109  1
  Tb  Tb4  1  0.816815  0.185707  0.189853  1
  Tb  Tb5  1  0.185707  0.816815  0.807626  1
  Tb  Tb6  1  0.187337  0.815471  0.189744  1
  Tb  Tb7  1  0.815471  0.187337  0.807448  1
  Tb  Tb8  1  0.188049  0.188049  0.811951  1
  Tb  Tb9  1  0.808763  0.808763  0.191237  1
  Tb  Tb10  1  0.942516  0.551090  0.562855  1
  Tb  Tb11  1  0.551090  0.942516  0.943540  1
  Nd  Nd12  1  0.556033  0.938604  0.565720  1
  Nd  Nd13  1  0.938604  0.556033  0.939643  1
  Nd  Nd14  1  0.562957  0.562957  0.937043  1
  Nd  Nd15  1  0.939675  0.939675  0.560325  1
  Cd  Cd16  1  0.581504  0.578808  0.579311  1
  Cd  Cd17  1  0.578808  0.581504  0.260378  1
  Cd  Cd18  1  0.579922  0.258468  0.581650  1
  Cd  Cd19  1  0.258468  0.579922  0.579962  1
  Os  Os20  1  0.147773  0.142674  0.134918  1
  Os  Os21  1  0.142674  0.147773  0.574634  1
  Pt  Pt22  1  0.143745  0.574916  0.142023  1
  Pt  Pt23  1  0.574916  0.143745  0.139316  1
