# generated using pymatgen
data_Yb5Ni4(Sn4Sb)2
_symmetry_space_group_name_H-M   'P 1'
_cell_length_a   13.92385300
_cell_length_b   13.92385300
_cell_length_c   4.49061700
_cell_angle_alpha   90.00000000
_cell_angle_beta   90.00000000
_cell_angle_gamma   90.00000000
_symmetry_Int_Tables_number   1
_chemical_formula_structural   Yb5Ni4(Sn4Sb)2
_chemical_formula_sum   'Yb10 Ni8 Sn16 Sb4'
_cell_volume   870.61245388
_cell_formula_units_Z   2
loop_
 _symmetry_equiv_pos_site_id
 _symmetry_equiv_pos_as_xyz
  1  'x, y, z'
loop_
 _atom_site_type_symbol
 _atom_site_label
 _atom_site_symmetry_multiplicity
 _atom_site_fract_x
 _atom_site_fract_y
 _atom_site_fract_z
 _atom_site_occupancy
  Yb  Yb0  1  0.000000  0.000000  0.000000  1
  Yb  Yb1  1  0.500000  0.500000  0.000000  1
  Yb  Yb2  1  0.180339  0.680339  0.500000  1
  Yb  Yb3  1  0.819661  0.319661  0.500000  1
  Yb  Yb4  1  0.680339  0.819661  0.500000  1
  Yb  Yb5  1  0.319661  0.180339  0.500000  1
  Yb  Yb6  1  0.894172  0.605828  0.500000  1
  Yb  Yb7  1  0.105828  0.394172  0.500000  1
  Yb  Yb8  1  0.394172  0.894172  0.500000  1
  Yb  Yb9  1  0.605828  0.105828  0.500000  1
  Ni  Ni10  1  0.254002  0.534781  0.000000  1
  Ni  Ni11  1  0.745998  0.465219  0.000000  1
  Ni  Ni12  1  0.754002  0.965219  0.000000  1
  Ni  Ni13  1  0.245998  0.034781  0.000000  1
  Ni  Ni14  1  0.465219  0.254002  0.000000  1
  Ni  Ni15  1  0.534781  0.745998  0.000000  1
  Ni  Ni16  1  0.034781  0.754002  0.000000  1
  Ni  Ni17  1  0.965219  0.245998  0.000000  1
  Sn  Sn18  1  0.352035  0.698994  0.000000  1
  Sn  Sn19  1  0.647965  0.301006  0.000000  1
  Sn  Sn20  1  0.852035  0.801006  0.000000  1
  Sn  Sn21  1  0.147965  0.198994  0.000000  1
  Sn  Sn22  1  0.301006  0.352035  0.000000  1
  Sn  Sn23  1  0.698994  0.647965  0.000000  1
  Sn  Sn24  1  0.198994  0.852035  0.000000  1
  Sn  Sn25  1  0.801006  0.147965  0.000000  1
  Sn  Sn26  1  0.337784  0.511446  0.500000  1
  Sn  Sn27  1  0.662216  0.488554  0.500000  1
  Sn  Sn28  1  0.837784  0.988554  0.500000  1
  Sn  Sn29  1  0.162216  0.011446  0.500000  1
  Sn  Sn30  1  0.488554  0.337784  0.500000  1
  Sn  Sn31  1  0.511446  0.662216  0.500000  1
  Sn  Sn32  1  0.011446  0.837784  0.500000  1
  Sn  Sn33  1  0.988554  0.162216  0.500000  1
  Sb  Sb34  1  0.073754  0.573754  0.000000  1
  Sb  Sb35  1  0.926246  0.426246  0.000000  1
  Sb  Sb36  1  0.573754  0.926246  0.000000  1
  Sb  Sb37  1  0.426246  0.073754  0.000000  1
