# generated using pymatgen
data_Ca3(AsRh)2
_symmetry_space_group_name_H-M   'P 1'
_cell_length_a   5.62164000
_cell_length_b   8.01617300
_cell_length_c   13.34536900
_cell_angle_alpha   90.00000000
_cell_angle_beta   90.00000000
_cell_angle_gamma   90.00000000
_symmetry_Int_Tables_number   1
_chemical_formula_structural   Ca3(AsRh)2
_chemical_formula_sum   'Ca12 As8 Rh8'
_cell_volume   601.39622620
_cell_formula_units_Z   4
loop_
 _symmetry_equiv_pos_site_id
 _symmetry_equiv_pos_as_xyz
  1  'x, y, z'
loop_
 _atom_site_type_symbol
 _atom_site_label
 _atom_site_symmetry_multiplicity
 _atom_site_fract_x
 _atom_site_fract_y
 _atom_site_fract_z
 _atom_site_occupancy
  Ca  Ca0  1  0.634315  0.250352  0.250000  1
  Ca  Ca1  1  0.365685  0.749648  0.750000  1
  Ca  Ca2  1  0.365685  0.750352  0.250000  1
  Ca  Ca3  1  0.634315  0.249648  0.750000  1
  Ca  Ca4  1  0.136813  0.387495  0.103611  1
  Ca  Ca5  1  0.863187  0.612505  0.896389  1
  Ca  Ca6  1  0.863187  0.612505  0.603611  1
  Ca  Ca7  1  0.863187  0.887495  0.396389  1
  Ca  Ca8  1  0.136813  0.387495  0.396389  1
  Ca  Ca9  1  0.136813  0.112505  0.603611  1
  Ca  Ca10  1  0.136813  0.112505  0.896389  1
  Ca  Ca11  1  0.863187  0.887495  0.103611  1
  As  As12  1  0.146047  0.099472  0.250000  1
  As  As13  1  0.853953  0.900528  0.750000  1
  As  As14  1  0.853953  0.599472  0.250000  1
  As  As15  1  0.146047  0.400528  0.750000  1
  As  As16  1  0.614424  0.250000  0.000000  1
  As  As17  1  0.385576  0.750000  0.000000  1
  As  As18  1  0.385576  0.750000  0.500000  1
  As  As19  1  0.614424  0.250000  0.500000  1
  Rh  Rh20  1  0.370326  0.027966  0.087226  1
  Rh  Rh21  1  0.629674  0.972034  0.912774  1
  Rh  Rh22  1  0.629674  0.972034  0.587226  1
  Rh  Rh23  1  0.629674  0.527966  0.412774  1
  Rh  Rh24  1  0.370326  0.027966  0.412774  1
  Rh  Rh25  1  0.370326  0.472034  0.587226  1
  Rh  Rh26  1  0.370326  0.472034  0.912774  1
  Rh  Rh27  1  0.629674  0.527966  0.087226  1
