# generated using pymatgen
data_Er2Lu8Tl5Bi
_symmetry_space_group_name_H-M   'P 1'
_cell_length_a   6.48179812
_cell_length_b   8.88863067
_cell_length_c   8.88176600
_cell_angle_alpha   120.02410881
_cell_angle_beta   89.98876501
_cell_angle_gamma   89.99385771
_symmetry_Int_Tables_number   1
_chemical_formula_structural   Er2Lu8Tl5Bi
_chemical_formula_sum   'Er2 Lu8 Tl5 Bi1'
_cell_volume   443.05204273
_cell_formula_units_Z   1
loop_
 _symmetry_equiv_pos_site_id
 _symmetry_equiv_pos_as_xyz
  1  'x, y, z'
loop_
 _atom_site_type_symbol
 _atom_site_label
 _atom_site_symmetry_multiplicity
 _atom_site_fract_x
 _atom_site_fract_y
 _atom_site_fract_z
 _atom_site_occupancy
  Er  Er0  1  0.750096  0.229889  0.999987  1
  Er  Er1  1  0.249981  0.765125  0.999889  1
  Lu  Lu2  1  0.496002  0.328118  0.662220  1
  Lu  Lu3  1  0.496006  0.665910  0.337771  1
  Lu  Lu4  1  0.004014  0.665984  0.337748  1
  Lu  Lu5  1  0.003988  0.328064  0.662195  1
  Lu  Lu6  1  0.750087  0.764667  0.757069  1
  Lu  Lu7  1  0.750015  0.007611  0.242955  1
  Lu  Lu8  1  0.249976  0.237916  0.236097  1
  Lu  Lu9  1  0.249983  0.001835  0.763923  1
  Tl  Tl10  1  0.750151  0.403783  0.403078  1
  Tl  Tl11  1  0.750030  0.000826  0.597105  1
  Tl  Tl12  1  0.249852  0.394894  0.000022  1
  Tl  Tl13  1  0.249827  0.599998  0.602462  1
  Tl  Tl14  1  0.250017  0.997670  0.397489  1
  Bi  Bi15  1  0.749978  0.607714  0.999989  1
