# generated using pymatgen
data_TiMn4Nb3P4
_symmetry_space_group_name_H-M   'P 1'
_cell_length_a   3.53304700
_cell_length_b   6.19642482
_cell_length_c   7.21193774
_cell_angle_alpha   89.88694948
_cell_angle_beta   90.00000000
_cell_angle_gamma   90.00000000
_symmetry_Int_Tables_number   1
_chemical_formula_structural   TiMn4Nb3P4
_chemical_formula_sum   'Ti1 Mn4 Nb3 P4'
_cell_volume   157.88530975
_cell_formula_units_Z   1
loop_
 _symmetry_equiv_pos_site_id
 _symmetry_equiv_pos_as_xyz
  1  'x, y, z'
loop_
 _atom_site_type_symbol
 _atom_site_label
 _atom_site_symmetry_multiplicity
 _atom_site_fract_x
 _atom_site_fract_y
 _atom_site_fract_z
 _atom_site_occupancy
  Ti  Ti0  1  0.250000  0.529331  0.673862  1
  Mn  Mn1  1  0.750000  0.861038  0.559256  1
  Mn  Mn2  1  0.250000  0.139325  0.442224  1
  Mn  Mn3  1  0.750000  0.361718  0.939312  1
  Mn  Mn4  1  0.250000  0.640581  0.057999  1
  Nb  Nb5  1  0.750000  0.470261  0.328902  1
  Nb  Nb6  1  0.250000  0.029522  0.827092  1
  Nb  Nb7  1  0.750000  0.967163  0.172643  1
  P  P8  1  0.250000  0.270319  0.129417  1
  P  P9  1  0.750000  0.726340  0.863652  1
  P  P10  1  0.250000  0.768268  0.375158  1
  P  P11  1  0.750000  0.236134  0.630482  1
