# generated using pymatgen
data_Pr3Er7(SnSb)4
_symmetry_space_group_name_H-M   'P 1'
_cell_length_a   9.18666069
_cell_length_b   8.45746453
_cell_length_c   8.27959500
_cell_angle_alpha   89.68954653
_cell_angle_beta   90.03478912
_cell_angle_gamma   124.48850288
_symmetry_Int_Tables_number   1
_chemical_formula_structural   Pr3Er7(SnSb)4
_chemical_formula_sum   'Pr3 Er7 Sn4 Sb4'
_cell_volume   530.21528134
_cell_formula_units_Z   1
loop_
 _symmetry_equiv_pos_site_id
 _symmetry_equiv_pos_as_xyz
  1  'x, y, z'
loop_
 _atom_site_type_symbol
 _atom_site_label
 _atom_site_symmetry_multiplicity
 _atom_site_fract_x
 _atom_site_fract_y
 _atom_site_fract_z
 _atom_site_occupancy
  Pr  Pr0  1  0.053767  0.353107  0.323178  1
  Pr  Pr1  1  0.947735  0.654196  0.676992  1
  Pr  Pr2  1  0.446098  0.151650  0.824834  1
  Er  Er3  1  0.770787  0.514571  0.158644  1
  Er  Er4  1  0.551816  0.833517  0.169603  1
  Er  Er5  1  0.228557  0.485247  0.839868  1
  Er  Er6  1  0.730778  0.989911  0.657812  1
  Er  Er7  1  0.271777  0.014209  0.341374  1
  Er  Er8  1  0.999626  0.999199  0.000283  1
  Er  Er9  1  0.500437  0.501860  0.499325  1
  Sn  Sn10  1  0.364902  0.365969  0.136886  1
  Sn  Sn11  1  0.634756  0.637209  0.864829  1
  Sn  Sn12  1  0.134945  0.135924  0.635261  1
  Sn  Sn13  1  0.861221  0.867836  0.359583  1
  Sb  Sb14  1  0.816858  0.224869  0.970958  1
  Sb  Sb15  1  0.180277  0.762355  0.041086  1
  Sb  Sb16  1  0.676142  0.269905  0.466812  1
  Sb  Sb17  1  0.329519  0.738468  0.532673  1
