# generated using pymatgen
data_Sr18Ca2Si11Pb
_symmetry_space_group_name_H-M   'P 1'
_cell_length_a   8.00165500
_cell_length_b   8.00165500
_cell_length_c   16.26078000
_cell_angle_alpha   90.00000000
_cell_angle_beta   90.00000000
_cell_angle_gamma   90.00000000
_symmetry_Int_Tables_number   1
_chemical_formula_structural   Sr18Ca2Si11Pb
_chemical_formula_sum   'Sr18 Ca2 Si11 Pb1'
_cell_volume   1041.12054999
_cell_formula_units_Z   1
loop_
 _symmetry_equiv_pos_site_id
 _symmetry_equiv_pos_as_xyz
  1  'x, y, z'
loop_
 _atom_site_type_symbol
 _atom_site_label
 _atom_site_symmetry_multiplicity
 _atom_site_fract_x
 _atom_site_fract_y
 _atom_site_fract_z
 _atom_site_occupancy
  Sr  Sr0  1  0.329660  0.687730  0.112517  1
  Sr  Sr1  1  0.187730  0.170340  0.112517  1
  Sr  Sr2  1  0.319877  0.680614  0.392173  1
  Sr  Sr3  1  0.669559  0.689621  0.886568  1
  Sr  Sr4  1  0.180614  0.180123  0.392173  1
  Sr  Sr5  1  0.680123  0.319386  0.392173  1
  Sr  Sr6  1  0.178529  0.817942  0.608661  1
  Sr  Sr7  1  0.330441  0.310379  0.886568  1
  Sr  Sr8  1  0.189621  0.830441  0.886568  1
  Sr  Sr9  1  0.821471  0.182058  0.608661  1
  Sr  Sr10  1  0.317942  0.321471  0.608661  1
  Sr  Sr11  1  0.819386  0.819877  0.392173  1
  Sr  Sr12  1  0.810379  0.169559  0.886568  1
  Sr  Sr13  1  0.812270  0.829660  0.112517  1
  Sr  Sr14  1  0.000000  0.500000  0.249050  1
  Sr  Sr15  1  0.000000  0.500000  0.753514  1
  Sr  Sr16  1  0.670340  0.312270  0.112517  1
  Sr  Sr17  1  0.682058  0.678529  0.608661  1
  Ca  Ca18  1  0.500000  0.000000  0.737052  1
  Ca  Ca19  1  0.500000  0.000000  0.258272  1
  Si  Si20  1  0.112892  0.105807  0.747023  1
  Si  Si21  1  0.394193  0.612892  0.747023  1
  Si  Si22  1  0.605254  0.612721  0.253019  1
  Si  Si23  1  0.500000  0.000000  0.000773  1
  Si  Si24  1  0.112721  0.894746  0.253019  1
  Si  Si25  1  0.605807  0.387108  0.747023  1
  Si  Si26  1  0.887108  0.894193  0.747023  1
  Si  Si27  1  0.394746  0.387279  0.253019  1
  Si  Si28  1  0.887279  0.105254  0.253019  1
  Si  Si29  1  0.500000  0.000000  0.502461  1
  Si  Si30  1  0.000000  0.500000  0.499378  1
  Pb  Pb31  1  0.000000  0.500000  0.999657  1
