# generated using pymatgen
data_Nb6Tl2SnCl18
_symmetry_space_group_name_H-M   'P 1'
_cell_length_a   10.36807372
_cell_length_b   10.36979127
_cell_length_c   10.36979000
_cell_angle_alpha   54.83755101
_cell_angle_beta   54.83369703
_cell_angle_gamma   54.84147784
_symmetry_Int_Tables_number   1
_chemical_formula_structural   Nb6Tl2SnCl18
_chemical_formula_sum   'Nb6 Tl2 Sn1 Cl18'
_cell_volume   693.60196608
_cell_formula_units_Z   1
loop_
 _symmetry_equiv_pos_site_id
 _symmetry_equiv_pos_as_xyz
  1  'x, y, z'
loop_
 _atom_site_type_symbol
 _atom_site_label
 _atom_site_symmetry_multiplicity
 _atom_site_fract_x
 _atom_site_fract_y
 _atom_site_fract_z
 _atom_site_occupancy
  Nb  Nb0  1  0.581612  0.352057  0.702961  1
  Nb  Nb1  1  0.352068  0.702955  0.581597  1
  Nb  Nb2  1  0.703060  0.581623  0.351998  1
  Nb  Nb3  1  0.647932  0.297045  0.418403  1
  Nb  Nb4  1  0.418388  0.647943  0.297039  1
  Nb  Nb5  1  0.296940  0.418377  0.648002  1
  Tl  Tl6  1  0.722867  0.722865  0.722872  1
  Tl  Tl7  1  0.277133  0.277135  0.277128  1
  Sn  Sn8  1  0.000000  0.000000  0.000000  1
  Cl  Cl9  1  0.912594  0.356999  0.230907  1
  Cl  Cl10  1  0.834522  0.423274  0.565570  1
  Cl  Cl11  1  0.769076  0.087502  0.642987  1
  Cl  Cl12  1  0.087406  0.643001  0.769093  1
  Cl  Cl13  1  0.675865  0.170592  0.966481  1
  Cl  Cl14  1  0.230924  0.912498  0.357013  1
  Cl  Cl15  1  0.434283  0.165554  0.576786  1
  Cl  Cl16  1  0.643050  0.769085  0.087480  1
  Cl  Cl17  1  0.576736  0.434365  0.165583  1
  Cl  Cl18  1  0.033332  0.324152  0.829492  1
  Cl  Cl19  1  0.565717  0.834446  0.423214  1
  Cl  Cl20  1  0.356950  0.230915  0.912520  1
  Cl  Cl21  1  0.966668  0.675848  0.170508  1
  Cl  Cl22  1  0.165478  0.576726  0.434430  1
  Cl  Cl23  1  0.829444  0.033503  0.324108  1
  Cl  Cl24  1  0.423264  0.565635  0.834417  1
  Cl  Cl25  1  0.170556  0.966497  0.675892  1
  Cl  Cl26  1  0.324135  0.829408  0.033519  1
