# generated using pymatgen
data_DyHoP7Ru12
_symmetry_space_group_name_H-M   'P 1'
_cell_length_a   9.40318400
_cell_length_b   9.40318281
_cell_length_c   3.95736600
_cell_angle_alpha   90.00000000
_cell_angle_beta   90.00000000
_cell_angle_gamma   119.99999012
_symmetry_Int_Tables_number   1
_chemical_formula_structural   DyHoP7Ru12
_chemical_formula_sum   'Dy1 Ho1 P7 Ru12'
_cell_volume   303.03075433
_cell_formula_units_Z   1
loop_
 _symmetry_equiv_pos_site_id
 _symmetry_equiv_pos_as_xyz
  1  'x, y, z'
loop_
 _atom_site_type_symbol
 _atom_site_label
 _atom_site_symmetry_multiplicity
 _atom_site_fract_x
 _atom_site_fract_y
 _atom_site_fract_z
 _atom_site_occupancy
  Dy  Dy0  1  0.333333  0.666667  0.000000  1
  Ho  Ho1  1  0.666667  0.333333  0.500000  1
  P  P2  1  0.600789  0.718528  0.500000  1
  P  P3  1  0.000000  0.000000  0.000000  1
  P  P4  1  0.281472  0.882261  0.500000  1
  P  P5  1  0.117739  0.399211  0.500000  1
  P  P6  1  0.885061  0.573605  0.000000  1
  P  P7  1  0.426395  0.311456  0.000000  1
  P  P8  1  0.688544  0.114939  0.000000  1
  Ru  Ru9  1  0.556422  0.949982  0.500000  1
  Ru  Ru10  1  0.393561  0.443578  0.500000  1
  Ru  Ru11  1  0.914660  0.121742  0.500000  1
  Ru  Ru12  1  0.207083  0.085340  0.500000  1
  Ru  Ru13  1  0.878258  0.792917  0.500000  1
  Ru  Ru14  1  0.727962  0.892325  0.000000  1
  Ru  Ru15  1  0.107675  0.835636  0.000000  1
  Ru  Ru16  1  0.164364  0.272038  0.000000  1
  Ru  Ru17  1  0.423738  0.066728  0.000000  1
  Ru  Ru18  1  0.933272  0.357010  0.000000  1
  Ru  Ru19  1  0.642990  0.576262  0.000000  1
  Ru  Ru20  1  0.050018  0.606439  0.500000  1
