# generated using pymatgen
data_Nd3Ho7In8(PdRh)2
_symmetry_space_group_name_H-M   'P 1'
_cell_length_a   3.65855600
_cell_length_b   8.15294276
_cell_length_c   18.39523760
_cell_angle_alpha   89.79106593
_cell_angle_beta   90.00000000
_cell_angle_gamma   90.00000000
_symmetry_Int_Tables_number   1
_chemical_formula_structural   Nd3Ho7In8(PdRh)2
_chemical_formula_sum   'Nd3 Ho7 In8 Pd2 Rh2'
_cell_volume   548.68945581
_cell_formula_units_Z   1
loop_
 _symmetry_equiv_pos_site_id
 _symmetry_equiv_pos_as_xyz
  1  'x, y, z'
loop_
 _atom_site_type_symbol
 _atom_site_label
 _atom_site_symmetry_multiplicity
 _atom_site_fract_x
 _atom_site_fract_y
 _atom_site_fract_z
 _atom_site_occupancy
  Nd  Nd0  1  0.000000  0.500209  0.500006  1
  Nd  Nd1  1  0.000000  0.000018  0.999472  1
  Nd  Nd2  1  0.000000  0.731509  0.279666  1
  Ho  Ho3  1  0.000000  0.269124  0.721494  1
  Ho  Ho4  1  0.000000  0.746934  0.780064  1
  Ho  Ho5  1  0.000000  0.251607  0.219528  1
  Ho  Ho6  1  0.000000  0.614031  0.087187  1
  Ho  Ho7  1  0.000000  0.384745  0.911571  1
  Ho  Ho8  1  0.000000  0.882855  0.586026  1
  Ho  Ho9  1  0.000000  0.117979  0.415410  1
  In  In10  1  0.500000  0.703692  0.930139  1
  In  In11  1  0.500000  0.295291  0.069127  1
  In  In12  1  0.500000  0.798895  0.433588  1
  In  In13  1  0.500000  0.202926  0.569272  1
  In  In14  1  0.500000  0.579307  0.651778  1
  In  In15  1  0.500000  0.416163  0.348703  1
  In  In16  1  0.500000  0.923654  0.150808  1
  In  In17  1  0.500000  0.079180  0.847469  1
  Pd  Pd18  1  0.500000  0.979379  0.696359  1
  Pd  Pd19  1  0.500000  0.028505  0.304296  1
  Rh  Rh20  1  0.500000  0.514846  0.193024  1
  Rh  Rh21  1  0.500000  0.479152  0.805013  1
