# generated using pymatgen
data_Ti20ZnSi9As2
_symmetry_space_group_name_H-M   'P 1'
_cell_length_a   5.14801500
_cell_length_b   7.50084257
_cell_length_c   12.97506418
_cell_angle_alpha   90.03885400
_cell_angle_beta   90.00000000
_cell_angle_gamma   90.00000000
_symmetry_Int_Tables_number   1
_chemical_formula_structural   Ti20ZnSi9As2
_chemical_formula_sum   'Ti20 Zn1 Si9 As2'
_cell_volume   501.02485290
_cell_formula_units_Z   1
loop_
 _symmetry_equiv_pos_site_id
 _symmetry_equiv_pos_as_xyz
  1  'x, y, z'
loop_
 _atom_site_type_symbol
 _atom_site_label
 _atom_site_symmetry_multiplicity
 _atom_site_fract_x
 _atom_site_fract_y
 _atom_site_fract_z
 _atom_site_occupancy
  Ti  Ti0  1  0.753257  0.001266  0.664949  1
  Ti  Ti1  1  0.751370  0.500834  0.167089  1
  Ti  Ti2  1  0.752933  0.496500  0.833287  1
  Ti  Ti3  1  0.751395  0.000804  0.333678  1
  Ti  Ti4  1  0.247067  0.496500  0.833287  1
  Ti  Ti5  1  0.248605  0.000804  0.333678  1
  Ti  Ti6  1  0.246743  0.001266  0.664949  1
  Ti  Ti7  1  0.248630  0.500834  0.167089  1
  Ti  Ti8  1  0.500000  0.252045  0.499330  1
  Ti  Ti9  1  0.500000  0.750413  0.002852  1
  Ti  Ti10  1  0.500000  0.616651  0.622310  1
  Ti  Ti11  1  0.500000  0.121784  0.127210  1
  Ti  Ti12  1  0.500000  0.124873  0.873567  1
  Ti  Ti13  1  0.500000  0.622259  0.373138  1
  Ti  Ti14  1  0.000000  0.751968  0.499506  1
  Ti  Ti15  1  0.000000  0.252980  0.000694  1
  Ti  Ti16  1  0.000000  0.876480  0.875773  1
  Ti  Ti17  1  0.000000  0.377725  0.374234  1
  Ti  Ti18  1  0.000000  0.375733  0.626682  1
  Ti  Ti19  1  0.000000  0.876189  0.126501  1
  Zn  Zn20  1  0.500000  0.802021  0.802258  1
  Si  Si21  1  0.500000  0.303649  0.303431  1
  Si  Si22  1  0.500000  0.302447  0.695973  1
  Si  Si23  1  0.500000  0.804186  0.197351  1
  Si  Si24  1  0.000000  0.615297  0.999781  1
  Si  Si25  1  0.000000  0.116840  0.499559  1
  Si  Si26  1  0.000000  0.696544  0.696781  1
  Si  Si27  1  0.000000  0.197122  0.196185  1
  Si  Si28  1  0.000000  0.193017  0.804527  1
  Si  Si29  1  0.000000  0.697096  0.303757  1
  As  As30  1  0.500000  0.387878  0.000392  1
  As  As31  1  0.500000  0.885984  0.500194  1
