# generated using pymatgen
data_Nd2DyIn5
_symmetry_space_group_name_H-M   'P 1'
_cell_length_a   6.54465721
_cell_length_b   6.54465614
_cell_length_c   10.49350800
_cell_angle_alpha   90.00000000
_cell_angle_beta   90.00000000
_cell_angle_gamma   102.44491946
_symmetry_Int_Tables_number   1
_chemical_formula_structural   Nd2DyIn5
_chemical_formula_sum   'Nd4 Dy2 In10'
_cell_volume   438.90274487
_cell_formula_units_Z   2
loop_
 _symmetry_equiv_pos_site_id
 _symmetry_equiv_pos_as_xyz
  1  'x, y, z'
loop_
 _atom_site_type_symbol
 _atom_site_label
 _atom_site_symmetry_multiplicity
 _atom_site_fract_x
 _atom_site_fract_y
 _atom_site_fract_z
 _atom_site_occupancy
  Nd  Nd0  1  0.204073  0.795927  0.500000  1
  Nd  Nd1  1  0.204073  0.795927  0.000000  1
  Nd  Nd2  1  0.795927  0.204073  0.500000  1
  Nd  Nd3  1  0.795927  0.204073  0.000000  1
  Dy  Dy4  1  0.627520  0.627520  0.250000  1
  Dy  Dy5  1  0.372480  0.372480  0.750000  1
  In  In6  1  0.008449  0.008449  0.250000  1
  In  In7  1  0.991551  0.991551  0.750000  1
  In  In8  1  0.311911  0.311911  0.048040  1
  In  In9  1  0.688089  0.688089  0.951960  1
  In  In10  1  0.311911  0.311911  0.451960  1
  In  In11  1  0.688089  0.688089  0.548040  1
  In  In12  1  0.499967  0.069309  0.250000  1
  In  In13  1  0.930691  0.500033  0.750000  1
  In  In14  1  0.500033  0.930691  0.750000  1
  In  In15  1  0.069309  0.499967  0.250000  1
