# generated using pymatgen
data_EuTmZr2(Co5P3)4
_symmetry_space_group_name_H-M   'P 1'
_cell_length_a   3.64919500
_cell_length_b   10.26372941
_cell_length_c   11.75526075
_cell_angle_alpha   90.07848922
_cell_angle_beta   90.00000000
_cell_angle_gamma   90.00000000
_symmetry_Int_Tables_number   1
_chemical_formula_structural   EuTmZr2(Co5P3)4
_chemical_formula_sum   'Eu1 Tm1 Zr2 Co20 P12'
_cell_volume   440.28523805
_cell_formula_units_Z   1
loop_
 _symmetry_equiv_pos_site_id
 _symmetry_equiv_pos_as_xyz
  1  'x, y, z'
loop_
 _atom_site_type_symbol
 _atom_site_label
 _atom_site_symmetry_multiplicity
 _atom_site_fract_x
 _atom_site_fract_y
 _atom_site_fract_z
 _atom_site_occupancy
  Eu  Eu0  1  0.750000  0.416915  0.296386  1
  Tm  Tm1  1  0.750000  0.082018  0.797132  1
  Zr  Zr2  1  0.250000  0.581996  0.701559  1
  Zr  Zr3  1  0.250000  0.918443  0.200991  1
  Co  Co4  1  0.250000  0.718668  0.991585  1
  Co  Co5  1  0.250000  0.781873  0.495178  1
  Co  Co6  1  0.750000  0.282763  0.007572  1
  Co  Co7  1  0.750000  0.216269  0.508990  1
  Co  Co8  1  0.250000  0.410411  0.494828  1
  Co  Co9  1  0.250000  0.090276  0.988276  1
  Co  Co10  1  0.750000  0.595388  0.516921  1
  Co  Co11  1  0.750000  0.906783  0.015402  1
  Co  Co12  1  0.250000  0.217992  0.175689  1
  Co  Co13  1  0.250000  0.276449  0.678605  1
  Co  Co14  1  0.750000  0.776556  0.822697  1
  Co  Co15  1  0.750000  0.724851  0.323628  1
  Co  Co16  1  0.250000  0.881293  0.699877  1
  Co  Co17  1  0.250000  0.623962  0.197079  1
  Co  Co18  1  0.750000  0.112282  0.299698  1
  Co  Co19  1  0.750000  0.385028  0.798781  1
  Co  Co20  1  0.250000  0.468865  0.927954  1
  Co  Co21  1  0.250000  0.029517  0.430326  1
  Co  Co22  1  0.750000  0.536195  0.064324  1
  Co  Co23  1  0.750000  0.965198  0.567946  1
  P  P24  1  0.250000  0.419972  0.109497  1
  P  P25  1  0.250000  0.079945  0.612273  1
  P  P26  1  0.750000  0.580814  0.883386  1
  P  P27  1  0.750000  0.918897  0.385566  1
  P  P28  1  0.250000  0.268781  0.870394  1
  P  P29  1  0.250000  0.228212  0.371707  1
  P  P30  1  0.750000  0.732695  0.131715  1
  P  P31  1  0.750000  0.767955  0.632270  1
  P  P32  1  0.250000  0.603559  0.391667  1
  P  P33  1  0.250000  0.899134  0.890650  1
  P  P34  1  0.750000  0.399863  0.609806  1
  P  P35  1  0.750000  0.100184  0.109644  1
