# generated using pymatgen
data_Ga8Bi(SbO6)3
_symmetry_space_group_name_H-M   'P 1'
_cell_length_a   5.98207700
_cell_length_b   8.11154104
_cell_length_c   8.27309304
_cell_angle_alpha   89.98886944
_cell_angle_beta   90.00000000
_cell_angle_gamma   90.00000000
_symmetry_Int_Tables_number   1
_chemical_formula_structural   Ga8Bi(SbO6)3
_chemical_formula_sum   'Ga8 Bi1 Sb3 O18'
_cell_volume   401.44242630
_cell_formula_units_Z   1
loop_
 _symmetry_equiv_pos_site_id
 _symmetry_equiv_pos_as_xyz
  1  'x, y, z'
loop_
 _atom_site_type_symbol
 _atom_site_label
 _atom_site_symmetry_multiplicity
 _atom_site_fract_x
 _atom_site_fract_y
 _atom_site_fract_z
 _atom_site_occupancy
  Ga  Ga0  1  0.500000  0.150481  0.660633  1
  Ga  Ga1  1  0.500000  0.850305  0.339309  1
  Ga  Ga2  1  0.500000  0.649696  0.839835  1
  Ga  Ga3  1  0.500000  0.346493  0.159560  1
  Ga  Ga4  1  0.258496  0.499930  0.497919  1
  Ga  Ga5  1  0.740989  0.000597  0.998557  1
  Ga  Ga6  1  0.741504  0.499930  0.497919  1
  Ga  Ga7  1  0.259011  0.000597  0.998557  1
  Bi  Bi8  1  0.000000  0.324965  0.833102  1
  Sb  Sb9  1  0.000000  0.691102  0.178524  1
  Sb  Sb10  1  0.000000  0.811313  0.678996  1
  Sb  Sb11  1  0.000000  0.190797  0.325594  1
  O  O12  1  0.500000  0.490108  0.992488  1
  O  O13  1  0.500000  0.000608  0.499102  1
  O  O14  1  0.241295  0.864000  0.205986  1
  O  O15  1  0.245873  0.133518  0.795012  1
  O  O16  1  0.758689  0.364962  0.290797  1
  O  O17  1  0.762314  0.632648  0.709510  1
  O  O18  1  0.754127  0.133518  0.795012  1
  O  O19  1  0.758705  0.864000  0.205986  1
  O  O20  1  0.237686  0.632648  0.709510  1
  O  O21  1  0.241311  0.364962  0.290797  1
  O  O22  1  0.500000  0.370879  0.594224  1
  O  O23  1  0.500000  0.630278  0.405311  1
  O  O24  1  0.000000  0.148136  0.074128  1
  O  O25  1  0.000000  0.853285  0.928128  1
  O  O26  1  0.000000  0.649922  0.426586  1
  O  O27  1  0.000000  0.356531  0.564115  1
  O  O28  1  0.500000  0.126566  0.097939  1
  O  O29  1  0.500000  0.867225  0.906864  1
