# generated using pymatgen
data_Th2Co2Si5Ru
_symmetry_space_group_name_H-M   'P 1'
_cell_length_a   8.08702295
_cell_length_b   8.08702336
_cell_length_c   8.08702385
_cell_angle_alpha   137.89554303
_cell_angle_beta   105.70022105
_cell_angle_gamma   89.28219439
_symmetry_Int_Tables_number   1
_chemical_formula_structural   Th2Co2Si5Ru
_chemical_formula_sum   'Th4 Co4 Si10 Ru2'
_cell_volume   326.54292200
_cell_formula_units_Z   2
loop_
 _symmetry_equiv_pos_site_id
 _symmetry_equiv_pos_as_xyz
  1  'x, y, z'
loop_
 _atom_site_type_symbol
 _atom_site_label
 _atom_site_symmetry_multiplicity
 _atom_site_fract_x
 _atom_site_fract_y
 _atom_site_fract_z
 _atom_site_occupancy
  Th  Th0  1  0.865204  0.630051  0.235153  1
  Th  Th1  1  0.134796  0.369949  0.764847  1
  Th  Th2  1  0.394898  0.130051  0.264847  1
  Th  Th3  1  0.605102  0.869949  0.735153  1
  Co  Co4  1  0.251695  0.862187  0.389508  1
  Co  Co5  1  0.748305  0.137813  0.610492  1
  Co  Co6  1  0.472680  0.362187  0.110492  1
  Co  Co7  1  0.527320  0.637813  0.889508  1
  Si  Si8  1  0.500000  0.750000  0.250000  1
  Si  Si9  1  0.500000  0.250000  0.750000  1
  Si  Si10  1  0.233675  0.983675  0.750000  1
  Si  Si11  1  0.766325  0.516325  0.750000  1
  Si  Si12  1  0.766325  0.016325  0.250000  1
  Si  Si13  1  0.233675  0.483675  0.250000  1
  Si  Si14  1  0.047227  0.892104  0.155122  1
  Si  Si15  1  0.952773  0.107896  0.844878  1
  Si  Si16  1  0.736982  0.392104  0.344878  1
  Si  Si17  1  0.263018  0.607896  0.655122  1
  Ru  Ru18  1  0.000000  0.750000  0.750000  1
  Ru  Ru19  1  0.000000  0.250000  0.250000  1
