# generated using pymatgen
data_Nd4Al18Ir5Pd
_symmetry_space_group_name_H-M   'P 1'
_cell_length_a   7.63317139
_cell_length_b   7.63317200
_cell_length_c   9.60059401
_cell_angle_alpha   90.00272178
_cell_angle_beta   90.00271856
_cell_angle_gamma   119.46285526
_symmetry_Int_Tables_number   1
_chemical_formula_structural   Nd4Al18Ir5Pd
_chemical_formula_sum   'Nd4 Al18 Ir5 Pd1'
_cell_volume   487.03942166
_cell_formula_units_Z   1
loop_
 _symmetry_equiv_pos_site_id
 _symmetry_equiv_pos_as_xyz
  1  'x, y, z'
loop_
 _atom_site_type_symbol
 _atom_site_label
 _atom_site_symmetry_multiplicity
 _atom_site_fract_x
 _atom_site_fract_y
 _atom_site_fract_z
 _atom_site_occupancy
  Nd  Nd0  1  0.994537  0.669325  0.250411  1
  Nd  Nd1  1  0.004470  0.329857  0.749686  1
  Nd  Nd2  1  0.670143  0.995530  0.250314  1
  Nd  Nd3  1  0.330675  0.005463  0.749589  1
  Al  Al4  1  0.130109  0.129140  0.250751  1
  Al  Al5  1  0.870860  0.869891  0.749249  1
  Al  Al6  1  0.006637  0.335272  0.075139  1
  Al  Al7  1  0.000979  0.668969  0.925703  1
  Al  Al8  1  0.998567  0.665193  0.572172  1
  Al  Al9  1  0.334807  0.001433  0.427828  1
  Al  Al10  1  0.001969  0.334539  0.426903  1
  Al  Al11  1  0.665461  0.998031  0.573097  1
  Al  Al12  1  0.664728  0.993363  0.924861  1
  Al  Al13  1  0.331031  0.999021  0.074297  1
  Al  Al14  1  0.333541  0.333679  0.547169  1
  Al  Al15  1  0.666321  0.666459  0.452831  1
  Al  Al16  1  0.665590  0.668573  0.050876  1
  Al  Al17  1  0.331427  0.334410  0.949124  1
  Al  Al18  1  0.340419  0.547279  0.250486  1
  Al  Al19  1  0.659709  0.455169  0.746851  1
  Al  Al20  1  0.544831  0.340291  0.253149  1
  Al  Al21  1  0.452721  0.659581  0.749514  1
  Ir  Ir22  1  0.329095  0.670905  0.000000  1
  Ir  Ir23  1  0.329112  0.670888  0.500000  1
  Ir  Ir24  1  0.671049  0.328951  0.500000  1
  Ir  Ir25  1  0.999878  0.000122  0.000000  1
  Ir  Ir26  1  0.000132  0.999868  0.500000  1
  Pd  Pd27  1  0.671204  0.328796  0.000000  1
