# generated using pymatgen
data_Ta8MnMoS16
_symmetry_space_group_name_H-M   'P 1'
_cell_length_a   6.67267700
_cell_length_b   6.67267656
_cell_length_c   12.44555800
_cell_angle_alpha   90.00000000
_cell_angle_beta   90.00000000
_cell_angle_gamma   120.00000712
_symmetry_Int_Tables_number   1
_chemical_formula_structural   Ta8MnMoS16
_chemical_formula_sum   'Ta8 Mn1 Mo1 S16'
_cell_volume   479.89381279
_cell_formula_units_Z   1
loop_
 _symmetry_equiv_pos_site_id
 _symmetry_equiv_pos_as_xyz
  1  'x, y, z'
loop_
 _atom_site_type_symbol
 _atom_site_label
 _atom_site_symmetry_multiplicity
 _atom_site_fract_x
 _atom_site_fract_y
 _atom_site_fract_z
 _atom_site_occupancy
  Ta  Ta0  1  0.505788  0.494212  0.749248  1
  Ta  Ta1  1  0.011575  0.505788  0.250752  1
  Ta  Ta2  1  0.494212  0.988425  0.250752  1
  Ta  Ta3  1  0.505788  0.011575  0.749248  1
  Ta  Ta4  1  0.988425  0.494212  0.749248  1
  Ta  Ta5  1  0.494212  0.505788  0.250752  1
  Ta  Ta6  1  0.000000  0.000000  0.750020  1
  Ta  Ta7  1  0.000000  0.000000  0.249980  1
  Mn  Mn8  1  0.000000  0.000000  0.000000  1
  Mo  Mo9  1  0.000000  0.000000  0.500000  1
  S  S10  1  0.833179  0.166821  0.376269  1
  S  S11  1  0.833179  0.666358  0.376269  1
  S  S12  1  0.333642  0.166821  0.376269  1
  S  S13  1  0.662605  0.831303  0.875047  1
  S  S14  1  0.166821  0.333642  0.623731  1
  S  S15  1  0.168697  0.831303  0.875047  1
  S  S16  1  0.168697  0.337395  0.875047  1
  S  S17  1  0.831303  0.168697  0.124953  1
  S  S18  1  0.337395  0.168697  0.124953  1
  S  S19  1  0.666358  0.833179  0.623731  1
  S  S20  1  0.333333  0.666667  0.121666  1
  S  S21  1  0.666667  0.333333  0.620250  1
  S  S22  1  0.666667  0.333333  0.878334  1
  S  S23  1  0.333333  0.666667  0.379750  1
  S  S24  1  0.831303  0.662605  0.124953  1
  S  S25  1  0.166821  0.833179  0.623731  1
