# generated using pymatgen
data_RbErUSe6
_symmetry_space_group_name_H-M   'P 1'
_cell_length_a   11.77728646
_cell_length_b   11.77728701
_cell_length_c   11.77728761
_cell_angle_alpha   160.09344962
_cell_angle_beta   153.08355396
_cell_angle_gamma   33.70384922
_symmetry_Int_Tables_number   1
_chemical_formula_structural   RbErUSe6
_chemical_formula_sum   'Rb1 Er1 U1 Se6'
_cell_volume   251.56755003
_cell_formula_units_Z   1
loop_
 _symmetry_equiv_pos_site_id
 _symmetry_equiv_pos_as_xyz
  1  'x, y, z'
loop_
 _atom_site_type_symbol
 _atom_site_label
 _atom_site_symmetry_multiplicity
 _atom_site_fract_x
 _atom_site_fract_y
 _atom_site_fract_z
 _atom_site_occupancy
  Rb  Rb0  1  0.995008  0.995008  0.000000  1
  Er  Er1  1  0.321252  0.821252  0.500000  1
  U  U2  1  0.685310  0.185310  0.500000  1
  Se  Se3  1  0.770607  0.770607  0.000000  1
  Se  Se4  1  0.857424  0.612917  0.244509  1
  Se  Se5  1  0.141945  0.388949  0.752996  1
  Se  Se6  1  0.224093  0.224093  0.000000  1
  Se  Se7  1  0.368408  0.612917  0.755491  1
  Se  Se8  1  0.635953  0.388949  0.247004  1
