# generated using pymatgen
data_Eu4Zn3CuP6
_symmetry_space_group_name_H-M   'P 1'
_cell_length_a   7.91187879
_cell_length_b   7.91187871
_cell_length_c   11.37418723
_cell_angle_alpha   54.39581592
_cell_angle_beta   54.39581699
_cell_angle_gamma   29.86865897
_symmetry_Int_Tables_number   1
_chemical_formula_structural   Eu4Zn3CuP6
_chemical_formula_sum   'Eu4 Zn3 Cu1 P6'
_cell_volume   282.99187983
_cell_formula_units_Z   1
loop_
 _symmetry_equiv_pos_site_id
 _symmetry_equiv_pos_as_xyz
  1  'x, y, z'
loop_
 _atom_site_type_symbol
 _atom_site_label
 _atom_site_symmetry_multiplicity
 _atom_site_fract_x
 _atom_site_fract_y
 _atom_site_fract_z
 _atom_site_occupancy
  Eu  Eu0  1  0.265574  0.265574  0.338354  1
  Eu  Eu1  1  0.728703  0.728703  0.667532  1
  Eu  Eu2  1  0.396779  0.396779  0.942776  1
  Eu  Eu3  1  0.607709  0.607709  0.049647  1
  Zn  Zn4  1  0.956859  0.956859  0.315785  1
  Zn  Zn5  1  0.411908  0.411908  0.653265  1
  Zn  Zn6  1  0.591921  0.591921  0.348802  1
  Cu  Cu7  1  0.044772  0.044772  0.680654  1
  P  P8  1  0.070260  0.070260  0.879268  1
  P  P9  1  0.925935  0.925935  0.120251  1
  P  P10  1  0.155451  0.155451  0.196859  1
  P  P11  1  0.845051  0.845051  0.801276  1
  P  P12  1  0.386332  0.386332  0.462364  1
  P  P13  1  0.612747  0.612747  0.543168  1
