# generated using pymatgen
data_ErTm9Si5Sn
_symmetry_space_group_name_H-M   'P 1'
_cell_length_a   8.41873005
_cell_length_b   8.41872802
_cell_length_c   6.27826600
_cell_angle_alpha   90.00000000
_cell_angle_beta   90.00000000
_cell_angle_gamma   120.19363419
_symmetry_Int_Tables_number   1
_chemical_formula_structural   ErTm9Si5Sn
_chemical_formula_sum   'Er1 Tm9 Si5 Sn1'
_cell_volume   384.60303394
_cell_formula_units_Z   1
loop_
 _symmetry_equiv_pos_site_id
 _symmetry_equiv_pos_as_xyz
  1  'x, y, z'
loop_
 _atom_site_type_symbol
 _atom_site_label
 _atom_site_symmetry_multiplicity
 _atom_site_fract_x
 _atom_site_fract_y
 _atom_site_fract_z
 _atom_site_occupancy
  Er  Er0  1  0.240539  0.240539  0.750000  1
  Tm  Tm1  1  0.673679  0.331625  0.503002  1
  Tm  Tm2  1  0.331625  0.673679  0.503002  1
  Tm  Tm3  1  0.331625  0.673679  0.996998  1
  Tm  Tm4  1  0.673679  0.331625  0.996998  1
  Tm  Tm5  1  0.765692  0.765692  0.250000  1
  Tm  Tm6  1  0.240005  0.989332  0.250000  1
  Tm  Tm7  1  0.989332  0.240005  0.250000  1
  Tm  Tm8  1  0.756616  0.998800  0.750000  1
  Tm  Tm9  1  0.998800  0.756616  0.750000  1
  Si  Si10  1  0.604229  0.998652  0.250000  1
  Si  Si11  1  0.998652  0.604229  0.250000  1
  Si  Si12  1  0.605750  0.605750  0.750000  1
  Si  Si13  1  0.393807  0.001263  0.750000  1
  Si  Si14  1  0.001263  0.393807  0.750000  1
  Sn  Sn15  1  0.394709  0.394709  0.250000  1
