# generated using pymatgen
data_Tm3CoSn3PtRh
_symmetry_space_group_name_H-M   'P 1'
_cell_length_a   7.62967600
_cell_length_b   7.62967579
_cell_length_c   3.64075700
_cell_angle_alpha   90.00000000
_cell_angle_beta   90.00000000
_cell_angle_gamma   120.00000090
_symmetry_Int_Tables_number   1
_chemical_formula_structural   Tm3CoSn3PtRh
_chemical_formula_sum   'Tm3 Co1 Sn3 Pt1 Rh1'
_cell_volume   183.54159464
_cell_formula_units_Z   1
loop_
 _symmetry_equiv_pos_site_id
 _symmetry_equiv_pos_as_xyz
  1  'x, y, z'
loop_
 _atom_site_type_symbol
 _atom_site_label
 _atom_site_symmetry_multiplicity
 _atom_site_fract_x
 _atom_site_fract_y
 _atom_site_fract_z
 _atom_site_occupancy
  Tm  Tm0  1  0.003823  0.403782  0.000000  1
  Tm  Tm1  1  0.596218  0.600041  0.000000  1
  Tm  Tm2  1  0.399959  0.996177  0.000000  1
  Co  Co3  1  0.000000  0.000000  0.000000  1
  Sn  Sn4  1  0.254829  0.258316  0.500000  1
  Sn  Sn5  1  0.003486  0.745171  0.500000  1
  Sn  Sn6  1  0.741684  0.996514  0.500000  1
  Pt  Pt7  1  0.666667  0.333333  0.500000  1
  Rh  Rh8  1  0.333333  0.666667  0.500000  1
