# generated using pymatgen
data_LuCdCu3Ir
_symmetry_space_group_name_H-M   'P 1'
_cell_length_a   5.03036895
_cell_length_b   5.21339011
_cell_length_c   5.03036900
_cell_angle_alpha   61.15465095
_cell_angle_beta   59.99999311
_cell_angle_gamma   61.15464590
_symmetry_Int_Tables_number   1
_chemical_formula_structural   LuCdCu3Ir
_chemical_formula_sum   'Lu1 Cd1 Cu3 Ir1'
_cell_volume   94.87852585
_cell_formula_units_Z   1
loop_
 _symmetry_equiv_pos_site_id
 _symmetry_equiv_pos_as_xyz
  1  'x, y, z'
loop_
 _atom_site_type_symbol
 _atom_site_label
 _atom_site_symmetry_multiplicity
 _atom_site_fract_x
 _atom_site_fract_y
 _atom_site_fract_z
 _atom_site_occupancy
  Lu  Lu0  1  0.746698  0.759904  0.746698  1
  Cd  Cd1  1  0.998106  0.005682  0.998106  1
  Cu  Cu2  1  0.377125  0.370581  0.377125  1
  Cu  Cu3  1  0.875170  0.370581  0.377125  1
  Cu  Cu4  1  0.377125  0.370581  0.875170  1
  Ir  Ir5  1  0.375777  0.872669  0.375777  1
