# generated using pymatgen
data_Pr7Nd4In9Ir4
_symmetry_space_group_name_H-M   'P 1'
_cell_length_a   13.43588895
_cell_length_b   13.43342524
_cell_length_c   3.90491500
_cell_angle_alpha   90.00000000
_cell_angle_beta   90.00000000
_cell_angle_gamma   112.09843483
_symmetry_Int_Tables_number   1
_chemical_formula_structural   Pr7Nd4In9Ir4
_chemical_formula_sum   'Pr7 Nd4 In9 Ir4'
_cell_volume   653.02290500
_cell_formula_units_Z   1
loop_
 _symmetry_equiv_pos_site_id
 _symmetry_equiv_pos_as_xyz
  1  'x, y, z'
loop_
 _atom_site_type_symbol
 _atom_site_label
 _atom_site_symmetry_multiplicity
 _atom_site_fract_x
 _atom_site_fract_y
 _atom_site_fract_z
 _atom_site_occupancy
  Pr  Pr0  1  0.500000  0.500000  0.500000  1
  Pr  Pr1  1  0.919114  0.580138  0.500000  1
  Pr  Pr2  1  0.080886  0.419862  0.500000  1
  Pr  Pr3  1  0.126530  0.873489  0.500000  1
  Pr  Pr4  1  0.873470  0.126511  0.500000  1
  Pr  Pr5  1  0.339820  0.660700  0.500000  1
  Pr  Pr6  1  0.660180  0.339300  0.500000  1
  Nd  Nd7  1  0.813466  0.813723  0.500000  1
  Nd  Nd8  1  0.186534  0.186277  0.500000  1
  Nd  Nd9  1  0.580977  0.919223  0.500000  1
  Nd  Nd10  1  0.419023  0.080777  0.500000  1
  In  In11  1  0.339658  0.866323  0.000000  1
  In  In12  1  0.660342  0.133677  0.000000  1
  In  In13  1  0.865334  0.338692  0.000000  1
  In  In14  1  0.134666  0.661308  0.000000  1
  In  In15  1  0.579234  0.720664  0.000000  1
  In  In16  1  0.420766  0.279336  0.000000  1
  In  In17  1  0.720262  0.579581  0.000000  1
  In  In18  1  0.279738  0.420419  0.000000  1
  In  In19  1  0.000000  0.000000  0.000000  1
  Ir  Ir20  1  0.747301  0.952488  0.000000  1
  Ir  Ir21  1  0.252699  0.047512  0.000000  1
  Ir  Ir22  1  0.952617  0.748275  0.000000  1
  Ir  Ir23  1  0.047383  0.251725  0.000000  1
