# generated using pymatgen
data_LuTh5(SnRh)6
_symmetry_space_group_name_H-M   'P 1'
_cell_length_a   7.55020100
_cell_length_b   7.55226233
_cell_length_c   8.23693800
_cell_angle_alpha   90.00000000
_cell_angle_beta   90.00000000
_cell_angle_gamma   120.03757824
_symmetry_Int_Tables_number   1
_chemical_formula_structural   LuTh5(SnRh)6
_chemical_formula_sum   'Lu1 Th5 Sn6 Rh6'
_cell_volume   406.60005519
_cell_formula_units_Z   1
loop_
 _symmetry_equiv_pos_site_id
 _symmetry_equiv_pos_as_xyz
  1  'x, y, z'
loop_
 _atom_site_type_symbol
 _atom_site_label
 _atom_site_symmetry_multiplicity
 _atom_site_fract_x
 _atom_site_fract_y
 _atom_site_fract_z
 _atom_site_occupancy
  Lu  Lu0  1  0.404193  0.000768  0.750000  1
  Th  Th1  1  0.416278  0.000577  0.250000  1
  Th  Th2  1  0.584256  0.584943  0.750000  1
  Th  Th3  1  0.588786  0.587972  0.250000  1
  Th  Th4  1  0.999790  0.411591  0.250000  1
  Th  Th5  1  0.000972  0.415975  0.750000  1
  Sn  Sn6  1  0.251768  0.246850  0.501391  1
  Sn  Sn7  1  0.251768  0.246850  0.998609  1
  Sn  Sn8  1  0.743769  0.000056  0.993022  1
  Sn  Sn9  1  0.005068  0.752929  0.501673  1
  Sn  Sn10  1  0.743769  0.000056  0.506978  1
  Sn  Sn11  1  0.005068  0.752929  0.998327  1
  Rh  Rh12  1  0.670200  0.336577  0.502605  1
  Rh  Rh13  1  0.670200  0.336577  0.997395  1
  Rh  Rh14  1  0.333484  0.662802  0.999488  1
  Rh  Rh15  1  0.333484  0.662802  0.500512  1
  Rh  Rh16  1  0.999125  0.000151  0.750000  1
  Rh  Rh17  1  0.998023  0.999594  0.250000  1
