# generated using pymatgen
data_Sc11Si16W9
_symmetry_space_group_name_H-M   'P 1'
_cell_length_a   6.62632465
_cell_length_b   6.82303517
_cell_length_c   12.95131242
_cell_angle_alpha   89.81026814
_cell_angle_beta   90.43869901
_cell_angle_gamma   89.88268750
_symmetry_Int_Tables_number   1
_chemical_formula_structural   Sc11Si16W9
_chemical_formula_sum   'Sc11 Si16 W9'
_cell_volume   585.52852199
_cell_formula_units_Z   1
loop_
 _symmetry_equiv_pos_site_id
 _symmetry_equiv_pos_as_xyz
  1  'x, y, z'
loop_
 _atom_site_type_symbol
 _atom_site_label
 _atom_site_symmetry_multiplicity
 _atom_site_fract_x
 _atom_site_fract_y
 _atom_site_fract_z
 _atom_site_occupancy
  Sc  Sc0  1  0.497308  0.672626  0.593487  1
  Sc  Sc1  1  0.001335  0.827498  0.906550  1
  Sc  Sc2  1  0.501814  0.328744  0.094342  1
  Sc  Sc3  1  0.001488  0.173035  0.408388  1
  Sc  Sc4  1  0.504618  0.328761  0.406436  1
  Sc  Sc5  1  0.996790  0.174857  0.097385  1
  Sc  Sc6  1  0.504474  0.675068  0.903432  1
  Sc  Sc7  1  0.998437  0.825384  0.592033  1
  Sc  Sc8  1  0.664908  0.170583  0.621136  1
  Sc  Sc9  1  0.166297  0.330064  0.877339  1
  Sc  Sc10  1  0.332069  0.830791  0.124078  1
  Si  Si11  1  0.667295  0.958328  0.453667  1
  Si  Si12  1  0.154923  0.528080  0.048497  1
  Si  Si13  1  0.346527  0.029392  0.952881  1
  Si  Si14  1  0.835566  0.468555  0.540173  1
  Si  Si15  1  0.322632  0.036259  0.539220  1
  Si  Si16  1  0.825699  0.462927  0.962611  1
  Si  Si17  1  0.675354  0.963955  0.039112  1
  Si  Si18  1  0.169649  0.537657  0.459594  1
  Si  Si19  1  0.466587  0.389221  0.750099  1
  Si  Si20  1  0.967778  0.111472  0.748052  1
  Si  Si21  1  0.534301  0.613648  0.252930  1
  Si  Si22  1  0.030291  0.885109  0.251748  1
  Si  Si23  1  0.705506  0.859158  0.747912  1
  Si  Si24  1  0.203197  0.644149  0.749656  1
  Si  Si25  1  0.295023  0.143264  0.251346  1
  Si  Si26  1  0.797209  0.357939  0.251132  1
  W  W27  1  0.837484  0.663921  0.373349  1
  W  W28  1  0.330119  0.832979  0.375476  1
  W  W29  1  0.823949  0.667820  0.127090  1
  W  W30  1  0.674285  0.171963  0.872780  1
  W  W31  1  0.167971  0.332566  0.624935  1
  W  W32  1  0.838822  0.499202  0.749345  1
  W  W33  1  0.339923  0.004287  0.748318  1
  W  W34  1  0.160638  0.504957  0.254033  1
  W  W35  1  0.659737  0.995783  0.251435  1
