# generated using pymatgen
data_Hf16Si16MoW3
_symmetry_space_group_name_H-M   'P 1'
_cell_length_a   6.94448737
_cell_length_b   6.94448737
_cell_length_c   12.69892928
_cell_angle_alpha   89.96366830
_cell_angle_beta   89.96366830
_cell_angle_gamma   89.99083615
_symmetry_Int_Tables_number   1
_chemical_formula_structural   Hf16Si16MoW3
_chemical_formula_sum   'Hf16 Si16 Mo1 W3'
_cell_volume   612.41710092
_cell_formula_units_Z   1
loop_
 _symmetry_equiv_pos_site_id
 _symmetry_equiv_pos_as_xyz
  1  'x, y, z'
loop_
 _atom_site_type_symbol
 _atom_site_label
 _atom_site_symmetry_multiplicity
 _atom_site_fract_x
 _atom_site_fract_y
 _atom_site_fract_z
 _atom_site_occupancy
  Hf  Hf0  1  0.496844  0.154651  0.530365  1
  Hf  Hf1  1  0.503000  0.845215  0.030628  1
  Hf  Hf2  1  0.654769  0.003045  0.280623  1
  Hf  Hf3  1  0.344947  0.996614  0.780614  1
  Hf  Hf4  1  0.845349  0.503156  0.969635  1
  Hf  Hf5  1  0.154785  0.497000  0.469372  1
  Hf  Hf6  1  0.003386  0.655053  0.719386  1
  Hf  Hf7  1  0.996955  0.345231  0.219377  1
  Hf  Hf8  1  0.498132  0.355047  0.124699  1
  Hf  Hf9  1  0.501929  0.644887  0.624633  1
  Hf  Hf10  1  0.855382  0.001945  0.874701  1
  Hf  Hf11  1  0.144789  0.998044  0.374646  1
  Hf  Hf12  1  0.644953  0.501868  0.375301  1
  Hf  Hf13  1  0.355113  0.498071  0.875367  1
  Hf  Hf14  1  0.001956  0.855211  0.125354  1
  Hf  Hf15  1  0.998055  0.144618  0.625299  1
  Si  Si16  1  0.797235  0.146123  0.071491  1
  Si  Si17  1  0.202699  0.853952  0.571567  1
  Si  Si18  1  0.646098  0.703047  0.821496  1
  Si  Si19  1  0.353899  0.297260  0.321491  1
  Si  Si20  1  0.853877  0.202765  0.428509  1
  Si  Si21  1  0.146048  0.797301  0.928433  1
  Si  Si22  1  0.702740  0.646101  0.178509  1
  Si  Si23  1  0.296953  0.353902  0.678504  1
  Si  Si24  1  0.546245  0.197467  0.933184  1
  Si  Si25  1  0.453881  0.802687  0.433262  1
  Si  Si26  1  0.697559  0.953537  0.683189  1
  Si  Si27  1  0.302587  0.046149  0.183211  1
  Si  Si28  1  0.802533  0.453755  0.566816  1
  Si  Si29  1  0.197313  0.546119  0.066738  1
  Si  Si30  1  0.953851  0.697413  0.316789  1
  Si  Si31  1  0.046463  0.302441  0.816811  1
  Mo  Mo32  1  0.672150  0.327850  0.750000  1
  W  W33  1  0.327545  0.672455  0.250000  1
  W  W34  1  0.827531  0.827548  0.499916  1
  W  W35  1  0.172452  0.172469  0.000084  1
