# generated using pymatgen
data_La3Th(InNi2)2
_symmetry_space_group_name_H-M   'P 1'
_cell_length_a   7.72699970
_cell_length_b   7.72699970
_cell_length_c   3.78238200
_cell_angle_alpha   90.00000000
_cell_angle_beta   90.00000000
_cell_angle_gamma   90.72979021
_symmetry_Int_Tables_number   1
_chemical_formula_structural   La3Th(InNi2)2
_chemical_formula_sum   'La3 Th1 In2 Ni4'
_cell_volume   225.81456405
_cell_formula_units_Z   1
loop_
 _symmetry_equiv_pos_site_id
 _symmetry_equiv_pos_as_xyz
  1  'x, y, z'
loop_
 _atom_site_type_symbol
 _atom_site_label
 _atom_site_symmetry_multiplicity
 _atom_site_fract_x
 _atom_site_fract_y
 _atom_site_fract_z
 _atom_site_occupancy
  La  La0  1  0.325226  0.825226  0.500000  1
  La  La1  1  0.174218  0.326741  0.500000  1
  La  La2  1  0.826741  0.674218  0.500000  1
  Th  Th3  1  0.673232  0.173232  0.500000  1
  In  In4  1  0.501720  0.498219  0.000000  1
  In  In5  1  0.998219  0.001720  0.000000  1
  Ni  Ni6  1  0.115266  0.615266  0.000000  1
  Ni  Ni7  1  0.865683  0.365683  0.000000  1
  Ni  Ni8  1  0.627157  0.892539  0.000000  1
  Ni  Ni9  1  0.392539  0.127157  0.000000  1
