# generated using pymatgen
data_Y9Tm11Bi12
_symmetry_space_group_name_H-M   'P 1'
_cell_length_a   8.21741758
_cell_length_b   9.44293106
_cell_length_c   12.03261176
_cell_angle_alpha   89.99067385
_cell_angle_beta   90.09021379
_cell_angle_gamma   89.99064096
_symmetry_Int_Tables_number   1
_chemical_formula_structural   Y9Tm11Bi12
_chemical_formula_sum   'Y9 Tm11 Bi12'
_cell_volume   933.68746911
_cell_formula_units_Z   1
loop_
 _symmetry_equiv_pos_site_id
 _symmetry_equiv_pos_as_xyz
  1  'x, y, z'
loop_
 _atom_site_type_symbol
 _atom_site_label
 _atom_site_symmetry_multiplicity
 _atom_site_fract_x
 _atom_site_fract_y
 _atom_site_fract_z
 _atom_site_occupancy
  Y  Y0  1  0.186323  0.750092  0.718638  1
  Y  Y1  1  0.686516  0.750104  0.781567  1
  Y  Y2  1  0.813553  0.249328  0.280991  1
  Y  Y3  1  0.313489  0.249813  0.218280  1
  Y  Y4  1  0.807711  0.437315  0.559206  1
  Y  Y5  1  0.353824  0.749909  0.216277  1
  Y  Y6  1  0.853338  0.749479  0.283696  1
  Y  Y7  1  0.645110  0.248723  0.784258  1
  Y  Y8  1  0.146993  0.249072  0.716593  1
  Tm  Tm9  1  0.025063  0.749840  0.989124  1
  Tm  Tm10  1  0.524671  0.749992  0.511070  1
  Tm  Tm11  1  0.974947  0.249850  0.011017  1
  Tm  Tm12  1  0.474173  0.249380  0.488917  1
  Tm  Tm13  1  0.307283  0.434011  0.940767  1
  Tm  Tm14  1  0.807177  0.066210  0.559547  1
  Tm  Tm15  1  0.692729  0.933981  0.059245  1
  Tm  Tm16  1  0.192563  0.566172  0.440620  1
  Tm  Tm17  1  0.692587  0.566130  0.059260  1
  Tm  Tm18  1  0.193411  0.934149  0.440323  1
  Tm  Tm19  1  0.307258  0.065886  0.940907  1
  Bi  Bi20  1  0.433834  0.003469  0.672300  1
  Bi  Bi21  1  0.934210  0.495731  0.828165  1
  Bi  Bi22  1  0.566060  0.503549  0.327609  1
  Bi  Bi23  1  0.066172  0.995765  0.172046  1
  Bi  Bi24  1  0.566024  0.995887  0.327835  1
  Bi  Bi25  1  0.066394  0.503889  0.171896  1
  Bi  Bi26  1  0.433338  0.495796  0.672338  1
  Bi  Bi27  1  0.933960  0.003814  0.828062  1
  Bi  Bi28  1  0.405689  0.750005  0.957731  1
  Bi  Bi29  1  0.906990  0.753041  0.541626  1
  Bi  Bi30  1  0.594347  0.250145  0.042529  1
  Bi  Bi31  1  0.094264  0.249473  0.457562  1
