# generated using pymatgen
data_Ca12YbPr(InN4)2
_symmetry_space_group_name_H-M   'P 1'
_cell_length_a   3.60824800
_cell_length_b   12.13044412
_cell_length_c   11.69112608
_cell_angle_alpha   90.04929737
_cell_angle_beta   90.00000000
_cell_angle_gamma   90.00000000
_symmetry_Int_Tables_number   1
_chemical_formula_structural   Ca12YbPr(InN4)2
_chemical_formula_sum   'Ca12 Yb1 Pr1 In2 N8'
_cell_volume   511.71631600
_cell_formula_units_Z   1
loop_
 _symmetry_equiv_pos_site_id
 _symmetry_equiv_pos_as_xyz
  1  'x, y, z'
loop_
 _atom_site_type_symbol
 _atom_site_label
 _atom_site_symmetry_multiplicity
 _atom_site_fract_x
 _atom_site_fract_y
 _atom_site_fract_z
 _atom_site_occupancy
  Ca  Ca0  1  0.499259  0.672726  0.239342  1
  Ca  Ca1  1  0.499259  0.327274  0.760658  1
  Ca  Ca2  1  0.500832  0.169284  0.266343  1
  Ca  Ca3  1  0.500832  0.830716  0.733657  1
  Ca  Ca4  1  0.000667  0.929730  0.267154  1
  Ca  Ca5  1  0.000667  0.070270  0.732846  1
  Ca  Ca6  1  0.999462  0.425807  0.241648  1
  Ca  Ca7  1  0.999462  0.574193  0.758352  1
  Ca  Ca8  1  0.001276  0.766911  0.478852  1
  Ca  Ca9  1  0.001276  0.233089  0.521148  1
  Ca  Ca10  1  0.998499  0.257825  0.023056  1
  Ca  Ca11  1  0.998499  0.742175  0.976944  1
  Yb  Yb12  1  0.501117  0.000000  0.500000  1
  Pr  Pr13  1  0.499062  0.500000  0.000000  1
  In  In14  1  0.508820  0.500000  0.500000  1
  In  In15  1  0.490949  0.000000  0.000000  1
  N  N16  1  0.998813  0.598508  0.124511  1
  N  N17  1  0.998813  0.401492  0.875489  1
  N  N18  1  0.001206  0.100144  0.372387  1
  N  N19  1  0.001206  0.899856  0.627613  1
  N  N20  1  0.500942  0.832304  0.358197  1
  N  N21  1  0.500942  0.167696  0.641803  1
  N  N22  1  0.499070  0.334914  0.139336  1
  N  N23  1  0.499070  0.665086  0.860664  1
