# generated using pymatgen
data_Dy5Er(Tm2Sn3)2
_symmetry_space_group_name_H-M   'P 1'
_cell_length_a   6.48318700
_cell_length_b   8.92156418
_cell_length_c   8.92810901
_cell_angle_alpha   120.01911559
_cell_angle_beta   89.99994780
_cell_angle_gamma   90.00047280
_symmetry_Int_Tables_number   1
_chemical_formula_structural   Dy5Er(Tm2Sn3)2
_chemical_formula_sum   'Dy5 Er1 Tm4 Sn6'
_cell_volume   447.13223665
_cell_formula_units_Z   1
loop_
 _symmetry_equiv_pos_site_id
 _symmetry_equiv_pos_as_xyz
  1  'x, y, z'
loop_
 _atom_site_type_symbol
 _atom_site_label
 _atom_site_symmetry_multiplicity
 _atom_site_fract_x
 _atom_site_fract_y
 _atom_site_fract_z
 _atom_site_occupancy
  Dy  Dy0  1  0.750003  0.239178  0.999882  1
  Dy  Dy1  1  0.750012  0.760733  0.760656  1
  Dy  Dy2  1  0.750011  0.999966  0.239527  1
  Dy  Dy3  1  0.250004  0.760731  0.999877  1
  Dy  Dy4  1  0.250012  0.239356  0.239212  1
  Er  Er5  1  0.249984  0.000021  0.760539  1
  Tm  Tm6  1  0.499946  0.333290  0.666730  1
  Tm  Tm7  1  0.499948  0.666698  0.333371  1
  Tm  Tm8  1  0.000042  0.666709  0.333373  1
  Tm  Tm9  1  0.000045  0.333301  0.666730  1
  Sn  Sn10  1  0.749994  0.604529  0.999984  1
  Sn  Sn11  1  0.750005  0.395400  0.395379  1
  Sn  Sn12  1  0.750003  0.000020  0.604573  1
  Sn  Sn13  1  0.249992  0.394966  0.999678  1
  Sn  Sn14  1  0.249998  0.605103  0.604799  1
  Sn  Sn15  1  0.250000  0.000000  0.395692  1
