# generated using pymatgen
data_Y5Ho3Re(B8Os)3
_symmetry_space_group_name_H-M   'P 1'
_cell_length_a   3.66330200
_cell_length_b   9.15751203
_cell_length_c   11.54599001
_cell_angle_alpha   90.09135913
_cell_angle_beta   90.00000000
_cell_angle_gamma   90.00000000
_symmetry_Int_Tables_number   1
_chemical_formula_structural   Y5Ho3Re(B8Os)3
_chemical_formula_sum   'Y5 Ho3 Re1 B24 Os3'
_cell_volume   387.32974151
_cell_formula_units_Z   1
loop_
 _symmetry_equiv_pos_site_id
 _symmetry_equiv_pos_as_xyz
  1  'x, y, z'
loop_
 _atom_site_type_symbol
 _atom_site_label
 _atom_site_symmetry_multiplicity
 _atom_site_fract_x
 _atom_site_fract_y
 _atom_site_fract_z
 _atom_site_occupancy
  Y  Y0  1  0.000000  0.322398  0.414861  1
  Y  Y1  1  0.000000  0.680113  0.588198  1
  Y  Y2  1  0.000000  0.822393  0.083586  1
  Y  Y3  1  0.000000  0.176605  0.913177  1
  Y  Y4  1  0.000000  0.943415  0.372224  1
  Ho  Ho5  1  0.000000  0.056050  0.627969  1
  Ho  Ho6  1  0.000000  0.442915  0.127744  1
  Ho  Ho7  1  0.000000  0.556560  0.872746  1
  Re  Re8  1  0.000000  0.862402  0.821203  1
  B  B9  1  0.500000  0.553861  0.432996  1
  B  B10  1  0.500000  0.446163  0.567372  1
  B  B11  1  0.500000  0.053787  0.067485  1
  B  B12  1  0.500000  0.946963  0.932879  1
  B  B13  1  0.500000  0.747976  0.419258  1
  B  B14  1  0.500000  0.251742  0.580747  1
  B  B15  1  0.500000  0.248173  0.080951  1
  B  B16  1  0.500000  0.751507  0.919011  1
  B  B17  1  0.500000  0.790039  0.266133  1
  B  B18  1  0.500000  0.209245  0.732964  1
  B  B19  1  0.500000  0.290904  0.233683  1
  B  B20  1  0.500000  0.708599  0.766329  1
  B  B21  1  0.500000  0.630818  0.185580  1
  B  B22  1  0.500000  0.368655  0.813997  1
  B  B23  1  0.500000  0.131901  0.314417  1
  B  B24  1  0.500000  0.868824  0.685844  1
  B  B25  1  0.500000  0.983676  0.212530  1
  B  B26  1  0.500000  0.017458  0.787053  1
  B  B27  1  0.500000  0.483216  0.287563  1
  B  B28  1  0.500000  0.516701  0.712954  1
  B  B29  1  0.500000  0.605464  0.029900  1
  B  B30  1  0.500000  0.392998  0.970702  1
  B  B31  1  0.500000  0.107366  0.470246  1
  B  B32  1  0.500000  0.893463  0.529321  1
  Os  Os33  1  0.000000  0.636725  0.321243  1
  Os  Os34  1  0.000000  0.362531  0.678252  1
  Os  Os35  1  0.000000  0.138397  0.178885  1
