# generated using pymatgen
data_Er3Tm9Co4CuSn
_symmetry_space_group_name_H-M   'P 1'
_cell_length_a   8.19987105
_cell_length_b   8.19974859
_cell_length_c   8.20160311
_cell_angle_alpha   111.11598010
_cell_angle_beta   110.55554385
_cell_angle_gamma   106.76657926
_symmetry_Int_Tables_number   1
_chemical_formula_structural   Er3Tm9Co4CuSn
_chemical_formula_sum   'Er3 Tm9 Co4 Cu1 Sn1'
_cell_volume   423.84146476
_cell_formula_units_Z   1
loop_
 _symmetry_equiv_pos_site_id
 _symmetry_equiv_pos_as_xyz
  1  'x, y, z'
loop_
 _atom_site_type_symbol
 _atom_site_label
 _atom_site_symmetry_multiplicity
 _atom_site_fract_x
 _atom_site_fract_y
 _atom_site_fract_z
 _atom_site_occupancy
  Er  Er0  1  0.813941  0.711075  0.524782  1
  Er  Er1  1  0.186195  0.710536  0.896526  1
  Er  Er2  1  0.814309  0.288881  0.102914  1
  Tm  Tm3  1  0.314187  0.619016  0.304988  1
  Tm  Tm4  1  0.685313  0.380745  0.694968  1
  Tm  Tm5  1  0.314262  0.009622  0.694983  1
  Tm  Tm6  1  0.685903  0.990777  0.304923  1
  Tm  Tm7  1  0.417316  0.217044  0.200710  1
  Tm  Tm8  1  0.581843  0.782391  0.798982  1
  Tm  Tm9  1  0.016555  0.217127  0.798976  1
  Tm  Tm10  1  0.983714  0.783372  0.200705  1
  Tm  Tm11  1  0.185870  0.289024  0.474997  1
  Co  Co12  1  0.113870  0.613185  0.500060  1
  Co  Co13  1  0.886816  0.386141  0.500106  1
  Co  Co14  1  0.376153  0.000337  0.376545  1
  Co  Co15  1  0.623758  0.999979  0.623812  1
  Cu  Cu16  1  0.999698  0.000561  0.000431  1
  Sn  Sn17  1  0.500298  0.500188  0.000592  1
