# generated using pymatgen
data_ErAlFeB6
_symmetry_space_group_name_H-M   'P 1'
_cell_length_a   3.33658600
_cell_length_b   8.72054800
_cell_length_c   11.11239100
_cell_angle_alpha   90.00000000
_cell_angle_beta   90.00000000
_cell_angle_gamma   90.00000000
_symmetry_Int_Tables_number   1
_chemical_formula_structural   ErAlFeB6
_chemical_formula_sum   'Er4 Al4 Fe4 B24'
_cell_volume   323.33566707
_cell_formula_units_Z   4
loop_
 _symmetry_equiv_pos_site_id
 _symmetry_equiv_pos_as_xyz
  1  'x, y, z'
loop_
 _atom_site_type_symbol
 _atom_site_label
 _atom_site_symmetry_multiplicity
 _atom_site_fract_x
 _atom_site_fract_y
 _atom_site_fract_z
 _atom_site_occupancy
  Er  Er0  1  0.000000  0.822115  0.084565  1
  Er  Er1  1  0.000000  0.177885  0.915435  1
  Er  Er2  1  0.000000  0.322115  0.415435  1
  Er  Er3  1  0.000000  0.677885  0.584565  1
  Al  Al4  1  0.000000  0.445856  0.125638  1
  Al  Al5  1  0.000000  0.554144  0.874362  1
  Al  Al6  1  0.000000  0.945856  0.374362  1
  Al  Al7  1  0.000000  0.054144  0.625638  1
  Fe  Fe8  1  0.000000  0.142591  0.183799  1
  Fe  Fe9  1  0.000000  0.857409  0.816201  1
  Fe  Fe10  1  0.000000  0.642591  0.316201  1
  Fe  Fe11  1  0.000000  0.357409  0.683799  1
  B  B12  1  0.500000  0.057399  0.069195  1
  B  B13  1  0.500000  0.942601  0.930805  1
  B  B14  1  0.500000  0.557399  0.430805  1
  B  B15  1  0.500000  0.442601  0.569195  1
  B  B16  1  0.500000  0.255405  0.083393  1
  B  B17  1  0.500000  0.744595  0.916607  1
  B  B18  1  0.500000  0.755405  0.416607  1
  B  B19  1  0.500000  0.244595  0.583393  1
  B  B20  1  0.500000  0.293857  0.235962  1
  B  B21  1  0.500000  0.706143  0.764038  1
  B  B22  1  0.500000  0.793857  0.264038  1
  B  B23  1  0.500000  0.206143  0.735962  1
  B  B24  1  0.500000  0.126776  0.318166  1
  B  B25  1  0.500000  0.873224  0.681834  1
  B  B26  1  0.500000  0.626776  0.181834  1
  B  B27  1  0.500000  0.373224  0.818166  1
  B  B28  1  0.500000  0.482847  0.285614  1
  B  B29  1  0.500000  0.517153  0.714386  1
  B  B30  1  0.500000  0.982847  0.214386  1
  B  B31  1  0.500000  0.017153  0.785614  1
  B  B32  1  0.500000  0.097256  0.474254  1
  B  B33  1  0.500000  0.902744  0.525746  1
  B  B34  1  0.500000  0.597256  0.025746  1
  B  B35  1  0.500000  0.402744  0.974254  1
