# generated using pymatgen
data_TbYbMg2(B6Os)2
_symmetry_space_group_name_H-M   'P 1'
_cell_length_a   3.56113100
_cell_length_b   8.91049999
_cell_length_c   11.27688628
_cell_angle_alpha   89.97910857
_cell_angle_beta   90.00000000
_cell_angle_gamma   90.00000000
_symmetry_Int_Tables_number   1
_chemical_formula_structural   TbYbMg2(B6Os)2
_chemical_formula_sum   'Tb2 Yb2 Mg4 B24 Os4'
_cell_volume   357.83201660
_cell_formula_units_Z   2
loop_
 _symmetry_equiv_pos_site_id
 _symmetry_equiv_pos_as_xyz
  1  'x, y, z'
loop_
 _atom_site_type_symbol
 _atom_site_label
 _atom_site_symmetry_multiplicity
 _atom_site_fract_x
 _atom_site_fract_y
 _atom_site_fract_z
 _atom_site_occupancy
  Tb  Tb0  1  0.000000  0.822423  0.086457  1
  Tb  Tb1  1  0.000000  0.177577  0.913543  1
  Yb  Yb2  1  0.000000  0.322941  0.414748  1
  Yb  Yb3  1  0.000000  0.677059  0.585252  1
  Mg  Mg4  1  0.000000  0.943710  0.373669  1
  Mg  Mg5  1  0.000000  0.056290  0.626332  1
  Mg  Mg6  1  0.000000  0.443596  0.130285  1
  Mg  Mg7  1  0.000000  0.556404  0.869714  1
  B  B8  1  0.500000  0.554333  0.432446  1
  B  B9  1  0.500000  0.445667  0.567554  1
  B  B10  1  0.500000  0.055529  0.067818  1
  B  B11  1  0.500000  0.944471  0.932182  1
  B  B12  1  0.500000  0.754394  0.418059  1
  B  B13  1  0.500000  0.245606  0.581941  1
  B  B14  1  0.500000  0.255576  0.082850  1
  B  B15  1  0.500000  0.744424  0.917150  1
  B  B16  1  0.500000  0.794106  0.263306  1
  B  B17  1  0.500000  0.205894  0.736694  1
  B  B18  1  0.500000  0.294467  0.237476  1
  B  B19  1  0.500000  0.705532  0.762524  1
  B  B20  1  0.500000  0.627573  0.182535  1
  B  B21  1  0.500000  0.372427  0.817465  1
  B  B22  1  0.500000  0.128729  0.318167  1
  B  B23  1  0.500000  0.871271  0.681833  1
  B  B24  1  0.500000  0.980336  0.213467  1
  B  B25  1  0.500000  0.019664  0.786533  1
  B  B26  1  0.500000  0.479713  0.288006  1
  B  B27  1  0.500000  0.520287  0.711994  1
  B  B28  1  0.500000  0.592278  0.025339  1
  B  B29  1  0.500000  0.407722  0.974661  1
  B  B30  1  0.500000  0.092204  0.475110  1
  B  B31  1  0.500000  0.907796  0.524890  1
  Os  Os32  1  0.000000  0.641800  0.317741  1
  Os  Os33  1  0.000000  0.358200  0.682259  1
  Os  Os34  1  0.000000  0.139634  0.182209  1
  Os  Os35  1  0.000000  0.860366  0.817791  1
