# generated using pymatgen
data_LaNdAl9OsPt2
_symmetry_space_group_name_H-M   'P 1'
_cell_length_a   7.70137266
_cell_length_b   7.69991881
_cell_length_c   9.66381420
_cell_angle_alpha   90.07539431
_cell_angle_beta   90.12902865
_cell_angle_gamma   119.62914440
_symmetry_Int_Tables_number   1
_chemical_formula_structural   LaNdAl9OsPt2
_chemical_formula_sum   'La2 Nd2 Al18 Os2 Pt4'
_cell_volume   498.12867612
_cell_formula_units_Z   2
loop_
 _symmetry_equiv_pos_site_id
 _symmetry_equiv_pos_as_xyz
  1  'x, y, z'
loop_
 _atom_site_type_symbol
 _atom_site_label
 _atom_site_symmetry_multiplicity
 _atom_site_fract_x
 _atom_site_fract_y
 _atom_site_fract_z
 _atom_site_occupancy
  La  La0  1  0.004820  0.330466  0.749848  1
  La  La1  1  0.331878  0.005986  0.749390  1
  Nd  Nd2  1  0.993608  0.667389  0.250514  1
  Nd  Nd3  1  0.669756  0.996515  0.250069  1
  Al  Al4  1  0.660137  0.991301  0.927711  1
  Al  Al5  1  0.997774  0.670981  0.571335  1
  Al  Al6  1  0.128795  0.127516  0.252806  1
  Al  Al7  1  0.661888  0.666670  0.052258  1
  Al  Al8  1  0.331427  0.331465  0.547120  1
  Al  Al9  1  0.335208  0.339720  0.953764  1
  Al  Al10  1  0.670151  0.670218  0.446685  1
  Al  Al11  1  0.333831  0.996101  0.076303  1
  Al  Al12  1  0.001503  0.328489  0.423903  1
  Al  Al13  1  0.340571  0.547468  0.246641  1
  Al  Al14  1  0.007513  0.340092  0.076311  1
  Al  Al15  1  0.541628  0.339409  0.249977  1
  Al  Al16  1  0.660406  0.460247  0.749917  1
  Al  Al17  1  0.868798  0.867590  0.746763  1
  Al  Al18  1  0.002073  0.665858  0.928057  1
  Al  Al19  1  0.671404  0.997061  0.572032  1
  Al  Al20  1  0.328713  0.000423  0.424569  1
  Al  Al21  1  0.455959  0.659349  0.753904  1
  Os  Os22  1  0.000354  0.999838  0.499751  1
  Os  Os23  1  0.329345  0.671204  0.000552  1
  Pt  Pt24  1  0.671376  0.329242  0.499218  1
  Pt  Pt25  1  0.671540  0.328743  0.000723  1
  Pt  Pt26  1  0.329639  0.671074  0.499219  1
  Pt  Pt27  1  0.999901  0.999585  0.000660  1
