# generated using pymatgen
data_TbEuBPd6
_symmetry_space_group_name_H-M   'P 1'
_cell_length_a   5.98711502
_cell_length_b   5.98711393
_cell_length_c   5.98711500
_cell_angle_alpha   59.99999960
_cell_angle_beta   60.00000565
_cell_angle_gamma   60.00000090
_symmetry_Int_Tables_number   1
_chemical_formula_structural   TbEuBPd6
_chemical_formula_sum   'Tb1 Eu1 B1 Pd6'
_cell_volume   151.75316113
_cell_formula_units_Z   1
loop_
 _symmetry_equiv_pos_site_id
 _symmetry_equiv_pos_as_xyz
  1  'x, y, z'
loop_
 _atom_site_type_symbol
 _atom_site_label
 _atom_site_symmetry_multiplicity
 _atom_site_fract_x
 _atom_site_fract_y
 _atom_site_fract_z
 _atom_site_occupancy
  Tb  Tb0  1  0.750000  0.750000  0.750000  1
  Eu  Eu1  1  0.250001  0.250001  0.250001  1
  B  B2  1  0.500000  0.500000  0.500000  1
  Pd  Pd3  1  0.244332  0.755668  0.244332  1
  Pd  Pd4  1  0.755668  0.244332  0.244332  1
  Pd  Pd5  1  0.755668  0.755668  0.244332  1
  Pd  Pd6  1  0.244332  0.244332  0.755668  1
  Pd  Pd7  1  0.755668  0.244332  0.755668  1
  Pd  Pd8  1  0.244332  0.755668  0.755668  1
