# generated using pymatgen
data_Y8Ta9Nb3Si16
_symmetry_space_group_name_H-M   'P 1'
_cell_length_a   7.05751944
_cell_length_b   7.05864849
_cell_length_c   13.04039825
_cell_angle_alpha   90.00659117
_cell_angle_beta   89.96053629
_cell_angle_gamma   89.96235700
_symmetry_Int_Tables_number   1
_chemical_formula_structural   Y8Ta9Nb3Si16
_chemical_formula_sum   'Y8 Ta9 Nb3 Si16'
_cell_volume   649.62733928
_cell_formula_units_Z   1
loop_
 _symmetry_equiv_pos_site_id
 _symmetry_equiv_pos_as_xyz
  1  'x, y, z'
loop_
 _atom_site_type_symbol
 _atom_site_label
 _atom_site_symmetry_multiplicity
 _atom_site_fract_x
 _atom_site_fract_y
 _atom_site_fract_z
 _atom_site_occupancy
  Y  Y0  1  0.998044  0.340622  0.218183  1
  Y  Y1  1  0.001729  0.659299  0.718190  1
  Y  Y2  1  0.159477  0.498037  0.468219  1
  Y  Y3  1  0.501000  0.840459  0.031893  1
  Y  Y4  1  0.840480  0.502028  0.968213  1
  Y  Y5  1  0.498897  0.159413  0.531916  1
  Y  Y6  1  0.340706  0.998746  0.781777  1
  Y  Y7  1  0.659415  0.000885  0.281788  1
  Ta  Ta8  1  0.170533  0.171059  0.999719  1
  Ta  Ta9  1  0.829902  0.829479  0.500104  1
  Ta  Ta10  1  0.329458  0.669935  0.249934  1
  Ta  Ta11  1  0.670283  0.330032  0.750272  1
  Ta  Ta12  1  0.154505  0.991383  0.376034  1
  Ta  Ta13  1  0.845400  0.008495  0.876012  1
  Ta  Ta14  1  0.508087  0.654960  0.626339  1
  Ta  Ta15  1  0.345661  0.492541  0.874079  1
  Ta  Ta16  1  0.491537  0.345681  0.125893  1
  Nb  Nb17  1  0.654313  0.506810  0.374087  1
  Nb  Nb18  1  0.992940  0.154591  0.624166  1
  Nb  Nb19  1  0.006990  0.845736  0.123752  1
  Si  Si20  1  0.293651  0.044365  0.186392  1
  Si  Si21  1  0.706171  0.955973  0.686441  1
  Si  Si22  1  0.455770  0.793582  0.436506  1
  Si  Si23  1  0.205499  0.543902  0.063637  1
  Si  Si24  1  0.544362  0.206003  0.936371  1
  Si  Si25  1  0.794459  0.456195  0.563843  1
  Si  Si26  1  0.044284  0.294833  0.813843  1
  Si  Si27  1  0.956036  0.705325  0.313752  1
  Si  Si28  1  0.367264  0.295354  0.317722  1
  Si  Si29  1  0.632445  0.704407  0.818217  1
  Si  Si30  1  0.204384  0.867552  0.567718  1
  Si  Si31  1  0.132166  0.796186  0.931518  1
  Si  Si32  1  0.795852  0.132797  0.067733  1
  Si  Si33  1  0.868073  0.203099  0.431865  1
  Si  Si34  1  0.296832  0.368298  0.682057  1
  Si  Si35  1  0.703395  0.631933  0.181814  1
