# generated using pymatgen
data_Dy2Er2AlCo
_symmetry_space_group_name_H-M   'P 1'
_cell_length_a   9.36796367
_cell_length_b   9.36494810
_cell_length_c   9.36494849
_cell_angle_alpha   60.02130758
_cell_angle_beta   59.98935541
_cell_angle_gamma   59.98934916
_symmetry_Int_Tables_number   1
_chemical_formula_structural   Dy2Er2AlCo
_chemical_formula_sum   'Dy8 Er8 Al4 Co4'
_cell_volume   580.95289083
_cell_formula_units_Z   4
loop_
 _symmetry_equiv_pos_site_id
 _symmetry_equiv_pos_as_xyz
  1  'x, y, z'
loop_
 _atom_site_type_symbol
 _atom_site_label
 _atom_site_symmetry_multiplicity
 _atom_site_fract_x
 _atom_site_fract_y
 _atom_site_fract_z
 _atom_site_occupancy
  Dy  Dy0  1  0.562367  0.937633  0.562367  1
  Dy  Dy1  1  0.937633  0.562367  0.937633  1
  Dy  Dy2  1  0.562367  0.562367  0.937633  1
  Dy  Dy3  1  0.937633  0.937633  0.562367  1
  Dy  Dy4  1  0.349391  0.349665  0.349665  1
  Dy  Dy5  1  0.349665  0.349391  0.951278  1
  Dy  Dy6  1  0.349665  0.951278  0.349391  1
  Dy  Dy7  1  0.951278  0.349665  0.349665  1
  Er  Er8  1  0.808455  0.191545  0.191545  1
  Er  Er9  1  0.191545  0.808455  0.808455  1
  Er  Er10  1  0.191483  0.808517  0.191483  1
  Er  Er11  1  0.808517  0.191483  0.808517  1
  Er  Er12  1  0.191483  0.191483  0.808517  1
  Er  Er13  1  0.808517  0.808517  0.191483  1
  Er  Er14  1  0.938527  0.561473  0.561473  1
  Er  Er15  1  0.561473  0.938527  0.938527  1
  Al  Al16  1  0.577553  0.577202  0.577202  1
  Al  Al17  1  0.577202  0.577553  0.268042  1
  Al  Al18  1  0.577202  0.268042  0.577553  1
  Al  Al19  1  0.268042  0.577202  0.577202  1
  Co  Co20  1  0.140865  0.139901  0.139901  1
  Co  Co21  1  0.139901  0.140865  0.579332  1
  Co  Co22  1  0.139901  0.579332  0.140865  1
  Co  Co23  1  0.579332  0.139901  0.139901  1
