# generated using pymatgen
data_Sr6SmTmSb6
_symmetry_space_group_name_H-M   'P 1'
_cell_length_a   8.47824701
_cell_length_b   8.46012138
_cell_length_c   9.79477882
_cell_angle_alpha   55.46063251
_cell_angle_beta   55.29147468
_cell_angle_gamma   71.04965622
_symmetry_Int_Tables_number   1
_chemical_formula_structural   Sr6SmTmSb6
_chemical_formula_sum   'Sr6 Sm1 Tm1 Sb6'
_cell_volume   475.73729574
_cell_formula_units_Z   1
loop_
 _symmetry_equiv_pos_site_id
 _symmetry_equiv_pos_as_xyz
  1  'x, y, z'
loop_
 _atom_site_type_symbol
 _atom_site_label
 _atom_site_symmetry_multiplicity
 _atom_site_fract_x
 _atom_site_fract_y
 _atom_site_fract_z
 _atom_site_occupancy
  Sr  Sr0  1  0.002218  0.136057  0.111596  1
  Sr  Sr1  1  0.863556  0.999642  0.887573  1
  Sr  Sr2  1  0.499322  0.854330  0.751568  1
  Sr  Sr3  1  0.145454  0.500729  0.248123  1
  Sr  Sr4  1  0.997463  0.645796  0.604802  1
  Sr  Sr5  1  0.354402  0.002062  0.395424  1
  Sm  Sm6  1  0.635185  0.498583  0.250950  1
  Tm  Tm7  1  0.501778  0.367752  0.747256  1
  Sb  Sb8  1  0.854384  0.144632  0.502563  1
  Sb  Sb9  1  0.623965  0.374158  0.996261  1
  Sb  Sb10  1  0.269772  0.262342  0.620101  1
  Sb  Sb11  1  0.734373  0.727009  0.387411  1
  Sb  Sb12  1  0.131693  0.610156  0.876621  1
  Sb  Sb13  1  0.386435  0.876752  0.119752  1
