# generated using pymatgen
data_Lu4Pa(In2Pt)2
_symmetry_space_group_name_H-M   'P 1'
_cell_length_a   3.55617100
_cell_length_b   8.05051600
_cell_length_c   18.14861500
_cell_angle_alpha   90.00000000
_cell_angle_beta   90.00000000
_cell_angle_gamma   90.00000000
_symmetry_Int_Tables_number   1
_chemical_formula_structural   Lu4Pa(In2Pt)2
_chemical_formula_sum   'Lu8 Pa2 In8 Pt4'
_cell_volume   519.57690817
_cell_formula_units_Z   2
loop_
 _symmetry_equiv_pos_site_id
 _symmetry_equiv_pos_as_xyz
  1  'x, y, z'
loop_
 _atom_site_type_symbol
 _atom_site_label
 _atom_site_symmetry_multiplicity
 _atom_site_fract_x
 _atom_site_fract_y
 _atom_site_fract_z
 _atom_site_occupancy
  Lu  Lu0  1  0.000000  0.125821  0.413750  1
  Lu  Lu1  1  0.000000  0.874179  0.586250  1
  Lu  Lu2  1  0.000000  0.374179  0.913750  1
  Lu  Lu3  1  0.000000  0.625821  0.086250  1
  Lu  Lu4  1  0.000000  0.245713  0.220121  1
  Lu  Lu5  1  0.000000  0.754287  0.779879  1
  Lu  Lu6  1  0.000000  0.254287  0.720121  1
  Lu  Lu7  1  0.000000  0.745713  0.279879  1
  Pa  Pa8  1  0.000000  0.000000  0.000000  1
  Pa  Pa9  1  0.000000  0.500000  0.500000  1
  In  In10  1  0.500000  0.427083  0.349949  1
  In  In11  1  0.500000  0.572917  0.650051  1
  In  In12  1  0.500000  0.072917  0.849949  1
  In  In13  1  0.500000  0.927083  0.150051  1
  In  In14  1  0.500000  0.299432  0.066974  1
  In  In15  1  0.500000  0.700568  0.933026  1
  In  In16  1  0.500000  0.200568  0.566974  1
  In  In17  1  0.500000  0.799432  0.433026  1
  Pt  Pt18  1  0.500000  0.028720  0.304063  1
  Pt  Pt19  1  0.500000  0.971280  0.695937  1
  Pt  Pt20  1  0.500000  0.471280  0.804063  1
  Pt  Pt21  1  0.500000  0.528720  0.195937  1
