# generated using pymatgen
data_Th2Mn2Fe8Co2P7
_symmetry_space_group_name_H-M   'P 1'
_cell_length_a   9.11393117
_cell_length_b   9.11477544
_cell_length_c   3.69317800
_cell_angle_alpha   90.00000000
_cell_angle_beta   90.00000000
_cell_angle_gamma   119.97480255
_symmetry_Int_Tables_number   1
_chemical_formula_structural   Th2Mn2Fe8Co2P7
_chemical_formula_sum   'Th2 Mn2 Fe8 Co2 P7'
_cell_volume   265.76195106
_cell_formula_units_Z   1
loop_
 _symmetry_equiv_pos_site_id
 _symmetry_equiv_pos_as_xyz
  1  'x, y, z'
loop_
 _atom_site_type_symbol
 _atom_site_label
 _atom_site_symmetry_multiplicity
 _atom_site_fract_x
 _atom_site_fract_y
 _atom_site_fract_z
 _atom_site_occupancy
  Th  Th0  1  0.330906  0.664132  0.000000  1
  Th  Th1  1  0.000198  0.000522  0.500000  1
  Mn  Mn2  1  0.774616  0.555147  0.500000  1
  Mn  Mn3  1  0.448915  0.219746  0.500000  1
  Fe  Fe4  1  0.236939  0.967115  0.000000  1
  Fe  Fe5  1  0.543267  0.059183  0.000000  1
  Fe  Fe6  1  0.938460  0.484029  0.000000  1
  Fe  Fe7  1  0.516278  0.454598  0.000000  1
  Fe  Fe8  1  0.616448  0.898926  0.500000  1
  Fe  Fe9  1  0.102178  0.716693  0.500000  1
  Fe  Fe10  1  0.280730  0.383774  0.500000  1
  Fe  Fe11  1  0.786956  0.231473  0.500000  1
  Co  Co12  1  0.031782  0.270088  0.000000  1
  Co  Co13  1  0.729631  0.763831  0.000000  1
  P  P14  1  0.766680  0.032804  0.000000  1
  P  P15  1  0.973637  0.739251  0.000000  1
  P  P16  1  0.262620  0.232219  0.000000  1
  P  P17  1  0.376444  0.934283  0.500000  1
  P  P18  1  0.058614  0.439156  0.500000  1
  P  P19  1  0.556533  0.621604  0.500000  1
  P  P20  1  0.668172  0.331420  0.000000  1
