# generated using pymatgen
data_ErMoN2
_symmetry_space_group_name_H-M   'P 1'
_cell_length_a   3.18443500
_cell_length_b   5.67428600
_cell_length_c   10.55675800
_cell_angle_alpha   90.00000000
_cell_angle_beta   90.00000000
_cell_angle_gamma   90.00000000
_symmetry_Int_Tables_number   1
_chemical_formula_structural   ErMoN2
_chemical_formula_sum   'Er4 Mo4 N8'
_cell_volume   190.75422957
_cell_formula_units_Z   4
loop_
 _symmetry_equiv_pos_site_id
 _symmetry_equiv_pos_as_xyz
  1  'x, y, z'
loop_
 _atom_site_type_symbol
 _atom_site_label
 _atom_site_symmetry_multiplicity
 _atom_site_fract_x
 _atom_site_fract_y
 _atom_site_fract_z
 _atom_site_occupancy
  Er  Er0  1  0.250000  0.080544  0.853480  1
  Er  Er1  1  0.250000  0.580544  0.646520  1
  Er  Er2  1  0.750000  0.919456  0.146520  1
  Er  Er3  1  0.750000  0.419456  0.353480  1
  Mo  Mo4  1  0.250000  0.431702  0.093621  1
  Mo  Mo5  1  0.250000  0.931702  0.406379  1
  Mo  Mo6  1  0.750000  0.568298  0.906379  1
  Mo  Mo7  1  0.750000  0.068298  0.593621  1
  N  N8  1  0.250000  0.162273  0.248534  1
  N  N9  1  0.250000  0.662273  0.251466  1
  N  N10  1  0.750000  0.837727  0.751466  1
  N  N11  1  0.750000  0.337727  0.748534  1
  N  N12  1  0.250000  0.762284  0.994434  1
  N  N13  1  0.250000  0.262284  0.505566  1
  N  N14  1  0.750000  0.237716  0.005566  1
  N  N15  1  0.750000  0.737716  0.494434  1
