# generated using pymatgen
data_TbPa(Be12Ni)2
_symmetry_space_group_name_H-M   'P 1'
_cell_length_a   7.25318657
_cell_length_b   7.31467447
_cell_length_c   7.23150849
_cell_angle_alpha   59.81496015
_cell_angle_beta   59.77826615
_cell_angle_gamma   59.52681682
_symmetry_Int_Tables_number   1
_chemical_formula_structural   TbPa(Be12Ni)2
_chemical_formula_sum   'Tb1 Pa1 Be24 Ni2'
_cell_volume   269.48094282
_cell_formula_units_Z   1
loop_
 _symmetry_equiv_pos_site_id
 _symmetry_equiv_pos_as_xyz
  1  'x, y, z'
loop_
 _atom_site_type_symbol
 _atom_site_label
 _atom_site_symmetry_multiplicity
 _atom_site_fract_x
 _atom_site_fract_y
 _atom_site_fract_z
 _atom_site_occupancy
  Tb  Tb0  1  0.249056  0.250915  0.249075  1
  Pa  Pa1  1  0.753615  0.746364  0.753613  1
  Be  Be2  1  0.499732  0.500282  0.499707  1
  Be  Be3  1  0.000524  0.999484  0.000517  1
  Be  Be4  1  0.568402  0.787922  0.434839  1
  Be  Be5  1  0.434865  0.208825  0.568400  1
  Be  Be6  1  0.295607  0.936067  0.706694  1
  Be  Be7  1  0.706697  0.061656  0.295588  1
  Be  Be8  1  0.932456  0.284186  0.066452  1
  Be  Be9  1  0.066420  0.716903  0.932476  1
  Be  Be10  1  0.206028  0.797895  0.558536  1
  Be  Be11  1  0.792375  0.202583  0.441109  1
  Be  Be12  1  0.441115  0.563935  0.792367  1
  Be  Be13  1  0.558554  0.437557  0.206013  1
  Be  Be14  1  0.711935  0.286535  0.935721  1
  Be  Be15  1  0.291035  0.716844  0.060944  1
  Be  Be16  1  0.060925  0.931201  0.291037  1
  Be  Be17  1  0.935712  0.065821  0.711935  1
  Be  Be18  1  0.562715  0.205724  0.793320  1
  Be  Be19  1  0.438722  0.792083  0.205213  1
  Be  Be20  1  0.793313  0.438246  0.562715  1
  Be  Be21  1  0.205227  0.563993  0.438701  1
  Be  Be22  1  0.935377  0.711514  0.291307  1
  Be  Be23  1  0.060887  0.289492  0.711777  1
  Be  Be24  1  0.291289  0.061799  0.935402  1
  Be  Be25  1  0.711763  0.937819  0.060906  1
  Ni  Ni26  1  0.798742  0.559584  0.196946  1
  Ni  Ni27  1  0.196912  0.444770  0.798691  1
