# generated using pymatgen
data_Y3LuAl8
_symmetry_space_group_name_H-M   'P 1'
_cell_length_a   9.61635043
_cell_length_b   9.61635053
_cell_length_c   9.61635100
_cell_angle_alpha   33.53397864
_cell_angle_beta   33.53397672
_cell_angle_gamma   33.53397830
_symmetry_Int_Tables_number   1
_chemical_formula_structural   Y3LuAl8
_chemical_formula_sum   'Y3 Lu1 Al8'
_cell_volume   241.72071205
_cell_formula_units_Z   1
loop_
 _symmetry_equiv_pos_site_id
 _symmetry_equiv_pos_as_xyz
  1  'x, y, z'
loop_
 _atom_site_type_symbol
 _atom_site_label
 _atom_site_symmetry_multiplicity
 _atom_site_fract_x
 _atom_site_fract_y
 _atom_site_fract_z
 _atom_site_occupancy
  Y  Y0  1  0.374905  0.374905  0.374905  1
  Y  Y1  1  0.999456  0.999456  0.999456  1
  Y  Y2  1  0.500486  0.500486  0.500486  1
  Lu  Lu3  1  0.874996  0.874996  0.874996  1
  Al  Al4  1  0.436915  0.936552  0.436915  1
  Al  Al5  1  0.937898  0.438875  0.937898  1
  Al  Al6  1  0.436915  0.436915  0.936552  1
  Al  Al7  1  0.937898  0.937898  0.438875  1
  Al  Al8  1  0.187629  0.187629  0.187629  1
  Al  Al9  1  0.687476  0.687476  0.687476  1
  Al  Al10  1  0.936552  0.436915  0.436915  1
  Al  Al11  1  0.438875  0.937898  0.937898  1
