# generated using pymatgen
data_La4Pr6AlSi4Ge
_symmetry_space_group_name_H-M   'P 1'
_cell_length_a   7.88624123
_cell_length_b   9.18600913
_cell_length_c   7.90444926
_cell_angle_alpha   115.56646474
_cell_angle_beta   89.82462957
_cell_angle_gamma   115.50373285
_symmetry_Int_Tables_number   1
_chemical_formula_structural   La4Pr6AlSi4Ge
_chemical_formula_sum   'La4 Pr6 Al1 Si4 Ge1'
_cell_volume   454.32315010
_cell_formula_units_Z   1
loop_
 _symmetry_equiv_pos_site_id
 _symmetry_equiv_pos_as_xyz
  1  'x, y, z'
loop_
 _atom_site_type_symbol
 _atom_site_label
 _atom_site_symmetry_multiplicity
 _atom_site_fract_x
 _atom_site_fract_y
 _atom_site_fract_z
 _atom_site_occupancy
  La  La0  1  0.975289  0.950579  0.975289  1
  La  La1  1  0.524468  0.048937  0.524468  1
  La  La2  1  0.528446  0.716112  0.673124  1
  La  La3  1  0.187668  0.716112  0.042990  1
  Pr  Pr4  1  0.674453  0.718371  0.191589  1
  Pr  Pr5  1  0.043920  0.718371  0.526784  1
  Pr  Pr6  1  0.455010  0.282616  0.310034  1
  Pr  Pr7  1  0.827604  0.282616  0.972580  1
  Pr  Pr8  1  0.310095  0.281546  0.826881  1
  Pr  Pr9  1  0.971449  0.281546  0.454663  1
  Al  Al10  1  0.749132  0.498263  0.749132  1
  Si  Si11  1  0.886946  0.001199  0.614184  1
  Si  Si12  1  0.114252  0.001199  0.387015  1
  Si  Si13  1  0.615168  0.001939  0.114868  1
  Si  Si14  1  0.386771  0.001939  0.887072  1
  Ge  Ge15  1  0.249328  0.498656  0.249328  1
