# generated using pymatgen
data_Ca2DyNi7B2
_symmetry_space_group_name_H-M   'P 1'
_cell_length_a   7.76844067
_cell_length_b   7.76844070
_cell_length_c   7.76844058
_cell_angle_alpha   38.25937245
_cell_angle_beta   38.25937333
_cell_angle_gamma   38.25937418
_symmetry_Int_Tables_number   1
_chemical_formula_structural   Ca2DyNi7B2
_chemical_formula_sum   'Ca2 Dy1 Ni7 B2'
_cell_volume   161.43853575
_cell_formula_units_Z   1
loop_
 _symmetry_equiv_pos_site_id
 _symmetry_equiv_pos_as_xyz
  1  'x, y, z'
loop_
 _atom_site_type_symbol
 _atom_site_label
 _atom_site_symmetry_multiplicity
 _atom_site_fract_x
 _atom_site_fract_y
 _atom_site_fract_z
 _atom_site_occupancy
  Ca  Ca0  1  0.646203  0.646203  0.646203  1
  Ca  Ca1  1  0.353797  0.353797  0.353797  1
  Dy  Dy2  1  0.500000  0.500000  0.500000  1
  Ni  Ni3  1  0.571584  0.061804  0.061804  1
  Ni  Ni4  1  0.061804  0.061804  0.571584  1
  Ni  Ni5  1  0.061804  0.571584  0.061804  1
  Ni  Ni6  1  0.938196  0.428416  0.938196  1
  Ni  Ni7  1  0.938196  0.938196  0.428416  1
  Ni  Ni8  1  0.428416  0.938196  0.938196  1
  Ni  Ni9  1  0.000000  0.000000  0.000000  1
  B  B10  1  0.831014  0.831014  0.831014  1
  B  B11  1  0.168986  0.168986  0.168986  1
