# generated using pymatgen
data_Tb2Lu2Al5Ni9
_symmetry_space_group_name_H-M   'P 1'
_cell_length_a   5.18699125
_cell_length_b   5.18699322
_cell_length_c   12.13610200
_cell_angle_alpha   77.66067824
_cell_angle_beta   77.66066217
_cell_angle_gamma   59.99999649
_symmetry_Int_Tables_number   1
_chemical_formula_structural   Tb2Lu2Al5Ni9
_chemical_formula_sum   'Tb2 Lu2 Al5 Ni9'
_cell_volume   274.03060627
_cell_formula_units_Z   1
loop_
 _symmetry_equiv_pos_site_id
 _symmetry_equiv_pos_as_xyz
  1  'x, y, z'
loop_
 _atom_site_type_symbol
 _atom_site_label
 _atom_site_symmetry_multiplicity
 _atom_site_fract_x
 _atom_site_fract_y
 _atom_site_fract_z
 _atom_site_occupancy
  Tb  Tb0  1  0.951779  0.951779  0.144662  1
  Tb  Tb1  1  0.048221  0.048221  0.855338  1
  Lu  Lu2  1  0.854905  0.854905  0.435287  1
  Lu  Lu3  1  0.145095  0.145095  0.564713  1
  Al  Al4  1  0.500000  0.500000  0.500000  1
  Al  Al5  1  0.722533  0.722533  0.832404  1
  Al  Al6  1  0.277467  0.277467  0.167596  1
  Al  Al7  1  0.610113  0.610113  0.169660  1
  Al  Al8  1  0.389887  0.389887  0.830340  1
  Ni  Ni9  1  0.000000  0.500000  0.000000  1
  Ni  Ni10  1  0.500000  0.000000  0.000000  1
  Ni  Ni11  1  0.500000  0.500000  0.000000  1
  Ni  Ni12  1  0.386204  0.386204  0.333824  1
  Ni  Ni13  1  0.893770  0.386204  0.333824  1
  Ni  Ni14  1  0.386204  0.893770  0.333824  1
  Ni  Ni15  1  0.613796  0.613796  0.666176  1
  Ni  Ni16  1  0.106230  0.613796  0.666176  1
  Ni  Ni17  1  0.613796  0.106230  0.666176  1
