# generated using pymatgen
data_Hf3Zr15(CuP2)4
_symmetry_space_group_name_H-M   'P 1'
_cell_length_a   12.11254721
_cell_length_b   12.11254721
_cell_length_c   3.69747100
_cell_angle_alpha   90.00000000
_cell_angle_beta   90.00000000
_cell_angle_gamma   90.02121059
_symmetry_Int_Tables_number   1
_chemical_formula_structural   Hf3Zr15(CuP2)4
_chemical_formula_sum   'Hf3 Zr15 Cu4 P8'
_cell_volume   542.46998309
_cell_formula_units_Z   1
loop_
 _symmetry_equiv_pos_site_id
 _symmetry_equiv_pos_as_xyz
  1  'x, y, z'
loop_
 _atom_site_type_symbol
 _atom_site_label
 _atom_site_symmetry_multiplicity
 _atom_site_fract_x
 _atom_site_fract_y
 _atom_site_fract_z
 _atom_site_occupancy
  Hf  Hf0  1  0.096136  0.403864  0.000000  1
  Hf  Hf1  1  0.404259  0.904323  0.000000  1
  Hf  Hf2  1  0.595677  0.095741  0.000000  1
  Zr  Zr3  1  0.999922  0.000143  0.000000  1
  Zr  Zr4  1  0.499857  0.500078  0.000000  1
  Zr  Zr5  1  0.101295  0.179969  0.500000  1
  Zr  Zr6  1  0.180377  0.898801  0.500000  1
  Zr  Zr7  1  0.819943  0.101262  0.500000  1
  Zr  Zr8  1  0.898855  0.820442  0.500000  1
  Zr  Zr9  1  0.398738  0.680057  0.500000  1
  Zr  Zr10  1  0.601199  0.319623  0.500000  1
  Zr  Zr11  1  0.679558  0.601145  0.500000  1
  Zr  Zr12  1  0.320031  0.398705  0.500000  1
  Zr  Zr13  1  0.904273  0.595727  0.000000  1
  Zr  Zr14  1  0.384229  0.115771  0.500000  1
  Zr  Zr15  1  0.116989  0.615967  0.500000  1
  Zr  Zr16  1  0.884033  0.383011  0.500000  1
  Zr  Zr17  1  0.615661  0.884339  0.500000  1
  Cu  Cu18  1  0.255512  0.244488  0.000000  1
  Cu  Cu19  1  0.244984  0.744860  0.000000  1
  Cu  Cu20  1  0.755140  0.255016  0.000000  1
  Cu  Cu21  1  0.743797  0.756203  0.000000  1
  P  P22  1  0.226122  0.053247  0.000000  1
  P  P23  1  0.053941  0.774839  0.000000  1
  P  P24  1  0.946788  0.225830  0.000000  1
  P  P25  1  0.773763  0.947162  0.000000  1
  P  P26  1  0.274170  0.553212  0.000000  1
  P  P27  1  0.725161  0.446059  0.000000  1
  P  P28  1  0.552838  0.726237  0.000000  1
  P  P29  1  0.446753  0.273878  0.000000  1
