# generated using pymatgen
data_Tb2U3P12Ru19
_symmetry_space_group_name_H-M   'P 1'
_cell_length_a   3.93250500
_cell_length_b   12.58795721
_cell_length_c   12.58780700
_cell_angle_alpha   120.00039354
_cell_angle_beta   90.00000000
_cell_angle_gamma   90.00000000
_symmetry_Int_Tables_number   1
_chemical_formula_structural   Tb2U3P12Ru19
_chemical_formula_sum   'Tb2 U3 P12 Ru19'
_cell_volume   539.63924583
_cell_formula_units_Z   1
loop_
 _symmetry_equiv_pos_site_id
 _symmetry_equiv_pos_as_xyz
  1  'x, y, z'
loop_
 _atom_site_type_symbol
 _atom_site_label
 _atom_site_symmetry_multiplicity
 _atom_site_fract_x
 _atom_site_fract_y
 _atom_site_fract_z
 _atom_site_occupancy
  Tb  Tb0  1  0.000000  0.333323  0.666666  1
  Tb  Tb1  1  0.000000  0.666657  0.333334  1
  U  U2  1  0.500000  0.999998  0.186593  1
  U  U3  1  0.500000  0.186601  0.000000  1
  U  U4  1  0.500000  0.813406  0.813407  1
  P  P5  1  0.000000  0.000004  0.817534  1
  P  P6  1  0.000000  0.817541  0.000000  1
  P  P7  1  0.000000  0.182469  0.182466  1
  P  P8  1  0.500000  0.308393  0.479728  1
  P  P9  1  0.500000  0.171333  0.691592  1
  P  P10  1  0.500000  0.520250  0.828673  1
  P  P11  1  0.500000  0.828665  0.520272  1
  P  P12  1  0.500000  0.479740  0.308408  1
  P  P13  1  0.500000  0.691578  0.171327  1
  P  P14  1  0.000000  0.999995  0.374352  1
  P  P15  1  0.000000  0.374347  0.000000  1
  P  P16  1  0.000000  0.625643  0.625648  1
  Ru  Ru17  1  0.000000  0.000015  0.556391  1
  Ru  Ru18  1  0.000000  0.556371  0.000000  1
  Ru  Ru19  1  0.000000  0.443624  0.443609  1
  Ru  Ru20  1  0.500000  0.000005  0.717993  1
  Ru  Ru21  1  0.500000  0.717994  0.000000  1
  Ru  Ru22  1  0.500000  0.282012  0.282007  1
  Ru  Ru23  1  0.000000  0.186467  0.369596  1
  Ru  Ru24  1  0.000000  0.183149  0.813554  1
  Ru  Ru25  1  0.000000  0.630391  0.816861  1
  Ru  Ru26  1  0.000000  0.816871  0.630404  1
  Ru  Ru27  1  0.000000  0.369595  0.186446  1
  Ru  Ru28  1  0.000000  0.813530  0.183139  1
  Ru  Ru29  1  0.500000  0.126117  0.490238  1
  Ru  Ru30  1  0.500000  0.364100  0.873872  1
  Ru  Ru31  1  0.500000  0.509738  0.635879  1
  Ru  Ru32  1  0.500000  0.635878  0.509762  1
  Ru  Ru33  1  0.500000  0.490229  0.126128  1
  Ru  Ru34  1  0.500000  0.873859  0.364121  1
  Ru  Ru35  1  0.000000  0.000009  0.000000  1
