# generated using pymatgen
data_DyLu2(AlNi)3
_symmetry_space_group_name_H-M   'P 1'
_cell_length_a   6.93234566
_cell_length_b   6.94626119
_cell_length_c   3.79279400
_cell_angle_alpha   90.00000000
_cell_angle_beta   90.00000000
_cell_angle_gamma   120.06641180
_symmetry_Int_Tables_number   1
_chemical_formula_structural   DyLu2(AlNi)3
_chemical_formula_sum   'Dy1 Lu2 Al3 Ni3'
_cell_volume   158.06298626
_cell_formula_units_Z   1
loop_
 _symmetry_equiv_pos_site_id
 _symmetry_equiv_pos_as_xyz
  1  'x, y, z'
loop_
 _atom_site_type_symbol
 _atom_site_label
 _atom_site_symmetry_multiplicity
 _atom_site_fract_x
 _atom_site_fract_y
 _atom_site_fract_z
 _atom_site_occupancy
  Dy  Dy0  1  0.000000  0.416444  0.500000  1
  Lu  Lu1  1  0.585354  0.585537  0.500000  1
  Lu  Lu2  1  0.414646  0.000184  0.500000  1
  Al  Al3  1  0.000000  0.762533  0.000000  1
  Al  Al4  1  0.241279  0.238858  0.000000  1
  Al  Al5  1  0.758721  0.997579  0.000000  1
  Ni  Ni6  1  0.336528  0.668818  0.000000  1
  Ni  Ni7  1  0.663472  0.332290  0.000000  1
  Ni  Ni8  1  0.000000  0.997756  0.500000  1
