# generated using pymatgen
data_Sc16CuPt7O4
_symmetry_space_group_name_H-M   'P 1'
_cell_length_a   8.72891447
_cell_length_b   8.74662466
_cell_length_c   8.74662600
_cell_angle_alpha   60.00000251
_cell_angle_beta   59.93286396
_cell_angle_gamma   59.93285625
_symmetry_Int_Tables_number   1
_chemical_formula_structural   Sc16CuPt7O4
_chemical_formula_sum   'Sc16 Cu1 Pt7 O4'
_cell_volume   471.72057504
_cell_formula_units_Z   1
loop_
 _symmetry_equiv_pos_site_id
 _symmetry_equiv_pos_as_xyz
  1  'x, y, z'
loop_
 _atom_site_type_symbol
 _atom_site_label
 _atom_site_symmetry_multiplicity
 _atom_site_fract_x
 _atom_site_fract_y
 _atom_site_fract_z
 _atom_site_occupancy
  Sc  Sc0  1  0.124894  0.625035  0.625035  1
  Sc  Sc1  1  0.625052  0.126094  0.624427  1
  Sc  Sc2  1  0.625052  0.624427  0.126094  1
  Sc  Sc3  1  0.625052  0.624427  0.624427  1
  Sc  Sc4  1  0.817958  0.818754  0.181644  1
  Sc  Sc5  1  0.183079  0.181463  0.817729  1
  Sc  Sc6  1  0.817958  0.181644  0.818754  1
  Sc  Sc7  1  0.183079  0.817729  0.181463  1
  Sc  Sc8  1  0.183079  0.817729  0.817729  1
  Sc  Sc9  1  0.817958  0.181644  0.181644  1
  Sc  Sc10  1  0.432383  0.432958  0.067330  1
  Sc  Sc11  1  0.068730  0.065898  0.432686  1
  Sc  Sc12  1  0.432383  0.067330  0.432958  1
  Sc  Sc13  1  0.068730  0.432686  0.065898  1
  Sc  Sc14  1  0.068730  0.432686  0.432686  1
  Sc  Sc15  1  0.432383  0.067330  0.067330  1
  Cu  Cu16  1  0.759361  0.413546  0.413546  1
  Pt  Pt17  1  0.410774  0.767551  0.410837  1
  Pt  Pt18  1  0.410774  0.410837  0.767551  1
  Pt  Pt19  1  0.410774  0.410837  0.410837  1
  Pt  Pt20  1  0.483232  0.838923  0.838923  1
  Pt  Pt21  1  0.839810  0.481003  0.839594  1
  Pt  Pt22  1  0.839810  0.839594  0.481003  1
  Pt  Pt23  1  0.839810  0.839594  0.839594  1
  O  O24  1  0.624907  0.125031  0.125031  1
  O  O25  1  0.124749  0.624445  0.125403  1
  O  O26  1  0.124749  0.125403  0.624445  1
  O  O27  1  0.124749  0.125403  0.125403  1
