# generated using pymatgen
data_CeNd5Th2(Si3Rh)4
_symmetry_space_group_name_H-M   'P 1'
_cell_length_a   8.22941142
_cell_length_b   8.32335313
_cell_length_c   8.36160300
_cell_angle_alpha   90.00000000
_cell_angle_beta   90.00000000
_cell_angle_gamma   120.37834555
_symmetry_Int_Tables_number   1
_chemical_formula_structural   CeNd5Th2(Si3Rh)4
_chemical_formula_sum   'Ce1 Nd5 Th2 Si12 Rh4'
_cell_volume   494.10458394
_cell_formula_units_Z   1
loop_
 _symmetry_equiv_pos_site_id
 _symmetry_equiv_pos_as_xyz
  1  'x, y, z'
loop_
 _atom_site_type_symbol
 _atom_site_label
 _atom_site_symmetry_multiplicity
 _atom_site_fract_x
 _atom_site_fract_y
 _atom_site_fract_z
 _atom_site_occupancy
  Ce  Ce0  1  0.999856  0.999928  0.750000  1
  Nd  Nd1  1  0.000171  0.000085  0.250000  1
  Nd  Nd2  1  0.499467  0.500773  0.750000  1
  Nd  Nd3  1  0.499467  0.998696  0.750000  1
  Nd  Nd4  1  0.500509  0.499070  0.250000  1
  Nd  Nd5  1  0.500509  0.001438  0.250000  1
  Th  Th6  1  0.000224  0.500113  0.750000  1
  Th  Th7  1  0.999228  0.499613  0.250000  1
  Si  Si8  1  0.833207  0.161699  0.998105  1
  Si  Si9  1  0.833207  0.671510  0.998105  1
  Si  Si10  1  0.338390  0.169195  0.997904  1
  Si  Si11  1  0.833207  0.161699  0.501895  1
  Si  Si12  1  0.833207  0.671510  0.501895  1
  Si  Si13  1  0.338390  0.169195  0.502096  1
  Si  Si14  1  0.166874  0.838174  0.502637  1
  Si  Si15  1  0.661549  0.830775  0.502565  1
  Si  Si16  1  0.166874  0.328701  0.502637  1
  Si  Si17  1  0.166874  0.838174  0.997363  1
  Si  Si18  1  0.661549  0.830775  0.997435  1
  Si  Si19  1  0.166874  0.328701  0.997363  1
  Rh  Rh20  1  0.678043  0.339021  0.000993  1
  Rh  Rh21  1  0.678043  0.339021  0.499007  1
  Rh  Rh22  1  0.322139  0.661070  0.493786  1
  Rh  Rh23  1  0.322139  0.661070  0.006214  1
