# generated using pymatgen
data_Nd6Dy2Sc12Si15As
_symmetry_space_group_name_H-M   'P 1'
_cell_length_a   7.23007387
_cell_length_b   7.46266197
_cell_length_c   14.11999746
_cell_angle_alpha   90.02954115
_cell_angle_beta   89.07016389
_cell_angle_gamma   90.33849895
_symmetry_Int_Tables_number   1
_chemical_formula_structural   Nd6Dy2Sc12Si15As
_chemical_formula_sum   'Nd6 Dy2 Sc12 Si15 As1'
_cell_volume   761.73921344
_cell_formula_units_Z   1
loop_
 _symmetry_equiv_pos_site_id
 _symmetry_equiv_pos_as_xyz
  1  'x, y, z'
loop_
 _atom_site_type_symbol
 _atom_site_label
 _atom_site_symmetry_multiplicity
 _atom_site_fract_x
 _atom_site_fract_y
 _atom_site_fract_z
 _atom_site_occupancy
  Nd  Nd0  1  0.011451  0.173226  0.098835  1
  Nd  Nd1  1  0.989117  0.827543  0.901031  1
  Nd  Nd2  1  0.488730  0.672189  0.902800  1
  Nd  Nd3  1  0.992102  0.821829  0.595170  1
  Nd  Nd4  1  0.511889  0.328342  0.097397  1
  Nd  Nd5  1  0.007286  0.178320  0.404536  1
  Dy  Dy6  1  0.503067  0.322588  0.401246  1
  Dy  Dy7  1  0.501192  0.676030  0.598136  1
  Sc  Sc8  1  0.164502  0.500070  0.749437  1
  Sc  Sc9  1  0.835238  0.499951  0.253526  1
  Sc  Sc10  1  0.335787  0.998139  0.252245  1
  Sc  Sc11  1  0.664581  0.001255  0.748297  1
  Sc  Sc12  1  0.339867  0.172153  0.626759  1
  Sc  Sc13  1  0.660916  0.826453  0.373600  1
  Sc  Sc14  1  0.158362  0.670261  0.378703  1
  Sc  Sc15  1  0.668108  0.825198  0.126656  1
  Sc  Sc16  1  0.838141  0.330525  0.620918  1
  Sc  Sc17  1  0.331344  0.174393  0.872782  1
  Sc  Sc18  1  0.831626  0.323781  0.873735  1
  Sc  Sc19  1  0.168513  0.676548  0.125798  1
  Si  Si20  1  0.035891  0.124102  0.747428  1
  Si  Si21  1  0.963687  0.876221  0.251626  1
  Si  Si22  1  0.458910  0.621351  0.250456  1
  Si  Si23  1  0.539955  0.379244  0.749184  1
  Si  Si24  1  0.292758  0.875730  0.748174  1
  Si  Si25  1  0.708135  0.122707  0.251330  1
  Si  Si26  1  0.211885  0.380777  0.252034  1
  Si  Si27  1  0.789456  0.619925  0.748171  1
  Si  Si28  1  0.807437  0.539729  0.456150  1
  Si  Si29  1  0.343796  0.962417  0.461241  1
  Si  Si30  1  0.848524  0.537391  0.039757  1
  Si  Si31  1  0.656482  0.037377  0.539516  1
  Si  Si32  1  0.151224  0.463197  0.959743  1
  Si  Si33  1  0.652140  0.036447  0.959599  1
  Si  Si34  1  0.347684  0.964402  0.040111  1
  As  As35  1  0.190217  0.460193  0.543875  1
