# generated using pymatgen
data_Tm14Lu6(Ir3Os)3
_symmetry_space_group_name_H-M   'P 1'
_cell_length_a   10.68939304
_cell_length_b   10.69081501
_cell_length_c   6.32436503
_cell_angle_alpha   89.99654397
_cell_angle_beta   89.98960595
_cell_angle_gamma   90.00111466
_symmetry_Int_Tables_number   1
_chemical_formula_structural   Tm14Lu6(Ir3Os)3
_chemical_formula_sum   'Tm14 Lu6 Ir9 Os3'
_cell_volume   722.73781973
_cell_formula_units_Z   1
loop_
 _symmetry_equiv_pos_site_id
 _symmetry_equiv_pos_as_xyz
  1  'x, y, z'
loop_
 _atom_site_type_symbol
 _atom_site_label
 _atom_site_symmetry_multiplicity
 _atom_site_fract_x
 _atom_site_fract_y
 _atom_site_fract_z
 _atom_site_occupancy
  Tm  Tm0  1  0.706537  0.085654  0.876086  1
  Tm  Tm1  1  0.706546  0.914121  0.375906  1
  Tm  Tm2  1  0.585414  0.793571  0.876079  1
  Tm  Tm3  1  0.585661  0.206469  0.375889  1
  Tm  Tm4  1  0.413781  0.793688  0.375982  1
  Tm  Tm5  1  0.414018  0.206279  0.876115  1
  Tm  Tm6  1  0.208530  0.413522  0.625622  1
  Tm  Tm7  1  0.207983  0.586705  0.121470  1
  Tm  Tm8  1  0.792025  0.413379  0.121458  1
  Tm  Tm9  1  0.791490  0.586415  0.625671  1
  Tm  Tm10  1  0.913406  0.708015  0.121586  1
  Tm  Tm11  1  0.913599  0.291438  0.625834  1
  Tm  Tm12  1  0.086572  0.708715  0.625813  1
  Tm  Tm13  1  0.086760  0.291849  0.121626  1
  Lu  Lu14  1  0.293957  0.085843  0.376272  1
  Lu  Lu15  1  0.293955  0.914315  0.876361  1
  Lu  Lu16  1  0.000097  0.000029  0.499892  1
  Lu  Lu17  1  0.000099  0.999951  0.999985  1
  Lu  Lu18  1  0.499950  0.499985  0.000036  1
  Lu  Lu19  1  0.499945  0.500033  0.499894  1
  Ir  Ir20  1  0.848618  0.152715  0.250375  1
  Ir  Ir21  1  0.848394  0.847571  0.749754  1
  Ir  Ir22  1  0.151917  0.152142  0.749288  1
  Ir  Ir23  1  0.151683  0.847579  0.249899  1
  Ir  Ir24  1  0.652462  0.348409  0.749704  1
  Ir  Ir25  1  0.652750  0.651374  0.250313  1
  Ir  Ir26  1  0.347202  0.348329  0.250499  1
  Ir  Ir27  1  0.347505  0.651909  0.749925  1
  Ir  Ir28  1  0.000023  0.499984  0.378111  1
  Os  Os29  1  0.499563  0.000013  0.124125  1
  Os  Os30  1  0.499551  0.999991  0.623938  1
  Os  Os31  1  0.000006  0.500007  0.876490  1
