# generated using pymatgen
data_DyY2Zn6Pt5
_symmetry_space_group_name_H-M   'P 1'
_cell_length_a   8.23263704
_cell_length_b   8.23263668
_cell_length_c   8.23263586
_cell_angle_alpha   151.24198018
_cell_angle_beta   104.32495675
_cell_angle_gamma   82.87233704
_symmetry_Int_Tables_number   1
_chemical_formula_structural   DyY2Zn6Pt5
_chemical_formula_sum   'Dy1 Y2 Zn6 Pt5'
_cell_volume   254.89396907
_cell_formula_units_Z   1
loop_
 _symmetry_equiv_pos_site_id
 _symmetry_equiv_pos_as_xyz
  1  'x, y, z'
loop_
 _atom_site_type_symbol
 _atom_site_label
 _atom_site_symmetry_multiplicity
 _atom_site_fract_x
 _atom_site_fract_y
 _atom_site_fract_z
 _atom_site_occupancy
  Dy  Dy0  1  0.000000  0.000000  0.000000  1
  Y  Y1  1  0.292298  0.292298  0.000000  1
  Y  Y2  1  0.707702  0.707702  0.000000  1
  Zn  Zn3  1  0.677224  0.500000  0.177224  1
  Zn  Zn4  1  0.322776  0.500000  0.822776  1
  Zn  Zn5  1  0.436580  0.144340  0.292239  1
  Zn  Zn6  1  0.563420  0.855660  0.707761  1
  Zn  Zn7  1  0.852101  0.144340  0.707761  1
  Zn  Zn8  1  0.147899  0.855660  0.292239  1
  Pt  Pt9  1  0.717626  0.352261  0.365365  1
  Pt  Pt10  1  0.282374  0.647739  0.634635  1
  Pt  Pt11  1  0.986897  0.352261  0.634635  1
  Pt  Pt12  1  0.013103  0.647739  0.365365  1
  Pt  Pt13  1  0.500000  0.000000  0.500000  1
