# generated using pymatgen
data_La2Nd4OsRuI6
_symmetry_space_group_name_H-M   'P 1'
_cell_length_a   4.35550800
_cell_length_b   9.47121314
_cell_length_c   12.60210024
_cell_angle_alpha   87.17006126
_cell_angle_beta   90.00000000
_cell_angle_gamma   90.00000000
_symmetry_Int_Tables_number   1
_chemical_formula_structural   La2Nd4OsRuI6
_chemical_formula_sum   'La2 Nd4 Os1 Ru1 I6'
_cell_volume   519.22715745
_cell_formula_units_Z   1
loop_
 _symmetry_equiv_pos_site_id
 _symmetry_equiv_pos_as_xyz
  1  'x, y, z'
loop_
 _atom_site_type_symbol
 _atom_site_label
 _atom_site_symmetry_multiplicity
 _atom_site_fract_x
 _atom_site_fract_y
 _atom_site_fract_z
 _atom_site_occupancy
  La  La0  1  0.250000  0.883447  0.328173  1
  La  La1  1  0.250000  0.906630  0.894062  1
  Nd  Nd2  1  0.250000  0.311202  0.880185  1
  Nd  Nd3  1  0.750000  0.684189  0.120635  1
  Nd  Nd4  1  0.750000  0.119268  0.665674  1
  Nd  Nd5  1  0.750000  0.097347  0.104294  1
  Os  Os6  1  0.750000  0.111851  0.878659  1
  Ru  Ru7  1  0.250000  0.884380  0.130595  1
  I  I8  1  0.750000  0.137681  0.380334  1
  I  I9  1  0.250000  0.874466  0.618170  1
  I  I10  1  0.250000  0.364314  0.622308  1
  I  I11  1  0.750000  0.626975  0.375410  1
  I  I12  1  0.750000  0.604764  0.868632  1
  I  I13  1  0.250000  0.393486  0.132871  1
