# generated using pymatgen
data_LaYbB4Ir5
_symmetry_space_group_name_H-M   'P 1'
_cell_length_a   7.56782614
_cell_length_b   6.33948867
_cell_length_c   5.70376715
_cell_angle_alpha   77.66421768
_cell_angle_beta   54.91985669
_cell_angle_gamma   47.41593902
_symmetry_Int_Tables_number   1
_chemical_formula_structural   LaYbB4Ir5
_chemical_formula_sum   'La1 Yb1 B4 Ir5'
_cell_volume   157.75269436
_cell_formula_units_Z   1
loop_
 _symmetry_equiv_pos_site_id
 _symmetry_equiv_pos_as_xyz
  1  'x, y, z'
loop_
 _atom_site_type_symbol
 _atom_site_label
 _atom_site_symmetry_multiplicity
 _atom_site_fract_x
 _atom_site_fract_y
 _atom_site_fract_z
 _atom_site_occupancy
  La  La0  1  0.137895  0.137895  0.862105  1
  Yb  Yb1  1  0.856504  0.856504  0.143496  1
  B  B2  1  0.791641  0.470981  0.529019  1
  B  B3  1  0.211237  0.529491  0.470509  1
  B  B4  1  0.529491  0.211237  0.788763  1
  B  B5  1  0.470981  0.791641  0.208359  1
  Ir  Ir6  1  0.751938  0.751938  0.748062  1
  Ir  Ir7  1  0.499377  0.499377  0.000623  1
  Ir  Ir8  1  0.499622  0.499622  0.500378  1
  Ir  Ir9  1  0.999377  0.999377  0.500623  1
  Ir  Ir10  1  0.251938  0.251938  0.248062  1
