# generated using pymatgen
data_Sm9YB2I15
_symmetry_space_group_name_H-M   'P 1'
_cell_length_a   9.77644815
_cell_length_b   10.52396963
_cell_length_c   11.47988355
_cell_angle_alpha   91.76565093
_cell_angle_beta   114.40710701
_cell_angle_gamma   110.48169246
_symmetry_Int_Tables_number   1
_chemical_formula_structural   Sm9YB2I15
_chemical_formula_sum   'Sm9 Y1 B2 I15'
_cell_volume   986.05463737
_cell_formula_units_Z   1
loop_
 _symmetry_equiv_pos_site_id
 _symmetry_equiv_pos_as_xyz
  1  'x, y, z'
loop_
 _atom_site_type_symbol
 _atom_site_label
 _atom_site_symmetry_multiplicity
 _atom_site_fract_x
 _atom_site_fract_y
 _atom_site_fract_z
 _atom_site_occupancy
  Sm  Sm0  1  0.786788  0.396416  0.269290  1
  Sm  Sm1  1  0.211696  0.602784  0.729954  1
  Sm  Sm2  1  0.663829  0.750372  0.823957  1
  Sm  Sm3  1  0.334633  0.249401  0.176063  1
  Sm  Sm4  1  0.523239  0.710184  0.087563  1
  Sm  Sm5  1  0.475874  0.289401  0.912194  1
  Sm  Sm6  1  0.581417  0.042004  0.312346  1
  Sm  Sm7  1  0.417435  0.957552  0.687241  1
  Sm  Sm8  1  0.712198  0.071245  0.046138  1
  Y  Y9  1  0.295146  0.930654  0.955019  1
  B  B10  1  0.466343  0.821587  0.878569  1
  B  B11  1  0.530550  0.177083  0.120537  1
  I  I12  1  0.001895  0.998594  0.999247  1
  I  I13  1  0.638664  0.882501  0.581505  1
  I  I14  1  0.360373  0.116916  0.418217  1
  I  I15  1  0.885233  0.298782  0.532181  1
  I  I16  1  0.114061  0.700902  0.467474  1
  I  I17  1  0.281582  0.761098  0.174210  1
  I  I18  1  0.715580  0.240817  0.821334  1
  I  I19  1  0.057027  0.341962  0.226295  1
  I  I20  1  0.157882  0.053517  0.705012  1
  I  I21  1  0.841340  0.943490  0.298566  1
  I  I22  1  0.225528  0.408683  0.941898  1
  I  I23  1  0.773679  0.591001  0.057870  1
  I  I24  1  0.408360  0.458597  0.657597  1
  I  I25  1  0.591079  0.541087  0.342337  1
  I  I26  1  0.948571  0.663371  0.777388  1
