# generated using pymatgen
data_Tb3CeY12(CdRu)4
_symmetry_space_group_name_H-M   'P 1'
_cell_length_a   9.69934228
_cell_length_b   9.69934268
_cell_length_c   9.69934286
_cell_angle_alpha   59.39953038
_cell_angle_beta   59.39952561
_cell_angle_gamma   59.39953356
_symmetry_Int_Tables_number   1
_chemical_formula_structural   Tb3CeY12(CdRu)4
_chemical_formula_sum   'Tb3 Ce1 Y12 Cd4 Ru4'
_cell_volume   636.40930909
_cell_formula_units_Z   1
loop_
 _symmetry_equiv_pos_site_id
 _symmetry_equiv_pos_as_xyz
  1  'x, y, z'
loop_
 _atom_site_type_symbol
 _atom_site_label
 _atom_site_symmetry_multiplicity
 _atom_site_fract_x
 _atom_site_fract_y
 _atom_site_fract_z
 _atom_site_occupancy
  Tb  Tb0  1  0.346440  0.346440  0.957345  1
  Tb  Tb1  1  0.346440  0.957345  0.346440  1
  Tb  Tb2  1  0.957345  0.346440  0.346440  1
  Ce  Ce3  1  0.341810  0.341810  0.341810  1
  Y  Y4  1  0.561813  0.561813  0.938516  1
  Y  Y5  1  0.938450  0.561267  0.938450  1
  Y  Y6  1  0.561267  0.938450  0.938450  1
  Y  Y7  1  0.938450  0.938450  0.561267  1
  Y  Y8  1  0.561813  0.938516  0.561813  1
  Y  Y9  1  0.938516  0.561813  0.561813  1
  Y  Y10  1  0.189588  0.189588  0.811761  1
  Y  Y11  1  0.810723  0.188331  0.810723  1
  Y  Y12  1  0.188330  0.810724  0.810723  1
  Y  Y13  1  0.810723  0.810724  0.188331  1
  Y  Y14  1  0.189587  0.811761  0.189587  1
  Y  Y15  1  0.811761  0.189588  0.189588  1
  Cd  Cd16  1  0.579651  0.579651  0.258865  1
  Cd  Cd17  1  0.579651  0.258865  0.579651  1
  Cd  Cd18  1  0.258865  0.579651  0.579651  1
  Cd  Cd19  1  0.579825  0.579825  0.579825  1
  Ru  Ru20  1  0.147999  0.147999  0.572769  1
  Ru  Ru21  1  0.147999  0.572769  0.147999  1
  Ru  Ru22  1  0.572769  0.147999  0.147999  1
  Ru  Ru23  1  0.140184  0.140184  0.140184  1
