# generated using pymatgen
data_Ho9Tm(BiPd2)2
_symmetry_space_group_name_H-M   'P 1'
_cell_length_a   8.80150857
_cell_length_b   8.80150865
_cell_length_c   8.80150808
_cell_angle_alpha   127.53700733
_cell_angle_beta   127.53700444
_cell_angle_gamma   77.37626873
_symmetry_Int_Tables_number   1
_chemical_formula_structural   Ho9Tm(BiPd2)2
_chemical_formula_sum   'Ho9 Tm1 Bi2 Pd4'
_cell_volume   415.89163102
_cell_formula_units_Z   1
loop_
 _symmetry_equiv_pos_site_id
 _symmetry_equiv_pos_as_xyz
  1  'x, y, z'
loop_
 _atom_site_type_symbol
 _atom_site_label
 _atom_site_symmetry_multiplicity
 _atom_site_fract_x
 _atom_site_fract_y
 _atom_site_fract_z
 _atom_site_occupancy
  Ho  Ho0  1  0.500000  0.500000  0.000000  1
  Ho  Ho1  1  0.796267  0.295900  0.811561  1
  Ho  Ho2  1  0.203733  0.704100  0.188439  1
  Ho  Ho3  1  0.484339  0.984706  0.188439  1
  Ho  Ho4  1  0.295900  0.484339  0.499633  1
  Ho  Ho5  1  0.015294  0.203733  0.499633  1
  Ho  Ho6  1  0.515661  0.015294  0.811561  1
  Ho  Ho7  1  0.704100  0.515661  0.500367  1
  Ho  Ho8  1  0.984706  0.796267  0.500367  1
  Tm  Tm9  1  0.000000  0.000000  0.000000  1
  Bi  Bi10  1  0.249963  0.249963  0.000000  1
  Bi  Bi11  1  0.750037  0.750037  0.000000  1
  Pd  Pd12  1  0.135971  0.636402  0.772373  1
  Pd  Pd13  1  0.864029  0.363598  0.227627  1
  Pd  Pd14  1  0.636402  0.864029  0.500431  1
  Pd  Pd15  1  0.363598  0.135971  0.499569  1
