# generated using pymatgen
data_Y3Lu5B24MoRh3
_symmetry_space_group_name_H-M   'P 1'
_cell_length_a   3.62816000
_cell_length_b   9.11125811
_cell_length_c   11.49378758
_cell_angle_alpha   90.22313201
_cell_angle_beta   90.00000000
_cell_angle_gamma   90.00000000
_symmetry_Int_Tables_number   1
_chemical_formula_structural   Y3Lu5B24MoRh3
_chemical_formula_sum   'Y3 Lu5 B24 Mo1 Rh3'
_cell_volume   379.94843009
_cell_formula_units_Z   1
loop_
 _symmetry_equiv_pos_site_id
 _symmetry_equiv_pos_as_xyz
  1  'x, y, z'
loop_
 _atom_site_type_symbol
 _atom_site_label
 _atom_site_symmetry_multiplicity
 _atom_site_fract_x
 _atom_site_fract_y
 _atom_site_fract_z
 _atom_site_occupancy
  Y  Y0  1  0.500000  0.318418  0.411282  1
  Y  Y1  1  0.500000  0.677731  0.584773  1
  Y  Y2  1  0.500000  0.179457  0.916739  1
  Lu  Lu3  1  0.500000  0.823197  0.086586  1
  Lu  Lu4  1  0.500000  0.444894  0.125882  1
  Lu  Lu5  1  0.500000  0.557712  0.872187  1
  Lu  Lu6  1  0.500000  0.055797  0.629237  1
  Lu  Lu7  1  0.500000  0.944641  0.373301  1
  B  B8  1  0.000000  0.102466  0.473932  1
  B  B9  1  0.000000  0.895945  0.529137  1
  B  B10  1  0.000000  0.398977  0.970411  1
  B  B11  1  0.000000  0.606710  0.027891  1
  B  B12  1  0.000000  0.130338  0.317399  1
  B  B13  1  0.000000  0.868079  0.683516  1
  B  B14  1  0.000000  0.370038  0.816875  1
  B  B15  1  0.000000  0.632763  0.182236  1
  B  B16  1  0.000000  0.050888  0.064954  1
  B  B17  1  0.000000  0.945102  0.934137  1
  B  B18  1  0.000000  0.444333  0.565687  1
  B  B19  1  0.000000  0.553743  0.433097  1
  B  B20  1  0.000000  0.483548  0.286122  1
  B  B21  1  0.000000  0.517702  0.712990  1
  B  B22  1  0.000000  0.017059  0.787140  1
  B  B23  1  0.000000  0.978319  0.213806  1
  B  B24  1  0.000000  0.252559  0.079272  1
  B  B25  1  0.000000  0.750429  0.920477  1
  B  B26  1  0.000000  0.248478  0.580261  1
  B  B27  1  0.000000  0.750126  0.419706  1
  B  B28  1  0.000000  0.295636  0.235615  1
  B  B29  1  0.000000  0.706228  0.764078  1
  B  B30  1  0.000000  0.207543  0.736491  1
  B  B31  1  0.000000  0.792527  0.264723  1
  Mo  Mo32  1  0.500000  0.137703  0.179516  1
  Rh  Rh33  1  0.500000  0.860010  0.820983  1
  Rh  Rh34  1  0.500000  0.360866  0.680416  1
  Rh  Rh35  1  0.500000  0.640037  0.319138  1
