# generated using pymatgen
data_Ta10GaB4As
_symmetry_space_group_name_H-M   'P 1'
_cell_length_a   7.34314037
_cell_length_b   7.34314021
_cell_length_c   7.34314025
_cell_angle_alpha   129.42861379
_cell_angle_beta   129.42861480
_cell_angle_gamma   74.32188812
_symmetry_Int_Tables_number   1
_chemical_formula_structural   Ta10GaB4As
_chemical_formula_sum   'Ta10 Ga1 B4 As1'
_cell_volume   230.28015619
_cell_formula_units_Z   1
loop_
 _symmetry_equiv_pos_site_id
 _symmetry_equiv_pos_as_xyz
  1  'x, y, z'
loop_
 _atom_site_type_symbol
 _atom_site_label
 _atom_site_symmetry_multiplicity
 _atom_site_fract_x
 _atom_site_fract_y
 _atom_site_fract_z
 _atom_site_occupancy
  Ta  Ta0  1  0.528678  0.698327  0.500876  1
  Ta  Ta1  1  0.197450  0.027802  0.499124  1
  Ta  Ta2  1  0.027802  0.528678  0.830352  1
  Ta  Ta3  1  0.698327  0.197450  0.169648  1
  Ta  Ta4  1  0.472198  0.302550  0.500876  1
  Ta  Ta5  1  0.801673  0.971322  0.499124  1
  Ta  Ta6  1  0.971322  0.472198  0.169648  1
  Ta  Ta7  1  0.302550  0.801673  0.830352  1
  Ta  Ta8  1  0.499107  0.499107  0.000000  1
  Ta  Ta9  1  0.000893  0.000893  0.000000  1
  Ga  Ga10  1  0.250000  0.250000  0.000000  1
  B  B11  1  0.879419  0.620581  0.500000  1
  B  B12  1  0.120581  0.379419  0.500000  1
  B  B13  1  0.379419  0.879419  0.258837  1
  B  B14  1  0.620581  0.120581  0.741163  1
  As  As15  1  0.750000  0.750000  0.000000  1
