# generated using pymatgen
data_RbPrY9(C2Br9)2
_symmetry_space_group_name_H-M   'P 1'
_cell_length_a   10.73310720
_cell_length_b   10.81317130
_cell_length_c   10.98197534
_cell_angle_alpha   113.59199285
_cell_angle_beta   87.38474282
_cell_angle_gamma   118.67136258
_symmetry_Int_Tables_number   1
_chemical_formula_structural   RbPrY9(C2Br9)2
_chemical_formula_sum   'Rb1 Pr1 Y9 C4 Br18'
_cell_volume   1007.68233017
_cell_formula_units_Z   1
loop_
 _symmetry_equiv_pos_site_id
 _symmetry_equiv_pos_as_xyz
  1  'x, y, z'
loop_
 _atom_site_type_symbol
 _atom_site_label
 _atom_site_symmetry_multiplicity
 _atom_site_fract_x
 _atom_site_fract_y
 _atom_site_fract_z
 _atom_site_occupancy
  Rb  Rb0  1  0.500343  0.002048  0.499905  1
  Pr  Pr1  1  0.653123  0.713791  0.697469  1
  Y  Y2  1  0.281627  0.363541  0.013234  1
  Y  Y3  1  0.091594  0.405207  0.299532  1
  Y  Y4  1  0.961084  0.037211  0.332387  1
  Y  Y5  1  0.906545  0.593317  0.698827  1
  Y  Y6  1  0.112872  0.941793  0.001638  1
  Y  Y7  1  0.040960  0.964024  0.668583  1
  Y  Y8  1  0.337892  0.281885  0.296563  1
  Y  Y9  1  0.719798  0.637151  0.988585  1
  Y  Y10  1  0.887989  0.058552  0.998788  1
  C  C11  1  0.156674  0.226584  0.123509  1
  C  C12  1  0.845425  0.774172  0.877694  1
  C  C13  1  0.923364  0.852285  0.798019  1
  C  C14  1  0.078624  0.148243  0.203281  1
  Br  Br15  1  0.448067  0.526536  0.840102  1
  Br  Br16  1  0.382961  0.038208  0.159243  1
  Br  Br17  1  0.783865  0.864717  0.499033  1
  Br  Br18  1  0.838505  0.311956  0.154737  1
  Br  Br19  1  0.548853  0.469360  0.166069  1
  Br  Br20  1  0.221919  0.140581  0.497930  1
  Br  Br21  1  0.315597  0.099959  0.828718  1
  Br  Br22  1  0.685570  0.900433  0.171400  1
  Br  Br23  1  0.974495  0.760122  0.172778  1
  Br  Br24  1  0.933455  0.302341  0.500195  1
  Br  Br25  1  0.026288  0.239651  0.828006  1
  Br  Br26  1  0.067286  0.697982  0.499933  1
  Br  Br27  1  0.261616  0.624247  0.190132  1
  Br  Br28  1  0.738233  0.376252  0.810204  1
  Br  Br29  1  0.638927  0.420249  0.492174  1
  Br  Br30  1  0.161409  0.689028  0.845880  1
  Br  Br31  1  0.618751  0.974499  0.848265  1
  Br  Br32  1  0.356290  0.564077  0.497187  1
