# generated using pymatgen
data_Li2TbReH6
_symmetry_space_group_name_H-M   'P 1'
_cell_length_a   5.02734300
_cell_length_b   5.02733916
_cell_length_c   5.02732500
_cell_angle_alpha   120.00021992
_cell_angle_beta   89.99962390
_cell_angle_gamma   120.00032501
_symmetry_Int_Tables_number   1
_chemical_formula_structural   Li2TbReH6
_chemical_formula_sum   'Li2 Tb1 Re1 H6'
_cell_volume   89.84553815
_cell_formula_units_Z   1
loop_
 _symmetry_equiv_pos_site_id
 _symmetry_equiv_pos_as_xyz
  1  'x, y, z'
loop_
 _atom_site_type_symbol
 _atom_site_label
 _atom_site_symmetry_multiplicity
 _atom_site_fract_x
 _atom_site_fract_y
 _atom_site_fract_z
 _atom_site_occupancy
  Li  Li0  1  0.249997  0.500000  0.750000  1
  Li  Li1  1  0.000002  0.000001  0.000003  1
  Tb  Tb2  1  0.750000  0.499997  0.249999  1
  Re  Re3  1  0.499998  0.999992  0.500002  1
  H  H4  1  0.252715  0.000000  0.252714  1
  H  H5  1  0.252716  0.505431  0.252715  1
  H  H6  1  0.747287  0.000000  0.252715  1
  H  H7  1  0.747286  0.494572  0.747287  1
  H  H8  1  0.252715  0.000001  0.747283  1
  H  H9  1  0.747282  0.000001  0.747281  1
