# generated using pymatgen
data_Gd2Sc2B12IrRh
_symmetry_space_group_name_H-M   'P 1'
_cell_length_a   3.56968900
_cell_length_b   9.03869014
_cell_length_c   11.41601218
_cell_angle_alpha   89.97969178
_cell_angle_beta   90.00000000
_cell_angle_gamma   90.00000000
_symmetry_Int_Tables_number   1
_chemical_formula_structural   Gd2Sc2B12IrRh
_chemical_formula_sum   'Gd4 Sc4 B24 Ir2 Rh2'
_cell_volume   368.34118046
_cell_formula_units_Z   2
loop_
 _symmetry_equiv_pos_site_id
 _symmetry_equiv_pos_as_xyz
  1  'x, y, z'
loop_
 _atom_site_type_symbol
 _atom_site_label
 _atom_site_symmetry_multiplicity
 _atom_site_fract_x
 _atom_site_fract_y
 _atom_site_fract_z
 _atom_site_occupancy
  Gd  Gd0  1  0.500000  0.320094  0.413899  1
  Gd  Gd1  1  0.500000  0.679906  0.586101  1
  Gd  Gd2  1  0.500000  0.178895  0.914670  1
  Gd  Gd3  1  0.500000  0.821105  0.085330  1
  Sc  Sc4  1  0.500000  0.444715  0.124088  1
  Sc  Sc5  1  0.500000  0.555285  0.875912  1
  Sc  Sc6  1  0.500000  0.054508  0.624505  1
  Sc  Sc7  1  0.500000  0.945492  0.375495  1
  B  B8  1  0.000000  0.099676  0.473350  1
  B  B9  1  0.000000  0.900324  0.526650  1
  B  B10  1  0.000000  0.400352  0.973302  1
  B  B11  1  0.000000  0.599648  0.026698  1
  B  B12  1  0.000000  0.130139  0.318520  1
  B  B13  1  0.000000  0.869861  0.681480  1
  B  B14  1  0.000000  0.370023  0.818592  1
  B  B15  1  0.000000  0.629977  0.181408  1
  B  B16  1  0.000000  0.055362  0.066470  1
  B  B17  1  0.000000  0.944638  0.933530  1
  B  B18  1  0.000000  0.444465  0.566801  1
  B  B19  1  0.000000  0.555535  0.433199  1
  B  B20  1  0.000000  0.482501  0.284573  1
  B  B21  1  0.000000  0.517499  0.715427  1
  B  B22  1  0.000000  0.017030  0.784900  1
  B  B23  1  0.000000  0.982970  0.215100  1
  B  B24  1  0.000000  0.253749  0.081055  1
  B  B25  1  0.000000  0.746251  0.918945  1
  B  B26  1  0.000000  0.245467  0.581139  1
  B  B27  1  0.000000  0.754533  0.418861  1
  B  B28  1  0.000000  0.295652  0.235368  1
  B  B29  1  0.000000  0.704348  0.764632  1
  B  B30  1  0.000000  0.204215  0.735344  1
  B  B31  1  0.000000  0.795785  0.264656  1
  Ir  Ir32  1  0.500000  0.358503  0.681768  1
  Ir  Ir33  1  0.500000  0.641497  0.318232  1
  Rh  Rh34  1  0.500000  0.142332  0.182860  1
  Rh  Rh35  1  0.500000  0.857668  0.817140  1
