# generated using pymatgen
data_Ho2Mg2IrRh
_symmetry_space_group_name_H-M   'P 1'
_cell_length_a   4.10545200
_cell_length_b   7.07320688
_cell_length_c   8.50729314
_cell_angle_alpha   90.94909459
_cell_angle_beta   90.00000000
_cell_angle_gamma   90.00000000
_symmetry_Int_Tables_number   1
_chemical_formula_structural   Ho2Mg2IrRh
_chemical_formula_sum   'Ho4 Mg4 Ir2 Rh2'
_cell_volume   247.00693712
_cell_formula_units_Z   2
loop_
 _symmetry_equiv_pos_site_id
 _symmetry_equiv_pos_as_xyz
  1  'x, y, z'
loop_
 _atom_site_type_symbol
 _atom_site_label
 _atom_site_symmetry_multiplicity
 _atom_site_fract_x
 _atom_site_fract_y
 _atom_site_fract_z
 _atom_site_occupancy
  Ho  Ho0  1  0.250000  0.540755  0.176920  1
  Ho  Ho1  1  0.750000  0.459245  0.823080  1
  Ho  Ho2  1  0.250000  0.035145  0.326136  1
  Ho  Ho3  1  0.750000  0.964855  0.673864  1
  Mg  Mg4  1  0.250000  0.135958  0.938877  1
  Mg  Mg5  1  0.750000  0.864042  0.061123  1
  Mg  Mg6  1  0.250000  0.635606  0.561301  1
  Mg  Mg7  1  0.750000  0.364394  0.438699  1
  Ir  Ir8  1  0.750000  0.748174  0.370618  1
  Ir  Ir9  1  0.250000  0.251826  0.629382  1
  Rh  Rh10  1  0.750000  0.250630  0.126121  1
  Rh  Rh11  1  0.250000  0.749370  0.873879  1
