# generated using pymatgen
data_Sc3Fe5(Ni2P3)2
_symmetry_space_group_name_H-M   'P 1'
_cell_length_a   3.64862100
_cell_length_b   10.50105900
_cell_length_c   11.88818700
_cell_angle_alpha   90.00000000
_cell_angle_beta   90.00000000
_cell_angle_gamma   90.00000000
_symmetry_Int_Tables_number   1
_chemical_formula_structural   Sc3Fe5(Ni2P3)2
_chemical_formula_sum   'Sc6 Fe10 Ni8 P12'
_cell_volume   455.48856641
_cell_formula_units_Z   2
loop_
 _symmetry_equiv_pos_site_id
 _symmetry_equiv_pos_as_xyz
  1  'x, y, z'
loop_
 _atom_site_type_symbol
 _atom_site_label
 _atom_site_symmetry_multiplicity
 _atom_site_fract_x
 _atom_site_fract_y
 _atom_site_fract_z
 _atom_site_occupancy
  Sc  Sc0  1  0.000000  0.500000  0.522975  1
  Sc  Sc1  1  0.500000  0.000000  0.476881  1
  Sc  Sc2  1  0.500000  0.820336  0.202297  1
  Sc  Sc3  1  0.500000  0.179664  0.202297  1
  Sc  Sc4  1  0.000000  0.678301  0.797280  1
  Sc  Sc5  1  0.000000  0.321699  0.797280  1
  Fe  Fe6  1  0.500000  0.500000  0.157823  1
  Fe  Fe7  1  0.000000  0.000000  0.843397  1
  Fe  Fe8  1  0.000000  0.500000  0.989492  1
  Fe  Fe9  1  0.500000  0.000000  0.011625  1
  Fe  Fe10  1  0.500000  0.333864  0.995698  1
  Fe  Fe11  1  0.500000  0.666136  0.995698  1
  Fe  Fe12  1  0.000000  0.166699  0.004497  1
  Fe  Fe13  1  0.000000  0.833301  0.004497  1
  Fe  Fe14  1  0.500000  0.297921  0.430162  1
  Fe  Fe15  1  0.500000  0.702079  0.430162  1
  Ni  Ni16  1  0.500000  0.500000  0.703506  1
  Ni  Ni17  1  0.000000  0.000000  0.298528  1
  Ni  Ni18  1  0.000000  0.200998  0.569559  1
  Ni  Ni19  1  0.000000  0.799002  0.569559  1
  Ni  Ni20  1  0.500000  0.875909  0.709239  1
  Ni  Ni21  1  0.500000  0.124091  0.709239  1
  Ni  Ni22  1  0.000000  0.622771  0.289848  1
  Ni  Ni23  1  0.000000  0.377229  0.289848  1
  P  P24  1  0.500000  0.500000  0.883467  1
  P  P25  1  0.000000  0.000000  0.116296  1
  P  P26  1  0.500000  0.500000  0.352266  1
  P  P27  1  0.000000  0.000000  0.650001  1
  P  P28  1  0.500000  0.319242  0.616500  1
  P  P29  1  0.500000  0.680758  0.616500  1
  P  P30  1  0.000000  0.186738  0.381247  1
  P  P31  1  0.000000  0.813262  0.381247  1
  P  P32  1  0.500000  0.841074  0.894772  1
  P  P33  1  0.500000  0.158926  0.894772  1
  P  P34  1  0.000000  0.658332  0.105774  1
  P  P35  1  0.000000  0.341668  0.105774  1
