# generated using pymatgen
data_Ta6MnSi6Tc5
_symmetry_space_group_name_H-M   'P 1'
_cell_length_a   7.50184368
_cell_length_b   7.50858300
_cell_length_c   7.50858195
_cell_angle_alpha   127.72065911
_cell_angle_beta   123.72576165
_cell_angle_gamma   80.40502847
_symmetry_Int_Tables_number   1
_chemical_formula_structural   Ta6MnSi6Tc5
_chemical_formula_sum   'Ta6 Mn1 Si6 Tc5'
_cell_volume   268.45371499
_cell_formula_units_Z   1
loop_
 _symmetry_equiv_pos_site_id
 _symmetry_equiv_pos_as_xyz
  1  'x, y, z'
loop_
 _atom_site_type_symbol
 _atom_site_label
 _atom_site_symmetry_multiplicity
 _atom_site_fract_x
 _atom_site_fract_y
 _atom_site_fract_z
 _atom_site_occupancy
  Ta  Ta0  1  0.553284  0.097494  0.043001  1
  Ta  Ta1  1  0.446716  0.489717  0.544210  1
  Ta  Ta2  1  0.963139  0.496921  0.029476  1
  Ta  Ta3  1  0.036861  0.066337  0.533782  1
  Ta  Ta4  1  0.754483  0.915672  0.664613  1
  Ta  Ta5  1  0.245517  0.910129  0.161190  1
  Mn  Mn6  1  0.000000  0.246230  0.246230  1
  Si  Si7  1  0.336983  0.826298  0.497784  1
  Si  Si8  1  0.663017  0.160800  0.489314  1
  Si  Si9  1  0.830034  0.833469  0.994650  1
  Si  Si10  1  0.169966  0.164615  0.003435  1
  Si  Si11  1  0.776381  0.524666  0.252905  1
  Si  Si12  1  0.223619  0.476524  0.748286  1
  Tc  Tc13  1  0.157811  0.747299  0.653198  1
  Tc  Tc14  1  0.842189  0.495386  0.589488  1
  Tc  Tc15  1  0.594300  0.748515  0.090886  1
  Tc  Tc16  1  0.405700  0.496585  0.154215  1
  Tc  Tc17  1  0.500000  0.245339  0.745339  1
