# generated using pymatgen
data_Pr3NdAlZn3Si3Ge
_symmetry_space_group_name_H-M   'P 1'
_cell_length_a   4.22499500
_cell_length_b   4.22499438
_cell_length_c   17.00013300
_cell_angle_alpha   90.00000000
_cell_angle_beta   90.00000000
_cell_angle_gamma   120.00001266
_symmetry_Int_Tables_number   1
_chemical_formula_structural   Pr3NdAlZn3Si3Ge
_chemical_formula_sum   'Pr3 Nd1 Al1 Zn3 Si3 Ge1'
_cell_volume   262.80597244
_cell_formula_units_Z   1
loop_
 _symmetry_equiv_pos_site_id
 _symmetry_equiv_pos_as_xyz
  1  'x, y, z'
loop_
 _atom_site_type_symbol
 _atom_site_label
 _atom_site_symmetry_multiplicity
 _atom_site_fract_x
 _atom_site_fract_y
 _atom_site_fract_z
 _atom_site_occupancy
  Pr  Pr0  1  0.000000  0.000000  0.253288  1
  Pr  Pr1  1  0.000000  0.000000  0.747215  1
  Pr  Pr2  1  0.000000  0.000000  0.999936  1
  Nd  Nd3  1  0.000000  0.000000  0.500191  1
  Al  Al4  1  0.333333  0.666667  0.132318  1
  Zn  Zn5  1  0.666667  0.333333  0.867721  1
  Zn  Zn6  1  0.666667  0.333333  0.626345  1
  Zn  Zn7  1  0.333333  0.666667  0.374864  1
  Si  Si8  1  0.333333  0.666667  0.620183  1
  Si  Si9  1  0.666667  0.333333  0.380097  1
  Si  Si10  1  0.666667  0.333333  0.120236  1
  Ge  Ge11  1  0.333333  0.666667  0.877605  1
