# generated using pymatgen
data_Tm4Lu8Os3Pt
_symmetry_space_group_name_H-M   'P 1'
_cell_length_a   7.24325050
_cell_length_b   8.87002300
_cell_length_c   6.27514345
_cell_angle_alpha   90.00000000
_cell_angle_beta   90.10412561
_cell_angle_gamma   90.00000000
_symmetry_Int_Tables_number   1
_chemical_formula_structural   Tm4Lu8Os3Pt
_chemical_formula_sum   'Tm4 Lu8 Os3 Pt1'
_cell_volume   403.16348620
_cell_formula_units_Z   1
loop_
 _symmetry_equiv_pos_site_id
 _symmetry_equiv_pos_as_xyz
  1  'x, y, z'
loop_
 _atom_site_type_symbol
 _atom_site_label
 _atom_site_symmetry_multiplicity
 _atom_site_fract_x
 _atom_site_fract_y
 _atom_site_fract_z
 _atom_site_occupancy
  Tm  Tm0  1  0.532721  0.250000  0.878136  1
  Tm  Tm1  1  0.036404  0.250000  0.619348  1
  Tm  Tm2  1  0.465058  0.750000  0.119120  1
  Tm  Tm3  1  0.963243  0.750000  0.374855  1
  Lu  Lu4  1  0.671003  0.058397  0.334898  1
  Lu  Lu5  1  0.182240  0.442316  0.172096  1
  Lu  Lu6  1  0.323284  0.561528  0.670989  1
  Lu  Lu7  1  0.823297  0.934491  0.824548  1
  Lu  Lu8  1  0.323284  0.938472  0.670989  1
  Lu  Lu9  1  0.823297  0.565509  0.824548  1
  Lu  Lu10  1  0.671003  0.441603  0.334898  1
  Lu  Lu11  1  0.182240  0.057684  0.172096  1
  Os  Os12  1  0.384447  0.250000  0.463029  1
  Os  Os13  1  0.114898  0.750000  0.964145  1
  Os  Os14  1  0.614545  0.750000  0.533508  1
  Pt  Pt15  1  0.889037  0.250000  0.042797  1
