# generated using pymatgen
data_Ca5YSb7AsPd16
_symmetry_space_group_name_H-M   'P 1'
_cell_length_a   9.40203562
_cell_length_b   9.40203520
_cell_length_c   9.36171800
_cell_angle_alpha   60.14174930
_cell_angle_beta   60.14175077
_cell_angle_gamma   59.71649404
_symmetry_Int_Tables_number   1
_chemical_formula_structural   Ca5YSb7AsPd16
_chemical_formula_sum   'Ca5 Y1 Sb7 As1 Pd16'
_cell_volume   585.15160230
_cell_formula_units_Z   1
loop_
 _symmetry_equiv_pos_site_id
 _symmetry_equiv_pos_as_xyz
  1  'x, y, z'
loop_
 _atom_site_type_symbol
 _atom_site_label
 _atom_site_symmetry_multiplicity
 _atom_site_fract_x
 _atom_site_fract_y
 _atom_site_fract_z
 _atom_site_occupancy
  Ca  Ca0  1  0.714401  0.284642  0.285599  1
  Ca  Ca1  1  0.284642  0.714401  0.715358  1
  Ca  Ca2  1  0.284642  0.714401  0.285599  1
  Ca  Ca3  1  0.714401  0.284642  0.715358  1
  Ca  Ca4  1  0.290070  0.290070  0.709930  1
  Y  Y5  1  0.712692  0.712692  0.287308  1
  Sb  Sb6  1  0.001168  0.001168  0.998832  1
  Sb  Sb7  1  0.499641  0.000839  0.999161  1
  Sb  Sb8  1  0.000839  0.499641  0.500359  1
  Sb  Sb9  1  0.000839  0.499641  0.999161  1
  Sb  Sb10  1  0.499641  0.000839  0.500359  1
  Sb  Sb11  1  0.000115  0.000115  0.499885  1
  Sb  Sb12  1  0.500115  0.500115  0.999885  1
  As  As13  1  0.505592  0.505592  0.494408  1
  Pd  Pd14  1  0.120018  0.120018  0.117892  1
  Pd  Pd15  1  0.878386  0.878386  0.887409  1
  Pd  Pd16  1  0.120018  0.120018  0.642071  1
  Pd  Pd17  1  0.112591  0.644179  0.121614  1
  Pd  Pd18  1  0.878386  0.878386  0.355821  1
  Pd  Pd19  1  0.882108  0.357929  0.879982  1
  Pd  Pd20  1  0.644179  0.112591  0.121614  1
  Pd  Pd21  1  0.357929  0.882108  0.879982  1
  Pd  Pd22  1  0.330264  0.330264  0.328698  1
  Pd  Pd23  1  0.669132  0.669132  0.668555  1
  Pd  Pd24  1  0.330264  0.330264  0.010774  1
  Pd  Pd25  1  0.331445  0.006821  0.330868  1
  Pd  Pd26  1  0.669132  0.669132  0.993179  1
  Pd  Pd27  1  0.671302  0.989226  0.669736  1
  Pd  Pd28  1  0.006821  0.331445  0.330868  1
  Pd  Pd29  1  0.989226  0.671302  0.669736  1
