# generated using pymatgen
data_Sc5Co19P12
_symmetry_space_group_name_H-M   'P 1'
_cell_length_a   11.79622900
_cell_length_b   11.79622926
_cell_length_c   3.58140900
_cell_angle_alpha   90.00000000
_cell_angle_beta   90.00000000
_cell_angle_gamma   120.00000206
_symmetry_Int_Tables_number   1
_chemical_formula_structural   Sc5Co19P12
_chemical_formula_sum   'Sc5 Co19 P12'
_cell_volume   431.58957212
_cell_formula_units_Z   1
loop_
 _symmetry_equiv_pos_site_id
 _symmetry_equiv_pos_as_xyz
  1  'x, y, z'
loop_
 _atom_site_type_symbol
 _atom_site_label
 _atom_site_symmetry_multiplicity
 _atom_site_fract_x
 _atom_site_fract_y
 _atom_site_fract_z
 _atom_site_occupancy
  Sc  Sc0  1  0.333333  0.666667  0.500000  1
  Sc  Sc1  1  0.666667  0.333333  0.500000  1
  Sc  Sc2  1  0.815095  0.000000  0.000000  1
  Sc  Sc3  1  0.000000  0.815095  0.000000  1
  Sc  Sc4  1  0.184905  0.184905  0.000000  1
  Co  Co5  1  0.623972  0.802114  0.500000  1
  Co  Co6  1  0.197886  0.821859  0.500000  1
  Co  Co7  1  0.178141  0.376028  0.500000  1
  Co  Co8  1  0.376028  0.178141  0.500000  1
  Co  Co9  1  0.802114  0.623972  0.500000  1
  Co  Co10  1  0.821859  0.197886  0.500000  1
  Co  Co11  1  0.284693  0.000000  0.000000  1
  Co  Co12  1  0.000000  0.284693  0.000000  1
  Co  Co13  1  0.715307  0.715307  0.000000  1
  Co  Co14  1  0.449750  0.000000  0.500000  1
  Co  Co15  1  0.000000  0.449750  0.500000  1
  Co  Co16  1  0.550250  0.550250  0.500000  1
  Co  Co17  1  0.516840  0.873022  0.000000  1
  Co  Co18  1  0.126978  0.643818  0.000000  1
  Co  Co19  1  0.356182  0.483160  0.000000  1
  Co  Co20  1  0.483160  0.356182  0.000000  1
  Co  Co21  1  0.873022  0.516840  0.000000  1
  Co  Co22  1  0.643818  0.126978  0.000000  1
  Co  Co23  1  0.000000  0.000000  0.500000  1
  P  P24  1  0.177833  0.000000  0.500000  1
  P  P25  1  0.000000  0.177833  0.500000  1
  P  P26  1  0.822167  0.822167  0.500000  1
  P  P27  1  0.516184  0.683407  0.000000  1
  P  P28  1  0.316593  0.832777  0.000000  1
  P  P29  1  0.167223  0.483816  0.000000  1
  P  P30  1  0.483816  0.167223  0.000000  1
  P  P31  1  0.683407  0.516184  0.000000  1
  P  P32  1  0.832777  0.316593  0.000000  1
  P  P33  1  0.637661  0.000000  0.500000  1
  P  P34  1  0.000000  0.637661  0.500000  1
  P  P35  1  0.362339  0.362339  0.500000  1
