# generated using pymatgen
data_Ce3Tm2Al2Os3
_symmetry_space_group_name_H-M   'P 1'
_cell_length_a   8.40805560
_cell_length_b   8.40805441
_cell_length_c   8.40805551
_cell_angle_alpha   110.16255665
_cell_angle_beta   110.16256544
_cell_angle_gamma   110.16255341
_symmetry_Int_Tables_number   1
_chemical_formula_structural   Ce3Tm2Al2Os3
_chemical_formula_sum   'Ce6 Tm4 Al4 Os6'
_cell_volume   445.48089963
_cell_formula_units_Z   2
loop_
 _symmetry_equiv_pos_site_id
 _symmetry_equiv_pos_as_xyz
  1  'x, y, z'
loop_
 _atom_site_type_symbol
 _atom_site_label
 _atom_site_symmetry_multiplicity
 _atom_site_fract_x
 _atom_site_fract_y
 _atom_site_fract_z
 _atom_site_occupancy
  Ce  Ce0  1  0.715438  0.511565  0.999186  1
  Ce  Ce1  1  0.999186  0.715438  0.511565  1
  Ce  Ce2  1  0.511565  0.999186  0.715438  1
  Ce  Ce3  1  0.247921  0.187808  0.938350  1
  Ce  Ce4  1  0.938350  0.247921  0.187808  1
  Ce  Ce5  1  0.187808  0.938350  0.247921  1
  Tm  Tm6  1  0.771467  0.771467  0.771467  1
  Tm  Tm7  1  0.318082  0.570306  0.750808  1
  Tm  Tm8  1  0.750808  0.318082  0.570306  1
  Tm  Tm9  1  0.570306  0.750808  0.318082  1
  Al  Al10  1  0.401641  0.401641  0.401641  1
  Al  Al11  1  0.100265  0.499170  0.000037  1
  Al  Al12  1  0.000037  0.100265  0.499170  1
  Al  Al13  1  0.499170  0.000037  0.100265  1
  Os  Os14  1  0.883914  0.116444  0.746734  1
  Os  Os15  1  0.746734  0.883914  0.116444  1
  Os  Os16  1  0.116444  0.746734  0.883914  1
  Os  Os17  1  0.243144  0.619105  0.378617  1
  Os  Os18  1  0.378617  0.243144  0.619105  1
  Os  Os19  1  0.619105  0.378617  0.243144  1
