# generated using pymatgen
data_Ca2Pr3Nd5Ir4
_symmetry_space_group_name_H-M   'P 1'
_cell_length_a   8.91566275
_cell_length_b   8.92119939
_cell_length_c   7.44253514
_cell_angle_alpha   83.42704499
_cell_angle_beta   83.37635170
_cell_angle_gamma   44.13409761
_symmetry_Int_Tables_number   1
_chemical_formula_structural   Ca2Pr3Nd5Ir4
_chemical_formula_sum   'Ca2 Pr3 Nd5 Ir4'
_cell_volume   409.02943196
_cell_formula_units_Z   1
loop_
 _symmetry_equiv_pos_site_id
 _symmetry_equiv_pos_as_xyz
  1  'x, y, z'
loop_
 _atom_site_type_symbol
 _atom_site_label
 _atom_site_symmetry_multiplicity
 _atom_site_fract_x
 _atom_site_fract_y
 _atom_site_fract_z
 _atom_site_occupancy
  Ca  Ca0  1  0.017161  0.799017  0.917515  1
  Ca  Ca1  1  0.201103  0.982722  0.582459  1
  Pr  Pr2  1  0.981989  0.202477  0.084420  1
  Pr  Pr3  1  0.797705  0.017764  0.415609  1
  Pr  Pr4  1  0.351467  0.212649  0.817612  1
  Nd  Nd5  1  0.787082  0.648348  0.682026  1
  Nd  Nd6  1  0.653309  0.786799  0.182967  1
  Nd  Nd7  1  0.212893  0.346901  0.317220  1
  Nd  Nd8  1  0.562805  0.437471  0.749967  1
  Nd  Nd9  1  0.429967  0.570023  0.250014  1
  Ir  Ir10  1  0.179801  0.589003  0.569642  1
  Ir  Ir11  1  0.411740  0.819386  0.930102  1
  Ir  Ir12  1  0.816810  0.404293  0.424351  1
  Ir  Ir13  1  0.596168  0.183147  0.076097  1
