# generated using pymatgen
data_La4Mn3VF28
_symmetry_space_group_name_H-M   'P 1'
_cell_length_a   5.67748111
_cell_length_b   9.15575896
_cell_length_c   12.23052574
_cell_angle_alpha   62.05279886
_cell_angle_beta   90.01242576
_cell_angle_gamma   89.98881025
_symmetry_Int_Tables_number   1
_chemical_formula_structural   La4Mn3VF28
_chemical_formula_sum   'La4 Mn3 V1 F28'
_cell_volume   561.62007753
_cell_formula_units_Z   1
loop_
 _symmetry_equiv_pos_site_id
 _symmetry_equiv_pos_as_xyz
  1  'x, y, z'
loop_
 _atom_site_type_symbol
 _atom_site_label
 _atom_site_symmetry_multiplicity
 _atom_site_fract_x
 _atom_site_fract_y
 _atom_site_fract_z
 _atom_site_occupancy
  La  La0  1  0.759536  0.806318  0.265103  1
  La  La1  1  0.260357  0.195256  0.232997  1
  La  La2  1  0.239864  0.189584  0.736402  1
  La  La3  1  0.740271  0.805802  0.766323  1
  Mn  Mn4  1  0.743323  0.274372  0.956512  1
  Mn  Mn5  1  0.756774  0.274527  0.456539  1
  Mn  Mn6  1  0.256725  0.725438  0.043590  1
  V  V7  1  0.244111  0.725557  0.543286  1
  F  F8  1  0.967247  0.714748  0.459246  1
  F  F9  1  0.474364  0.285613  0.037810  1
  F  F10  1  0.025815  0.285555  0.538184  1
  F  F11  1  0.525379  0.714375  0.962324  1
  F  F12  1  0.069440  0.708684  0.927561  1
  F  F13  1  0.568566  0.291422  0.572717  1
  F  F14  1  0.930952  0.291291  0.072591  1
  F  F15  1  0.436145  0.710818  0.423240  1
  F  F16  1  0.736611  0.502042  0.864828  1
  F  F17  1  0.234682  0.497451  0.636230  1
  F  F18  1  0.263390  0.497415  0.135461  1
  F  F19  1  0.763397  0.502160  0.364345  1
  F  F20  1  0.740409  0.048116  0.044889  1
  F  F21  1  0.241363  0.952143  0.454054  1
  F  F22  1  0.259714  0.952161  0.954967  1
  F  F23  1  0.759865  0.048018  0.544932  1
  F  F24  1  0.053161  0.739563  0.666129  1
  F  F25  1  0.556501  0.260134  0.837179  1
  F  F26  1  0.943549  0.259738  0.337296  1
  F  F27  1  0.442686  0.739934  0.162464  1
  F  F28  1  0.007647  0.269678  0.870291  1
  F  F29  1  0.514987  0.730560  0.632107  1
  F  F30  1  0.992665  0.730446  0.129384  1
  F  F31  1  0.492408  0.269382  0.370448  1
  F  F32  1  0.097043  0.968546  0.229147  1
  F  F33  1  0.594714  0.032532  0.271847  1
  F  F34  1  0.903519  0.032872  0.771487  1
  F  F35  1  0.402821  0.967748  0.728092  1
