# generated using pymatgen
data_Lu2V(Fe3P2)3
_symmetry_space_group_name_H-M   'P 1'
_cell_length_a   3.63476500
_cell_length_b   10.28562700
_cell_length_c   11.81083300
_cell_angle_alpha   90.00000000
_cell_angle_beta   90.00000000
_cell_angle_gamma   90.00000000
_symmetry_Int_Tables_number   1
_chemical_formula_structural   Lu2V(Fe3P2)3
_chemical_formula_sum   'Lu4 V2 Fe18 P12'
_cell_volume   441.55787764
_cell_formula_units_Z   2
loop_
 _symmetry_equiv_pos_site_id
 _symmetry_equiv_pos_as_xyz
  1  'x, y, z'
loop_
 _atom_site_type_symbol
 _atom_site_label
 _atom_site_symmetry_multiplicity
 _atom_site_fract_x
 _atom_site_fract_y
 _atom_site_fract_z
 _atom_site_occupancy
  Lu  Lu0  1  0.250000  0.575559  0.703184  1
  Lu  Lu1  1  0.250000  0.924441  0.203184  1
  Lu  Lu2  1  0.750000  0.416670  0.294814  1
  Lu  Lu3  1  0.750000  0.083330  0.794814  1
  V  V4  1  0.250000  0.702806  0.989292  1
  V  V5  1  0.250000  0.797194  0.489292  1
  Fe  Fe6  1  0.750000  0.296301  0.011771  1
  Fe  Fe7  1  0.750000  0.203699  0.511771  1
  Fe  Fe8  1  0.250000  0.399472  0.490551  1
  Fe  Fe9  1  0.250000  0.100528  0.990551  1
  Fe  Fe10  1  0.750000  0.588308  0.509994  1
  Fe  Fe11  1  0.750000  0.911692  0.009994  1
  Fe  Fe12  1  0.250000  0.223367  0.176260  1
  Fe  Fe13  1  0.250000  0.276633  0.676260  1
  Fe  Fe14  1  0.750000  0.784185  0.821746  1
  Fe  Fe15  1  0.750000  0.715815  0.321746  1
  Fe  Fe16  1  0.250000  0.873620  0.702753  1
  Fe  Fe17  1  0.250000  0.626380  0.202753  1
  Fe  Fe18  1  0.750000  0.122367  0.300230  1
  Fe  Fe19  1  0.750000  0.377633  0.800230  1
  Fe  Fe20  1  0.250000  0.463007  0.933597  1
  Fe  Fe21  1  0.250000  0.036993  0.433597  1
  Fe  Fe22  1  0.750000  0.537104  0.067046  1
  Fe  Fe23  1  0.750000  0.962896  0.567046  1
  P  P24  1  0.250000  0.423377  0.114273  1
  P  P25  1  0.250000  0.076623  0.614273  1
  P  P26  1  0.750000  0.576247  0.884158  1
  P  P27  1  0.750000  0.923753  0.384158  1
  P  P28  1  0.250000  0.265583  0.869099  1
  P  P29  1  0.250000  0.234417  0.369099  1
  P  P30  1  0.750000  0.740197  0.128624  1
  P  P31  1  0.750000  0.759803  0.628624  1
  P  P32  1  0.250000  0.588630  0.395942  1
  P  P33  1  0.250000  0.911370  0.895942  1
  P  P34  1  0.750000  0.393628  0.606666  1
  P  P35  1  0.750000  0.106372  0.106666  1
