# generated using pymatgen
data_Ho2UCu3Sb4
_symmetry_space_group_name_H-M   'P 1'
_cell_length_a   12.09512361
_cell_length_b   12.18937040
_cell_length_c   11.92478979
_cell_angle_alpha   110.63724091
_cell_angle_beta   109.13877863
_cell_angle_gamma   110.66179160
_symmetry_Int_Tables_number   1
_chemical_formula_structural   Ho2UCu3Sb4
_chemical_formula_sum   'Ho4 U2 Cu6 Sb8'
_cell_volume   1318.26470470
_cell_formula_units_Z   2
loop_
 _symmetry_equiv_pos_site_id
 _symmetry_equiv_pos_as_xyz
  1  'x, y, z'
loop_
 _atom_site_type_symbol
 _atom_site_label
 _atom_site_symmetry_multiplicity
 _atom_site_fract_x
 _atom_site_fract_y
 _atom_site_fract_z
 _atom_site_occupancy
  Ho  Ho0  1  0.250377  0.124672  0.874870  1
  Ho  Ho1  1  0.750516  0.374509  0.624898  1
  Ho  Ho2  1  0.125473  0.874436  0.249971  1
  Ho  Ho3  1  0.375337  0.624658  0.749631  1
  U  U4  1  0.866092  0.256007  0.128595  1
  U  U5  1  0.623100  0.752224  0.371477  1
  Cu  Cu6  1  0.375459  0.249452  0.624841  1
  Cu  Cu7  1  0.125349  0.749559  0.874914  1
  Cu  Cu8  1  0.249916  0.622142  0.373050  1
  Cu  Cu9  1  0.750699  0.876780  0.127069  1
  Cu  Cu10  1  0.627655  0.376581  0.249728  1
  Cu  Cu11  1  0.873833  0.122085  0.749585  1
  Sb  Sb12  1  0.658871  0.498165  0.003908  1
  Sb  Sb13  1  0.505142  0.000635  0.659417  1
  Sb  Sb14  1  0.996277  0.653195  0.495840  1
  Sb  Sb15  1  0.842820  0.845759  0.841314  1
  Sb  Sb16  1  0.505097  0.999222  0.158190  1
  Sb  Sb17  1  0.159707  0.500412  0.005275  1
  Sb  Sb18  1  0.996667  0.153885  0.494869  1
  Sb  Sb19  1  0.341612  0.345621  0.342560  1
