# generated using pymatgen
data_CsSm6Er4(C2I9)2
_symmetry_space_group_name_H-M   'P 1'
_cell_length_a   11.50187428
_cell_length_b   11.54414192
_cell_length_c   11.61126870
_cell_angle_alpha   113.27245179
_cell_angle_beta   87.05746926
_cell_angle_gamma   119.60724195
_symmetry_Int_Tables_number   1
_chemical_formula_structural   CsSm6Er4(C2I9)2
_chemical_formula_sum   'Cs1 Sm6 Er4 C4 I18'
_cell_volume   1211.23109803
_cell_formula_units_Z   1
loop_
 _symmetry_equiv_pos_site_id
 _symmetry_equiv_pos_as_xyz
  1  'x, y, z'
loop_
 _atom_site_type_symbol
 _atom_site_label
 _atom_site_symmetry_multiplicity
 _atom_site_fract_x
 _atom_site_fract_y
 _atom_site_fract_z
 _atom_site_occupancy
  Cs  Cs0  1  0.499187  0.997844  0.499063  1
  Sm  Sm1  1  0.907555  0.602865  0.703983  1
  Sm  Sm2  1  0.107150  0.945463  0.001444  1
  Sm  Sm3  1  0.034922  0.961605  0.673344  1
  Sm  Sm4  1  0.327382  0.277887  0.292262  1
  Sm  Sm5  1  0.720653  0.644311  0.984039  1
  Sm  Sm6  1  0.893767  0.057126  0.000351  1
  Er  Er7  1  0.677702  0.724156  0.711466  1
  Er  Er8  1  0.273913  0.350277  0.018547  1
  Er  Er9  1  0.094770  0.390226  0.291413  1
  Er  Er10  1  0.967193  0.040720  0.321216  1
  C  C11  1  0.152605  0.223352  0.124250  1
  C  C12  1  0.845471  0.776940  0.874912  1
  C  C13  1  0.919755  0.851988  0.800209  1
  C  C14  1  0.077511  0.148005  0.199368  1
  I  I15  1  0.447251  0.530792  0.828710  1
  I  I16  1  0.388123  0.037568  0.158669  1
  I  I17  1  0.772423  0.854084  0.500374  1
  I  I18  1  0.840625  0.316023  0.158322  1
  I  I19  1  0.547669  0.469747  0.166082  1
  I  I20  1  0.218596  0.143725  0.497969  1
  I  I21  1  0.319093  0.101952  0.834325  1
  I  I22  1  0.685945  0.907600  0.174463  1
  I  I23  1  0.977125  0.761840  0.174235  1
  I  I24  1  0.936353  0.297600  0.497645  1
  I  I25  1  0.028904  0.248518  0.834135  1
  I  I26  1  0.069380  0.699477  0.495554  1
  I  I27  1  0.259607  0.617189  0.182867  1
  I  I28  1  0.738188  0.372326  0.815163  1
  I  I29  1  0.637422  0.436949  0.500229  1
  I  I30  1  0.166762  0.688300  0.847085  1
  I  I31  1  0.613424  0.955518  0.838176  1
  I  I32  1  0.353573  0.568028  0.500134  1
