# generated using pymatgen
data_Er3Lu(TcB4)4
_symmetry_space_group_name_H-M   'P 1'
_cell_length_a   3.57891400
_cell_length_b   5.93928828
_cell_length_c   11.48725255
_cell_angle_alpha   89.96461594
_cell_angle_beta   90.00000000
_cell_angle_gamma   90.00000000
_symmetry_Int_Tables_number   1
_chemical_formula_structural   Er3Lu(TcB4)4
_chemical_formula_sum   'Er3 Lu1 Tc4 B16'
_cell_volume   244.17531386
_cell_formula_units_Z   1
loop_
 _symmetry_equiv_pos_site_id
 _symmetry_equiv_pos_as_xyz
  1  'x, y, z'
loop_
 _atom_site_type_symbol
 _atom_site_label
 _atom_site_symmetry_multiplicity
 _atom_site_fract_x
 _atom_site_fract_y
 _atom_site_fract_z
 _atom_site_occupancy
  Er  Er0  1  0.500000  0.372013  0.150148  1
  Er  Er1  1  0.500000  0.628183  0.849955  1
  Er  Er2  1  0.500000  0.128106  0.649780  1
  Lu  Lu3  1  0.500000  0.871839  0.350491  1
  Tc  Tc4  1  0.500000  0.365849  0.411726  1
  Tc  Tc5  1  0.500000  0.634259  0.587482  1
  Tc  Tc6  1  0.500000  0.133281  0.912136  1
  Tc  Tc7  1  0.500000  0.866420  0.088615  1
  B  B8  1  0.000000  0.113335  0.047878  1
  B  B9  1  0.000000  0.886465  0.952537  1
  B  B10  1  0.000000  0.386800  0.547238  1
  B  B11  1  0.000000  0.614366  0.451870  1
  B  B12  1  0.000000  0.134880  0.468432  1
  B  B13  1  0.000000  0.864907  0.530683  1
  B  B14  1  0.000000  0.364819  0.968883  1
  B  B15  1  0.000000  0.635275  0.031378  1
  B  B16  1  0.000000  0.021754  0.193602  1
  B  B17  1  0.000000  0.977754  0.807029  1
  B  B18  1  0.000000  0.477805  0.692662  1
  B  B19  1  0.000000  0.522803  0.307152  1
  B  B20  1  0.000000  0.210302  0.315047  1
  B  B21  1  0.000000  0.788606  0.684882  1
  B  B22  1  0.000000  0.288695  0.814789  1
  B  B23  1  0.000000  0.711484  0.185605  1
