# generated using pymatgen
data_Pb2W3Cl14
_symmetry_space_group_name_H-M   'P 1'
_cell_length_a   9.76923000
_cell_length_b   9.76922883
_cell_length_c   12.66996400
_cell_angle_alpha   90.00000000
_cell_angle_beta   90.00000000
_cell_angle_gamma   120.00000397
_symmetry_Int_Tables_number   1
_chemical_formula_structural   Pb2W3Cl14
_chemical_formula_sum   'Pb4 W6 Cl28'
_cell_volume   1047.19271409
_cell_formula_units_Z   2
loop_
 _symmetry_equiv_pos_site_id
 _symmetry_equiv_pos_as_xyz
  1  'x, y, z'
loop_
 _atom_site_type_symbol
 _atom_site_label
 _atom_site_symmetry_multiplicity
 _atom_site_fract_x
 _atom_site_fract_y
 _atom_site_fract_z
 _atom_site_occupancy
  Pb  Pb0  1  0.333333  0.666667  0.298706  1
  Pb  Pb1  1  0.666667  0.333333  0.798706  1
  Pb  Pb2  1  0.000000  0.000000  0.258464  1
  Pb  Pb3  1  0.000000  0.000000  0.758464  1
  W  W4  1  0.852354  0.409114  0.338570  1
  W  W5  1  0.590886  0.443240  0.338570  1
  W  W6  1  0.556760  0.147646  0.338570  1
  W  W7  1  0.147646  0.590886  0.838570  1
  W  W8  1  0.409114  0.556760  0.838570  1
  W  W9  1  0.443240  0.852354  0.838570  1
  Cl  Cl10  1  0.666667  0.333333  0.193709  1
  Cl  Cl11  1  0.333333  0.666667  0.693709  1
  Cl  Cl12  1  0.757151  0.201390  0.469218  1
  Cl  Cl13  1  0.798610  0.555761  0.469218  1
  Cl  Cl14  1  0.444239  0.242849  0.469218  1
  Cl  Cl15  1  0.242849  0.798610  0.969218  1
  Cl  Cl16  1  0.201390  0.444239  0.969218  1
  Cl  Cl17  1  0.555761  0.757151  0.969218  1
  Cl  Cl18  1  0.974974  0.298898  0.229029  1
  Cl  Cl19  1  0.701102  0.676074  0.229029  1
  Cl  Cl20  1  0.323926  0.025026  0.229029  1
  Cl  Cl21  1  0.025026  0.701102  0.729029  1
  Cl  Cl22  1  0.298898  0.323926  0.729029  1
  Cl  Cl23  1  0.676074  0.974974  0.729029  1
  Cl  Cl24  1  0.094239  0.501089  0.448379  1
  Cl  Cl25  1  0.498911  0.593150  0.448379  1
  Cl  Cl26  1  0.406850  0.905761  0.448379  1
  Cl  Cl27  1  0.905761  0.498911  0.948379  1
  Cl  Cl28  1  0.501089  0.406850  0.948379  1
  Cl  Cl29  1  0.593150  0.094239  0.948379  1
  Cl  Cl30  1  0.014162  0.647863  0.240027  1
  Cl  Cl31  1  0.352137  0.366299  0.240027  1
  Cl  Cl32  1  0.633701  0.985838  0.240027  1
  Cl  Cl33  1  0.985838  0.352137  0.740027  1
  Cl  Cl34  1  0.647863  0.633701  0.740027  1
  Cl  Cl35  1  0.366299  0.014162  0.740027  1
  Cl  Cl36  1  0.000000  0.000000  0.058695  1
  Cl  Cl37  1  0.000000  0.000000  0.558695  1
