# generated using pymatgen
data_LiMgFe3SnO8
_symmetry_space_group_name_H-M   'P 1'
_cell_length_a   6.02874700
_cell_length_b   6.02874684
_cell_length_c   9.86120700
_cell_angle_alpha   90.00000000
_cell_angle_beta   90.00000000
_cell_angle_gamma   120.00001736
_symmetry_Int_Tables_number   1
_chemical_formula_structural   LiMgFe3SnO8
_chemical_formula_sum   'Li2 Mg2 Fe6 Sn2 O16'
_cell_volume   310.39501436
_cell_formula_units_Z   2
loop_
 _symmetry_equiv_pos_site_id
 _symmetry_equiv_pos_as_xyz
  1  'x, y, z'
loop_
 _atom_site_type_symbol
 _atom_site_label
 _atom_site_symmetry_multiplicity
 _atom_site_fract_x
 _atom_site_fract_y
 _atom_site_fract_z
 _atom_site_occupancy
  Li  Li0  1  0.000000  0.000000  0.821997  1
  Li  Li1  1  0.000000  0.000000  0.321997  1
  Mg  Mg2  1  0.666667  0.333333  0.913306  1
  Mg  Mg3  1  0.333333  0.666667  0.413306  1
  Fe  Fe4  1  0.832550  0.665100  0.601920  1
  Fe  Fe5  1  0.832550  0.167450  0.601920  1
  Fe  Fe6  1  0.167450  0.334900  0.101920  1
  Fe  Fe7  1  0.334900  0.167450  0.601920  1
  Fe  Fe8  1  0.167450  0.832550  0.101920  1
  Fe  Fe9  1  0.665100  0.832550  0.101920  1
  Sn  Sn10  1  0.666667  0.333333  0.324133  1
  Sn  Sn11  1  0.333333  0.666667  0.824133  1
  O  O12  1  0.484110  0.968221  0.972905  1
  O  O13  1  0.484110  0.515890  0.972905  1
  O  O14  1  0.515890  0.031779  0.472905  1
  O  O15  1  0.031779  0.515890  0.972905  1
  O  O16  1  0.515890  0.484110  0.472905  1
  O  O17  1  0.968221  0.484110  0.472905  1
  O  O18  1  0.666667  0.333333  0.710095  1
  O  O19  1  0.333333  0.666667  0.210095  1
  O  O20  1  0.161954  0.323907  0.716784  1
  O  O21  1  0.161954  0.838046  0.716784  1
  O  O22  1  0.838046  0.676093  0.216784  1
  O  O23  1  0.676093  0.838046  0.716784  1
  O  O24  1  0.838046  0.161954  0.216784  1
  O  O25  1  0.323907  0.161954  0.216784  1
  O  O26  1  0.000000  0.000000  0.005641  1
  O  O27  1  0.000000  0.000000  0.505641  1
