# generated using pymatgen
data_Tb7Tm4Cd9Pd4
_symmetry_space_group_name_H-M   'P 1'
_cell_length_a   13.16415500
_cell_length_b   13.16415567
_cell_length_c   3.72842800
_cell_angle_alpha   90.00000000
_cell_angle_beta   90.00000000
_cell_angle_gamma   112.88898103
_symmetry_Int_Tables_number   1
_chemical_formula_structural   Tb7Tm4Cd9Pd4
_chemical_formula_sum   'Tb7 Tm4 Cd9 Pd4'
_cell_volume   595.24269992
_cell_formula_units_Z   1
loop_
 _symmetry_equiv_pos_site_id
 _symmetry_equiv_pos_as_xyz
  1  'x, y, z'
loop_
 _atom_site_type_symbol
 _atom_site_label
 _atom_site_symmetry_multiplicity
 _atom_site_fract_x
 _atom_site_fract_y
 _atom_site_fract_z
 _atom_site_occupancy
  Tb  Tb0  1  0.162594  0.837406  0.000000  1
  Tb  Tb1  1  0.837406  0.162594  0.000000  1
  Tb  Tb2  1  0.372702  0.627298  0.000000  1
  Tb  Tb3  1  0.627298  0.372702  0.000000  1
  Tb  Tb4  1  0.307340  0.307340  0.000000  1
  Tb  Tb5  1  0.692660  0.692660  0.000000  1
  Tb  Tb6  1  0.000000  0.000000  0.000000  1
  Tm  Tm7  1  0.415542  0.075686  0.000000  1
  Tm  Tm8  1  0.584458  0.924314  0.000000  1
  Tm  Tm9  1  0.075686  0.415542  0.000000  1
  Tm  Tm10  1  0.924314  0.584458  0.000000  1
  Cd  Cd11  1  0.368034  0.843995  0.500000  1
  Cd  Cd12  1  0.631966  0.156005  0.500000  1
  Cd  Cd13  1  0.843995  0.368034  0.500000  1
  Cd  Cd14  1  0.156005  0.631966  0.500000  1
  Cd  Cd15  1  0.215073  0.068687  0.500000  1
  Cd  Cd16  1  0.784927  0.931313  0.500000  1
  Cd  Cd17  1  0.068687  0.215073  0.500000  1
  Cd  Cd18  1  0.931313  0.784927  0.500000  1
  Cd  Cd19  1  0.500000  0.500000  0.500000  1
  Pd  Pd20  1  0.450753  0.247381  0.500000  1
  Pd  Pd21  1  0.549247  0.752619  0.500000  1
  Pd  Pd22  1  0.247381  0.450753  0.500000  1
  Pd  Pd23  1  0.752619  0.549247  0.500000  1
