# generated using pymatgen
data_SrDySiGe3N7
_symmetry_space_group_name_H-M   'P 1'
_cell_length_a   6.27764800
_cell_length_b   6.27764867
_cell_length_c   10.12994700
_cell_angle_alpha   90.00000000
_cell_angle_beta   90.00000000
_cell_angle_gamma   119.99998591
_symmetry_Int_Tables_number   1
_chemical_formula_structural   SrDySiGe3N7
_chemical_formula_sum   'Sr2 Dy2 Si2 Ge6 N14'
_cell_volume   345.72583464
_cell_formula_units_Z   2
loop_
 _symmetry_equiv_pos_site_id
 _symmetry_equiv_pos_as_xyz
  1  'x, y, z'
loop_
 _atom_site_type_symbol
 _atom_site_label
 _atom_site_symmetry_multiplicity
 _atom_site_fract_x
 _atom_site_fract_y
 _atom_site_fract_z
 _atom_site_occupancy
  Sr  Sr0  1  0.666667  0.333333  0.581826  1
  Sr  Sr1  1  0.333333  0.666667  0.081826  1
  Dy  Dy2  1  0.666667  0.333333  0.952602  1
  Dy  Dy3  1  0.333333  0.666667  0.452602  1
  Si  Si4  1  0.000000  0.000000  0.027465  1
  Si  Si5  1  0.000000  0.000000  0.527465  1
  Ge  Ge6  1  0.171671  0.343341  0.760619  1
  Ge  Ge7  1  0.828329  0.171671  0.260619  1
  Ge  Ge8  1  0.343341  0.171671  0.260619  1
  Ge  Ge9  1  0.656659  0.828329  0.760619  1
  Ge  Ge10  1  0.171671  0.828329  0.760619  1
  Ge  Ge11  1  0.828329  0.656659  0.260619  1
  N  N12  1  0.000000  0.000000  0.842839  1
  N  N13  1  0.000000  0.000000  0.342839  1
  N  N14  1  0.849004  0.698008  0.079735  1
  N  N15  1  0.150996  0.849004  0.579735  1
  N  N16  1  0.698008  0.849004  0.579735  1
  N  N17  1  0.301992  0.150996  0.079735  1
  N  N18  1  0.849004  0.150996  0.079735  1
  N  N19  1  0.150996  0.301992  0.579735  1
  N  N20  1  0.495358  0.504642  0.815676  1
  N  N21  1  0.990718  0.495358  0.315676  1
  N  N22  1  0.504642  0.009282  0.315676  1
  N  N23  1  0.495358  0.990718  0.815676  1
  N  N24  1  0.504642  0.495358  0.315676  1
  N  N25  1  0.009282  0.504642  0.815676  1
