# generated using pymatgen
data_Ce4Al18Ir5Os
_symmetry_space_group_name_H-M   'P 1'
_cell_length_a   7.62323195
_cell_length_b   7.62323137
_cell_length_c   9.47814760
_cell_angle_alpha   89.88571992
_cell_angle_beta   89.88571619
_cell_angle_gamma   119.44483244
_symmetry_Int_Tables_number   1
_chemical_formula_structural   Ce4Al18Ir5Os
_chemical_formula_sum   'Ce4 Al18 Ir5 Os1'
_cell_volume   479.65767654
_cell_formula_units_Z   1
loop_
 _symmetry_equiv_pos_site_id
 _symmetry_equiv_pos_as_xyz
  1  'x, y, z'
loop_
 _atom_site_type_symbol
 _atom_site_label
 _atom_site_symmetry_multiplicity
 _atom_site_fract_x
 _atom_site_fract_y
 _atom_site_fract_z
 _atom_site_occupancy
  Ce  Ce0  1  0.996399  0.672985  0.249030  1
  Ce  Ce1  1  0.003601  0.327015  0.750970  1
  Ce  Ce2  1  0.672985  0.996399  0.249030  1
  Ce  Ce3  1  0.327015  0.003601  0.750970  1
  Al  Al4  1  0.129481  0.129481  0.249545  1
  Al  Al5  1  0.870519  0.870519  0.750455  1
  Al  Al6  1  0.003600  0.335096  0.075237  1
  Al  Al7  1  0.996400  0.664904  0.924763  1
  Al  Al8  1  0.997268  0.664060  0.575071  1
  Al  Al9  1  0.335940  0.002732  0.424929  1
  Al  Al10  1  0.002732  0.335940  0.424929  1
  Al  Al11  1  0.664060  0.997268  0.575071  1
  Al  Al12  1  0.664904  0.996400  0.924763  1
  Al  Al13  1  0.335096  0.003600  0.075237  1
  Al  Al14  1  0.334551  0.334551  0.551886  1
  Al  Al15  1  0.665449  0.665449  0.448114  1
  Al  Al16  1  0.666249  0.666249  0.051150  1
  Al  Al17  1  0.333751  0.333751  0.948850  1
  Al  Al18  1  0.341158  0.548307  0.250241  1
  Al  Al19  1  0.658842  0.451693  0.749759  1
  Al  Al20  1  0.548307  0.341158  0.250241  1
  Al  Al21  1  0.451693  0.658842  0.749759  1
  Ir  Ir22  1  0.672018  0.327982  0.000000  1
  Ir  Ir23  1  0.327982  0.672018  0.000000  1
  Ir  Ir24  1  0.328146  0.671854  0.500000  1
  Ir  Ir25  1  0.671854  0.328146  0.500000  1
  Ir  Ir26  1  0.000000  0.000000  0.500000  1
  Os  Os27  1  0.000000  0.000000  0.000000  1
