# generated using pymatgen
data_SrSbIrF12
_symmetry_space_group_name_H-M   'P 1'
_cell_length_a   11.63849310
_cell_length_b   5.87114334
_cell_length_c   5.87980200
_cell_angle_alpha   57.33046392
_cell_angle_beta   56.76449752
_cell_angle_gamma   56.89894618
_symmetry_Int_Tables_number   1
_chemical_formula_structural   SrSbIrF12
_chemical_formula_sum   'Sr1 Sb1 Ir1 F12'
_cell_volume   264.41641426
_cell_formula_units_Z   1
loop_
 _symmetry_equiv_pos_site_id
 _symmetry_equiv_pos_as_xyz
  1  'x, y, z'
loop_
 _atom_site_type_symbol
 _atom_site_label
 _atom_site_symmetry_multiplicity
 _atom_site_fract_x
 _atom_site_fract_y
 _atom_site_fract_z
 _atom_site_occupancy
  Sr  Sr0  1  0.750090  0.497252  0.502932  1
  Sb  Sb1  1  0.474026  0.020006  0.015873  1
  Ir  Ir2  1  0.019743  0.986989  0.985939  1
  F  F3  1  0.187068  0.088247  0.768042  1
  F  F4  1  0.659987  0.094477  0.803268  1
  F  F5  1  0.054426  0.782760  0.335873  1
  F  F6  1  0.539469  0.794015  0.344307  1
  F  F7  1  0.121752  0.644855  0.896914  1
  F  F8  1  0.598660  0.665972  0.916734  1
  F  F9  1  0.447763  0.210880  0.656565  1
  F  F10  1  0.963544  0.206339  0.646568  1
  F  F11  1  0.309471  0.906462  0.234871  1
  F  F12  1  0.838278  0.902420  0.201202  1
  F  F13  1  0.382500  0.359714  0.103283  1
  F  F14  1  0.903224  0.339609  0.087627  1
