# generated using pymatgen
data_CeTi2(GaPd)2
_symmetry_space_group_name_H-M   'P 1'
_cell_length_a   5.53590868
_cell_length_b   5.53590827
_cell_length_c   5.53590900
_cell_angle_alpha   100.57437427
_cell_angle_beta   102.82784896
_cell_angle_gamma   126.47456445
_symmetry_Int_Tables_number   1
_chemical_formula_structural   CeTi2(GaPd)2
_chemical_formula_sum   'Ce1 Ti2 Ga2 Pd2'
_cell_volume   121.77382892
_cell_formula_units_Z   1
loop_
 _symmetry_equiv_pos_site_id
 _symmetry_equiv_pos_as_xyz
  1  'x, y, z'
loop_
 _atom_site_type_symbol
 _atom_site_label
 _atom_site_symmetry_multiplicity
 _atom_site_fract_x
 _atom_site_fract_y
 _atom_site_fract_z
 _atom_site_occupancy
  Ce  Ce0  1  0.001901  0.000000  0.001901  1
  Ti  Ti1  1  0.249424  0.750562  0.498862  1
  Ti  Ti2  1  0.748300  0.249438  0.498862  1
  Ga  Ga3  1  0.306730  0.300323  0.607052  1
  Ga  Ga4  1  0.306730  0.699677  0.006406  1
  Pd  Pd5  1  0.693457  0.298964  0.992422  1
  Pd  Pd6  1  0.693457  0.701036  0.394495  1
