# generated using pymatgen
data_Nd12NiOs2Pd
_symmetry_space_group_name_H-M   'P 1'
_cell_length_a   6.50518395
_cell_length_b   7.39045099
_cell_length_c   9.87961100
_cell_angle_alpha   90.00000000
_cell_angle_beta   90.00000000
_cell_angle_gamma   90.36864185
_symmetry_Int_Tables_number   1
_chemical_formula_structural   Nd12NiOs2Pd
_chemical_formula_sum   'Nd12 Ni1 Os2 Pd1'
_cell_volume   474.96474933
_cell_formula_units_Z   1
loop_
 _symmetry_equiv_pos_site_id
 _symmetry_equiv_pos_as_xyz
  1  'x, y, z'
loop_
 _atom_site_type_symbol
 _atom_site_label
 _atom_site_symmetry_multiplicity
 _atom_site_fract_x
 _atom_site_fract_y
 _atom_site_fract_z
 _atom_site_occupancy
  Nd  Nd0  1  0.338935  0.673206  0.059182  1
  Nd  Nd1  1  0.170797  0.185892  0.435341  1
  Nd  Nd2  1  0.669742  0.321219  0.564563  1
  Nd  Nd3  1  0.829041  0.823966  0.930243  1
  Nd  Nd4  1  0.669742  0.321219  0.935437  1
  Nd  Nd5  1  0.829041  0.823966  0.569757  1
  Nd  Nd6  1  0.338935  0.673206  0.440818  1
  Nd  Nd7  1  0.170797  0.185892  0.064659  1
  Nd  Nd8  1  0.855903  0.528645  0.250000  1
  Nd  Nd9  1  0.633087  0.037756  0.250000  1
  Nd  Nd10  1  0.136003  0.463942  0.750000  1
  Nd  Nd11  1  0.358852  0.962432  0.750000  1
  Ni  Ni12  1  0.933576  0.117054  0.750000  1
  Os  Os13  1  0.438162  0.383187  0.250000  1
  Os  Os14  1  0.556545  0.614959  0.750000  1
  Pd  Pd15  1  0.070840  0.883457  0.250000  1
