# generated using pymatgen
data_Nd3In3IrAu2
_symmetry_space_group_name_H-M   'P 1'
_cell_length_a   7.82360800
_cell_length_b   7.82360776
_cell_length_c   4.11502800
_cell_angle_alpha   90.00000000
_cell_angle_beta   90.00000000
_cell_angle_gamma   120.00000102
_symmetry_Int_Tables_number   1
_chemical_formula_structural   Nd3In3IrAu2
_chemical_formula_sum   'Nd3 In3 Ir1 Au2'
_cell_volume   218.13109163
_cell_formula_units_Z   1
loop_
 _symmetry_equiv_pos_site_id
 _symmetry_equiv_pos_as_xyz
  1  'x, y, z'
loop_
 _atom_site_type_symbol
 _atom_site_label
 _atom_site_symmetry_multiplicity
 _atom_site_fract_x
 _atom_site_fract_y
 _atom_site_fract_z
 _atom_site_occupancy
  Nd  Nd0  1  0.982442  0.578694  0.500000  1
  Nd  Nd1  1  0.596252  0.017558  0.500000  1
  Nd  Nd2  1  0.421306  0.403748  0.500000  1
  In  In3  1  0.995089  0.254581  0.000000  1
  In  In4  1  0.259492  0.004911  0.000000  1
  In  In5  1  0.745419  0.740508  0.000000  1
  Ir  Ir6  1  0.666667  0.333333  0.000000  1
  Au  Au7  1  0.000000  0.000000  0.500000  1
  Au  Au8  1  0.333333  0.666667  0.000000  1
