# generated using pymatgen
data_Er2Tm10InFe3Ag
_symmetry_space_group_name_H-M   'P 1'
_cell_length_a   8.20019053
_cell_length_b   8.20018371
_cell_length_c   8.20018912
_cell_angle_alpha   110.16747954
_cell_angle_beta   106.78318872
_cell_angle_gamma   111.49893646
_symmetry_Int_Tables_number   1
_chemical_formula_structural   Er2Tm10InFe3Ag
_chemical_formula_sum   'Er2 Tm10 In1 Fe3 Ag1'
_cell_volume   423.71560318
_cell_formula_units_Z   1
loop_
 _symmetry_equiv_pos_site_id
 _symmetry_equiv_pos_as_xyz
  1  'x, y, z'
loop_
 _atom_site_type_symbol
 _atom_site_label
 _atom_site_symmetry_multiplicity
 _atom_site_fract_x
 _atom_site_fract_y
 _atom_site_fract_z
 _atom_site_occupancy
  Er  Er0  1  0.192970  0.441992  0.249022  1
  Er  Er1  1  0.807030  0.558008  0.750978  1
  Tm  Tm2  1  0.193539  0.944835  0.751294  1
  Tm  Tm3  1  0.960338  0.188843  0.770580  1
  Tm  Tm4  1  0.806461  0.055165  0.248706  1
  Tm  Tm5  1  0.039662  0.811157  0.229420  1
  Tm  Tm6  1  0.418262  0.188843  0.228505  1
  Tm  Tm7  1  0.581738  0.811157  0.771495  1
  Tm  Tm8  1  0.308705  0.307886  0.617491  1
  Tm  Tm9  1  0.691295  0.692114  0.382509  1
  Tm  Tm10  1  0.690395  0.307886  0.999182  1
  Tm  Tm11  1  0.309605  0.692114  0.000818  1
  In  In12  1  0.500000  0.000000  0.500000  1
  Fe  Fe13  1  0.383007  0.382677  0.999670  1
  Fe  Fe14  1  0.616993  0.617323  0.000330  1
  Fe  Fe15  1  0.000000  0.000000  0.000000  1
  Ag  Ag16  1  0.000000  0.500000  0.500000  1
