# generated using pymatgen
data_Dy5Lu2Mg(P3Ir4)4
_symmetry_space_group_name_H-M   'P 1'
_cell_length_a   12.95031152
_cell_length_b   12.79925613
_cell_length_c   3.98191300
_cell_angle_alpha   90.00000000
_cell_angle_beta   90.00000000
_cell_angle_gamma   119.61489432
_symmetry_Int_Tables_number   1
_chemical_formula_structural   Dy5Lu2Mg(P3Ir4)4
_chemical_formula_sum   'Dy5 Lu2 Mg1 P12 Ir16'
_cell_volume   573.79876961
_cell_formula_units_Z   1
loop_
 _symmetry_equiv_pos_site_id
 _symmetry_equiv_pos_as_xyz
  1  'x, y, z'
loop_
 _atom_site_type_symbol
 _atom_site_label
 _atom_site_symmetry_multiplicity
 _atom_site_fract_x
 _atom_site_fract_y
 _atom_site_fract_z
 _atom_site_occupancy
  Dy  Dy0  1  0.334801  0.666417  0.500000  1
  Dy  Dy1  1  0.665199  0.331615  0.500000  1
  Dy  Dy2  1  0.000000  0.811272  0.000000  1
  Dy  Dy3  1  0.186505  0.186459  0.000000  1
  Dy  Dy4  1  0.813495  0.999954  0.000000  1
  Lu  Lu5  1  0.557139  0.554315  0.500000  1
  Lu  Lu6  1  0.442861  0.997176  0.500000  1
  Mg  Mg7  1  0.000000  0.448173  0.500000  1
  P  P8  1  0.000000  0.643829  0.500000  1
  P  P9  1  0.346238  0.353285  0.500000  1
  P  P10  1  0.653762  0.007048  0.500000  1
  P  P11  1  0.516342  0.685383  0.000000  1
  P  P12  1  0.307621  0.826727  0.000000  1
  P  P13  1  0.172193  0.484205  0.000000  1
  P  P14  1  0.483658  0.169040  0.000000  1
  P  P15  1  0.692379  0.519105  0.000000  1
  P  P16  1  0.827807  0.312011  0.000000  1
  P  P17  1  0.000000  0.178628  0.500000  1
  P  P18  1  0.823831  0.825150  0.500000  1
  P  P19  1  0.176169  0.001319  0.500000  1
  Ir  Ir20  1  0.498881  0.857822  0.000000  1
  Ir  Ir21  1  0.131316  0.639792  0.000000  1
  Ir  Ir22  1  0.354755  0.479101  0.000000  1
  Ir  Ir23  1  0.501119  0.358940  0.000000  1
  Ir  Ir24  1  0.868684  0.508475  0.000000  1
  Ir  Ir25  1  0.645245  0.124345  0.000000  1
  Ir  Ir26  1  0.000000  0.276989  0.000000  1
  Ir  Ir27  1  0.724441  0.725176  0.000000  1
  Ir  Ir28  1  0.275559  0.000735  0.000000  1
  Ir  Ir29  1  0.631749  0.814012  0.500000  1
  Ir  Ir30  1  0.188852  0.818855  0.500000  1
  Ir  Ir31  1  0.173929  0.376862  0.500000  1
  Ir  Ir32  1  0.368251  0.182263  0.500000  1
  Ir  Ir33  1  0.811148  0.630003  0.500000  1
  Ir  Ir34  1  0.826071  0.202933  0.500000  1
  Ir  Ir35  1  0.000000  0.002589  0.500000  1
