# generated using pymatgen
data_Rb2TiBeSe4
_symmetry_space_group_name_H-M   'P 1'
_cell_length_a   14.43454833
_cell_length_b   12.90780826
_cell_length_c   7.61862429
_cell_angle_alpha   85.24646415
_cell_angle_beta   63.01867085
_cell_angle_gamma   31.73486573
_symmetry_Int_Tables_number   1
_chemical_formula_structural   Rb2TiBeSe4
_chemical_formula_sum   'Rb4 Ti2 Be2 Se8'
_cell_volume   507.66770885
_cell_formula_units_Z   2
loop_
 _symmetry_equiv_pos_site_id
 _symmetry_equiv_pos_as_xyz
  1  'x, y, z'
loop_
 _atom_site_type_symbol
 _atom_site_label
 _atom_site_symmetry_multiplicity
 _atom_site_fract_x
 _atom_site_fract_y
 _atom_site_fract_z
 _atom_site_occupancy
  Rb  Rb0  1  0.677928  0.677928  0.322072  1
  Rb  Rb1  1  0.322072  0.322072  0.677928  1
  Rb  Rb2  1  0.572072  0.572072  0.927928  1
  Rb  Rb3  1  0.927928  0.927928  0.572072  1
  Ti  Ti4  1  0.000000  0.000000  0.000000  1
  Ti  Ti5  1  0.250000  0.250000  0.250000  1
  Be  Be6  1  0.500000  0.500000  0.500000  1
  Be  Be7  1  0.750000  0.750000  0.750000  1
  Se  Se8  1  0.370381  0.026370  0.943206  1
  Se  Se9  1  0.660044  0.943206  0.026370  1
  Se  Se10  1  0.943206  0.660044  0.370381  1
  Se  Se11  1  0.026370  0.370381  0.660044  1
  Se  Se12  1  0.879619  0.223630  0.306794  1
  Se  Se13  1  0.589956  0.306794  0.223630  1
  Se  Se14  1  0.306794  0.589956  0.879619  1
  Se  Se15  1  0.223630  0.879619  0.589956  1
