# generated using pymatgen
data_Tb2Y3Ho(AlC3)2
_symmetry_space_group_name_H-M   'P 1'
_cell_length_a   3.58501900
_cell_length_b   7.08159842
_cell_length_c   9.99053867
_cell_angle_alpha   90.00551593
_cell_angle_beta   90.00000000
_cell_angle_gamma   90.00000000
_symmetry_Int_Tables_number   1
_chemical_formula_structural   Tb2Y3Ho(AlC3)2
_chemical_formula_sum   'Tb2 Y3 Ho1 Al2 C6'
_cell_volume   253.63644668
_cell_formula_units_Z   1
loop_
 _symmetry_equiv_pos_site_id
 _symmetry_equiv_pos_as_xyz
  1  'x, y, z'
loop_
 _atom_site_type_symbol
 _atom_site_label
 _atom_site_symmetry_multiplicity
 _atom_site_fract_x
 _atom_site_fract_y
 _atom_site_fract_z
 _atom_site_occupancy
  Tb  Tb0  1  0.000000  0.749843  0.459031  1
  Tb  Tb1  1  0.000000  0.250205  0.541314  1
  Y  Y2  1  0.500000  0.489919  0.800395  1
  Y  Y3  1  0.500000  0.990030  0.199217  1
  Y  Y4  1  0.500000  0.009996  0.800832  1
  Ho  Ho5  1  0.500000  0.512540  0.199983  1
  Al  Al6  1  0.000000  0.749398  0.005857  1
  Al  Al7  1  0.000000  0.250305  0.994689  1
  C  C8  1  0.500000  0.509067  0.565305  1
  C  C9  1  0.500000  0.491059  0.433266  1
  C  C10  1  0.500000  0.990940  0.565835  1
  C  C11  1  0.500000  0.009180  0.433904  1
  C  C12  1  0.000000  0.747600  0.208249  1
  C  C13  1  0.000000  0.249917  0.792124  1
