# generated using pymatgen
data_TaNb11Ga8(CoC)4
_symmetry_space_group_name_H-M   'P 1'
_cell_length_a   8.23232495
_cell_length_b   8.21007741
_cell_length_c   8.23232500
_cell_angle_alpha   60.08936454
_cell_angle_beta   59.97089921
_cell_angle_gamma   60.08935514
_symmetry_Int_Tables_number   1
_chemical_formula_structural   TaNb11Ga8(CoC)4
_chemical_formula_sum   'Ta1 Nb11 Ga8 Co4 C4'
_cell_volume   393.88249085
_cell_formula_units_Z   1
loop_
 _symmetry_equiv_pos_site_id
 _symmetry_equiv_pos_as_xyz
  1  'x, y, z'
loop_
 _atom_site_type_symbol
 _atom_site_label
 _atom_site_symmetry_multiplicity
 _atom_site_fract_x
 _atom_site_fract_y
 _atom_site_fract_z
 _atom_site_occupancy
  Ta  Ta0  1  0.690445  0.309555  0.690445  1
  Nb  Nb1  1  0.940413  0.559495  0.559947  1
  Nb  Nb2  1  0.559947  0.940145  0.940413  1
  Nb  Nb3  1  0.940792  0.559208  0.940792  1
  Nb  Nb4  1  0.559947  0.559495  0.940413  1
  Nb  Nb5  1  0.940413  0.940145  0.559947  1
  Nb  Nb6  1  0.689704  0.690721  0.309965  1
  Nb  Nb7  1  0.309965  0.690721  0.689704  1
  Nb  Nb8  1  0.689704  0.309611  0.309965  1
  Nb  Nb9  1  0.309965  0.309611  0.689704  1
  Nb  Nb10  1  0.560646  0.939354  0.560646  1
  Nb  Nb11  1  0.310016  0.689984  0.310016  1
  Ga  Ga12  1  0.333084  0.332966  0.333084  1
  Ga  Ga13  1  0.249940  0.916675  0.916707  1
  Ga  Ga14  1  0.916996  0.249722  0.916996  1
  Ga  Ga15  1  0.916707  0.916675  0.249940  1
  Ga  Ga16  1  0.333084  0.000866  0.333084  1
  Ga  Ga17  1  0.333085  0.333739  0.999439  1
  Ga  Ga18  1  0.999439  0.333739  0.333085  1
  Ga  Ga19  1  0.916996  0.916284  0.916996  1
  Co  Co20  1  0.124828  0.125640  0.124828  1
  Co  Co21  1  0.625185  0.126345  0.122125  1
  Co  Co22  1  0.124828  0.624702  0.124828  1
  Co  Co23  1  0.122125  0.126345  0.625185  1
  C  C24  1  0.625530  0.622928  0.625530  1
  C  C25  1  0.125159  0.624660  0.625521  1
  C  C26  1  0.625530  0.126013  0.625530  1
  C  C27  1  0.625521  0.624660  0.125159  1
