# generated using pymatgen
data_Li4Sc4Co9P12Rh7
_symmetry_space_group_name_H-M   'P 1'
_cell_length_a   3.64261900
_cell_length_b   10.39479410
_cell_length_c   12.27552823
_cell_angle_alpha   89.84297467
_cell_angle_beta   90.00000000
_cell_angle_gamma   90.00000000
_symmetry_Int_Tables_number   1
_chemical_formula_structural   Li4Sc4Co9P12Rh7
_chemical_formula_sum   'Li4 Sc4 Co9 P12 Rh7'
_cell_volume   464.80222494
_cell_formula_units_Z   1
loop_
 _symmetry_equiv_pos_site_id
 _symmetry_equiv_pos_as_xyz
  1  'x, y, z'
loop_
 _atom_site_type_symbol
 _atom_site_label
 _atom_site_symmetry_multiplicity
 _atom_site_fract_x
 _atom_site_fract_y
 _atom_site_fract_z
 _atom_site_occupancy
  Li  Li0  1  0.250000  0.707423  0.991197  1
  Li  Li1  1  0.250000  0.794082  0.489434  1
  Li  Li2  1  0.750000  0.293753  0.011626  1
  Li  Li3  1  0.750000  0.206535  0.510089  1
  Sc  Sc4  1  0.250000  0.577793  0.709354  1
  Sc  Sc5  1  0.250000  0.918490  0.213322  1
  Sc  Sc6  1  0.750000  0.424974  0.290958  1
  Sc  Sc7  1  0.750000  0.077487  0.787495  1
  Co  Co8  1  0.750000  0.722529  0.323820  1
  Co  Co9  1  0.250000  0.880672  0.695503  1
  Co  Co10  1  0.250000  0.622392  0.198302  1
  Co  Co11  1  0.750000  0.115766  0.304775  1
  Co  Co12  1  0.750000  0.381620  0.804059  1
  Co  Co13  1  0.250000  0.462034  0.936178  1
  Co  Co14  1  0.250000  0.032519  0.432871  1
  Co  Co15  1  0.750000  0.540357  0.066849  1
  Co  Co16  1  0.750000  0.960750  0.563251  1
  P  P17  1  0.250000  0.434266  0.116548  1
  P  P18  1  0.250000  0.066906  0.612624  1
  P  P19  1  0.750000  0.567357  0.886124  1
  P  P20  1  0.750000  0.922601  0.382386  1
  P  P21  1  0.250000  0.270245  0.860366  1
  P  P22  1  0.250000  0.228044  0.361886  1
  P  P23  1  0.750000  0.730756  0.146406  1
  P  P24  1  0.750000  0.770152  0.638287  1
  P  P25  1  0.250000  0.604604  0.378534  1
  P  P26  1  0.250000  0.904573  0.880976  1
  P  P27  1  0.750000  0.406321  0.617041  1
  P  P28  1  0.750000  0.094854  0.120088  1
  Rh  Rh29  1  0.250000  0.404736  0.472539  1
  Rh  Rh30  1  0.250000  0.097797  0.974445  1
  Rh  Rh31  1  0.750000  0.601407  0.520439  1
  Rh  Rh32  1  0.750000  0.900930  0.027962  1
  Rh  Rh33  1  0.250000  0.225898  0.175474  1
  Rh  Rh34  1  0.250000  0.275210  0.673430  1
  Rh  Rh35  1  0.750000  0.774167  0.825358  1
