# generated using pymatgen
data_Li4(CdAg3)3
_symmetry_space_group_name_H-M   'P 1'
_cell_length_a   9.72476506
_cell_length_b   5.81478400
_cell_length_c   5.06231675
_cell_angle_alpha   90.00000000
_cell_angle_beta   89.67917468
_cell_angle_gamma   90.00000000
_symmetry_Int_Tables_number   1
_chemical_formula_structural   Li4(CdAg3)3
_chemical_formula_sum   'Li4 Cd3 Ag9'
_cell_volume   286.25640438
_cell_formula_units_Z   1
loop_
 _symmetry_equiv_pos_site_id
 _symmetry_equiv_pos_as_xyz
  1  'x, y, z'
loop_
 _atom_site_type_symbol
 _atom_site_label
 _atom_site_symmetry_multiplicity
 _atom_site_fract_x
 _atom_site_fract_y
 _atom_site_fract_z
 _atom_site_occupancy
  Li  Li0  1  0.254481  0.000000  0.164198  1
  Li  Li1  1  0.000000  0.500000  0.499999  1
  Li  Li2  1  0.500000  0.500000  0.499999  1
  Li  Li3  1  0.745519  0.000000  0.835803  1
  Cd  Cd4  1  0.249492  0.500000  0.168500  1
  Cd  Cd5  1  0.000000  0.000000  0.499999  1
  Cd  Cd6  1  0.750508  0.500000  0.831501  1
  Ag  Ag7  1  0.000000  0.249987  0.000000  1
  Ag  Ag8  1  0.500000  0.247276  0.000000  1
  Ag  Ag9  1  0.000000  0.750012  0.000000  1
  Ag  Ag10  1  0.500000  0.752723  0.000000  1
  Ag  Ag11  1  0.749135  0.248110  0.335307  1
  Ag  Ag12  1  0.749135  0.751889  0.335307  1
  Ag  Ag13  1  0.500000  0.000000  0.499999  1
  Ag  Ag14  1  0.250865  0.248110  0.664693  1
  Ag  Ag15  1  0.250865  0.751889  0.664693  1
