# generated using pymatgen
data_Y13Er4(ThIr4)3
_symmetry_space_group_name_H-M   'P 1'
_cell_length_a   11.07577008
_cell_length_b   10.95989464
_cell_length_c   6.34658919
_cell_angle_alpha   90.04043874
_cell_angle_beta   89.82144182
_cell_angle_gamma   89.82489140
_symmetry_Int_Tables_number   1
_chemical_formula_structural   Y13Er4(ThIr4)3
_chemical_formula_sum   'Y13 Er4 Th3 Ir12'
_cell_volume   770.40031297
_cell_formula_units_Z   1
loop_
 _symmetry_equiv_pos_site_id
 _symmetry_equiv_pos_as_xyz
  1  'x, y, z'
loop_
 _atom_site_type_symbol
 _atom_site_label
 _atom_site_symmetry_multiplicity
 _atom_site_fract_x
 _atom_site_fract_y
 _atom_site_fract_z
 _atom_site_occupancy
  Y  Y0  1  0.706537  0.907703  0.376529  1
  Y  Y1  1  0.591759  0.784717  0.880512  1
  Y  Y2  1  0.590730  0.212083  0.378860  1
  Y  Y3  1  0.416388  0.785118  0.379192  1
  Y  Y4  1  0.410377  0.216110  0.878534  1
  Y  Y5  1  0.208108  0.414603  0.620988  1
  Y  Y6  1  0.207805  0.588366  0.121539  1
  Y  Y7  1  0.791403  0.413570  0.120554  1
  Y  Y8  1  0.792240  0.587110  0.621019  1
  Y  Y9  1  0.911943  0.709177  0.120248  1
  Y  Y10  1  0.914475  0.291027  0.616208  1
  Y  Y11  1  0.084738  0.708292  0.618523  1
  Y  Y12  1  0.085902  0.293140  0.113538  1
  Er  Er13  1  0.995143  0.998662  0.497034  1
  Er  Er14  1  0.000310  0.000051  0.997991  1
  Er  Er15  1  0.499369  0.499211  0.010951  1
  Er  Er16  1  0.502074  0.498375  0.511328  1
  Th  Th17  1  0.292834  0.093410  0.378880  1
  Th  Th18  1  0.292303  0.905902  0.879359  1
  Th  Th19  1  0.706527  0.090292  0.881898  1
  Ir  Ir20  1  0.848883  0.153797  0.238717  1
  Ir  Ir21  1  0.844791  0.851492  0.752827  1
  Ir  Ir22  1  0.154124  0.148532  0.742041  1
  Ir  Ir23  1  0.154884  0.851149  0.246560  1
  Ir  Ir24  1  0.653095  0.345719  0.756849  1
  Ir  Ir25  1  0.652738  0.648625  0.255520  1
  Ir  Ir26  1  0.346907  0.347775  0.259141  1
  Ir  Ir27  1  0.348467  0.653698  0.757286  1
  Ir  Ir28  1  0.497081  0.000755  0.118401  1
  Ir  Ir29  1  0.499053  0.999560  0.625077  1
  Ir  Ir30  1  0.999454  0.500910  0.871873  1
  Ir  Ir31  1  0.999558  0.501067  0.372021  1
