# generated using pymatgen
data_LiDy3Y2(P2Ru3)6
_symmetry_space_group_name_H-M   'P 1'
_cell_length_a   12.60715235
_cell_length_b   12.40804756
_cell_length_c   3.96712400
_cell_angle_alpha   90.00000000
_cell_angle_beta   90.00000000
_cell_angle_gamma   119.47893031
_symmetry_Int_Tables_number   1
_chemical_formula_structural   LiDy3Y2(P2Ru3)6
_chemical_formula_sum   'Li1 Dy3 Y2 P12 Ru18'
_cell_volume   540.23574985
_cell_formula_units_Z   1
loop_
 _symmetry_equiv_pos_site_id
 _symmetry_equiv_pos_as_xyz
  1  'x, y, z'
loop_
 _atom_site_type_symbol
 _atom_site_label
 _atom_site_symmetry_multiplicity
 _atom_site_fract_x
 _atom_site_fract_y
 _atom_site_fract_z
 _atom_site_occupancy
  Li  Li0  1  0.000000  0.561679  0.000000  1
  Dy  Dy1  1  0.000000  0.181836  0.500000  1
  Dy  Dy2  1  0.658718  0.328768  0.000000  1
  Dy  Dy3  1  0.341282  0.670053  0.000000  1
  Y  Y4  1  0.817082  0.815742  0.500000  1
  Y  Y5  1  0.182918  0.998660  0.500000  1
  P  P6  1  0.000000  0.807306  0.000000  1
  P  P7  1  0.181504  0.183545  0.000000  1
  P  P8  1  0.818496  0.002041  0.000000  1
  P  P9  1  0.692076  0.173373  0.500000  1
  P  P10  1  0.819062  0.518346  0.500000  1
  P  P11  1  0.473072  0.306381  0.500000  1
  P  P12  1  0.180938  0.699285  0.500000  1
  P  P13  1  0.526928  0.833309  0.500000  1
  P  P14  1  0.307924  0.481298  0.500000  1
  P  P15  1  0.000000  0.367764  0.000000  1
  P  P16  1  0.625893  0.625074  0.000000  1
  P  P17  1  0.374107  0.999181  0.000000  1
  Ru  Ru18  1  0.443765  0.444789  0.000000  1
  Ru  Ru19  1  0.556235  0.001024  0.000000  1
  Ru  Ru20  1  0.000000  0.710637  0.500000  1
  Ru  Ru21  1  0.280113  0.283230  0.500000  1
  Ru  Ru22  1  0.719887  0.003117  0.500000  1
  Ru  Ru23  1  0.806246  0.187100  0.000000  1
  Ru  Ru24  1  0.812829  0.618270  0.000000  1
  Ru  Ru25  1  0.372083  0.188723  0.000000  1
  Ru  Ru26  1  0.187171  0.805441  0.000000  1
  Ru  Ru27  1  0.627917  0.816639  0.000000  1
  Ru  Ru28  1  0.193754  0.380853  0.000000  1
  Ru  Ru29  1  0.876375  0.367764  0.500000  1
  Ru  Ru30  1  0.630372  0.508492  0.500000  1
  Ru  Ru31  1  0.492032  0.128389  0.500000  1
  Ru  Ru32  1  0.369628  0.878120  0.500000  1
  Ru  Ru33  1  0.507968  0.636357  0.500000  1
  Ru  Ru34  1  0.123625  0.491389  0.500000  1
  Ru  Ru35  1  0.000000  0.996024  0.000000  1
