# generated using pymatgen
data_Mg4ZrCo19(SiP2)4
_symmetry_space_group_name_H-M   'P 1'
_cell_length_a   11.85416501
_cell_length_b   11.84737115
_cell_length_c   3.59515800
_cell_angle_alpha   90.00000000
_cell_angle_beta   90.00000000
_cell_angle_gamma   119.91302780
_symmetry_Int_Tables_number   1
_chemical_formula_structural   Mg4ZrCo19(SiP2)4
_chemical_formula_sum   'Mg4 Zr1 Co19 Si4 P8'
_cell_volume   437.64454573
_cell_formula_units_Z   1
loop_
 _symmetry_equiv_pos_site_id
 _symmetry_equiv_pos_as_xyz
  1  'x, y, z'
loop_
 _atom_site_type_symbol
 _atom_site_label
 _atom_site_symmetry_multiplicity
 _atom_site_fract_x
 _atom_site_fract_y
 _atom_site_fract_z
 _atom_site_occupancy
  Mg  Mg0  1  0.333686  0.667660  0.500000  1
  Mg  Mg1  1  0.816815  0.998783  0.000000  1
  Mg  Mg2  1  0.000617  0.817456  0.000000  1
  Mg  Mg3  1  0.183937  0.184055  0.000000  1
  Zr  Zr4  1  0.667435  0.333452  0.500000  1
  Co  Co5  1  0.630667  0.807243  0.500000  1
  Co  Co6  1  0.192376  0.822090  0.500000  1
  Co  Co7  1  0.177458  0.370861  0.500000  1
  Co  Co8  1  0.371167  0.181845  0.500000  1
  Co  Co9  1  0.805085  0.622835  0.500000  1
  Co  Co10  1  0.820700  0.195801  0.500000  1
  Co  Co11  1  0.274544  0.000849  0.000000  1
  Co  Co12  1  0.996020  0.276910  0.000000  1
  Co  Co13  1  0.723751  0.717987  0.000000  1
  Co  Co14  1  0.451861  0.003788  0.500000  1
  Co  Co15  1  0.998557  0.449382  0.500000  1
  Co  Co16  1  0.551206  0.550273  0.500000  1
  Co  Co17  1  0.525920  0.877440  0.000000  1
  Co  Co18  1  0.122269  0.648595  0.000000  1
  Co  Co19  1  0.351568  0.475206  0.000000  1
  Co  Co20  1  0.485986  0.359666  0.000000  1
  Co  Co21  1  0.871496  0.513576  0.000000  1
  Co  Co22  1  0.648104  0.126530  0.000000  1
  Co  Co23  1  0.998414  0.999684  0.500000  1
  Si  Si24  1  0.518364  0.678542  0.000000  1
  Si  Si25  1  0.322406  0.841367  0.000000  1
  Si  Si26  1  0.160040  0.482611  0.000000  1
  Si  Si27  1  0.479233  0.160346  0.000000  1
  P  P28  1  0.176679  0.001227  0.500000  1
  P  P29  1  0.999723  0.177545  0.500000  1
  P  P30  1  0.823186  0.820817  0.500000  1
  P  P31  1  0.683985  0.518704  0.000000  1
  P  P32  1  0.835961  0.315897  0.000000  1
  P  P33  1  0.636139  0.999810  0.500000  1
  P  P34  1  0.000280  0.635991  0.500000  1
  P  P35  1  0.364365  0.365177  0.500000  1
