# generated using pymatgen
data_Nd10Sn6Se
_symmetry_space_group_name_H-M   'P 1'
_cell_length_a   6.84663400
_cell_length_b   9.40968000
_cell_length_c   9.40967900
_cell_angle_alpha   119.99929275
_cell_angle_beta   90.00013692
_cell_angle_gamma   90.00037988
_symmetry_Int_Tables_number   1
_chemical_formula_structural   Nd10Sn6Se
_chemical_formula_sum   'Nd10 Sn6 Se1'
_cell_volume   525.00144891
_cell_formula_units_Z   1
loop_
 _symmetry_equiv_pos_site_id
 _symmetry_equiv_pos_as_xyz
  1  'x, y, z'
loop_
 _atom_site_type_symbol
 _atom_site_label
 _atom_site_symmetry_multiplicity
 _atom_site_fract_x
 _atom_site_fract_y
 _atom_site_fract_z
 _atom_site_occupancy
  Nd  Nd0  1  0.499999  0.333329  0.666662  1
  Nd  Nd1  1  0.500002  0.666660  0.333335  1
  Nd  Nd2  1  0.000000  0.666666  0.333335  1
  Nd  Nd3  1  0.000003  0.333328  0.666665  1
  Nd  Nd4  1  0.754356  0.251855  0.000002  1
  Nd  Nd5  1  0.754357  0.748147  0.748145  1
  Nd  Nd6  1  0.754357  0.999995  0.251857  1
  Nd  Nd7  1  0.245643  0.748149  0.000003  1
  Nd  Nd8  1  0.245640  0.251855  0.251850  1
  Nd  Nd9  1  0.245640  0.999998  0.748143  1
  Sn  Sn10  1  0.749837  0.608260  0.000006  1
  Sn  Sn11  1  0.749840  0.391755  0.391751  1
  Sn  Sn12  1  0.749843  0.999993  0.608245  1
  Sn  Sn13  1  0.250160  0.391756  0.000007  1
  Sn  Sn14  1  0.250160  0.608260  0.608253  1
  Sn  Sn15  1  0.250162  0.999994  0.391741  1
  Se  Se16  1  0.499999  0.000001  0.000001  1
