# generated using pymatgen
data_EuDyTm2(Co5P3)4
_symmetry_space_group_name_H-M   'P 1'
_cell_length_a   3.64399800
_cell_length_b   10.28933104
_cell_length_c   11.75317211
_cell_angle_alpha   89.93677197
_cell_angle_beta   90.00000000
_cell_angle_gamma   90.00000000
_symmetry_Int_Tables_number   1
_chemical_formula_structural   EuDyTm2(Co5P3)4
_chemical_formula_sum   'Eu1 Dy1 Tm2 Co20 P12'
_cell_volume   440.67671282
_cell_formula_units_Z   1
loop_
 _symmetry_equiv_pos_site_id
 _symmetry_equiv_pos_as_xyz
  1  'x, y, z'
loop_
 _atom_site_type_symbol
 _atom_site_label
 _atom_site_symmetry_multiplicity
 _atom_site_fract_x
 _atom_site_fract_y
 _atom_site_fract_z
 _atom_site_occupancy
  Eu  Eu0  1  0.250000  0.916159  0.203387  1
  Dy  Dy1  1  0.750000  0.083384  0.796929  1
  Tm  Tm2  1  0.250000  0.582378  0.702567  1
  Tm  Tm3  1  0.750000  0.417488  0.297650  1
  Co  Co4  1  0.250000  0.714955  0.990781  1
  Co  Co5  1  0.250000  0.783750  0.491294  1
  Co  Co6  1  0.750000  0.284367  0.007376  1
  Co  Co7  1  0.750000  0.216477  0.510455  1
  Co  Co8  1  0.250000  0.406892  0.487053  1
  Co  Co9  1  0.250000  0.094918  0.986755  1
  Co  Co10  1  0.750000  0.592628  0.513630  1
  Co  Co11  1  0.750000  0.907457  0.007697  1
  Co  Co12  1  0.250000  0.222630  0.176108  1
  Co  Co13  1  0.250000  0.279693  0.676609  1
  Co  Co14  1  0.750000  0.776971  0.822323  1
  Co  Co15  1  0.750000  0.717520  0.325054  1
  Co  Co16  1  0.250000  0.881602  0.698879  1
  Co  Co17  1  0.250000  0.614735  0.198767  1
  Co  Co18  1  0.750000  0.121934  0.303142  1
  Co  Co19  1  0.750000  0.383712  0.800782  1
  Co  Co20  1  0.250000  0.467927  0.931354  1
  Co  Co21  1  0.250000  0.034032  0.433944  1
  Co  Co22  1  0.750000  0.531087  0.067882  1
  Co  Co23  1  0.750000  0.967027  0.569172  1
  P  P24  1  0.250000  0.418635  0.112445  1
  P  P25  1  0.250000  0.081564  0.612906  1
  P  P26  1  0.750000  0.581127  0.887143  1
  P  P27  1  0.750000  0.918678  0.389351  1
  P  P28  1  0.250000  0.271394  0.869949  1
  P  P29  1  0.250000  0.230688  0.369643  1
  P  P30  1  0.750000  0.727620  0.128962  1
  P  P31  1  0.750000  0.769117  0.630177  1
  P  P32  1  0.250000  0.601104  0.391263  1
  P  P33  1  0.250000  0.897639  0.891462  1
  P  P34  1  0.750000  0.399161  0.609056  1
  P  P35  1  0.750000  0.103550  0.108053  1
