# generated using pymatgen
data_Y8Cu(Si4Pt)3
_symmetry_space_group_name_H-M   'P 1'
_cell_length_a   8.11109300
_cell_length_b   8.11109274
_cell_length_c   8.19657400
_cell_angle_alpha   90.00000000
_cell_angle_beta   90.00000000
_cell_angle_gamma   120.00000514
_symmetry_Int_Tables_number   1
_chemical_formula_structural   Y8Cu(Si4Pt)3
_chemical_formula_sum   'Y8 Cu1 Si12 Pt3'
_cell_volume   467.00520521
_cell_formula_units_Z   1
loop_
 _symmetry_equiv_pos_site_id
 _symmetry_equiv_pos_as_xyz
  1  'x, y, z'
loop_
 _atom_site_type_symbol
 _atom_site_label
 _atom_site_symmetry_multiplicity
 _atom_site_fract_x
 _atom_site_fract_y
 _atom_site_fract_z
 _atom_site_occupancy
  Y  Y0  1  0.000000  0.000000  0.251013  1
  Y  Y1  1  0.000000  0.000000  0.748988  1
  Y  Y2  1  0.000709  0.500354  0.249992  1
  Y  Y3  1  0.499646  0.500354  0.249992  1
  Y  Y4  1  0.499911  0.999822  0.750104  1
  Y  Y5  1  0.499646  0.999291  0.249992  1
  Y  Y6  1  0.499911  0.500089  0.750104  1
  Y  Y7  1  0.000178  0.500089  0.750104  1
  Cu  Cu8  1  0.666667  0.333333  0.498821  1
  Si  Si9  1  0.165805  0.331611  0.000520  1
  Si  Si10  1  0.668389  0.834195  0.000520  1
  Si  Si11  1  0.165405  0.330810  0.500061  1
  Si  Si12  1  0.330878  0.165439  0.999518  1
  Si  Si13  1  0.165805  0.834195  0.000520  1
  Si  Si14  1  0.669190  0.834595  0.500061  1
  Si  Si15  1  0.834561  0.669122  0.999518  1
  Si  Si16  1  0.338369  0.169185  0.499983  1
  Si  Si17  1  0.165405  0.834595  0.500061  1
  Si  Si18  1  0.830815  0.661631  0.499983  1
  Si  Si19  1  0.834561  0.165439  0.999518  1
  Si  Si20  1  0.830815  0.169185  0.499983  1
  Pt  Pt21  1  0.333333  0.666667  0.999704  1
  Pt  Pt22  1  0.333333  0.666667  0.500515  1
  Pt  Pt23  1  0.666667  0.333333  0.000423  1
