# generated using pymatgen
data_Cu3RuS8
_symmetry_space_group_name_H-M   'P 1'
_cell_length_a   5.77611033
_cell_length_b   5.77611033
_cell_length_c   5.77611033
_cell_angle_alpha   90.47856387
_cell_angle_beta   90.47856387
_cell_angle_gamma   89.52143613
_symmetry_Int_Tables_number   1
_chemical_formula_structural   Cu3RuS8
_chemical_formula_sum   'Cu3 Ru1 S8'
_cell_volume   192.69091600
_cell_formula_units_Z   1
loop_
 _symmetry_equiv_pos_site_id
 _symmetry_equiv_pos_as_xyz
  1  'x, y, z'
loop_
 _atom_site_type_symbol
 _atom_site_label
 _atom_site_symmetry_multiplicity
 _atom_site_fract_x
 _atom_site_fract_y
 _atom_site_fract_z
 _atom_site_occupancy
  Cu  Cu0  1  0.000000  0.000000  0.000000  1
  Cu  Cu1  1  0.000000  0.500000  0.500000  1
  Cu  Cu2  1  0.500000  0.500000  0.000000  1
  Ru  Ru3  1  0.500000  0.000000  0.500000  1
  S  S4  1  0.887693  0.101484  0.599645  1
  S  S5  1  0.112307  0.898516  0.400355  1
  S  S6  1  0.899475  0.399475  0.100525  1
  S  S7  1  0.601484  0.900355  0.112307  1
  S  S8  1  0.599645  0.612307  0.601484  1
  S  S9  1  0.400355  0.387693  0.398516  1
  S  S10  1  0.398516  0.099645  0.887693  1
  S  S11  1  0.100525  0.600525  0.899475  1
