# generated using pymatgen
data_Pr4Ga24PdRh
_symmetry_space_group_name_H-M   'P 1'
_cell_length_a   6.16871100
_cell_length_b   6.16871100
_cell_length_c   15.53868800
_cell_angle_alpha   90.00000000
_cell_angle_beta   90.00000000
_cell_angle_gamma   90.00000000
_symmetry_Int_Tables_number   1
_chemical_formula_structural   Pr4Ga24PdRh
_chemical_formula_sum   'Pr4 Ga24 Pd1 Rh1'
_cell_volume   591.29362301
_cell_formula_units_Z   1
loop_
 _symmetry_equiv_pos_site_id
 _symmetry_equiv_pos_as_xyz
  1  'x, y, z'
loop_
 _atom_site_type_symbol
 _atom_site_label
 _atom_site_symmetry_multiplicity
 _atom_site_fract_x
 _atom_site_fract_y
 _atom_site_fract_z
 _atom_site_occupancy
  Pr  Pr0  1  0.750000  0.250000  0.244913  1
  Pr  Pr1  1  0.250000  0.750000  0.243022  1
  Pr  Pr2  1  0.250000  0.750000  0.756978  1
  Pr  Pr3  1  0.750000  0.250000  0.755087  1
  Ga  Ga4  1  0.250000  0.250000  0.187506  1
  Ga  Ga5  1  0.750000  0.750000  0.187506  1
  Ga  Ga6  1  0.750000  0.750000  0.812494  1
  Ga  Ga7  1  0.250000  0.250000  0.812494  1
  Ga  Ga8  1  0.250000  0.250000  0.347090  1
  Ga  Ga9  1  0.750000  0.750000  0.347090  1
  Ga  Ga10  1  0.750000  0.750000  0.652910  1
  Ga  Ga11  1  0.250000  0.250000  0.652910  1
  Ga  Ga12  1  0.502603  0.002603  0.912160  1
  Ga  Ga13  1  0.997288  0.002712  0.912410  1
  Ga  Ga14  1  0.502712  0.497288  0.912410  1
  Ga  Ga15  1  0.997397  0.497397  0.912160  1
  Ga  Ga16  1  0.502712  0.002712  0.087590  1
  Ga  Ga17  1  0.997397  0.002603  0.087840  1
  Ga  Ga18  1  0.502603  0.497397  0.087840  1
  Ga  Ga19  1  0.997288  0.497288  0.087590  1
  Ga  Ga20  1  0.582913  0.082913  0.432230  1
  Ga  Ga21  1  0.083774  0.916226  0.431556  1
  Ga  Ga22  1  0.416226  0.583774  0.431556  1
  Ga  Ga23  1  0.917087  0.417087  0.432230  1
  Ga  Ga24  1  0.416226  0.916226  0.568444  1
  Ga  Ga25  1  0.917087  0.082913  0.567770  1
  Ga  Ga26  1  0.582913  0.417087  0.567770  1
  Ga  Ga27  1  0.083774  0.583774  0.568444  1
  Pd  Pd28  1  0.250000  0.750000  0.000000  1
  Rh  Rh29  1  0.750000  0.250000  0.000000  1
