# generated using pymatgen
data_Zr3Cr2TcP3
_symmetry_space_group_name_H-M   'P 1'
_cell_length_a   6.73334150
_cell_length_b   6.77478261
_cell_length_c   3.42753300
_cell_angle_alpha   90.00000000
_cell_angle_beta   90.00000000
_cell_angle_gamma   120.20381347
_symmetry_Int_Tables_number   1
_chemical_formula_structural   Zr3Cr2TcP3
_chemical_formula_sum   'Zr3 Cr2 Tc1 P3'
_cell_volume   135.12716853
_cell_formula_units_Z   1
loop_
 _symmetry_equiv_pos_site_id
 _symmetry_equiv_pos_as_xyz
  1  'x, y, z'
loop_
 _atom_site_type_symbol
 _atom_site_label
 _atom_site_symmetry_multiplicity
 _atom_site_fract_x
 _atom_site_fract_y
 _atom_site_fract_z
 _atom_site_occupancy
  Zr  Zr0  1  0.408047  0.407661  0.500000  1
  Zr  Zr1  1  0.591953  0.999615  0.500000  1
  Zr  Zr2  1  0.000000  0.597661  0.500000  1
  Cr  Cr3  1  0.752301  0.752658  0.000000  1
  Cr  Cr4  1  0.247699  0.000356  0.000000  1
  Tc  Tc5  1  0.000000  0.246318  0.000000  1
  P  P6  1  0.663297  0.334725  0.000000  1
  P  P7  1  0.336703  0.671429  0.000000  1
  P  P8  1  0.000000  0.989577  0.500000  1
