# generated using pymatgen
data_Lu16Al3HgRh4
_symmetry_space_group_name_H-M   'P 1'
_cell_length_a   9.34621361
_cell_length_b   9.34621298
_cell_length_c   9.34621318
_cell_angle_alpha   59.98167329
_cell_angle_beta   59.98167887
_cell_angle_gamma   59.98167639
_symmetry_Int_Tables_number   1
_chemical_formula_structural   Lu16Al3HgRh4
_chemical_formula_sum   'Lu16 Al3 Hg1 Rh4'
_cell_volume   577.04751668
_cell_formula_units_Z   1
loop_
 _symmetry_equiv_pos_site_id
 _symmetry_equiv_pos_as_xyz
  1  'x, y, z'
loop_
 _atom_site_type_symbol
 _atom_site_label
 _atom_site_symmetry_multiplicity
 _atom_site_fract_x
 _atom_site_fract_y
 _atom_site_fract_z
 _atom_site_occupancy
  Lu  Lu0  1  0.352727  0.352727  0.352727  1
  Lu  Lu1  1  0.352016  0.352016  0.942333  1
  Lu  Lu2  1  0.352016  0.942333  0.352016  1
  Lu  Lu3  1  0.942333  0.352016  0.352016  1
  Lu  Lu4  1  0.805004  0.194681  0.194681  1
  Lu  Lu5  1  0.191137  0.807168  0.807168  1
  Lu  Lu6  1  0.194681  0.805004  0.194681  1
  Lu  Lu7  1  0.807168  0.191137  0.807168  1
  Lu  Lu8  1  0.194681  0.194681  0.805004  1
  Lu  Lu9  1  0.807168  0.807168  0.191137  1
  Lu  Lu10  1  0.937559  0.563014  0.563014  1
  Lu  Lu11  1  0.563687  0.936404  0.936404  1
  Lu  Lu12  1  0.563014  0.937559  0.563014  1
  Lu  Lu13  1  0.936404  0.563687  0.936404  1
  Lu  Lu14  1  0.563014  0.563014  0.937559  1
  Lu  Lu15  1  0.936404  0.936404  0.563687  1
  Al  Al16  1  0.578600  0.578600  0.261343  1
  Al  Al17  1  0.578600  0.261343  0.578600  1
  Al  Al18  1  0.261343  0.578600  0.578600  1
  Hg  Hg19  1  0.583349  0.583349  0.583349  1
  Rh  Rh20  1  0.141881  0.141881  0.141881  1
  Rh  Rh21  1  0.142158  0.142158  0.572900  1
  Rh  Rh22  1  0.142158  0.572900  0.142158  1
  Rh  Rh23  1  0.572900  0.142158  0.142158  1
