# generated using pymatgen
data_MoPd3Pt5
_symmetry_space_group_name_H-M   'P 1'
_cell_length_a   6.29701293
_cell_length_b   6.29701383
_cell_length_c   6.27106155
_cell_angle_alpha   95.60100980
_cell_angle_beta   95.60103810
_cell_angle_gamma   143.66856750
_symmetry_Int_Tables_number   1
_chemical_formula_structural   MoPd3Pt5
_chemical_formula_sum   'Mo1 Pd3 Pt5'
_cell_volume   139.91618623
_cell_formula_units_Z   1
loop_
 _symmetry_equiv_pos_site_id
 _symmetry_equiv_pos_as_xyz
  1  'x, y, z'
loop_
 _atom_site_type_symbol
 _atom_site_label
 _atom_site_symmetry_multiplicity
 _atom_site_fract_x
 _atom_site_fract_y
 _atom_site_fract_z
 _atom_site_occupancy
  Mo  Mo0  1  0.004193  0.004193  0.008386  1
  Pd  Pd1  1  0.337038  0.337038  0.674076  1
  Pd  Pd2  1  0.671143  0.000199  0.671340  1
  Pd  Pd3  1  0.000198  0.671142  0.671340  1
  Pt  Pt4  1  0.659063  0.337916  0.996979  1
  Pt  Pt5  1  0.337917  0.659064  0.996980  1
  Pt  Pt6  1  0.329303  0.999414  0.328717  1
  Pt  Pt7  1  0.999414  0.329303  0.328717  1
  Pt  Pt8  1  0.661732  0.661732  0.323463  1
