# generated using pymatgen
data_CsRbCr2(CuSe2)4
_symmetry_space_group_name_H-M   'P 1'
_cell_length_a   10.17361248
_cell_length_b   10.20027245
_cell_length_c   7.73536800
_cell_angle_alpha   90.00000000
_cell_angle_beta   90.00000000
_cell_angle_gamma   147.66414818
_symmetry_Int_Tables_number   1
_chemical_formula_structural   CsRbCr2(CuSe2)4
_chemical_formula_sum   'Cs1 Rb1 Cr2 Cu4 Se8'
_cell_volume   429.36361351
_cell_formula_units_Z   1
loop_
 _symmetry_equiv_pos_site_id
 _symmetry_equiv_pos_as_xyz
  1  'x, y, z'
loop_
 _atom_site_type_symbol
 _atom_site_label
 _atom_site_symmetry_multiplicity
 _atom_site_fract_x
 _atom_site_fract_y
 _atom_site_fract_z
 _atom_site_occupancy
  Cs  Cs0  1  0.543434  0.171813  0.250000  1
  Rb  Rb1  1  0.177430  0.547923  0.750000  1
  Cr  Cr2  1  0.708813  0.499443  0.750000  1
  Cr  Cr3  1  0.496986  0.706171  0.250000  1
  Cu  Cu4  1  0.620736  0.621470  0.500790  1
  Cu  Cu5  1  0.995297  0.203973  0.250000  1
  Cu  Cu6  1  0.209288  0.999852  0.750000  1
  Cu  Cu7  1  0.620736  0.621470  0.999210  1
  Se  Se8  1  0.730965  0.942649  0.004933  1
  Se  Se9  1  0.369935  0.357087  0.750000  1
  Se  Se10  1  0.358553  0.371593  0.250000  1
  Se  Se11  1  0.945298  0.734634  0.505950  1
  Se  Se12  1  0.572819  0.172442  0.750000  1
  Se  Se13  1  0.945298  0.734634  0.994050  1
  Se  Se14  1  0.165248  0.563997  0.250000  1
  Se  Se15  1  0.730965  0.942649  0.495067  1
