# generated using pymatgen
data_Y8Nb11Si16Rh
_symmetry_space_group_name_H-M   'P 1'
_cell_length_a   6.84328981
_cell_length_b   7.10378965
_cell_length_c   13.39174200
_cell_angle_alpha   90.00000000
_cell_angle_beta   90.00000000
_cell_angle_gamma   90.51387784
_symmetry_Int_Tables_number   1
_chemical_formula_structural   Y8Nb11Si16Rh
_chemical_formula_sum   'Y8 Nb11 Si16 Rh1'
_cell_volume   650.99047142
_cell_formula_units_Z   1
loop_
 _symmetry_equiv_pos_site_id
 _symmetry_equiv_pos_as_xyz
  1  'x, y, z'
loop_
 _atom_site_type_symbol
 _atom_site_label
 _atom_site_symmetry_multiplicity
 _atom_site_fract_x
 _atom_site_fract_y
 _atom_site_fract_z
 _atom_site_occupancy
  Y  Y0  1  0.500509  0.671808  0.595065  1
  Y  Y1  1  0.003638  0.829010  0.905319  1
  Y  Y2  1  0.496048  0.328348  0.095483  1
  Y  Y3  1  0.997458  0.171259  0.403196  1
  Y  Y4  1  0.496048  0.328348  0.404517  1
  Y  Y5  1  0.997458  0.171259  0.096804  1
  Y  Y6  1  0.500509  0.671808  0.904935  1
  Y  Y7  1  0.003638  0.829010  0.594681  1
  Nb  Nb8  1  0.669660  0.172649  0.628021  1
  Nb  Nb9  1  0.162249  0.324200  0.872374  1
  Nb  Nb10  1  0.335927  0.825733  0.125661  1
  Nb  Nb11  1  0.836076  0.674106  0.375904  1
  Nb  Nb12  1  0.335927  0.825733  0.374339  1
  Nb  Nb13  1  0.836076  0.674106  0.124096  1
  Nb  Nb14  1  0.669660  0.172649  0.871979  1
  Nb  Nb15  1  0.162249  0.324200  0.627626  1
  Nb  Nb16  1  0.340082  0.003019  0.750000  1
  Nb  Nb17  1  0.163025  0.510231  0.250000  1
  Nb  Nb18  1  0.661918  0.991022  0.250000  1
  Si  Si19  1  0.662843  0.962081  0.459099  1
  Si  Si20  1  0.162328  0.537697  0.039922  1
  Si  Si21  1  0.340107  0.038447  0.957217  1
  Si  Si22  1  0.838168  0.460256  0.541950  1
  Si  Si23  1  0.340107  0.038447  0.542783  1
  Si  Si24  1  0.838168  0.460256  0.958050  1
  Si  Si25  1  0.662843  0.962081  0.040901  1
  Si  Si26  1  0.162328  0.537697  0.460078  1
  Si  Si27  1  0.467847  0.376127  0.750000  1
  Si  Si28  1  0.962719  0.117651  0.750000  1
  Si  Si29  1  0.539577  0.622770  0.250000  1
  Si  Si30  1  0.038088  0.877289  0.250000  1
  Si  Si31  1  0.705621  0.869152  0.750000  1
  Si  Si32  1  0.194556  0.620686  0.750000  1
  Si  Si33  1  0.296104  0.125771  0.250000  1
  Si  Si34  1  0.794124  0.374667  0.250000  1
  Rh  Rh35  1  0.826313  0.520424  0.750000  1
