# generated using pymatgen
data_Dy2LuZr(Al3Rh)6
_symmetry_space_group_name_H-M   'P 1'
_cell_length_a   7.53011689
_cell_length_b   7.51934512
_cell_length_c   9.40406800
_cell_angle_alpha   90.00000000
_cell_angle_beta   90.00000000
_cell_angle_gamma   119.42793387
_symmetry_Int_Tables_number   1
_chemical_formula_structural   Dy2LuZr(Al3Rh)6
_chemical_formula_sum   'Dy2 Lu1 Zr1 Al18 Rh6'
_cell_volume   463.77023706
_cell_formula_units_Z   1
loop_
 _symmetry_equiv_pos_site_id
 _symmetry_equiv_pos_as_xyz
  1  'x, y, z'
loop_
 _atom_site_type_symbol
 _atom_site_label
 _atom_site_symmetry_multiplicity
 _atom_site_fract_x
 _atom_site_fract_y
 _atom_site_fract_z
 _atom_site_occupancy
  Dy  Dy0  1  0.006398  0.326265  0.750000  1
  Dy  Dy1  1  0.327522  0.006880  0.750000  1
  Lu  Lu2  1  0.673107  0.996022  0.250000  1
  Zr  Zr3  1  0.996157  0.672390  0.250000  1
  Al  Al4  1  0.123851  0.121685  0.250000  1
  Al  Al5  1  0.869338  0.868445  0.750000  1
  Al  Al6  1  0.999547  0.338184  0.080935  1
  Al  Al7  1  0.999254  0.664305  0.928260  1
  Al  Al8  1  0.999254  0.664305  0.571740  1
  Al  Al9  1  0.333294  0.997596  0.418982  1
  Al  Al10  1  0.999547  0.338184  0.419065  1
  Al  Al11  1  0.663789  0.998160  0.574277  1
  Al  Al12  1  0.663789  0.998160  0.925723  1
  Al  Al13  1  0.333294  0.997596  0.081018  1
  Al  Al14  1  0.334183  0.334227  0.547048  1
  Al  Al15  1  0.670044  0.668408  0.443324  1
  Al  Al16  1  0.670044  0.668408  0.056676  1
  Al  Al17  1  0.334183  0.334227  0.952952  1
  Al  Al18  1  0.337351  0.553296  0.250000  1
  Al  Al19  1  0.660343  0.450394  0.750000  1
  Al  Al20  1  0.557730  0.344185  0.250000  1
  Al  Al21  1  0.448955  0.658808  0.750000  1
  Rh  Rh22  1  0.673124  0.327937  0.001398  1
  Rh  Rh23  1  0.327921  0.673125  0.002015  1
  Rh  Rh24  1  0.327921  0.673125  0.497985  1
  Rh  Rh25  1  0.673124  0.327937  0.498602  1
  Rh  Rh26  1  0.998468  0.998874  0.001486  1
  Rh  Rh27  1  0.998468  0.998874  0.498514  1
