# generated using pymatgen
data_Ga2Ni9Sb
_symmetry_space_group_name_H-M   'P 1'
_cell_length_a   3.63476000
_cell_length_b   3.63476000
_cell_length_c   10.83043100
_cell_angle_alpha   90.00000000
_cell_angle_beta   90.00000000
_cell_angle_gamma   90.00000000
_symmetry_Int_Tables_number   1
_chemical_formula_structural   Ga2Ni9Sb
_chemical_formula_sum   'Ga2 Ni9 Sb1'
_cell_volume   143.08602534
_cell_formula_units_Z   1
loop_
 _symmetry_equiv_pos_site_id
 _symmetry_equiv_pos_as_xyz
  1  'x, y, z'
loop_
 _atom_site_type_symbol
 _atom_site_label
 _atom_site_symmetry_multiplicity
 _atom_site_fract_x
 _atom_site_fract_y
 _atom_site_fract_z
 _atom_site_occupancy
  Ga  Ga0  1  0.000000  0.000000  0.339457  1
  Ga  Ga1  1  0.000000  0.000000  0.660543  1
  Ni  Ni2  1  0.500000  0.500000  0.000000  1
  Ni  Ni3  1  0.500000  0.500000  0.337537  1
  Ni  Ni4  1  0.500000  0.500000  0.662463  1
  Ni  Ni5  1  0.500000  0.000000  0.176060  1
  Ni  Ni6  1  0.500000  0.000000  0.500000  1
  Ni  Ni7  1  0.500000  0.000000  0.823940  1
  Ni  Ni8  1  0.000000  0.500000  0.176060  1
  Ni  Ni9  1  0.000000  0.500000  0.500000  1
  Ni  Ni10  1  0.000000  0.500000  0.823940  1
  Sb  Sb11  1  0.000000  0.000000  0.000000  1
