# generated using pymatgen
data_YEr2(In2Pd)2
_symmetry_space_group_name_H-M   'P 1'
_cell_length_a   7.88263765
_cell_length_b   7.86799575
_cell_length_c   3.85549000
_cell_angle_alpha   90.00000000
_cell_angle_beta   90.00000000
_cell_angle_gamma   120.01504702
_symmetry_Int_Tables_number   1
_chemical_formula_structural   YEr2(In2Pd)2
_chemical_formula_sum   'Y1 Er2 In4 Pd2'
_cell_volume   207.05228297
_cell_formula_units_Z   1
loop_
 _symmetry_equiv_pos_site_id
 _symmetry_equiv_pos_as_xyz
  1  'x, y, z'
loop_
 _atom_site_type_symbol
 _atom_site_label
 _atom_site_symmetry_multiplicity
 _atom_site_fract_x
 _atom_site_fract_y
 _atom_site_fract_z
 _atom_site_occupancy
  Y  Y0  1  0.690394  0.946527  0.500000  1
  Er  Er1  1  0.255104  0.307002  0.500000  1
  Er  Er2  1  0.052102  0.744700  0.500000  1
  In  In3  1  0.924359  0.333154  0.000000  1
  In  In4  1  0.408264  0.075820  0.000000  1
  In  In5  1  0.667546  0.591667  0.000000  1
  In  In6  1  0.332048  0.665795  0.000000  1
  Pd  Pd7  1  0.666577  0.334719  0.500000  1
  Pd  Pd8  1  0.003607  0.000614  0.000000  1
