# generated using pymatgen
data_Tb6Mn14Co3MoP12
_symmetry_space_group_name_H-M   'P 1'
_cell_length_a   3.67889100
_cell_length_b   10.85650400
_cell_length_c   12.60719600
_cell_angle_alpha   90.00000000
_cell_angle_beta   90.00000000
_cell_angle_gamma   90.00000000
_symmetry_Int_Tables_number   1
_chemical_formula_structural   Tb6Mn14Co3MoP12
_chemical_formula_sum   'Tb6 Mn14 Co3 Mo1 P12'
_cell_volume   503.53008268
_cell_formula_units_Z   1
loop_
 _symmetry_equiv_pos_site_id
 _symmetry_equiv_pos_as_xyz
  1  'x, y, z'
loop_
 _atom_site_type_symbol
 _atom_site_label
 _atom_site_symmetry_multiplicity
 _atom_site_fract_x
 _atom_site_fract_y
 _atom_site_fract_z
 _atom_site_occupancy
  Tb  Tb0  1  0.000000  0.500000  0.532375  1
  Tb  Tb1  1  0.500000  0.000000  0.469212  1
  Tb  Tb2  1  0.500000  0.821277  0.206537  1
  Tb  Tb3  1  0.500000  0.178723  0.206537  1
  Tb  Tb4  1  0.000000  0.676672  0.795697  1
  Tb  Tb5  1  0.000000  0.323328  0.795697  1
  Mn  Mn6  1  0.000000  0.000000  0.835240  1
  Mn  Mn7  1  0.500000  0.000000  0.008153  1
  Mn  Mn8  1  0.500000  0.327828  0.995542  1
  Mn  Mn9  1  0.500000  0.672172  0.995542  1
  Mn  Mn10  1  0.000000  0.165112  0.002053  1
  Mn  Mn11  1  0.000000  0.834888  0.002053  1
  Mn  Mn12  1  0.500000  0.297265  0.433569  1
  Mn  Mn13  1  0.500000  0.702735  0.433569  1
  Mn  Mn14  1  0.000000  0.201903  0.569209  1
  Mn  Mn15  1  0.000000  0.798097  0.569209  1
  Mn  Mn16  1  0.500000  0.882955  0.702766  1
  Mn  Mn17  1  0.500000  0.117045  0.702766  1
  Mn  Mn18  1  0.000000  0.620772  0.298452  1
  Mn  Mn19  1  0.000000  0.379228  0.298452  1
  Co  Co20  1  0.500000  0.500000  0.707707  1
  Co  Co21  1  0.000000  0.000000  0.295315  1
  Co  Co22  1  0.000000  0.500000  0.989599  1
  Mo  Mo23  1  0.500000  0.500000  0.157571  1
  P  P24  1  0.500000  0.500000  0.885783  1
  P  P25  1  0.000000  0.000000  0.119615  1
  P  P26  1  0.500000  0.500000  0.357443  1
  P  P27  1  0.000000  0.000000  0.642542  1
  P  P28  1  0.500000  0.317018  0.620202  1
  P  P29  1  0.500000  0.682982  0.620202  1
  P  P30  1  0.000000  0.182195  0.383138  1
  P  P31  1  0.000000  0.817805  0.383138  1
  P  P32  1  0.500000  0.847233  0.883902  1
  P  P33  1  0.500000  0.152767  0.883902  1
  P  P34  1  0.000000  0.656140  0.108659  1
  P  P35  1  0.000000  0.343860  0.108659  1
