# generated using pymatgen
data_Ba4Y(IrO6)2
_symmetry_space_group_name_H-M   'P 1'
_cell_length_a   10.11849263
_cell_length_b   10.11849283
_cell_length_c   10.11849352
_cell_angle_alpha   33.89099608
_cell_angle_beta   33.89099682
_cell_angle_gamma   33.89099439
_symmetry_Int_Tables_number   1
_chemical_formula_structural   Ba4Y(IrO6)2
_chemical_formula_sum   'Ba4 Y1 Ir2 O12'
_cell_volume   287.07687176
_cell_formula_units_Z   1
loop_
 _symmetry_equiv_pos_site_id
 _symmetry_equiv_pos_as_xyz
  1  'x, y, z'
loop_
 _atom_site_type_symbol
 _atom_site_label
 _atom_site_symmetry_multiplicity
 _atom_site_fract_x
 _atom_site_fract_y
 _atom_site_fract_z
 _atom_site_occupancy
  Ba  Ba0  1  0.712585  0.712585  0.712585  1
  Ba  Ba1  1  0.287415  0.287415  0.287415  1
  Ba  Ba2  1  0.866567  0.866567  0.866567  1
  Ba  Ba3  1  0.133433  0.133433  0.133433  1
  Y  Y4  1  0.000000  0.000000  0.000000  1
  Ir  Ir5  1  0.579475  0.579475  0.579475  1
  Ir  Ir6  1  0.420525  0.420525  0.420525  1
  O  O7  1  0.222843  0.689823  0.222843  1
  O  O8  1  0.222843  0.222843  0.689823  1
  O  O9  1  0.689823  0.222843  0.222843  1
  O  O10  1  0.777157  0.310177  0.777157  1
  O  O11  1  0.777157  0.777157  0.310177  1
  O  O12  1  0.310177  0.777157  0.777157  1
  O  O13  1  0.386687  0.859984  0.386687  1
  O  O14  1  0.386687  0.386687  0.859984  1
  O  O15  1  0.859984  0.386687  0.386687  1
  O  O16  1  0.613313  0.140016  0.613313  1
  O  O17  1  0.613313  0.613313  0.140016  1
  O  O18  1  0.140016  0.613313  0.613313  1
