# generated using pymatgen
data_ErNp3Al12Pd
_symmetry_space_group_name_H-M   'P 1'
_cell_length_a   7.49012440
_cell_length_b   7.53730928
_cell_length_c   7.49012443
_cell_angle_alpha   109.59887027
_cell_angle_beta   109.34326005
_cell_angle_gamma   109.59888666
_symmetry_Int_Tables_number   1
_chemical_formula_structural   ErNp3Al12Pd
_chemical_formula_sum   'Er1 Np3 Al12 Pd1'
_cell_volume   325.00187983
_cell_formula_units_Z   1
loop_
 _symmetry_equiv_pos_site_id
 _symmetry_equiv_pos_as_xyz
  1  'x, y, z'
loop_
 _atom_site_type_symbol
 _atom_site_label
 _atom_site_symmetry_multiplicity
 _atom_site_fract_x
 _atom_site_fract_y
 _atom_site_fract_z
 _atom_site_occupancy
  Er  Er0  1  0.000000  0.500000  0.000000  1
  Np  Np1  1  0.500000  0.500000  0.500000  1
  Np  Np2  1  0.000000  0.000000  0.500000  1
  Np  Np3  1  0.500000  0.000000  0.000000  1
  Al  Al4  1  0.749396  0.500000  0.250604  1
  Al  Al5  1  0.501209  0.750604  0.250604  1
  Al  Al6  1  0.498791  0.249396  0.749396  1
  Al  Al7  1  0.749396  0.249396  0.498791  1
  Al  Al8  1  0.250604  0.750604  0.501209  1
  Al  Al9  1  0.250604  0.500000  0.749396  1
  Al  Al10  1  0.291941  0.002449  0.291941  1
  Al  Al11  1  0.000000  0.289493  0.291941  1
  Al  Al12  1  0.000000  0.710507  0.708059  1
  Al  Al13  1  0.291941  0.289493  0.000000  1
  Al  Al14  1  0.708059  0.710507  0.000000  1
  Al  Al15  1  0.708059  0.997551  0.708059  1
  Pd  Pd16  1  0.000000  0.000000  0.000000  1
