# generated using pymatgen
data_Ho9Lu(Zn2Sb)2
_symmetry_space_group_name_H-M   'P 1'
_cell_length_a   8.50069003
_cell_length_b   8.50069022
_cell_length_c   8.50069033
_cell_angle_alpha   123.52714217
_cell_angle_beta   123.52714440
_cell_angle_gamma   83.99219281
_symmetry_Int_Tables_number   1
_chemical_formula_structural   Ho9Lu(Zn2Sb)2
_chemical_formula_sum   'Ho9 Lu1 Zn4 Sb2'
_cell_volume   408.74150726
_cell_formula_units_Z   1
loop_
 _symmetry_equiv_pos_site_id
 _symmetry_equiv_pos_as_xyz
  1  'x, y, z'
loop_
 _atom_site_type_symbol
 _atom_site_label
 _atom_site_symmetry_multiplicity
 _atom_site_fract_x
 _atom_site_fract_y
 _atom_site_fract_z
 _atom_site_occupancy
  Ho  Ho0  1  0.000000  0.000000  0.000000  1
  Ho  Ho1  1  0.510214  0.011006  0.809073  1
  Ho  Ho2  1  0.201934  0.701143  0.190927  1
  Ho  Ho3  1  0.011006  0.201934  0.500791  1
  Ho  Ho4  1  0.701143  0.510214  0.499209  1
  Ho  Ho5  1  0.489786  0.988994  0.190927  1
  Ho  Ho6  1  0.798066  0.298857  0.809073  1
  Ho  Ho7  1  0.988994  0.798066  0.499209  1
  Ho  Ho8  1  0.298857  0.489786  0.500791  1
  Lu  Lu9  1  0.500000  0.500000  0.000000  1
  Zn  Zn10  1  0.137997  0.636538  0.774537  1
  Zn  Zn11  1  0.862003  0.363462  0.225463  1
  Zn  Zn12  1  0.636538  0.862003  0.498541  1
  Zn  Zn13  1  0.363462  0.137997  0.501459  1
  Sb  Sb14  1  0.250985  0.250985  0.000000  1
  Sb  Sb15  1  0.749015  0.749015  0.000000  1
