# generated using pymatgen
data_DyTa6Cl18
_symmetry_space_group_name_H-M   'P 1'
_cell_length_a   10.14976030
_cell_length_b   10.14975949
_cell_length_c   10.14975914
_cell_angle_alpha   55.97606180
_cell_angle_beta   55.97606459
_cell_angle_gamma   55.97606664
_symmetry_Int_Tables_number   1
_chemical_formula_structural   DyTa6Cl18
_chemical_formula_sum   'Dy1 Ta6 Cl18'
_cell_volume   670.42169092
_cell_formula_units_Z   1
loop_
 _symmetry_equiv_pos_site_id
 _symmetry_equiv_pos_as_xyz
  1  'x, y, z'
loop_
 _atom_site_type_symbol
 _atom_site_label
 _atom_site_symmetry_multiplicity
 _atom_site_fract_x
 _atom_site_fract_y
 _atom_site_fract_z
 _atom_site_occupancy
  Dy  Dy0  1  0.000000  0.000000  0.000000  1
  Ta  Ta1  1  0.409204  0.301780  0.648632  1
  Ta  Ta2  1  0.351368  0.590796  0.698220  1
  Ta  Ta3  1  0.698220  0.351368  0.590796  1
  Ta  Ta4  1  0.301780  0.648632  0.409204  1
  Ta  Ta5  1  0.648632  0.409204  0.301780  1
  Ta  Ta6  1  0.590796  0.698220  0.351368  1
  Cl  Cl7  1  0.568601  0.161430  0.441772  1
  Cl  Cl8  1  0.223645  0.370641  0.908417  1
  Cl  Cl9  1  0.908417  0.223645  0.370641  1
  Cl  Cl10  1  0.370641  0.908417  0.223645  1
  Cl  Cl11  1  0.776355  0.629359  0.091583  1
  Cl  Cl12  1  0.091583  0.776355  0.629359  1
  Cl  Cl13  1  0.703535  0.955479  0.161265  1
  Cl  Cl14  1  0.955479  0.161265  0.703535  1
  Cl  Cl15  1  0.161265  0.703535  0.955479  1
  Cl  Cl16  1  0.296465  0.044521  0.838735  1
  Cl  Cl17  1  0.044521  0.838735  0.296465  1
  Cl  Cl18  1  0.838735  0.296465  0.044521  1
  Cl  Cl19  1  0.558228  0.431399  0.838570  1
  Cl  Cl20  1  0.161430  0.441772  0.568601  1
  Cl  Cl21  1  0.441772  0.568601  0.161430  1
  Cl  Cl22  1  0.431399  0.838570  0.558228  1
  Cl  Cl23  1  0.838570  0.558228  0.431399  1
  Cl  Cl24  1  0.629359  0.091583  0.776355  1
