# generated using pymatgen
data_LaPr7B4(CI5)2
_symmetry_space_group_name_H-M   'P 1'
_cell_length_a   4.27748523
_cell_length_b   12.16977494
_cell_length_c   15.53662779
_cell_angle_alpha   91.69155392
_cell_angle_beta   97.91236313
_cell_angle_gamma   100.12184946
_symmetry_Int_Tables_number   1
_chemical_formula_structural   LaPr7B4(CI5)2
_chemical_formula_sum   'La1 Pr7 B4 C2 I10'
_cell_volume   787.41037340
_cell_formula_units_Z   1
loop_
 _symmetry_equiv_pos_site_id
 _symmetry_equiv_pos_as_xyz
  1  'x, y, z'
loop_
 _atom_site_type_symbol
 _atom_site_label
 _atom_site_symmetry_multiplicity
 _atom_site_fract_x
 _atom_site_fract_y
 _atom_site_fract_z
 _atom_site_occupancy
  La  La0  1  0.026201  0.154604  0.897797  1
  Pr  Pr1  1  0.974205  0.847353  0.101058  1
  Pr  Pr2  1  0.634961  0.144642  0.125280  1
  Pr  Pr3  1  0.551054  0.705692  0.396416  1
  Pr  Pr4  1  0.913988  0.418728  0.409250  1
  Pr  Pr5  1  0.085983  0.581321  0.590645  1
  Pr  Pr6  1  0.448744  0.294023  0.603464  1
  Pr  Pr7  1  0.364828  0.853685  0.875969  1
  B  B8  1  0.314669  0.000205  0.999888  1
  B  B9  1  0.685423  0.000205  0.999888  1
  B  B10  1  0.053216  0.056926  0.049507  1
  B  B11  1  0.946961  0.944085  0.949836  1
  C  C12  1  0.511884  0.547045  0.476724  1
  C  C13  1  0.488074  0.452838  0.523310  1
  I  I14  1  0.341682  0.664604  0.018759  1
  I  I15  1  0.931927  0.608902  0.254953  1
  I  I16  1  0.593366  0.931814  0.254917  1
  I  I17  1  0.280784  0.296724  0.264844  1
  I  I18  1  0.822955  0.163737  0.482174  1
  I  I19  1  0.176844  0.836132  0.517557  1
  I  I20  1  0.719213  0.703222  0.735204  1
  I  I21  1  0.403598  0.064711  0.742486  1
  I  I22  1  0.068244  0.391096  0.745390  1
  I  I23  1  0.661193  0.337705  0.984684  1
