# generated using pymatgen
data_Tb3MgHgSb3O14
_symmetry_space_group_name_H-M   'P 1'
_cell_length_a   7.24968779
_cell_length_b   7.24969195
_cell_length_c   7.24968949
_cell_angle_alpha   117.40132812
_cell_angle_beta   62.59868867
_cell_angle_gamma   117.40131548
_symmetry_Int_Tables_number   1
_chemical_formula_structural   Tb3MgHgSb3O14
_chemical_formula_sum   'Tb3 Mg1 Hg1 Sb3 O14'
_cell_volume   285.01997688
_cell_formula_units_Z   1
loop_
 _symmetry_equiv_pos_site_id
 _symmetry_equiv_pos_as_xyz
  1  'x, y, z'
loop_
 _atom_site_type_symbol
 _atom_site_label
 _atom_site_symmetry_multiplicity
 _atom_site_fract_x
 _atom_site_fract_y
 _atom_site_fract_z
 _atom_site_occupancy
  Tb  Tb0  1  0.000002  0.499995  0.999982  1
  Tb  Tb1  1  0.500000  0.000005  0.000015  1
  Tb  Tb2  1  0.499979  0.499980  0.500000  1
  Mg  Mg3  1  0.000010  0.000008  0.500003  1
  Hg  Hg4  1  0.499999  0.500003  0.000000  1
  Sb  Sb5  1  0.499965  0.000029  0.499955  1
  Sb  Sb6  1  0.000034  0.499965  0.500046  1
  Sb  Sb7  1  0.999981  0.999994  0.999993  1
  O  O8  1  0.624325  0.375679  0.124325  1
  O  O9  1  0.375676  0.624328  0.875674  1
  O  O10  1  0.068131  0.322057  0.177935  1
  O  O11  1  0.677944  0.931875  0.177948  1
  O  O12  1  0.677936  0.322053  0.568128  1
  O  O13  1  0.931875  0.677941  0.822051  1
  O  O14  1  0.322060  0.068129  0.822064  1
  O  O15  1  0.322053  0.677936  0.431873  1
  O  O16  1  0.654656  0.909869  0.590129  1
  O  O17  1  0.090110  0.345397  0.590111  1
  O  O18  1  0.090122  0.909876  0.154634  1
  O  O19  1  0.345397  0.090109  0.409888  1
  O  O20  1  0.909867  0.654654  0.409869  1
  O  O21  1  0.909880  0.090119  0.845377  1
