# generated using pymatgen
data_Y5Ho5(CoTe)4
_symmetry_space_group_name_H-M   'P 1'
_cell_length_a   7.77233583
_cell_length_b   7.77233575
_cell_length_c   14.92801086
_cell_angle_alpha   90.03754211
_cell_angle_beta   89.96245869
_cell_angle_gamma   150.42068802
_symmetry_Int_Tables_number   1
_chemical_formula_structural   Y5Ho5(CoTe)4
_chemical_formula_sum   'Y5 Ho5 Co4 Te4'
_cell_volume   445.14821471
_cell_formula_units_Z   1
loop_
 _symmetry_equiv_pos_site_id
 _symmetry_equiv_pos_as_xyz
  1  'x, y, z'
loop_
 _atom_site_type_symbol
 _atom_site_label
 _atom_site_symmetry_multiplicity
 _atom_site_fract_x
 _atom_site_fract_y
 _atom_site_fract_z
 _atom_site_occupancy
  Y  Y0  1  0.257609  0.742391  0.371011  1
  Y  Y1  1  0.257578  0.742422  0.129054  1
  Y  Y2  1  0.742428  0.257572  0.870669  1
  Y  Y3  1  0.604437  0.395563  0.250043  1
  Y  Y4  1  0.395035  0.604965  0.749627  1
  Ho  Ho5  1  0.959971  0.040029  0.126388  1
  Ho  Ho6  1  0.040064  0.959936  0.873154  1
  Ho  Ho7  1  0.040323  0.959677  0.626284  1
  Ho  Ho8  1  0.960002  0.039998  0.373859  1
  Ho  Ho9  1  0.741367  0.258633  0.630835  1
  Co  Co10  1  0.411456  0.588544  0.250050  1
  Co  Co11  1  0.588961  0.411039  0.749608  1
  Co  Co12  1  0.821495  0.178505  0.250020  1
  Co  Co13  1  0.179402  0.820598  0.749154  1
  Te  Te14  1  0.616965  0.383035  0.038421  1
  Te  Te15  1  0.383157  0.616843  0.961340  1
  Te  Te16  1  0.382490  0.617510  0.538701  1
  Te  Te17  1  0.617258  0.382742  0.461783  1
