# generated using pymatgen
data_Dy3Y9ZnCo4Sb
_symmetry_space_group_name_H-M   'P 1'
_cell_length_a   8.35389945
_cell_length_b   8.36575003
_cell_length_c   8.35390072
_cell_angle_alpha   111.78068376
_cell_angle_beta   108.89660131
_cell_angle_gamma   107.70558752
_symmetry_Int_Tables_number   1
_chemical_formula_structural   Dy3Y9ZnCo4Sb
_chemical_formula_sum   'Dy3 Y9 Zn1 Co4 Sb1'
_cell_volume   449.14618830
_cell_formula_units_Z   1
loop_
 _symmetry_equiv_pos_site_id
 _symmetry_equiv_pos_as_xyz
  1  'x, y, z'
loop_
 _atom_site_type_symbol
 _atom_site_label
 _atom_site_symmetry_multiplicity
 _atom_site_fract_x
 _atom_site_fract_y
 _atom_site_fract_z
 _atom_site_occupancy
  Dy  Dy0  1  0.675968  0.361665  0.685697  1
  Dy  Dy1  1  0.324077  0.009027  0.684951  1
  Dy  Dy2  1  0.676347  0.991061  0.314714  1
  Y  Y3  1  0.428502  0.227940  0.199687  1
  Y  Y4  1  0.571886  0.771913  0.800186  1
  Y  Y5  1  0.028252  0.227940  0.799437  1
  Y  Y6  1  0.971727  0.771913  0.200026  1
  Y  Y7  1  0.179898  0.281860  0.461947  1
  Y  Y8  1  0.820527  0.717994  0.538334  1
  Y  Y9  1  0.179661  0.717994  0.897467  1
  Y  Y10  1  0.819913  0.281860  0.101962  1
  Y  Y11  1  0.323638  0.636182  0.312544  1
  Zn  Zn12  1  0.000187  0.000503  0.000316  1
  Co  Co13  1  0.347311  0.001266  0.347851  1
  Co  Co14  1  0.653416  0.001266  0.653955  1
  Co  Co15  1  0.113271  0.614203  0.500932  1
  Co  Co16  1  0.885521  0.385425  0.499904  1
  Sb  Sb17  1  0.499898  0.499988  0.000089  1
