# generated using pymatgen
data_Dy2Y2Hf3O12
_symmetry_space_group_name_H-M   'P 1'
_cell_length_a   6.32869352
_cell_length_b   6.37882284
_cell_length_c   6.59496711
_cell_angle_alpha   99.94911639
_cell_angle_beta   98.14796162
_cell_angle_gamma   99.76796619
_symmetry_Int_Tables_number   1
_chemical_formula_structural   Dy2Y2Hf3O12
_chemical_formula_sum   'Dy2 Y2 Hf3 O12'
_cell_volume   254.38720074
_cell_formula_units_Z   1
loop_
 _symmetry_equiv_pos_site_id
 _symmetry_equiv_pos_as_xyz
  1  'x, y, z'
loop_
 _atom_site_type_symbol
 _atom_site_label
 _atom_site_symmetry_multiplicity
 _atom_site_fract_x
 _atom_site_fract_y
 _atom_site_fract_z
 _atom_site_occupancy
  Dy  Dy0  1  0.696973  0.865460  0.389278  1
  Dy  Dy1  1  0.384921  0.699600  0.867008  1
  Y  Y2  1  0.302757  0.134435  0.610397  1
  Y  Y3  1  0.614842  0.300553  0.132975  1
  Hf  Hf4  1  0.999892  0.999907  0.999981  1
  Hf  Hf5  1  0.848125  0.398296  0.666845  1
  Hf  Hf6  1  0.151915  0.601813  0.333129  1
  O  O7  1  0.587899  0.416868  0.819345  1
  O  O8  1  0.831037  0.571673  0.426560  1
  O  O9  1  0.408179  0.809089  0.564328  1
  O  O10  1  0.412199  0.584079  0.180745  1
  O  O11  1  0.169036  0.428933  0.573757  1
  O  O12  1  0.592489  0.190580  0.435772  1
  O  O13  1  0.017520  0.679943  0.876194  1
  O  O14  1  0.919806  0.090596  0.700582  1
  O  O15  1  0.686578  0.933389  0.058608  1
  O  O16  1  0.983143  0.320095  0.123813  1
  O  O17  1  0.079630  0.909094  0.299102  1
  O  O18  1  0.313059  0.065598  0.941581  1
