# generated using pymatgen
data_Nd2ErTm3(RuO7)2
_symmetry_space_group_name_H-M   'P 1'
_cell_length_a   6.39474805
_cell_length_b   6.39370701
_cell_length_c   7.46561700
_cell_angle_alpha   90.00000000
_cell_angle_beta   90.00000000
_cell_angle_gamma   109.76941044
_symmetry_Int_Tables_number   1
_chemical_formula_structural   Nd2ErTm3(RuO7)2
_chemical_formula_sum   'Nd2 Er1 Tm3 Ru2 O14'
_cell_volume   287.24989132
_cell_formula_units_Z   1
loop_
 _symmetry_equiv_pos_site_id
 _symmetry_equiv_pos_as_xyz
  1  'x, y, z'
loop_
 _atom_site_type_symbol
 _atom_site_label
 _atom_site_symmetry_multiplicity
 _atom_site_fract_x
 _atom_site_fract_y
 _atom_site_fract_z
 _atom_site_occupancy
  Nd  Nd0  1  0.000040  0.000157  0.499751  1
  Nd  Nd1  1  0.000040  0.000157  0.000249  1
  Er  Er2  1  0.484294  0.934050  0.750000  1
  Tm  Tm3  1  0.515373  0.064565  0.250000  1
  Tm  Tm4  1  0.935180  0.484566  0.750000  1
  Tm  Tm5  1  0.064404  0.515493  0.250000  1
  Ru  Ru6  1  0.500192  0.500056  0.499564  1
  Ru  Ru7  1  0.500192  0.500056  0.000436  1
  O  O8  1  0.591952  0.591023  0.750000  1
  O  O9  1  0.407901  0.408294  0.250000  1
  O  O10  1  0.837864  0.121954  0.750000  1
  O  O11  1  0.163222  0.878271  0.250000  1
  O  O12  1  0.119537  0.836838  0.750000  1
  O  O13  1  0.878593  0.163642  0.250000  1
  O  O14  1  0.439815  0.179212  0.964584  1
  O  O15  1  0.560479  0.820655  0.462546  1
  O  O16  1  0.179555  0.440921  0.963862  1
  O  O17  1  0.820759  0.559651  0.463592  1
  O  O18  1  0.439815  0.179212  0.535416  1
  O  O19  1  0.560479  0.820655  0.037454  1
  O  O20  1  0.820759  0.559651  0.036408  1
  O  O21  1  0.179555  0.440921  0.536138  1
