# generated using pymatgen
data_Na3LiGaFe3Br16
_symmetry_space_group_name_H-M   'P 1'
_cell_length_a   7.59010015
_cell_length_b   7.86654509
_cell_length_c   14.59840468
_cell_angle_alpha   87.08942898
_cell_angle_beta   89.87376302
_cell_angle_gamma   90.24896591
_symmetry_Int_Tables_number   1
_chemical_formula_structural   Na3LiGaFe3Br16
_chemical_formula_sum   'Na3 Li1 Ga1 Fe3 Br16'
_cell_volume   870.50438437
_cell_formula_units_Z   1
loop_
 _symmetry_equiv_pos_site_id
 _symmetry_equiv_pos_as_xyz
  1  'x, y, z'
loop_
 _atom_site_type_symbol
 _atom_site_label
 _atom_site_symmetry_multiplicity
 _atom_site_fract_x
 _atom_site_fract_y
 _atom_site_fract_z
 _atom_site_occupancy
  Na  Na0  1  0.489937  0.847711  0.869440  1
  Na  Na1  1  0.506826  0.148532  0.133201  1
  Na  Na2  1  0.989617  0.153281  0.629540  1
  Li  Li3  1  0.019616  0.848975  0.377458  1
  Ga  Ga4  1  0.172681  0.710690  0.597028  1
  Fe  Fe5  1  0.826912  0.289228  0.397092  1
  Fe  Fe6  1  0.678544  0.290577  0.898941  1
  Fe  Fe7  1  0.318163  0.709561  0.104157  1
  Br  Br8  1  0.191256  0.457148  0.688190  1
  Br  Br9  1  0.833326  0.556375  0.317640  1
  Br  Br10  1  0.689264  0.546594  0.809841  1
  Br  Br11  1  0.312887  0.450872  0.190840  1
  Br  Br12  1  0.310026  0.932058  0.679248  1
  Br  Br13  1  0.694922  0.067929  0.314452  1
  Br  Br14  1  0.812410  0.069554  0.816314  1
  Br  Br15  1  0.183616  0.922338  0.192215  1
  Br  Br16  1  0.175198  0.691356  0.962439  1
  Br  Br17  1  0.820794  0.311497  0.040211  1
  Br  Br18  1  0.680726  0.311148  0.537996  1
  Br  Br19  1  0.302634  0.698759  0.450262  1
  Br  Br20  1  0.877703  0.801416  0.565880  1
  Br  Br21  1  0.117214  0.182627  0.426679  1
  Br  Br22  1  0.382323  0.201978  0.928994  1
  Br  Br23  1  0.613404  0.799793  0.071942  1
