# generated using pymatgen
data_LaNdY4Ta2O14
_symmetry_space_group_name_H-M   'P 1'
_cell_length_a   6.53137005
_cell_length_b   6.53136961
_cell_length_c   7.64046405
_cell_angle_alpha   89.98879177
_cell_angle_beta   90.01121070
_cell_angle_gamma   109.30129961
_symmetry_Int_Tables_number   1
_chemical_formula_structural   LaNdY4Ta2O14
_chemical_formula_sum   'La1 Nd1 Y4 Ta2 O14'
_cell_volume   307.61339101
_cell_formula_units_Z   1
loop_
 _symmetry_equiv_pos_site_id
 _symmetry_equiv_pos_as_xyz
  1  'x, y, z'
loop_
 _atom_site_type_symbol
 _atom_site_label
 _atom_site_symmetry_multiplicity
 _atom_site_fract_x
 _atom_site_fract_y
 _atom_site_fract_z
 _atom_site_occupancy
  La  La0  1  0.500000  0.500000  0.500000  1
  Nd  Nd1  1  0.500000  0.500000  0.000000  1
  Y  Y2  1  0.532845  0.000739  0.750715  1
  Y  Y3  1  0.000739  0.532845  0.249285  1
  Y  Y4  1  0.467155  0.999261  0.249285  1
  Y  Y5  1  0.999261  0.467155  0.750715  1
  Ta  Ta6  1  0.000000  0.000000  0.500000  1
  Ta  Ta7  1  0.000000  0.000000  0.000000  1
  O  O8  1  0.681507  0.933384  0.468028  1
  O  O9  1  0.933384  0.681507  0.531972  1
  O  O10  1  0.681009  0.930947  0.031697  1
  O  O11  1  0.930947  0.681009  0.968303  1
  O  O12  1  0.318493  0.066616  0.531972  1
  O  O13  1  0.066616  0.318493  0.468028  1
  O  O14  1  0.318991  0.069053  0.968303  1
  O  O15  1  0.069053  0.318991  0.031697  1
  O  O16  1  0.937601  0.062399  0.750020  1
  O  O17  1  0.062399  0.937601  0.249980  1
  O  O18  1  0.363628  0.636372  0.752799  1
  O  O19  1  0.636372  0.363628  0.247201  1
  O  O20  1  0.643198  0.356802  0.752291  1
  O  O21  1  0.356802  0.643198  0.247709  1
