# generated using pymatgen
data_Tb6Ce3Sm(Al2Ru3)2
_symmetry_space_group_name_H-M   'P 1'
_cell_length_a   8.47086245
_cell_length_b   8.46075748
_cell_length_c   8.47870890
_cell_angle_alpha   110.15533645
_cell_angle_beta   110.19334754
_cell_angle_gamma   110.02965780
_symmetry_Int_Tables_number   1
_chemical_formula_structural   Tb6Ce3Sm(Al2Ru3)2
_chemical_formula_sum   'Tb6 Ce3 Sm1 Al4 Ru6'
_cell_volume   456.08805824
_cell_formula_units_Z   1
loop_
 _symmetry_equiv_pos_site_id
 _symmetry_equiv_pos_as_xyz
  1  'x, y, z'
loop_
 _atom_site_type_symbol
 _atom_site_label
 _atom_site_symmetry_multiplicity
 _atom_site_fract_x
 _atom_site_fract_y
 _atom_site_fract_z
 _atom_site_occupancy
  Tb  Tb0  1  0.782034  0.781381  0.781798  1
  Tb  Tb1  1  0.312896  0.565718  0.753103  1
  Tb  Tb2  1  0.753133  0.313818  0.566135  1
  Tb  Tb3  1  0.566188  0.752148  0.311806  1
  Tb  Tb4  1  0.721281  0.508018  0.994263  1
  Tb  Tb5  1  0.992668  0.720389  0.506361  1
  Ce  Ce6  1  0.252658  0.200570  0.943445  1
  Ce  Ce7  1  0.943034  0.253022  0.200125  1
  Ce  Ce8  1  0.200176  0.943583  0.253492  1
  Sm  Sm9  1  0.506415  0.993979  0.722363  1
  Al  Al10  1  0.411128  0.410942  0.410254  1
  Al  Al11  1  0.093385  0.496886  0.003965  1
  Al  Al12  1  0.004553  0.093209  0.496468  1
  Al  Al13  1  0.497164  0.004578  0.095726  1
  Ru  Ru14  1  0.907903  0.119932  0.753313  1
  Ru  Ru15  1  0.753193  0.905461  0.119724  1
  Ru  Ru16  1  0.119909  0.753121  0.906265  1
  Ru  Ru17  1  0.221076  0.591217  0.365340  1
  Ru  Ru18  1  0.366948  0.224898  0.592887  1
  Ru  Ru19  1  0.594258  0.367132  0.223165  1
