# generated using pymatgen
data_HfZn(TcSn4)2
_symmetry_space_group_name_H-M   'P 1'
_cell_length_a   7.44931282
_cell_length_b   7.44931267
_cell_length_c   7.44931300
_cell_angle_alpha   125.47875627
_cell_angle_beta   125.47876493
_cell_angle_gamma   80.74653889
_symmetry_Int_Tables_number   1
_chemical_formula_structural   HfZn(TcSn4)2
_chemical_formula_sum   'Hf1 Zn1 Tc2 Sn8'
_cell_volume   264.28776578
_cell_formula_units_Z   1
loop_
 _symmetry_equiv_pos_site_id
 _symmetry_equiv_pos_as_xyz
  1  'x, y, z'
loop_
 _atom_site_type_symbol
 _atom_site_label
 _atom_site_symmetry_multiplicity
 _atom_site_fract_x
 _atom_site_fract_y
 _atom_site_fract_z
 _atom_site_occupancy
  Hf  Hf0  1  0.500000  0.500000  0.000000  1
  Zn  Zn1  1  0.000000  0.000000  0.000000  1
  Tc  Tc2  1  0.245309  0.245309  0.000000  1
  Tc  Tc3  1  0.754691  0.754691  0.000000  1
  Sn  Sn4  1  0.707070  0.516946  0.502085  1
  Sn  Sn5  1  0.516946  0.014861  0.809877  1
  Sn  Sn6  1  0.204986  0.707070  0.190123  1
  Sn  Sn7  1  0.795014  0.292930  0.809877  1
  Sn  Sn8  1  0.483054  0.985139  0.190123  1
  Sn  Sn9  1  0.292930  0.483054  0.497915  1
  Sn  Sn10  1  0.985139  0.795014  0.502085  1
  Sn  Sn11  1  0.014861  0.204986  0.497915  1
