# generated using pymatgen
data_YbHo2Ga5Cu6
_symmetry_space_group_name_H-M   'P 1'
_cell_length_a   7.92911031
_cell_length_b   7.92911099
_cell_length_c   7.92911044
_cell_angle_alpha   148.62368512
_cell_angle_beta   113.40382040
_cell_angle_gamma   75.46477840
_symmetry_Int_Tables_number   1
_chemical_formula_structural   YbHo2Ga5Cu6
_chemical_formula_sum   'Yb1 Ho2 Ga5 Cu6'
_cell_volume   234.11009173
_cell_formula_units_Z   1
loop_
 _symmetry_equiv_pos_site_id
 _symmetry_equiv_pos_as_xyz
  1  'x, y, z'
loop_
 _atom_site_type_symbol
 _atom_site_label
 _atom_site_symmetry_multiplicity
 _atom_site_fract_x
 _atom_site_fract_y
 _atom_site_fract_z
 _atom_site_occupancy
  Yb  Yb0  1  0.000000  0.000000  0.000000  1
  Ho  Ho1  1  0.692191  0.692191  0.000000  1
  Ho  Ho2  1  0.307809  0.307809  0.000000  1
  Ga  Ga3  1  0.320620  0.671371  0.649249  1
  Ga  Ga4  1  0.500000  0.000000  0.500000  1
  Ga  Ga5  1  0.679380  0.328629  0.350751  1
  Ga  Ga6  1  0.977879  0.328629  0.649249  1
  Ga  Ga7  1  0.022121  0.671371  0.350751  1
  Cu  Cu8  1  0.302073  0.500000  0.802073  1
  Cu  Cu9  1  0.697927  0.500000  0.197927  1
  Cu  Cu10  1  0.401021  0.124719  0.276301  1
  Cu  Cu11  1  0.848418  0.124719  0.723699  1
  Cu  Cu12  1  0.151582  0.875281  0.276301  1
  Cu  Cu13  1  0.598979  0.875281  0.723699  1
