# generated using pymatgen
data_Ce2Tm3TcRu
_symmetry_space_group_name_H-M   'P 1'
_cell_length_a   6.28822019
_cell_length_b   7.05582586
_cell_length_c   8.73003775
_cell_angle_alpha   96.02348707
_cell_angle_beta   111.10931831
_cell_angle_gamma   89.99999974
_symmetry_Int_Tables_number   1
_chemical_formula_structural   Ce2Tm3TcRu
_chemical_formula_sum   'Ce4 Tm6 Tc2 Ru2'
_cell_volume   359.05372129
_cell_formula_units_Z   2
loop_
 _symmetry_equiv_pos_site_id
 _symmetry_equiv_pos_as_xyz
  1  'x, y, z'
loop_
 _atom_site_type_symbol
 _atom_site_label
 _atom_site_symmetry_multiplicity
 _atom_site_fract_x
 _atom_site_fract_y
 _atom_site_fract_z
 _atom_site_occupancy
  Ce  Ce0  1  0.785431  0.096417  0.807993  1
  Ce  Ce1  1  0.977437  0.403583  0.192007  1
  Ce  Ce2  1  0.206126  0.906056  0.192480  1
  Ce  Ce3  1  0.013646  0.593944  0.807520  1
  Tm  Tm4  1  0.205914  0.186772  0.568811  1
  Tm  Tm5  1  0.637103  0.313228  0.431189  1
  Tm  Tm6  1  0.791582  0.812768  0.432112  1
  Tm  Tm7  1  0.359470  0.687232  0.567888  1
  Tm  Tm8  1  0.418096  0.250000  0.000000  1
  Tm  Tm9  1  0.575945  0.750000  0.000000  1
  Tc  Tc10  1  0.640757  0.407403  0.781282  1
  Tc  Tc11  1  0.859475  0.092597  0.218718  1
  Ru  Ru12  1  0.375978  0.592910  0.222939  1
  Ru  Ru13  1  0.153040  0.907090  0.777061  1
