# generated using pymatgen
data_KSbS6
_symmetry_space_group_name_H-M   'P 1'
_cell_length_a   15.73271300
_cell_length_b   5.98200067
_cell_length_c   10.94918276
_cell_angle_alpha   74.39371192
_cell_angle_beta   90.00000000
_cell_angle_gamma   90.00000000
_symmetry_Int_Tables_number   1
_chemical_formula_structural   KSbS6
_chemical_formula_sum   'K4 Sb4 S24'
_cell_volume   992.47155331
_cell_formula_units_Z   4
loop_
 _symmetry_equiv_pos_site_id
 _symmetry_equiv_pos_as_xyz
  1  'x, y, z'
loop_
 _atom_site_type_symbol
 _atom_site_label
 _atom_site_symmetry_multiplicity
 _atom_site_fract_x
 _atom_site_fract_y
 _atom_site_fract_z
 _atom_site_occupancy
  K  K0  1  0.062186  0.656491  0.697521  1
  K  K1  1  0.562186  0.343509  0.802479  1
  K  K2  1  0.937814  0.343509  0.302479  1
  K  K3  1  0.437814  0.656491  0.197521  1
  Sb  Sb4  1  0.411286  0.913614  0.619559  1
  Sb  Sb5  1  0.911286  0.086386  0.880441  1
  Sb  Sb6  1  0.588714  0.086386  0.380441  1
  Sb  Sb7  1  0.088714  0.913614  0.119559  1
  S  S8  1  0.383045  0.332722  0.624575  1
  S  S9  1  0.883045  0.667278  0.875425  1
  S  S10  1  0.616955  0.667278  0.375425  1
  S  S11  1  0.116955  0.332722  0.124575  1
  S  S12  1  0.281417  0.277086  0.748347  1
  S  S13  1  0.781417  0.722914  0.751653  1
  S  S14  1  0.718583  0.722914  0.251653  1
  S  S15  1  0.218583  0.277086  0.248347  1
  S  S16  1  0.064957  0.088175  0.864396  1
  S  S17  1  0.564957  0.911825  0.635604  1
  S  S18  1  0.935043  0.911825  0.135604  1
  S  S19  1  0.435043  0.088175  0.364396  1
  S  S20  1  0.065181  0.758106  0.376833  1
  S  S21  1  0.565181  0.241894  0.123167  1
  S  S22  1  0.934819  0.241894  0.623167  1
  S  S23  1  0.434819  0.758106  0.876833  1
  S  S24  1  0.179691  0.601901  0.443206  1
  S  S25  1  0.679691  0.398099  0.056794  1
  S  S26  1  0.820309  0.398099  0.556794  1
  S  S27  1  0.320309  0.601901  0.943206  1
  S  S28  1  0.173812  0.264403  0.427793  1
  S  S29  1  0.673812  0.735597  0.072207  1
  S  S30  1  0.826188  0.735597  0.572207  1
  S  S31  1  0.326188  0.264403  0.927793  1
