# generated using pymatgen
data_DyHo3(ReC2)2
_symmetry_space_group_name_H-M   'P 1'
_cell_length_a   5.09463300
_cell_length_b   6.56715800
_cell_length_c   9.84365418
_cell_angle_alpha   89.93357596
_cell_angle_beta   90.00000000
_cell_angle_gamma   90.00000000
_symmetry_Int_Tables_number   1
_chemical_formula_structural   DyHo3(ReC2)2
_chemical_formula_sum   'Dy2 Ho6 Re4 C8'
_cell_volume   329.34147479
_cell_formula_units_Z   2
loop_
 _symmetry_equiv_pos_site_id
 _symmetry_equiv_pos_as_xyz
  1  'x, y, z'
loop_
 _atom_site_type_symbol
 _atom_site_label
 _atom_site_symmetry_multiplicity
 _atom_site_fract_x
 _atom_site_fract_y
 _atom_site_fract_z
 _atom_site_occupancy
  Dy  Dy0  1  0.750000  0.966466  0.715833  1
  Dy  Dy1  1  0.250000  0.033534  0.284167  1
  Ho  Ho2  1  0.250000  0.678595  0.556881  1
  Ho  Ho3  1  0.750000  0.321405  0.443119  1
  Ho  Ho4  1  0.750000  0.821271  0.056803  1
  Ho  Ho5  1  0.250000  0.178729  0.943197  1
  Ho  Ho6  1  0.250000  0.533577  0.216363  1
  Ho  Ho7  1  0.750000  0.466423  0.783637  1
  Re  Re8  1  0.250000  0.719575  0.866578  1
  Re  Re9  1  0.750000  0.280425  0.133422  1
  Re  Re10  1  0.750000  0.780066  0.366652  1
  Re  Re11  1  0.250000  0.219934  0.633348  1
  C  C12  1  0.250000  0.452824  0.759117  1
  C  C13  1  0.750000  0.547176  0.240883  1
  C  C14  1  0.750000  0.047119  0.258958  1
  C  C15  1  0.250000  0.952881  0.741042  1
  C  C16  1  0.250000  0.823245  0.049876  1
  C  C17  1  0.750000  0.176755  0.950124  1
  C  C18  1  0.750000  0.675143  0.549875  1
  C  C19  1  0.250000  0.324857  0.450125  1
