# generated using pymatgen
data_Zr3Sc5(InAu2)4
_symmetry_space_group_name_H-M   'P 1'
_cell_length_a   7.65465335
_cell_length_b   7.65465335
_cell_length_c   7.09018200
_cell_angle_alpha   90.00000000
_cell_angle_beta   90.00000000
_cell_angle_gamma   89.83070214
_symmetry_Int_Tables_number   1
_chemical_formula_structural   Zr3Sc5(InAu2)4
_chemical_formula_sum   'Zr3 Sc5 In4 Au8'
_cell_volume   415.43831088
_cell_formula_units_Z   1
loop_
 _symmetry_equiv_pos_site_id
 _symmetry_equiv_pos_as_xyz
  1  'x, y, z'
loop_
 _atom_site_type_symbol
 _atom_site_label
 _atom_site_symmetry_multiplicity
 _atom_site_fract_x
 _atom_site_fract_y
 _atom_site_fract_z
 _atom_site_occupancy
  Zr  Zr0  1  0.143511  0.146526  0.000000  1
  Zr  Zr1  1  0.853474  0.856489  0.000000  1
  Zr  Zr2  1  0.646562  0.353438  0.500000  1
  Sc  Sc3  1  0.351794  0.648206  0.500000  1
  Sc  Sc4  1  0.686453  0.313547  0.000000  1
  Sc  Sc5  1  0.313654  0.686346  0.000000  1
  Sc  Sc6  1  0.816392  0.812884  0.500000  1
  Sc  Sc7  1  0.187116  0.183608  0.500000  1
  In  In8  1  0.499605  0.999992  0.246045  1
  In  In9  1  0.499605  0.999992  0.753955  1
  In  In10  1  0.000008  0.500395  0.246045  1
  In  In11  1  0.000008  0.500395  0.753955  1
  Au  Au12  1  0.368411  0.369257  0.213687  1
  Au  Au13  1  0.630743  0.631589  0.786313  1
  Au  Au14  1  0.630743  0.631589  0.213687  1
  Au  Au15  1  0.869069  0.130931  0.709321  1
  Au  Au16  1  0.869069  0.130931  0.290679  1
  Au  Au17  1  0.368411  0.369257  0.786313  1
  Au  Au18  1  0.132686  0.867314  0.288498  1
  Au  Au19  1  0.132686  0.867314  0.711502  1
