# generated using pymatgen
data_La4ZrSi12Ir19
_symmetry_space_group_name_H-M   'P 1'
_cell_length_a   12.91017400
_cell_length_b   12.91017480
_cell_length_c   4.04260300
_cell_angle_alpha   90.00000000
_cell_angle_beta   90.00000000
_cell_angle_gamma   120.00000307
_symmetry_Int_Tables_number   1
_chemical_formula_structural   La4ZrSi12Ir19
_chemical_formula_sum   'La4 Zr1 Si12 Ir19'
_cell_volume   583.52024783
_cell_formula_units_Z   1
loop_
 _symmetry_equiv_pos_site_id
 _symmetry_equiv_pos_as_xyz
  1  'x, y, z'
loop_
 _atom_site_type_symbol
 _atom_site_label
 _atom_site_symmetry_multiplicity
 _atom_site_fract_x
 _atom_site_fract_y
 _atom_site_fract_z
 _atom_site_occupancy
  La  La0  1  0.999348  0.814733  0.500000  1
  La  La1  1  0.185267  0.184615  0.500000  1
  La  La2  1  0.815385  0.000652  0.500000  1
  La  La3  1  0.666667  0.333333  0.000000  1
  Zr  Zr4  1  0.333333  0.666667  0.000000  1
  Si  Si5  1  0.003093  0.187810  0.000000  1
  Si  Si6  1  0.812190  0.815283  0.000000  1
  Si  Si7  1  0.184717  0.996907  0.000000  1
  Si  Si8  1  0.515768  0.691048  0.500000  1
  Si  Si9  1  0.308952  0.824720  0.500000  1
  Si  Si10  1  0.175280  0.484232  0.500000  1
  Si  Si11  1  0.478622  0.167336  0.500000  1
  Si  Si12  1  0.688714  0.521378  0.500000  1
  Si  Si13  1  0.832664  0.311286  0.500000  1
  Si  Si14  1  0.999412  0.628989  0.000000  1
  Si  Si15  1  0.371011  0.370422  0.000000  1
  Si  Si16  1  0.629578  0.000588  0.000000  1
  Ir  Ir17  1  0.003188  0.288782  0.500000  1
  Ir  Ir18  1  0.711218  0.714404  0.500000  1
  Ir  Ir19  1  0.285596  0.996812  0.500000  1
  Ir  Ir20  1  0.615207  0.801799  0.000000  1
  Ir  Ir21  1  0.198201  0.813408  0.000000  1
  Ir  Ir22  1  0.186592  0.384793  0.000000  1
  Ir  Ir23  1  0.378305  0.181030  0.000000  1
  Ir  Ir24  1  0.802725  0.621695  0.000000  1
  Ir  Ir25  1  0.818970  0.197275  0.000000  1
  Ir  Ir26  1  0.505675  0.870509  0.500000  1
  Ir  Ir27  1  0.129491  0.635167  0.500000  1
  Ir  Ir28  1  0.364833  0.494325  0.500000  1
  Ir  Ir29  1  0.485508  0.362860  0.500000  1
  Ir  Ir30  1  0.877353  0.514492  0.500000  1
  Ir  Ir31  1  0.637140  0.122647  0.500000  1
  Ir  Ir32  1  0.000000  0.000000  0.000000  1
  Ir  Ir33  1  0.001326  0.448122  0.000000  1
  Ir  Ir34  1  0.551878  0.553204  0.000000  1
  Ir  Ir35  1  0.446796  0.998674  0.000000  1
