# generated using pymatgen
data_CdHg(Pt2Se3)2
_symmetry_space_group_name_H-M   'P 1'
_cell_length_a   7.53813400
_cell_length_b   7.53813403
_cell_length_c   5.45333900
_cell_angle_alpha   90.00000000
_cell_angle_beta   90.00000000
_cell_angle_gamma   120.00000864
_symmetry_Int_Tables_number   1
_chemical_formula_structural   CdHg(Pt2Se3)2
_chemical_formula_sum   'Cd1 Hg1 Pt4 Se6'
_cell_volume   268.36186306
_cell_formula_units_Z   1
loop_
 _symmetry_equiv_pos_site_id
 _symmetry_equiv_pos_as_xyz
  1  'x, y, z'
loop_
 _atom_site_type_symbol
 _atom_site_label
 _atom_site_symmetry_multiplicity
 _atom_site_fract_x
 _atom_site_fract_y
 _atom_site_fract_z
 _atom_site_occupancy
  Cd  Cd0  1  0.333333  0.666667  0.659772  1
  Hg  Hg1  1  0.666667  0.333333  0.354331  1
  Pt  Pt2  1  0.000000  0.000000  0.012204  1
  Pt  Pt3  1  0.500217  0.499783  0.992624  1
  Pt  Pt4  1  0.999566  0.499783  0.992624  1
  Pt  Pt5  1  0.500217  0.000434  0.992624  1
  Se  Se6  1  0.831833  0.663666  0.767616  1
  Se  Se7  1  0.831833  0.168167  0.767616  1
  Se  Se8  1  0.336334  0.168167  0.767616  1
  Se  Se9  1  0.176085  0.352170  0.230991  1
  Se  Se10  1  0.176085  0.823915  0.230991  1
  Se  Se11  1  0.647830  0.823915  0.230991  1
