# generated using pymatgen
data_Tm3Lu(Al3Ir)6
_symmetry_space_group_name_H-M   'P 1'
_cell_length_a   7.53286903
_cell_length_b   7.53409577
_cell_length_c   9.42762600
_cell_angle_alpha   90.00000000
_cell_angle_beta   90.00000000
_cell_angle_gamma   119.59283008
_symmetry_Int_Tables_number   1
_chemical_formula_structural   Tm3Lu(Al3Ir)6
_chemical_formula_sum   'Tm3 Lu1 Al18 Ir6'
_cell_volume   465.25582714
_cell_formula_units_Z   1
loop_
 _symmetry_equiv_pos_site_id
 _symmetry_equiv_pos_as_xyz
  1  'x, y, z'
loop_
 _atom_site_type_symbol
 _atom_site_label
 _atom_site_symmetry_multiplicity
 _atom_site_fract_x
 _atom_site_fract_y
 _atom_site_fract_z
 _atom_site_occupancy
  Tm  Tm0  1  0.994898  0.670618  0.250000  1
  Tm  Tm1  1  0.005205  0.329340  0.750000  1
  Tm  Tm2  1  0.670570  0.994831  0.250000  1
  Lu  Lu3  1  0.329321  0.005208  0.750000  1
  Al  Al4  1  0.128482  0.128398  0.250000  1
  Al  Al5  1  0.872005  0.871766  0.750000  1
  Al  Al6  1  0.000709  0.334732  0.074157  1
  Al  Al7  1  0.999628  0.665609  0.925472  1
  Al  Al8  1  0.999628  0.665609  0.574528  1
  Al  Al9  1  0.334737  0.000739  0.426231  1
  Al  Al10  1  0.000709  0.334732  0.425843  1
  Al  Al11  1  0.664879  0.999280  0.574571  1
  Al  Al12  1  0.664879  0.999280  0.925429  1
  Al  Al13  1  0.334737  0.000739  0.073769  1
  Al  Al14  1  0.333410  0.333069  0.554052  1
  Al  Al15  1  0.666628  0.666612  0.446427  1
  Al  Al16  1  0.666628  0.666612  0.053573  1
  Al  Al17  1  0.333410  0.333069  0.945948  1
  Al  Al18  1  0.339147  0.548082  0.250000  1
  Al  Al19  1  0.660478  0.451448  0.750000  1
  Al  Al20  1  0.547973  0.339026  0.250000  1
  Al  Al21  1  0.451837  0.661149  0.750000  1
  Ir  Ir22  1  0.672077  0.327684  0.999808  1
  Ir  Ir23  1  0.327733  0.672228  0.999845  1
  Ir  Ir24  1  0.327733  0.672228  0.500155  1
  Ir  Ir25  1  0.672077  0.327684  0.500192  1
  Ir  Ir26  1  0.000240  0.000115  0.999784  1
  Ir  Ir27  1  0.000240  0.000115  0.500216  1
