# generated using pymatgen
data_TmLu5Al18(Si3Os4)2
_symmetry_space_group_name_H-M   'P 1'
_cell_length_a   8.67510709
_cell_length_b   8.65082688
_cell_length_c   9.48308600
_cell_angle_alpha   90.00000000
_cell_angle_beta   90.00000000
_cell_angle_gamma   120.10959837
_symmetry_Int_Tables_number   1
_chemical_formula_structural   TmLu5Al18(Si3Os4)2
_chemical_formula_sum   'Tm1 Lu5 Al18 Si6 Os8'
_cell_volume   615.64746793
_cell_formula_units_Z   1
loop_
 _symmetry_equiv_pos_site_id
 _symmetry_equiv_pos_as_xyz
  1  'x, y, z'
loop_
 _atom_site_type_symbol
 _atom_site_label
 _atom_site_symmetry_multiplicity
 _atom_site_fract_x
 _atom_site_fract_y
 _atom_site_fract_z
 _atom_site_occupancy
  Tm  Tm0  1  0.801215  0.193259  0.750000  1
  Lu  Lu1  1  0.194961  0.389978  0.250000  1
  Lu  Lu2  1  0.804986  0.610130  0.750000  1
  Lu  Lu3  1  0.606828  0.806199  0.250000  1
  Lu  Lu4  1  0.393087  0.193888  0.750000  1
  Lu  Lu5  1  0.199291  0.806236  0.250000  1
  Al  Al6  1  0.164777  0.329484  0.579245  1
  Al  Al7  1  0.835316  0.670528  0.420729  1
  Al  Al8  1  0.670849  0.834807  0.577829  1
  Al  Al9  1  0.835316  0.670528  0.079271  1
  Al  Al10  1  0.329130  0.165080  0.422134  1
  Al  Al11  1  0.164777  0.329484  0.920755  1
  Al  Al12  1  0.163981  0.834907  0.577867  1
  Al  Al13  1  0.329130  0.165080  0.077866  1
  Al  Al14  1  0.836026  0.165131  0.422025  1
  Al  Al15  1  0.670849  0.834807  0.922171  1
  Al  Al16  1  0.836026  0.165131  0.077975  1
  Al  Al17  1  0.163981  0.834907  0.922133  1
  Al  Al18  1  0.873350  0.433593  0.250000  1
  Al  Al19  1  0.126853  0.566663  0.750000  1
  Al  Al20  1  0.560245  0.433593  0.250000  1
  Al  Al21  1  0.439796  0.566369  0.750000  1
  Al  Al22  1  0.999659  0.999315  0.250000  1
  Al  Al23  1  0.000536  0.000526  0.750000  1
  Si  Si24  1  0.332083  0.664275  0.040624  1
  Si  Si25  1  0.667735  0.335933  0.959592  1
  Si  Si26  1  0.667735  0.335933  0.540408  1
  Si  Si27  1  0.332083  0.664275  0.459376  1
  Si  Si28  1  0.562872  0.125740  0.250000  1
  Si  Si29  1  0.436817  0.874041  0.750000  1
  Os  Os30  1  0.499777  0.999852  0.000193  1
  Os  Os31  1  0.000138  0.500210  0.000178  1
  Os  Os32  1  0.499777  0.999852  0.499807  1
  Os  Os33  1  0.499946  0.500046  0.000029  1
  Os  Os34  1  0.000138  0.500210  0.499822  1
  Os  Os35  1  0.499946  0.500046  0.499971  1
  Os  Os36  1  0.999992  0.999981  0.000019  1
  Os  Os37  1  0.999992  0.999981  0.499981  1
