# generated using pymatgen
data_Tb2Ho10TcOs3
_symmetry_space_group_name_H-M   'P 1'
_cell_length_a   6.28817915
_cell_length_b   7.40105052
_cell_length_c   9.06147100
_cell_angle_alpha   90.00000000
_cell_angle_beta   90.00000000
_cell_angle_gamma   90.04325403
_symmetry_Int_Tables_number   1
_chemical_formula_structural   Tb2Ho10TcOs3
_chemical_formula_sum   'Tb2 Ho10 Tc1 Os3'
_cell_volume   421.71287086
_cell_formula_units_Z   1
loop_
 _symmetry_equiv_pos_site_id
 _symmetry_equiv_pos_as_xyz
  1  'x, y, z'
loop_
 _atom_site_type_symbol
 _atom_site_label
 _atom_site_symmetry_multiplicity
 _atom_site_fract_x
 _atom_site_fract_y
 _atom_site_fract_z
 _atom_site_occupancy
  Tb  Tb0  1  0.872324  0.539802  0.250000  1
  Tb  Tb1  1  0.625987  0.039757  0.250000  1
  Ho  Ho2  1  0.335425  0.674761  0.062340  1
  Ho  Ho3  1  0.165763  0.175555  0.437320  1
  Ho  Ho4  1  0.667387  0.324424  0.563372  1
  Ho  Ho5  1  0.834259  0.824813  0.936190  1
  Ho  Ho6  1  0.667387  0.324424  0.936628  1
  Ho  Ho7  1  0.834259  0.824813  0.563810  1
  Ho  Ho8  1  0.335425  0.674761  0.437660  1
  Ho  Ho9  1  0.165763  0.175555  0.062680  1
  Ho  Ho10  1  0.130872  0.459298  0.750000  1
  Ho  Ho11  1  0.368899  0.960150  0.750000  1
  Tc  Tc12  1  0.038580  0.884191  0.250000  1
  Os  Os13  1  0.458642  0.383831  0.250000  1
  Os  Os14  1  0.959985  0.117450  0.750000  1
  Os  Os15  1  0.539043  0.616413  0.750000  1
