# generated using pymatgen
data_Er3Al12Os3Pd
_symmetry_space_group_name_H-M   'P 1'
_cell_length_a   8.78713100
_cell_length_b   8.83626949
_cell_length_c   9.55052316
_cell_angle_alpha   89.91780110
_cell_angle_beta   90.00000000
_cell_angle_gamma   119.81620976
_symmetry_Int_Tables_number   1
_chemical_formula_structural   Er3Al12Os3Pd
_chemical_formula_sum   'Er6 Al24 Os6 Pd2'
_cell_volume   643.39041711
_cell_formula_units_Z   2
loop_
 _symmetry_equiv_pos_site_id
 _symmetry_equiv_pos_as_xyz
  1  'x, y, z'
loop_
 _atom_site_type_symbol
 _atom_site_label
 _atom_site_symmetry_multiplicity
 _atom_site_fract_x
 _atom_site_fract_y
 _atom_site_fract_z
 _atom_site_occupancy
  Er  Er0  1  0.192887  0.385775  0.253811  1
  Er  Er1  1  0.807113  0.614225  0.746189  1
  Er  Er2  1  0.611271  0.809533  0.253949  1
  Er  Er3  1  0.388729  0.190467  0.746051  1
  Er  Er4  1  0.198261  0.809533  0.253949  1
  Er  Er5  1  0.801739  0.190467  0.746051  1
  Al  Al6  1  0.335351  0.670703  0.026645  1
  Al  Al7  1  0.664649  0.329297  0.973355  1
  Al  Al8  1  0.666795  0.333588  0.522904  1
  Al  Al9  1  0.333205  0.666412  0.477096  1
  Al  Al10  1  0.163413  0.326826  0.575224  1
  Al  Al11  1  0.836587  0.673174  0.424776  1
  Al  Al12  1  0.672112  0.835070  0.576250  1
  Al  Al13  1  0.838538  0.677075  0.080631  1
  Al  Al14  1  0.327888  0.164930  0.423750  1
  Al  Al15  1  0.161462  0.322925  0.919369  1
  Al  Al16  1  0.162958  0.835070  0.576250  1
  Al  Al17  1  0.325623  0.157878  0.079618  1
  Al  Al18  1  0.837042  0.164930  0.423750  1
  Al  Al19  1  0.674377  0.842122  0.920382  1
  Al  Al20  1  0.832255  0.157878  0.079618  1
  Al  Al21  1  0.167745  0.842122  0.920382  1
  Al  Al22  1  0.562015  0.124031  0.249068  1
  Al  Al23  1  0.437985  0.875969  0.750932  1
  Al  Al24  1  0.875984  0.438001  0.251442  1
  Al  Al25  1  0.124016  0.561999  0.748558  1
  Al  Al26  1  0.562018  0.438001  0.251442  1
  Al  Al27  1  0.437982  0.561999  0.748558  1
  Al  Al28  1  0.001279  0.002559  0.250468  1
  Al  Al29  1  0.998721  0.997441  0.749532  1
  Os  Os30  1  0.500000  0.000000  0.000000  1
  Os  Os31  1  0.500000  0.000000  0.500000  1
  Os  Os32  1  0.000000  0.500000  0.500000  1
  Os  Os33  1  0.500000  0.500000  0.500000  1
  Os  Os34  1  0.000000  0.000000  0.000000  1
  Os  Os35  1  0.000000  0.000000  0.500000  1
  Pd  Pd36  1  0.000000  0.500000  0.000000  1
  Pd  Pd37  1  0.500000  0.500000  0.000000  1
