# generated using pymatgen
data_NdDyTcB6
_symmetry_space_group_name_H-M   'P 1'
_cell_length_a   3.74489600
_cell_length_b   9.25049900
_cell_length_c   11.69319200
_cell_angle_alpha   90.00000000
_cell_angle_beta   90.00000000
_cell_angle_gamma   90.00000000
_symmetry_Int_Tables_number   1
_chemical_formula_structural   NdDyTcB6
_chemical_formula_sum   'Nd4 Dy4 Tc4 B24'
_cell_volume   405.07738962
_cell_formula_units_Z   4
loop_
 _symmetry_equiv_pos_site_id
 _symmetry_equiv_pos_as_xyz
  1  'x, y, z'
loop_
 _atom_site_type_symbol
 _atom_site_label
 _atom_site_symmetry_multiplicity
 _atom_site_fract_x
 _atom_site_fract_y
 _atom_site_fract_z
 _atom_site_occupancy
  Nd  Nd0  1  0.000000  0.323484  0.414601  1
  Nd  Nd1  1  0.000000  0.676516  0.585399  1
  Nd  Nd2  1  0.000000  0.823484  0.085399  1
  Nd  Nd3  1  0.000000  0.176516  0.914601  1
  Dy  Dy4  1  0.000000  0.942886  0.368808  1
  Dy  Dy5  1  0.000000  0.057114  0.631192  1
  Dy  Dy6  1  0.000000  0.442886  0.131192  1
  Dy  Dy7  1  0.000000  0.557114  0.868808  1
  Tc  Tc8  1  0.000000  0.640180  0.319122  1
  Tc  Tc9  1  0.000000  0.359820  0.680878  1
  Tc  Tc10  1  0.000000  0.140180  0.180878  1
  Tc  Tc11  1  0.000000  0.859820  0.819122  1
  B  B12  1  0.500000  0.555403  0.430557  1
  B  B13  1  0.500000  0.444597  0.569443  1
  B  B14  1  0.500000  0.055403  0.069443  1
  B  B15  1  0.500000  0.944597  0.930557  1
  B  B16  1  0.500000  0.749629  0.415887  1
  B  B17  1  0.500000  0.250371  0.584113  1
  B  B18  1  0.500000  0.249629  0.084113  1
  B  B19  1  0.500000  0.750371  0.915887  1
  B  B20  1  0.500000  0.791541  0.265911  1
  B  B21  1  0.500000  0.208459  0.734089  1
  B  B22  1  0.500000  0.291541  0.234089  1
  B  B23  1  0.500000  0.708459  0.765911  1
  B  B24  1  0.500000  0.630236  0.186387  1
  B  B25  1  0.500000  0.369764  0.813613  1
  B  B26  1  0.500000  0.130236  0.313613  1
  B  B27  1  0.500000  0.869764  0.686387  1
  B  B28  1  0.500000  0.984587  0.212862  1
  B  B29  1  0.500000  0.015413  0.787138  1
  B  B30  1  0.500000  0.484587  0.287138  1
  B  B31  1  0.500000  0.515413  0.712862  1
  B  B32  1  0.500000  0.596574  0.026606  1
  B  B33  1  0.500000  0.403426  0.973394  1
  B  B34  1  0.500000  0.096574  0.473394  1
  B  B35  1  0.500000  0.903426  0.526606  1
