# generated using pymatgen
data_RbYTa6Cl18
_symmetry_space_group_name_H-M   'P 1'
_cell_length_a   10.22093804
_cell_length_b   10.22093709
_cell_length_c   10.22093767
_cell_angle_alpha   55.77242244
_cell_angle_beta   55.77242501
_cell_angle_gamma   55.77242496
_symmetry_Int_Tables_number   1
_chemical_formula_structural   RbYTa6Cl18
_chemical_formula_sum   'Rb1 Y1 Ta6 Cl18'
_cell_volume   680.99577054
_cell_formula_units_Z   1
loop_
 _symmetry_equiv_pos_site_id
 _symmetry_equiv_pos_as_xyz
  1  'x, y, z'
loop_
 _atom_site_type_symbol
 _atom_site_label
 _atom_site_symmetry_multiplicity
 _atom_site_fract_x
 _atom_site_fract_y
 _atom_site_fract_z
 _atom_site_occupancy
  Rb  Rb0  1  0.222636  0.222636  0.222636  1
  Y  Y1  1  0.498666  0.498666  0.498666  1
  Ta  Ta2  1  0.806451  0.146775  0.909892  1
  Ta  Ta3  1  0.909892  0.806451  0.146775  1
  Ta  Ta4  1  0.146775  0.909892  0.806451  1
  Ta  Ta5  1  0.194461  0.853415  0.089017  1
  Ta  Ta6  1  0.089017  0.194461  0.853415  1
  Ta  Ta7  1  0.853415  0.089017  0.194461  1
  Cl  Cl8  1  0.871979  0.407939  0.722802  1
  Cl  Cl9  1  0.722802  0.871979  0.407939  1
  Cl  Cl10  1  0.407939  0.722802  0.871979  1
  Cl  Cl11  1  0.127666  0.591273  0.278639  1
  Cl  Cl12  1  0.278639  0.127666  0.591273  1
  Cl  Cl13  1  0.591273  0.278639  0.127666  1
  Cl  Cl14  1  0.544947  0.337656  0.796858  1
  Cl  Cl15  1  0.796858  0.544947  0.337656  1
  Cl  Cl16  1  0.337656  0.796858  0.544947  1
  Cl  Cl17  1  0.450766  0.663870  0.206558  1
  Cl  Cl18  1  0.206558  0.450766  0.663870  1
  Cl  Cl19  1  0.663870  0.206558  0.450766  1
  Cl  Cl20  1  0.661604  0.942842  0.067778  1
  Cl  Cl21  1  0.067778  0.661604  0.942842  1
  Cl  Cl22  1  0.942842  0.067778  0.661604  1
  Cl  Cl23  1  0.339888  0.056379  0.930383  1
  Cl  Cl24  1  0.930383  0.339888  0.056379  1
  Cl  Cl25  1  0.056379  0.930383  0.339888  1
