# generated using pymatgen
data_TbHo3Ga4Ni3Ru
_symmetry_space_group_name_H-M   'P 1'
_cell_length_a   4.28511900
_cell_length_b   6.78103504
_cell_length_c   7.47659031
_cell_angle_alpha   89.93430373
_cell_angle_beta   90.00000000
_cell_angle_gamma   90.00000000
_symmetry_Int_Tables_number   1
_chemical_formula_structural   TbHo3Ga4Ni3Ru
_chemical_formula_sum   'Tb1 Ho3 Ga4 Ni3 Ru1'
_cell_volume   217.25119490
_cell_formula_units_Z   1
loop_
 _symmetry_equiv_pos_site_id
 _symmetry_equiv_pos_as_xyz
  1  'x, y, z'
loop_
 _atom_site_type_symbol
 _atom_site_label
 _atom_site_symmetry_multiplicity
 _atom_site_fract_x
 _atom_site_fract_y
 _atom_site_fract_z
 _atom_site_occupancy
  Tb  Tb0  1  0.250000  0.525350  0.688020  1
  Ho  Ho1  1  0.250000  0.020314  0.809577  1
  Ho  Ho2  1  0.750000  0.981574  0.194331  1
  Ho  Ho3  1  0.750000  0.480731  0.304552  1
  Ga  Ga4  1  0.750000  0.332895  0.917307  1
  Ga  Ga5  1  0.250000  0.165527  0.435469  1
  Ga  Ga6  1  0.750000  0.832128  0.573127  1
  Ga  Ga7  1  0.250000  0.671775  0.072997  1
  Ni  Ni8  1  0.250000  0.785801  0.398874  1
  Ni  Ni9  1  0.750000  0.716165  0.898102  1
  Ni  Ni10  1  0.750000  0.213301  0.602285  1
  Ru  Ru11  1  0.250000  0.274438  0.105357  1
