# generated using pymatgen
data_Nd4Cu3Hg2Ir
_symmetry_space_group_name_H-M   'P 1'
_cell_length_a   5.70819509
_cell_length_b   5.70532008
_cell_length_c   7.51992325
_cell_angle_alpha   77.85078062
_cell_angle_beta   77.88525895
_cell_angle_gamma   84.31858127
_symmetry_Int_Tables_number   1
_chemical_formula_structural   Nd4Cu3Hg2Ir
_chemical_formula_sum   'Nd4 Cu3 Hg2 Ir1'
_cell_volume   233.69940961
_cell_formula_units_Z   1
loop_
 _symmetry_equiv_pos_site_id
 _symmetry_equiv_pos_as_xyz
  1  'x, y, z'
loop_
 _atom_site_type_symbol
 _atom_site_label
 _atom_site_symmetry_multiplicity
 _atom_site_fract_x
 _atom_site_fract_y
 _atom_site_fract_z
 _atom_site_occupancy
  Nd  Nd0  1  0.675174  0.682725  0.770621  1
  Nd  Nd1  1  0.320282  0.320660  0.235536  1
  Nd  Nd2  1  0.190367  0.183620  0.768619  1
  Nd  Nd3  1  0.811027  0.811579  0.237917  1
  Cu  Cu4  1  0.137817  0.648538  0.900641  1
  Cu  Cu5  1  0.661890  0.152455  0.899085  1
  Cu  Cu6  1  0.856921  0.345050  0.094996  1
  Hg  Hg7  1  0.239102  0.759507  0.504845  1
  Hg  Hg8  1  0.758329  0.240127  0.499790  1
  Ir  Ir9  1  0.349090  0.855739  0.087952  1
