# generated using pymatgen
data_Pr3Nd5(CdRu)2
_symmetry_space_group_name_H-M   'P 1'
_cell_length_a   9.98204067
_cell_length_b   9.98204017
_cell_length_c   9.98204100
_cell_angle_alpha   60.00000056
_cell_angle_beta   60.00000223
_cell_angle_gamma   60.00000556
_symmetry_Int_Tables_number   1
_chemical_formula_structural   Pr3Nd5(CdRu)2
_chemical_formula_sum   'Pr6 Nd10 Cd4 Ru4'
_cell_volume   703.30390260
_cell_formula_units_Z   2
loop_
 _symmetry_equiv_pos_site_id
 _symmetry_equiv_pos_as_xyz
  1  'x, y, z'
loop_
 _atom_site_type_symbol
 _atom_site_label
 _atom_site_symmetry_multiplicity
 _atom_site_fract_x
 _atom_site_fract_y
 _atom_site_fract_z
 _atom_site_occupancy
  Pr  Pr0  1  0.939465  0.560535  0.560535  1
  Pr  Pr1  1  0.560535  0.939465  0.939465  1
  Pr  Pr2  1  0.560535  0.939465  0.560535  1
  Pr  Pr3  1  0.939465  0.560535  0.939465  1
  Pr  Pr4  1  0.560535  0.560535  0.939465  1
  Pr  Pr5  1  0.939465  0.939465  0.560535  1
  Nd  Nd6  1  0.345892  0.345892  0.345892  1
  Nd  Nd7  1  0.345892  0.345892  0.962324  1
  Nd  Nd8  1  0.345892  0.962324  0.345892  1
  Nd  Nd9  1  0.962324  0.345892  0.345892  1
  Nd  Nd10  1  0.810424  0.189576  0.189576  1
  Nd  Nd11  1  0.189576  0.810424  0.810424  1
  Nd  Nd12  1  0.189576  0.810424  0.189576  1
  Nd  Nd13  1  0.810424  0.189576  0.810424  1
  Nd  Nd14  1  0.189576  0.189576  0.810424  1
  Nd  Nd15  1  0.810424  0.810424  0.189576  1
  Cd  Cd16  1  0.579123  0.579123  0.579123  1
  Cd  Cd17  1  0.579123  0.579123  0.262630  1
  Cd  Cd18  1  0.579123  0.262630  0.579123  1
  Cd  Cd19  1  0.262630  0.579123  0.579123  1
  Ru  Ru20  1  0.138247  0.138247  0.138247  1
  Ru  Ru21  1  0.138247  0.138247  0.585259  1
  Ru  Ru22  1  0.138247  0.585259  0.138247  1
  Ru  Ru23  1  0.585259  0.138247  0.138247  1
