# generated using pymatgen
data_Ho2Tm2Al15Ga2SiIr6
_symmetry_space_group_name_H-M   'P 1'
_cell_length_a   7.53851400
_cell_length_b   7.53851414
_cell_length_c   9.38792200
_cell_angle_alpha   90.00000000
_cell_angle_beta   90.00000000
_cell_angle_gamma   119.67065571
_symmetry_Int_Tables_number   1
_chemical_formula_structural   Ho2Tm2Al15Ga2SiIr6
_chemical_formula_sum   'Ho2 Tm2 Al15 Ga2 Si1 Ir6'
_cell_volume   463.55721776
_cell_formula_units_Z   1
loop_
 _symmetry_equiv_pos_site_id
 _symmetry_equiv_pos_as_xyz
  1  'x, y, z'
loop_
 _atom_site_type_symbol
 _atom_site_label
 _atom_site_symmetry_multiplicity
 _atom_site_fract_x
 _atom_site_fract_y
 _atom_site_fract_z
 _atom_site_occupancy
  Ho  Ho0  1  0.001013  0.327687  0.750000  1
  Ho  Ho1  1  0.331735  0.006684  0.750000  1
  Tm  Tm2  1  0.994600  0.677050  0.250000  1
  Tm  Tm3  1  0.677230  0.996001  0.250000  1
  Al  Al4  1  0.000253  0.337438  0.078356  1
  Al  Al5  1  0.998475  0.665902  0.926379  1
  Al  Al6  1  0.998475  0.665902  0.573621  1
  Al  Al7  1  0.337384  0.999905  0.421839  1
  Al  Al8  1  0.000253  0.337438  0.421644  1
  Al  Al9  1  0.665179  0.996887  0.573719  1
  Al  Al10  1  0.665179  0.996887  0.926281  1
  Al  Al11  1  0.337384  0.999905  0.078161  1
  Al  Al12  1  0.332405  0.332884  0.554140  1
  Al  Al13  1  0.663631  0.663567  0.441649  1
  Al  Al14  1  0.663631  0.663567  0.058351  1
  Al  Al15  1  0.332405  0.332884  0.945860  1
  Al  Al16  1  0.336214  0.550326  0.250000  1
  Al  Al17  1  0.550119  0.336023  0.250000  1
  Al  Al18  1  0.450351  0.660397  0.750000  1
  Ga  Ga19  1  0.874233  0.873748  0.750000  1
  Ga  Ga20  1  0.661229  0.454338  0.750000  1
  Si  Si21  1  0.131872  0.132052  0.250000  1
  Ir  Ir22  1  0.670753  0.325897  0.002090  1
  Ir  Ir23  1  0.327132  0.670230  0.000197  1
  Ir  Ir24  1  0.327132  0.670230  0.499803  1
  Ir  Ir25  1  0.670753  0.325897  0.497910  1
  Ir  Ir26  1  0.000492  0.000140  0.010322  1
  Ir  Ir27  1  0.000492  0.000140  0.489678  1
