# generated using pymatgen
data_La5P12Ru17Rh2
_symmetry_space_group_name_H-M   'P 1'
_cell_length_a   12.74027900
_cell_length_b   12.70364558
_cell_length_c   4.04452100
_cell_angle_alpha   90.00000000
_cell_angle_beta   90.00000000
_cell_angle_gamma   120.09544034
_symmetry_Int_Tables_number   1
_chemical_formula_structural   La5P12Ru17Rh2
_chemical_formula_sum   'La5 P12 Ru17 Rh2'
_cell_volume   566.35215902
_cell_formula_units_Z   1
loop_
 _symmetry_equiv_pos_site_id
 _symmetry_equiv_pos_as_xyz
  1  'x, y, z'
loop_
 _atom_site_type_symbol
 _atom_site_label
 _atom_site_symmetry_multiplicity
 _atom_site_fract_x
 _atom_site_fract_y
 _atom_site_fract_z
 _atom_site_occupancy
  La  La0  1  0.001010  0.183109  0.500000  1
  La  La1  1  0.817901  0.816891  0.500000  1
  La  La2  1  0.183803  0.000000  0.500000  1
  La  La3  1  0.665689  0.331583  0.000000  1
  La  La4  1  0.334106  0.668417  0.000000  1
  P  P5  1  0.999109  0.809637  0.000000  1
  P  P6  1  0.189472  0.190363  0.000000  1
  P  P7  1  0.811871  0.000000  0.000000  1
  P  P8  1  0.695553  0.170110  0.500000  1
  P  P9  1  0.824480  0.523022  0.500000  1
  P  P10  1  0.474638  0.300680  0.500000  1
  P  P11  1  0.173957  0.699320  0.500000  1
  P  P12  1  0.525443  0.829890  0.500000  1
  P  P13  1  0.301458  0.476978  0.500000  1
  P  P14  1  0.999708  0.373589  0.000000  1
  P  P15  1  0.626119  0.626411  0.000000  1
  P  P16  1  0.376100  0.000000  0.000000  1
  Ru  Ru17  1  0.554723  0.000000  0.000000  1
  Ru  Ru18  1  0.999027  0.711064  0.500000  1
  Ru  Ru19  1  0.287962  0.288936  0.500000  1
  Ru  Ru20  1  0.714851  0.000000  0.500000  1
  Ru  Ru21  1  0.806059  0.184558  0.000000  1
  Ru  Ru22  1  0.814293  0.619694  0.000000  1
  Ru  Ru23  1  0.378035  0.193919  0.000000  1
  Ru  Ru24  1  0.184115  0.806081  0.000000  1
  Ru  Ru25  1  0.621501  0.815442  0.000000  1
  Ru  Ru26  1  0.194599  0.380306  0.000000  1
  Ru  Ru27  1  0.875662  0.367117  0.500000  1
  Ru  Ru28  1  0.630571  0.508043  0.500000  1
  Ru  Ru29  1  0.491751  0.123568  0.500000  1
  Ru  Ru30  1  0.368184  0.876432  0.500000  1
  Ru  Ru31  1  0.508546  0.632883  0.500000  1
  Ru  Ru32  1  0.122527  0.491957  0.500000  1
  Ru  Ru33  1  0.001035  0.000000  0.000000  1
  Rh  Rh34  1  0.999630  0.553119  0.000000  1
  Rh  Rh35  1  0.446511  0.446881  0.000000  1
