# generated using pymatgen
data_Li4UNi9As7
_symmetry_space_group_name_H-M   'P 1'
_cell_length_a   9.43767200
_cell_length_b   9.43767129
_cell_length_c   3.80855900
_cell_angle_alpha   90.00000000
_cell_angle_beta   90.00000000
_cell_angle_gamma   120.00000718
_symmetry_Int_Tables_number   1
_chemical_formula_structural   Li4UNi9As7
_chemical_formula_sum   'Li4 U1 Ni9 As7'
_cell_volume   293.77918036
_cell_formula_units_Z   1
loop_
 _symmetry_equiv_pos_site_id
 _symmetry_equiv_pos_as_xyz
  1  'x, y, z'
loop_
 _atom_site_type_symbol
 _atom_site_label
 _atom_site_symmetry_multiplicity
 _atom_site_fract_x
 _atom_site_fract_y
 _atom_site_fract_z
 _atom_site_occupancy
  Li  Li0  1  0.772265  0.547719  0.500000  1
  Li  Li1  1  0.452281  0.224546  0.500000  1
  Li  Li2  1  0.775454  0.227735  0.500000  1
  Li  Li3  1  0.000000  0.000000  0.500000  1
  U  U4  1  0.333333  0.666667  0.000000  1
  Ni  Ni5  1  0.273569  0.371857  0.500000  1
  Ni  Ni6  1  0.628143  0.901711  0.500000  1
  Ni  Ni7  1  0.098289  0.726431  0.500000  1
  Ni  Ni8  1  0.495505  0.451109  0.000000  1
  Ni  Ni9  1  0.548891  0.044396  0.000000  1
  Ni  Ni10  1  0.955604  0.504495  0.000000  1
  Ni  Ni11  1  0.714920  0.761172  0.000000  1
  Ni  Ni12  1  0.238828  0.953748  0.000000  1
  Ni  Ni13  1  0.046252  0.285080  0.000000  1
  As  As14  1  0.962586  0.756891  0.000000  1
  As  As15  1  0.243109  0.205695  0.000000  1
  As  As16  1  0.794305  0.037414  0.000000  1
  As  As17  1  0.666667  0.333333  0.000000  1
  As  As18  1  0.541722  0.619260  0.500000  1
  As  As19  1  0.380740  0.922462  0.500000  1
  As  As20  1  0.077538  0.458278  0.500000  1
