# generated using pymatgen
data_Nd4Tm6Sn7Au
_symmetry_space_group_name_H-M   'P 1'
_cell_length_a   7.83022700
_cell_length_b   8.29309000
_cell_length_c   15.35050500
_cell_angle_alpha   90.00000000
_cell_angle_beta   90.00000000
_cell_angle_gamma   90.00000000
_symmetry_Int_Tables_number   1
_chemical_formula_structural   Nd4Tm6Sn7Au
_chemical_formula_sum   'Nd8 Tm12 Sn14 Au2'
_cell_volume   996.81232357
_cell_formula_units_Z   2
loop_
 _symmetry_equiv_pos_site_id
 _symmetry_equiv_pos_as_xyz
  1  'x, y, z'
loop_
 _atom_site_type_symbol
 _atom_site_label
 _atom_site_symmetry_multiplicity
 _atom_site_fract_x
 _atom_site_fract_y
 _atom_site_fract_z
 _atom_site_occupancy
  Nd  Nd0  1  0.509880  0.314966  0.904967  1
  Nd  Nd1  1  0.009880  0.185034  0.595033  1
  Nd  Nd2  1  0.489417  0.679978  0.405583  1
  Nd  Nd3  1  0.989417  0.820022  0.094417  1
  Nd  Nd4  1  0.489417  0.679978  0.094417  1
  Nd  Nd5  1  0.989417  0.820022  0.405583  1
  Nd  Nd6  1  0.509880  0.314966  0.595033  1
  Nd  Nd7  1  0.009880  0.185034  0.904967  1
  Tm  Tm8  1  0.347345  0.830896  0.868741  1
  Tm  Tm9  1  0.847345  0.669104  0.631259  1
  Tm  Tm10  1  0.649901  0.165622  0.375325  1
  Tm  Tm11  1  0.149901  0.334378  0.124675  1
  Tm  Tm12  1  0.649901  0.165622  0.124675  1
  Tm  Tm13  1  0.149901  0.334378  0.375325  1
  Tm  Tm14  1  0.347345  0.830896  0.631259  1
  Tm  Tm15  1  0.847345  0.669104  0.868741  1
  Tm  Tm16  1  0.196490  0.502020  0.750000  1
  Tm  Tm17  1  0.696490  0.997980  0.750000  1
  Tm  Tm18  1  0.816181  0.500004  0.250000  1
  Tm  Tm19  1  0.316181  0.999996  0.250000  1
  Sn  Sn20  1  0.312841  0.039538  0.038497  1
  Sn  Sn21  1  0.812841  0.460462  0.461503  1
  Sn  Sn22  1  0.689491  0.960587  0.542139  1
  Sn  Sn23  1  0.189491  0.539413  0.957861  1
  Sn  Sn24  1  0.689491  0.960587  0.957861  1
  Sn  Sn25  1  0.189491  0.539413  0.542139  1
  Sn  Sn26  1  0.312841  0.039538  0.461503  1
  Sn  Sn27  1  0.812841  0.460462  0.038497  1
  Sn  Sn28  1  0.452188  0.377789  0.250000  1
  Sn  Sn29  1  0.952188  0.122211  0.250000  1
  Sn  Sn30  1  0.306157  0.135662  0.750000  1
  Sn  Sn31  1  0.806157  0.364338  0.750000  1
  Sn  Sn32  1  0.681626  0.854545  0.250000  1
  Sn  Sn33  1  0.181626  0.645455  0.250000  1
  Au  Au34  1  0.549608  0.626642  0.750000  1
  Au  Au35  1  0.049608  0.873358  0.750000  1
