# generated using pymatgen
data_Sm4(Ga8Pd3)3
_symmetry_space_group_name_H-M   'P 1'
_cell_length_a   7.53375381
_cell_length_b   7.62466446
_cell_length_c   13.48175019
_cell_angle_alpha   85.00957565
_cell_angle_beta   100.34950196
_cell_angle_gamma   119.59577448
_symmetry_Int_Tables_number   1
_chemical_formula_structural   Sm4(Ga8Pd3)3
_chemical_formula_sum   'Sm4 Ga24 Pd9'
_cell_volume   662.42816297
_cell_formula_units_Z   1
loop_
 _symmetry_equiv_pos_site_id
 _symmetry_equiv_pos_as_xyz
  1  'x, y, z'
loop_
 _atom_site_type_symbol
 _atom_site_label
 _atom_site_symmetry_multiplicity
 _atom_site_fract_x
 _atom_site_fract_y
 _atom_site_fract_z
 _atom_site_occupancy
  Sm  Sm0  1  0.437257  0.830935  0.811047  1
  Sm  Sm1  1  0.562743  0.169065  0.188953  1
  Sm  Sm2  1  0.771002  0.502938  0.811332  1
  Sm  Sm3  1  0.228998  0.497062  0.188668  1
  Ga  Ga4  1  0.478863  0.166562  0.940431  1
  Ga  Ga5  1  0.521137  0.833438  0.059569  1
  Ga  Ga6  1  0.020824  0.165704  0.557131  1
  Ga  Ga7  1  0.979176  0.834296  0.442869  1
  Ga  Ga8  1  0.354925  0.833208  0.555330  1
  Ga  Ga9  1  0.645075  0.166792  0.444670  1
  Ga  Ga10  1  0.616677  0.834965  0.327212  1
  Ga  Ga11  1  0.383323  0.165035  0.672788  1
  Ga  Ga12  1  0.058789  0.495062  0.671779  1
  Ga  Ga13  1  0.941211  0.504938  0.328221  1
  Ga  Ga14  1  0.730715  0.838392  0.670528  1
  Ga  Ga15  1  0.269285  0.161608  0.329472  1
  Ga  Ga16  1  0.145360  0.499335  0.941444  1
  Ga  Ga17  1  0.854640  0.500665  0.058556  1
  Ga  Ga18  1  0.815114  0.833226  0.947679  1
  Ga  Ga19  1  0.184886  0.166774  0.052321  1
  Ga  Ga20  1  0.313096  0.500348  0.443922  1
  Ga  Ga21  1  0.686904  0.499652  0.556078  1
  Ga  Ga22  1  0.101771  0.836267  0.182450  1
  Ga  Ga23  1  0.898229  0.163733  0.817550  1
  Ga  Ga24  1  0.307565  0.368745  0.816653  1
  Ga  Ga25  1  0.692435  0.631255  0.183347  1
  Ga  Ga26  1  0.103000  0.960478  0.816719  1
  Ga  Ga27  1  0.897000  0.039522  0.183281  1
  Pd  Pd28  1  0.385828  0.502777  0.637354  1
  Pd  Pd29  1  0.614172  0.497223  0.362646  1
  Pd  Pd30  1  0.171089  0.830272  0.999059  1
  Pd  Pd31  1  0.828911  0.169728  0.000941  1
  Pd  Pd32  1  0.291689  0.833163  0.361749  1
  Pd  Pd33  1  0.708311  0.166837  0.638251  1
  Pd  Pd34  1  0.049154  0.828407  0.636670  1
  Pd  Pd35  1  0.950846  0.171593  0.363330  1
  Pd  Pd36  1  0.500000  0.500000  0.000000  1
