# generated using pymatgen
data_Hf6Ni20GeP12
_symmetry_space_group_name_H-M   'P 1'
_cell_length_a   12.49852400
_cell_length_b   12.49852461
_cell_length_c   3.61300000
_cell_angle_alpha   90.00000000
_cell_angle_beta   90.00000000
_cell_angle_gamma   119.99999838
_symmetry_Int_Tables_number   1
_chemical_formula_structural   Hf6Ni20GeP12
_chemical_formula_sum   'Hf6 Ni20 Ge1 P12'
_cell_volume   488.78298419
_cell_formula_units_Z   1
loop_
 _symmetry_equiv_pos_site_id
 _symmetry_equiv_pos_as_xyz
  1  'x, y, z'
loop_
 _atom_site_type_symbol
 _atom_site_label
 _atom_site_symmetry_multiplicity
 _atom_site_fract_x
 _atom_site_fract_y
 _atom_site_fract_z
 _atom_site_occupancy
  Hf  Hf0  1  0.808115  0.282999  0.500000  1
  Hf  Hf1  1  0.717001  0.525116  0.500000  1
  Hf  Hf2  1  0.474884  0.191885  0.500000  1
  Hf  Hf3  1  0.192487  0.715865  0.000000  1
  Hf  Hf4  1  0.284135  0.476622  0.000000  1
  Hf  Hf5  1  0.523378  0.807513  0.000000  1
  Ni  Ni6  1  0.417949  0.980827  0.000000  1
  Ni  Ni7  1  0.019173  0.437122  0.000000  1
  Ni  Ni8  1  0.583754  0.020230  0.500000  1
  Ni  Ni9  1  0.562878  0.582051  0.000000  1
  Ni  Ni10  1  0.979770  0.563525  0.500000  1
  Ni  Ni11  1  0.916083  0.089615  0.500000  1
  Ni  Ni12  1  0.173532  0.083917  0.500000  1
  Ni  Ni13  1  0.910385  0.826468  0.500000  1
  Ni  Ni14  1  0.098423  0.888815  0.000000  1
  Ni  Ni15  1  0.790392  0.901577  0.000000  1
  Ni  Ni16  1  0.111185  0.209608  0.000000  1
  Ni  Ni17  1  0.333333  0.666667  0.500000  1
  Ni  Ni18  1  0.666667  0.333333  0.000000  1
  Ni  Ni19  1  0.673264  0.747770  0.500000  1
  Ni  Ni20  1  0.252230  0.925493  0.500000  1
  Ni  Ni21  1  0.918317  0.671924  0.000000  1
  Ni  Ni22  1  0.328076  0.246394  0.000000  1
  Ni  Ni23  1  0.753606  0.081683  0.000000  1
  Ni  Ni24  1  0.436475  0.416246  0.500000  1
  Ni  Ni25  1  0.074507  0.326736  0.500000  1
  Ge  Ge26  1  0.000000  0.000000  0.000000  1
  P  P27  1  0.234905  0.288858  0.500000  1
  P  P28  1  0.711142  0.946045  0.500000  1
  P  P29  1  0.053955  0.765095  0.500000  1
  P  P30  1  0.766741  0.712324  0.000000  1
  P  P31  1  0.287676  0.054418  0.000000  1
  P  P32  1  0.471878  0.613140  0.500000  1
  P  P33  1  0.386860  0.858737  0.500000  1
  P  P34  1  0.858796  0.471732  0.000000  1
  P  P35  1  0.528268  0.387065  0.000000  1
  P  P36  1  0.612935  0.141204  0.000000  1
  P  P37  1  0.945582  0.233259  0.000000  1
  P  P38  1  0.141263  0.528122  0.500000  1
