# generated using pymatgen
data_Ho8Si(Pd2Pt)8
_symmetry_space_group_name_H-M   'P 1'
_cell_length_a   8.31655200
_cell_length_b   8.32200200
_cell_length_c   8.33157700
_cell_angle_alpha   90.00061239
_cell_angle_beta   89.99814844
_cell_angle_gamma   89.99922865
_symmetry_Int_Tables_number   1
_chemical_formula_structural   Ho8Si(Pd2Pt)8
_chemical_formula_sum   'Ho8 Si1 Pd16 Pt8'
_cell_volume   576.63146315
_cell_formula_units_Z   1
loop_
 _symmetry_equiv_pos_site_id
 _symmetry_equiv_pos_as_xyz
  1  'x, y, z'
loop_
 _atom_site_type_symbol
 _atom_site_label
 _atom_site_symmetry_multiplicity
 _atom_site_fract_x
 _atom_site_fract_y
 _atom_site_fract_z
 _atom_site_occupancy
  Ho  Ho0  1  0.253252  0.253367  0.253253  1
  Ho  Ho1  1  0.746236  0.746288  0.745846  1
  Ho  Ho2  1  0.746088  0.746113  0.254030  1
  Ho  Ho3  1  0.746919  0.253234  0.746558  1
  Ho  Ho4  1  0.253085  0.253241  0.746570  1
  Ho  Ho5  1  0.253898  0.746133  0.254034  1
  Ho  Ho6  1  0.253752  0.746298  0.745850  1
  Ho  Ho7  1  0.746766  0.253354  0.253255  1
  Si  Si8  1  0.000001  0.003582  0.000170  1
  Pd  Pd9  1  0.257724  0.499902  0.000068  1
  Pd  Pd10  1  0.742273  0.499899  0.000063  1
  Pd  Pd11  1  0.000003  0.257658  0.500185  1
  Pd  Pd12  1  0.499999  0.256888  0.000000  1
  Pd  Pd13  1  0.000002  0.741671  0.500150  1
  Pd  Pd14  1  0.500001  0.741857  0.000098  1
  Pd  Pd15  1  0.500004  0.999954  0.257585  1
  Pd  Pd16  1  0.257913  0.000010  0.500174  1
  Pd  Pd17  1  0.499998  0.999995  0.742279  1
  Pd  Pd18  1  0.742084  0.000004  0.500170  1
  Pd  Pd19  1  0.000002  0.500023  0.257883  1
  Pd  Pd20  1  0.999999  0.500047  0.741975  1
  Pd  Pd21  1  0.500000  0.499977  0.747920  1
  Pd  Pd22  1  0.999994  0.721022  0.999810  1
  Pd  Pd23  1  0.999997  0.999303  0.281910  1
  Pd  Pd24  1  0.999998  0.999281  0.718364  1
  Pt  Pt25  1  0.252099  0.499888  0.500124  1
  Pt  Pt26  1  0.747910  0.499896  0.500126  1
  Pt  Pt27  1  0.499997  0.252259  0.500095  1
  Pt  Pt28  1  0.499997  0.747928  0.500141  1
  Pt  Pt29  1  0.499999  0.499841  0.251875  1
  Pt  Pt30  1  0.280081  0.998631  0.999822  1
  Pt  Pt31  1  0.719925  0.998611  0.999813  1
  Pt  Pt32  1  0.000004  0.283847  0.999803  1
