# generated using pymatgen
data_Tb15ErCd4Co3Ru
_symmetry_space_group_name_H-M   'P 1'
_cell_length_a   9.58586444
_cell_length_b   9.58586448
_cell_length_c   9.58368744
_cell_angle_alpha   59.62827128
_cell_angle_beta   59.62826966
_cell_angle_gamma   59.63530258
_symmetry_Int_Tables_number   1
_chemical_formula_structural   Tb15ErCd4Co3Ru
_chemical_formula_sum   'Tb15 Er1 Cd4 Co3 Ru1'
_cell_volume   617.47488287
_cell_formula_units_Z   1
loop_
 _symmetry_equiv_pos_site_id
 _symmetry_equiv_pos_as_xyz
  1  'x, y, z'
loop_
 _atom_site_type_symbol
 _atom_site_label
 _atom_site_symmetry_multiplicity
 _atom_site_fract_x
 _atom_site_fract_y
 _atom_site_fract_z
 _atom_site_occupancy
  Tb  Tb0  1  0.595467  0.595467  0.596643  1
  Tb  Tb1  1  0.188556  0.811970  0.812949  1
  Tb  Tb2  1  0.061071  0.061071  0.436063  1
  Tb  Tb3  1  0.436341  0.062098  0.060999  1
  Tb  Tb4  1  0.811970  0.188556  0.812949  1
  Tb  Tb5  1  0.437975  0.058182  0.437088  1
  Tb  Tb6  1  0.599893  0.211061  0.599647  1
  Tb  Tb7  1  0.812330  0.812330  0.188484  1
  Tb  Tb8  1  0.211061  0.599893  0.599647  1
  Tb  Tb9  1  0.807284  0.190018  0.189460  1
  Tb  Tb10  1  0.058182  0.437975  0.437088  1
  Tb  Tb11  1  0.190018  0.807284  0.189460  1
  Tb  Tb12  1  0.599530  0.599530  0.210527  1
  Tb  Tb13  1  0.189622  0.189622  0.807844  1
  Tb  Tb14  1  0.062098  0.436341  0.060999  1
  Er  Er15  1  0.437952  0.437952  0.057594  1
  Cd  Cd16  1  0.829906  0.829906  0.507466  1
  Cd  Cd17  1  0.829865  0.829865  0.829799  1
  Cd  Cd18  1  0.507358  0.829538  0.830206  1
  Cd  Cd19  1  0.829538  0.507358  0.830206  1
  Co  Co20  1  0.828738  0.392434  0.392673  1
  Co  Co21  1  0.392434  0.828738  0.392673  1
  Co  Co22  1  0.392429  0.392429  0.829270  1
  Ru  Ru23  1  0.390384  0.390384  0.390269  1
