# generated using pymatgen
data_ThZnFeCo3
_symmetry_space_group_name_H-M   'P 1'
_cell_length_a   5.07579616
_cell_length_b   4.94640003
_cell_length_c   4.08237700
_cell_angle_alpha   90.00000000
_cell_angle_beta   90.00000000
_cell_angle_gamma   118.82658176
_symmetry_Int_Tables_number   1
_chemical_formula_structural   ThZnFeCo3
_chemical_formula_sum   'Th1 Zn1 Fe1 Co3'
_cell_volume   89.79492890
_cell_formula_units_Z   1
loop_
 _symmetry_equiv_pos_site_id
 _symmetry_equiv_pos_as_xyz
  1  'x, y, z'
loop_
 _atom_site_type_symbol
 _atom_site_label
 _atom_site_symmetry_multiplicity
 _atom_site_fract_x
 _atom_site_fract_y
 _atom_site_fract_z
 _atom_site_occupancy
  Th  Th0  1  0.000000  0.000000  0.000000  1
  Zn  Zn1  1  0.000000  0.500000  0.500000  1
  Fe  Fe2  1  0.500000  0.000000  0.500000  1
  Co  Co3  1  0.500000  0.500000  0.500000  1
  Co  Co4  1  0.616814  0.310928  0.000000  1
  Co  Co5  1  0.383186  0.689072  0.000000  1
