# generated using pymatgen
data_Ta2InBr11
_symmetry_space_group_name_H-M   'P 1'
_cell_length_a   7.58076572
_cell_length_b   7.64339350
_cell_length_c   19.05948916
_cell_angle_alpha   79.52968032
_cell_angle_beta   80.20966875
_cell_angle_gamma   89.00061971
_symmetry_Int_Tables_number   1
_chemical_formula_structural   Ta2InBr11
_chemical_formula_sum   'Ta4 In2 Br22'
_cell_volume   1070.05254042
_cell_formula_units_Z   2
loop_
 _symmetry_equiv_pos_site_id
 _symmetry_equiv_pos_as_xyz
  1  'x, y, z'
loop_
 _atom_site_type_symbol
 _atom_site_label
 _atom_site_symmetry_multiplicity
 _atom_site_fract_x
 _atom_site_fract_y
 _atom_site_fract_z
 _atom_site_occupancy
  Ta  Ta0  1  0.317497  0.821094  0.352485  1
  Ta  Ta1  1  0.682503  0.178906  0.647515  1
  Ta  Ta2  1  0.834323  0.331121  0.086111  1
  Ta  Ta3  1  0.165677  0.668879  0.913889  1
  In  In4  1  0.742863  0.761658  0.505557  1
  In  In5  1  0.257137  0.238342  0.494443  1
  Br  Br6  1  0.254406  0.799103  0.494641  1
  Br  Br7  1  0.745594  0.200897  0.505359  1
  Br  Br8  1  0.585166  0.014020  0.353073  1
  Br  Br9  1  0.414834  0.985980  0.646927  1
  Br  Br10  1  0.515663  0.547976  0.372722  1
  Br  Br11  1  0.484337  0.452024  0.627278  1
  Br  Br12  1  0.374407  0.843672  0.220509  1
  Br  Br13  1  0.625593  0.156328  0.779491  1
  Br  Br14  1  0.049126  0.612905  0.370434  1
  Br  Br15  1  0.950874  0.387095  0.629566  1
  Br  Br16  1  0.117931  0.089550  0.346938  1
  Br  Br17  1  0.882069  0.910450  0.653062  1
  Br  Br18  1  0.899388  0.034454  0.147018  1
  Br  Br19  1  0.100612  0.965546  0.852982  1
  Br  Br20  1  0.534597  0.380260  0.148542  1
  Br  Br21  1  0.465403  0.619740  0.851458  1
  Br  Br22  1  0.719697  0.215863  0.988311  1
  Br  Br23  1  0.280303  0.784137  0.011689  1
  Br  Br24  1  0.980612  0.480678  0.167224  1
  Br  Br25  1  0.019388  0.519322  0.832776  1
  Br  Br26  1  0.165114  0.341675  0.000010  1
  Br  Br27  1  0.834886  0.658325  0.999990  1
