# generated using pymatgen
data_Ho12InGa(NiOs)2
_symmetry_space_group_name_H-M   'P 1'
_cell_length_a   8.36796279
_cell_length_b   8.36796363
_cell_length_c   8.36796306
_cell_angle_alpha   113.28233335
_cell_angle_beta   110.41183502
_cell_angle_gamma   104.83118391
_symmetry_Int_Tables_number   1
_chemical_formula_structural   Ho12InGa(NiOs)2
_chemical_formula_sum   'Ho12 In1 Ga1 Ni2 Os2'
_cell_volume   448.56059131
_cell_formula_units_Z   1
loop_
 _symmetry_equiv_pos_site_id
 _symmetry_equiv_pos_as_xyz
  1  'x, y, z'
loop_
 _atom_site_type_symbol
 _atom_site_label
 _atom_site_symmetry_multiplicity
 _atom_site_fract_x
 _atom_site_fract_y
 _atom_site_fract_z
 _atom_site_occupancy
  Ho  Ho0  1  0.433349  0.238808  0.194541  1
  Ho  Ho1  1  0.566651  0.761192  0.805459  1
  Ho  Ho2  1  0.044267  0.238808  0.805459  1
  Ho  Ho3  1  0.955733  0.761192  0.194541  1
  Ho  Ho4  1  0.180116  0.278362  0.458477  1
  Ho  Ho5  1  0.819884  0.721638  0.541523  1
  Ho  Ho6  1  0.180116  0.721638  0.901754  1
  Ho  Ho7  1  0.819884  0.278362  0.098246  1
  Ho  Ho8  1  0.329486  0.643596  0.314111  1
  Ho  Ho9  1  0.670514  0.356404  0.685889  1
  Ho  Ho10  1  0.329486  0.015374  0.685889  1
  Ho  Ho11  1  0.670514  0.984626  0.314111  1
  In  In12  1  0.500000  0.500000  0.000000  1
  Ga  Ga13  1  0.000000  0.000000  0.000000  1
  Ni  Ni14  1  0.116508  0.616508  0.500000  1
  Ni  Ni15  1  0.883492  0.383492  0.500000  1
  Os  Os16  1  0.330009  0.000000  0.330009  1
  Os  Os17  1  0.669991  0.000000  0.669991  1
