# generated using pymatgen
data_Li2Tm5Sc(Co4P3)4
_symmetry_space_group_name_H-M   'P 1'
_cell_length_a   3.66950900
_cell_length_b   10.47943020
_cell_length_c   12.07340623
_cell_angle_alpha   90.02251481
_cell_angle_beta   90.00000000
_cell_angle_gamma   90.00000000
_symmetry_Int_Tables_number   1
_chemical_formula_structural   Li2Tm5Sc(Co4P3)4
_chemical_formula_sum   'Li2 Tm5 Sc1 Co16 P12'
_cell_volume   464.27511542
_cell_formula_units_Z   1
loop_
 _symmetry_equiv_pos_site_id
 _symmetry_equiv_pos_as_xyz
  1  'x, y, z'
loop_
 _atom_site_type_symbol
 _atom_site_label
 _atom_site_symmetry_multiplicity
 _atom_site_fract_x
 _atom_site_fract_y
 _atom_site_fract_z
 _atom_site_occupancy
  Li  Li0  1  0.500000  0.500734  0.154124  1
  Li  Li1  1  0.000000  0.999838  0.846279  1
  Tm  Tm2  1  0.000000  0.500222  0.522749  1
  Tm  Tm3  1  0.500000  0.999377  0.475909  1
  Tm  Tm4  1  0.500000  0.178849  0.206159  1
  Tm  Tm5  1  0.000000  0.679964  0.793627  1
  Tm  Tm6  1  0.000000  0.320289  0.794300  1
  Sc  Sc7  1  0.500000  0.819368  0.205734  1
  Co  Co8  1  0.500000  0.500361  0.704413  1
  Co  Co9  1  0.000000  0.997856  0.294907  1
  Co  Co10  1  0.000000  0.501324  0.988549  1
  Co  Co11  1  0.500000  0.998939  0.014241  1
  Co  Co12  1  0.500000  0.332982  0.997283  1
  Co  Co13  1  0.500000  0.668340  0.998772  1
  Co  Co14  1  0.000000  0.166197  0.003840  1
  Co  Co15  1  0.000000  0.832752  0.004257  1
  Co  Co16  1  0.500000  0.296646  0.430976  1
  Co  Co17  1  0.500000  0.704079  0.429314  1
  Co  Co18  1  0.000000  0.202986  0.568486  1
  Co  Co19  1  0.000000  0.796939  0.567200  1
  Co  Co20  1  0.500000  0.877971  0.706617  1
  Co  Co21  1  0.500000  0.121961  0.706819  1
  Co  Co22  1  0.000000  0.623529  0.291958  1
  Co  Co23  1  0.000000  0.378220  0.293267  1
  P  P24  1  0.500000  0.500867  0.885178  1
  P  P25  1  0.000000  0.997478  0.116844  1
  P  P26  1  0.500000  0.500227  0.347111  1
  P  P27  1  0.000000  0.999947  0.652263  1
  P  P28  1  0.500000  0.311356  0.616489  1
  P  P29  1  0.500000  0.688979  0.615337  1
  P  P30  1  0.000000  0.188116  0.383139  1
  P  P31  1  0.000000  0.811140  0.380226  1
  P  P32  1  0.500000  0.842680  0.892592  1
  P  P33  1  0.500000  0.156666  0.892960  1
  P  P34  1  0.000000  0.660208  0.110115  1
  P  P35  1  0.000000  0.342612  0.107964  1
