# generated using pymatgen
data_Yb6Ni20As13
_symmetry_space_group_name_H-M   'P 1'
_cell_length_a   13.08284500
_cell_length_b   13.08284514
_cell_length_c   3.89055500
_cell_angle_alpha   90.00000000
_cell_angle_beta   90.00000000
_cell_angle_gamma   120.00000217
_symmetry_Int_Tables_number   1
_chemical_formula_structural   Yb6Ni20As13
_chemical_formula_sum   'Yb6 Ni20 As13'
_cell_volume   576.69552093
_cell_formula_units_Z   1
loop_
 _symmetry_equiv_pos_site_id
 _symmetry_equiv_pos_as_xyz
  1  'x, y, z'
loop_
 _atom_site_type_symbol
 _atom_site_label
 _atom_site_symmetry_multiplicity
 _atom_site_fract_x
 _atom_site_fract_y
 _atom_site_fract_z
 _atom_site_occupancy
  Yb  Yb0  1  0.530542  0.813507  0.000000  1
  Yb  Yb1  1  0.282965  0.469458  0.000000  1
  Yb  Yb2  1  0.186493  0.717035  0.000000  1
  Yb  Yb3  1  0.812049  0.279705  0.500000  1
  Yb  Yb4  1  0.467657  0.187951  0.500000  1
  Yb  Yb5  1  0.720295  0.532343  0.500000  1
  Ni  Ni6  1  0.799407  0.910985  0.000000  1
  Ni  Ni7  1  0.111576  0.200593  0.000000  1
  Ni  Ni8  1  0.089015  0.888424  0.000000  1
  Ni  Ni9  1  0.333333  0.666667  0.500000  1
  Ni  Ni10  1  0.936370  0.083032  0.500000  1
  Ni  Ni11  1  0.146662  0.063630  0.500000  1
  Ni  Ni12  1  0.916968  0.853338  0.500000  1
  Ni  Ni13  1  0.666667  0.333333  0.000000  1
  Ni  Ni14  1  0.561254  0.582985  0.000000  1
  Ni  Ni15  1  0.021730  0.438746  0.000000  1
  Ni  Ni16  1  0.417015  0.978270  0.000000  1
  Ni  Ni17  1  0.684622  0.755172  0.500000  1
  Ni  Ni18  1  0.070552  0.315378  0.500000  1
  Ni  Ni19  1  0.244828  0.929448  0.500000  1
  Ni  Ni20  1  0.977813  0.560196  0.500000  1
  Ni  Ni21  1  0.582383  0.022187  0.500000  1
  Ni  Ni22  1  0.439804  0.417617  0.500000  1
  Ni  Ni23  1  0.752699  0.075970  0.000000  1
  Ni  Ni24  1  0.323271  0.247301  0.000000  1
  Ni  Ni25  1  0.924030  0.676729  0.000000  1
  As  As26  1  0.478950  0.616840  0.500000  1
  As  As27  1  0.137889  0.521050  0.500000  1
  As  As28  1  0.383160  0.862111  0.500000  1
  As  As29  1  0.723424  0.957897  0.500000  1
  As  As30  1  0.234474  0.276576  0.500000  1
  As  As31  1  0.042103  0.765526  0.500000  1
  As  As32  1  0.861272  0.475459  0.000000  1
  As  As33  1  0.614186  0.138728  0.000000  1
  As  As34  1  0.524541  0.385814  0.000000  1
  As  As35  1  0.951364  0.231231  0.000000  1
  As  As36  1  0.279867  0.048636  0.000000  1
  As  As37  1  0.768769  0.720133  0.000000  1
  As  As38  1  0.000000  0.000000  0.000000  1
