# generated using pymatgen
data_Nd4VCr(FeO6)2
_symmetry_space_group_name_H-M   'P 1'
_cell_length_a   5.48309399
_cell_length_b   5.68241204
_cell_length_c   7.84982908
_cell_angle_alpha   90.08102520
_cell_angle_beta   90.01505214
_cell_angle_gamma   89.93734368
_symmetry_Int_Tables_number   1
_chemical_formula_structural   Nd4VCr(FeO6)2
_chemical_formula_sum   'Nd4 V1 Cr1 Fe2 O12'
_cell_volume   244.57828988
_cell_formula_units_Z   1
loop_
 _symmetry_equiv_pos_site_id
 _symmetry_equiv_pos_as_xyz
  1  'x, y, z'
loop_
 _atom_site_type_symbol
 _atom_site_label
 _atom_site_symmetry_multiplicity
 _atom_site_fract_x
 _atom_site_fract_y
 _atom_site_fract_z
 _atom_site_occupancy
  Nd  Nd0  1  0.014491  0.942631  0.750969  1
  Nd  Nd1  1  0.514454  0.556899  0.249226  1
  Nd  Nd2  1  0.485546  0.443101  0.750774  1
  Nd  Nd3  1  0.985509  0.057369  0.249031  1
  V  V4  1  0.000000  0.500000  0.500000  1
  Cr  Cr5  1  0.500000  0.000000  0.000000  1
  Fe  Fe6  1  0.500000  0.000000  0.500000  1
  Fe  Fe7  1  0.000000  0.500000  0.000000  1
  O  O8  1  0.700538  0.294673  0.450920  1
  O  O9  1  0.202364  0.203356  0.548826  1
  O  O10  1  0.796089  0.795934  0.049295  1
  O  O11  1  0.297166  0.705534  0.951263  1
  O  O12  1  0.299462  0.705327  0.549080  1
  O  O13  1  0.797636  0.796644  0.451174  1
  O  O14  1  0.203911  0.204066  0.950705  1
  O  O15  1  0.702834  0.294466  0.048737  1
  O  O16  1  0.093221  0.473395  0.247543  1
  O  O17  1  0.592495  0.026939  0.750497  1
  O  O18  1  0.407505  0.973061  0.249503  1
  O  O19  1  0.906779  0.526605  0.752457  1
