# generated using pymatgen
data_CaTb5YCoI12
_symmetry_space_group_name_H-M   'P 1'
_cell_length_a   9.75922429
_cell_length_b   9.81402312
_cell_length_c   9.80726457
_cell_angle_alpha   106.83151970
_cell_angle_beta   106.98947315
_cell_angle_gamma   106.94572082
_symmetry_Int_Tables_number   1
_chemical_formula_structural   CaTb5YCoI12
_chemical_formula_sum   'Ca1 Tb5 Y1 Co1 I12'
_cell_volume   783.92098613
_cell_formula_units_Z   1
loop_
 _symmetry_equiv_pos_site_id
 _symmetry_equiv_pos_as_xyz
  1  'x, y, z'
loop_
 _atom_site_type_symbol
 _atom_site_label
 _atom_site_symmetry_multiplicity
 _atom_site_fract_x
 _atom_site_fract_y
 _atom_site_fract_z
 _atom_site_occupancy
  Ca  Ca0  1  0.499938  0.499985  0.500075  1
  Tb  Tb1  1  0.095591  0.295912  0.023780  1
  Tb  Tb2  1  0.281465  0.022099  0.090813  1
  Tb  Tb3  1  0.977011  0.903834  0.703191  1
  Tb  Tb4  1  0.904474  0.704168  0.976372  1
  Tb  Tb5  1  0.718725  0.977987  0.909444  1
  Y  Y6  1  0.022925  0.096171  0.296867  1
  Co  Co7  1  0.000081  0.999935  0.999562  1
  I  I8  1  0.148598  0.455878  0.377867  1
  I  I9  1  0.456831  0.376407  0.150395  1
  I  I10  1  0.378026  0.149469  0.454702  1
  I  I11  1  0.850915  0.543345  0.622215  1
  I  I12  1  0.543188  0.623657  0.849756  1
  I  I13  1  0.621349  0.850391  0.545218  1
  I  I14  1  0.679501  0.071932  0.222245  1
  I  I15  1  0.072362  0.223568  0.678239  1
  I  I16  1  0.226066  0.681124  0.073574  1
  I  I17  1  0.321295  0.928303  0.778186  1
  I  I18  1  0.927654  0.776925  0.320916  1
  I  I19  1  0.774004  0.318910  0.926580  1
