# generated using pymatgen
data_LiDyCr2O8
_symmetry_space_group_name_H-M   'P 1'
_cell_length_a   5.93328064
_cell_length_b   5.93328021
_cell_length_c   5.93328036
_cell_angle_alpha   105.75667372
_cell_angle_beta   105.75667103
_cell_angle_gamma   117.18692873
_symmetry_Int_Tables_number   1
_chemical_formula_structural   LiDyCr2O8
_chemical_formula_sum   'Li1 Dy1 Cr2 O8'
_cell_volume   158.57683814
_cell_formula_units_Z   1
loop_
 _symmetry_equiv_pos_site_id
 _symmetry_equiv_pos_as_xyz
  1  'x, y, z'
loop_
 _atom_site_type_symbol
 _atom_site_label
 _atom_site_symmetry_multiplicity
 _atom_site_fract_x
 _atom_site_fract_y
 _atom_site_fract_z
 _atom_site_occupancy
  Li  Li0  1  0.750000  0.250000  0.500000  1
  Dy  Dy1  1  0.500000  0.500000  0.000000  1
  Cr  Cr2  1  0.250000  0.750000  0.500000  1
  Cr  Cr3  1  0.000000  0.000000  0.000000  1
  O  O4  1  0.830955  0.012647  0.181692  1
  O  O5  1  0.903088  0.589202  0.313886  1
  O  O6  1  0.275316  0.589202  0.686114  1
  O  O7  1  0.830955  0.649262  0.818308  1
  O  O8  1  0.350738  0.169045  0.181692  1
  O  O9  1  0.410798  0.724684  0.313886  1
  O  O10  1  0.410798  0.096912  0.686114  1
  O  O11  1  0.987353  0.169045  0.818308  1
