# generated using pymatgen
data_Li2Al4NiRh
_symmetry_space_group_name_H-M   'P 1'
_cell_length_a   5.95606500
_cell_length_b   4.24353300
_cell_length_c   8.42343700
_cell_angle_alpha   90.00000000
_cell_angle_beta   90.00001642
_cell_angle_gamma   90.00000000
_symmetry_Int_Tables_number   1
_chemical_formula_structural   Li2Al4NiRh
_chemical_formula_sum   'Li4 Al8 Ni2 Rh2'
_cell_volume   212.90033488
_cell_formula_units_Z   2
loop_
 _symmetry_equiv_pos_site_id
 _symmetry_equiv_pos_as_xyz
  1  'x, y, z'
loop_
 _atom_site_type_symbol
 _atom_site_label
 _atom_site_symmetry_multiplicity
 _atom_site_fract_x
 _atom_site_fract_y
 _atom_site_fract_z
 _atom_site_occupancy
  Li  Li0  1  0.250000  0.250001  0.122519  1
  Li  Li1  1  0.750001  0.750001  0.377481  1
  Li  Li2  1  0.250007  0.250001  0.627698  1
  Li  Li3  1  0.750006  0.750001  0.872301  1
  Al  Al4  1  0.995289  0.750001  0.127957  1
  Al  Al5  1  0.504710  0.750001  0.127960  1
  Al  Al6  1  0.004692  0.250001  0.372036  1
  Al  Al7  1  0.495307  0.250001  0.372035  1
  Al  Al8  1  0.495516  0.750001  0.622045  1
  Al  Al9  1  0.004480  0.750001  0.622046  1
  Al  Al10  1  0.504505  0.250001  0.877961  1
  Al  Al11  1  0.995495  0.250001  0.877962  1
  Ni  Ni12  1  0.750004  0.250001  0.128499  1
  Ni  Ni13  1  0.249988  0.750001  0.371465  1
  Rh  Rh14  1  0.749994  0.250001  0.621445  1
  Rh  Rh15  1  0.250003  0.750001  0.878587  1
