# generated using pymatgen
data_HoEr3B16Ir3Rh
_symmetry_space_group_name_H-M   'P 1'
_cell_length_a   3.55864500
_cell_length_b   5.95093469
_cell_length_c   11.54000200
_cell_angle_alpha   89.97413673
_cell_angle_beta   90.00000000
_cell_angle_gamma   90.00000000
_symmetry_Int_Tables_number   1
_chemical_formula_structural   HoEr3B16Ir3Rh
_chemical_formula_sum   'Ho1 Er3 B16 Ir3 Rh1'
_cell_volume   244.38564375
_cell_formula_units_Z   1
loop_
 _symmetry_equiv_pos_site_id
 _symmetry_equiv_pos_as_xyz
  1  'x, y, z'
loop_
 _atom_site_type_symbol
 _atom_site_label
 _atom_site_symmetry_multiplicity
 _atom_site_fract_x
 _atom_site_fract_y
 _atom_site_fract_z
 _atom_site_occupancy
  Ho  Ho0  1  0.000000  0.131945  0.648773  1
  Er  Er1  1  0.000000  0.868211  0.350644  1
  Er  Er2  1  0.000000  0.631321  0.852178  1
  Er  Er3  1  0.000000  0.368477  0.148105  1
  B  B4  1  0.500000  0.792257  0.687943  1
  B  B5  1  0.500000  0.207697  0.311968  1
  B  B6  1  0.500000  0.291493  0.812359  1
  B  B7  1  0.500000  0.708642  0.187718  1
  B  B8  1  0.500000  0.864165  0.529789  1
  B  B9  1  0.500000  0.135834  0.469779  1
  B  B10  1  0.500000  0.364343  0.969990  1
  B  B11  1  0.500000  0.635958  0.029983  1
  B  B12  1  0.500000  0.022497  0.193065  1
  B  B13  1  0.500000  0.977730  0.806897  1
  B  B14  1  0.500000  0.524126  0.306825  1
  B  B15  1  0.500000  0.476451  0.692886  1
  B  B16  1  0.500000  0.112556  0.046571  1
  B  B17  1  0.500000  0.887518  0.952855  1
  B  B18  1  0.500000  0.612483  0.452995  1
  B  B19  1  0.500000  0.387729  0.546803  1
  Ir  Ir20  1  0.000000  0.644848  0.597018  1
  Ir  Ir21  1  0.000000  0.355714  0.403673  1
  Ir  Ir22  1  0.000000  0.141682  0.904486  1
  Rh  Rh23  1  0.000000  0.856324  0.096696  1
