# generated using pymatgen
data_YbCeBeIr3
_symmetry_space_group_name_H-M   'P 1'
_cell_length_a   4.99932402
_cell_length_b   4.99932341
_cell_length_c   4.99932200
_cell_angle_alpha   66.32766970
_cell_angle_beta   66.32767280
_cell_angle_gamma   66.32766766
_symmetry_Int_Tables_number   1
_chemical_formula_structural   YbCeBeIr3
_chemical_formula_sum   'Yb1 Ce1 Be1 Ir3'
_cell_volume   100.41369935
_cell_formula_units_Z   1
loop_
 _symmetry_equiv_pos_site_id
 _symmetry_equiv_pos_as_xyz
  1  'x, y, z'
loop_
 _atom_site_type_symbol
 _atom_site_label
 _atom_site_symmetry_multiplicity
 _atom_site_fract_x
 _atom_site_fract_y
 _atom_site_fract_z
 _atom_site_occupancy
  Yb  Yb0  1  0.000061  0.000061  0.000061  1
  Ce  Ce1  1  0.255394  0.255394  0.255394  1
  Be  Be2  1  0.623145  0.623145  0.623145  1
  Ir  Ir3  1  0.624804  0.624804  0.121794  1
  Ir  Ir4  1  0.624804  0.121794  0.624804  1
  Ir  Ir5  1  0.121794  0.624804  0.624804  1
