# generated using pymatgen
data_La9NdAl9Si9Au2
_symmetry_space_group_name_H-M   'P 1'
_cell_length_a   4.23789169
_cell_length_b   4.40452313
_cell_length_c   37.28707332
_cell_angle_alpha   86.61402140
_cell_angle_beta   86.74223937
_cell_angle_gamma   90.00000783
_symmetry_Int_Tables_number   1
_chemical_formula_structural   La9NdAl9Si9Au2
_chemical_formula_sum   'La9 Nd1 Al9 Si9 Au2'
_cell_volume   693.65477650
_cell_formula_units_Z   1
loop_
 _symmetry_equiv_pos_site_id
 _symmetry_equiv_pos_as_xyz
  1  'x, y, z'
loop_
 _atom_site_type_symbol
 _atom_site_label
 _atom_site_symmetry_multiplicity
 _atom_site_fract_x
 _atom_site_fract_y
 _atom_site_fract_z
 _atom_site_occupancy
  La  La0  1  0.949851  0.449851  0.100298  1
  La  La1  1  0.351383  0.851383  0.297235  1
  La  La2  1  0.752531  0.252531  0.494936  1
  La  La3  1  0.148381  0.648381  0.703236  1
  La  La4  1  0.545006  0.045006  0.909989  1
  La  La5  1  0.999533  0.999533  0.000935  1
  La  La6  1  0.401051  0.401051  0.197896  1
  La  La7  1  0.802377  0.802377  0.395247  1
  La  La8  1  0.202848  0.202848  0.594305  1
  Nd  Nd9  1  0.600020  0.600020  0.799958  1
  Al  Al10  1  0.466574  0.966574  0.066853  1
  Al  Al11  1  0.868084  0.368084  0.263831  1
  Al  Al12  1  0.269297  0.769297  0.461405  1
  Al  Al13  1  0.666945  0.166945  0.666111  1
  Al  Al14  1  0.064379  0.564379  0.871243  1
  Al  Al15  1  0.916850  0.916850  0.166299  1
  Al  Al16  1  0.318263  0.318263  0.363474  1
  Al  Al17  1  0.718812  0.718812  0.562374  1
  Al  Al18  1  0.114952  0.114952  0.770095  1
  Si  Si19  1  0.514469  0.514469  0.971060  1
  Si  Si20  1  0.433720  0.933720  0.132559  1
  Si  Si21  1  0.835157  0.335157  0.329686  1
  Si  Si22  1  0.236288  0.736288  0.527427  1
  Si  Si23  1  0.632900  0.132900  0.734198  1
  Si  Si24  1  0.030687  0.530687  0.938627  1
  Si  Si25  1  0.482508  0.482508  0.034984  1
  Si  Si26  1  0.883974  0.883974  0.232052  1
  Si  Si27  1  0.285364  0.285364  0.429271  1
  Au  Au28  1  0.684201  0.684201  0.631597  1
  Au  Au29  1  0.080791  0.080791  0.838418  1
