# generated using pymatgen
data_LiHf4Re2Rh
_symmetry_space_group_name_H-M   'P 1'
_cell_length_a   6.53650500
_cell_length_b   4.61612100
_cell_length_c   9.29747500
_cell_angle_alpha   90.00000000
_cell_angle_beta   89.99979005
_cell_angle_gamma   90.00000000
_symmetry_Int_Tables_number   1
_chemical_formula_structural   LiHf4Re2Rh
_chemical_formula_sum   'Li2 Hf8 Re4 Rh2'
_cell_volume   280.53548379
_cell_formula_units_Z   2
loop_
 _symmetry_equiv_pos_site_id
 _symmetry_equiv_pos_as_xyz
  1  'x, y, z'
loop_
 _atom_site_type_symbol
 _atom_site_label
 _atom_site_symmetry_multiplicity
 _atom_site_fract_x
 _atom_site_fract_y
 _atom_site_fract_z
 _atom_site_occupancy
  Li  Li0  1  0.249979  0.250000  0.124823  1
  Li  Li1  1  0.750040  0.750001  0.375200  1
  Hf  Hf2  1  0.999677  0.750001  0.124472  1
  Hf  Hf3  1  0.500327  0.750001  0.124479  1
  Hf  Hf4  1  0.000358  0.250000  0.375498  1
  Hf  Hf5  1  0.499636  0.250000  0.375512  1
  Hf  Hf6  1  0.500161  0.750001  0.625109  1
  Hf  Hf7  1  0.999822  0.750001  0.625111  1
  Hf  Hf8  1  0.499779  0.250000  0.874906  1
  Hf  Hf9  1  0.000206  0.250000  0.874920  1
  Re  Re10  1  0.750040  0.250000  0.126347  1
  Re  Re11  1  0.249962  0.750001  0.373671  1
  Re  Re12  1  0.750011  0.250000  0.623122  1
  Re  Re13  1  0.250003  0.750001  0.876844  1
  Rh  Rh14  1  0.249993  0.250000  0.626504  1
  Rh  Rh15  1  0.750006  0.750001  0.873483  1
