# generated using pymatgen
data_Eu6P17Pd6
_symmetry_space_group_name_H-M   'P 1'
_cell_length_a   9.07103506
_cell_length_b   9.07103488
_cell_length_c   9.07103500
_cell_angle_alpha   109.47121867
_cell_angle_beta   109.47121826
_cell_angle_gamma   109.47122342
_symmetry_Int_Tables_number   1
_chemical_formula_structural   Eu6P17Pd6
_chemical_formula_sum   'Eu6 P17 Pd6'
_cell_volume   574.57753644
_cell_formula_units_Z   1
loop_
 _symmetry_equiv_pos_site_id
 _symmetry_equiv_pos_as_xyz
  1  'x, y, z'
loop_
 _atom_site_type_symbol
 _atom_site_label
 _atom_site_symmetry_multiplicity
 _atom_site_fract_x
 _atom_site_fract_y
 _atom_site_fract_z
 _atom_site_occupancy
  Eu  Eu0  1  0.000000  0.278343  0.278343  1
  Eu  Eu1  1  0.000000  0.721657  0.721657  1
  Eu  Eu2  1  0.278343  0.000000  0.278343  1
  Eu  Eu3  1  0.278343  0.278343  0.000000  1
  Eu  Eu4  1  0.721657  0.000000  0.721657  1
  Eu  Eu5  1  0.721657  0.721657  0.000000  1
  P  P6  1  0.435487  0.435487  0.435487  1
  P  P7  1  0.000000  0.000000  0.564513  1
  P  P8  1  0.564513  0.000000  0.000000  1
  P  P9  1  0.000000  0.564513  0.000000  1
  P  P10  1  0.000000  0.000000  0.000000  1
  P  P11  1  0.641877  0.641877  0.425165  1
  P  P12  1  0.216711  0.216711  0.574835  1
  P  P13  1  0.358124  0.783289  0.000000  1
  P  P14  1  0.783289  0.358124  0.000000  1
  P  P15  1  0.425165  0.641877  0.641877  1
  P  P16  1  0.641877  0.425165  0.641877  1
  P  P17  1  0.000000  0.783289  0.358124  1
  P  P18  1  0.216711  0.574835  0.216711  1
  P  P19  1  0.574835  0.216711  0.216711  1
  P  P20  1  0.783289  0.000000  0.358124  1
  P  P21  1  0.000000  0.358124  0.783289  1
  P  P22  1  0.358124  0.000000  0.783289  1
  Pd  Pd23  1  0.500000  0.250000  0.750000  1
  Pd  Pd24  1  0.500000  0.750000  0.250000  1
  Pd  Pd25  1  0.750000  0.500000  0.250000  1
  Pd  Pd26  1  0.250000  0.750000  0.500000  1
  Pd  Pd27  1  0.250000  0.500000  0.750000  1
  Pd  Pd28  1  0.750000  0.250000  0.500000  1
