# generated using pymatgen
data_Dy3Er13CdIn3Ni4
_symmetry_space_group_name_H-M   'P 1'
_cell_length_a   9.51428059
_cell_length_b   9.51498143
_cell_length_c   9.51498000
_cell_angle_alpha   60.00000499
_cell_angle_beta   59.99756823
_cell_angle_gamma   59.99757601
_symmetry_Int_Tables_number   1
_chemical_formula_structural   Dy3Er13CdIn3Ni4
_chemical_formula_sum   'Dy3 Er13 Cd1 In3 Ni4'
_cell_volume   609.06109710
_cell_formula_units_Z   1
loop_
 _symmetry_equiv_pos_site_id
 _symmetry_equiv_pos_as_xyz
  1  'x, y, z'
loop_
 _atom_site_type_symbol
 _atom_site_label
 _atom_site_symmetry_multiplicity
 _atom_site_fract_x
 _atom_site_fract_y
 _atom_site_fract_z
 _atom_site_occupancy
  Dy  Dy0  1  0.347699  0.348401  0.348401  1
  Dy  Dy1  1  0.347699  0.348401  0.955499  1
  Dy  Dy2  1  0.347699  0.955499  0.348401  1
  Er  Er3  1  0.955483  0.348172  0.348172  1
  Er  Er4  1  0.811950  0.188003  0.188003  1
  Er  Er5  1  0.187531  0.812947  0.812947  1
  Er  Er6  1  0.187531  0.812947  0.186578  1
  Er  Er7  1  0.811950  0.188003  0.812043  1
  Er  Er8  1  0.187531  0.186578  0.812947  1
  Er  Er9  1  0.811950  0.812043  0.188003  1
  Er  Er10  1  0.937937  0.563424  0.563424  1
  Er  Er11  1  0.564839  0.936063  0.936063  1
  Er  Er12  1  0.564839  0.936063  0.563036  1
  Er  Er13  1  0.937937  0.563424  0.935215  1
  Er  Er14  1  0.564839  0.563036  0.936063  1
  Er  Er15  1  0.937937  0.935215  0.563424  1
  Cd  Cd16  1  0.251495  0.582836  0.582836  1
  In  In17  1  0.582020  0.583116  0.583116  1
  In  In18  1  0.582020  0.583116  0.251748  1
  In  In19  1  0.582020  0.251748  0.583116  1
  Ni  Ni20  1  0.140852  0.142273  0.142273  1
  Ni  Ni21  1  0.140852  0.142273  0.574603  1
  Ni  Ni22  1  0.140852  0.574603  0.142273  1
  Ni  Ni23  1  0.574536  0.141821  0.141821  1
