# generated using pymatgen
data_Ba6Ca2TmUSe12
_symmetry_space_group_name_H-M   'P 1'
_cell_length_a   8.89830514
_cell_length_b   8.89830525
_cell_length_c   8.89830550
_cell_angle_alpha   91.99120676
_cell_angle_beta   91.99119339
_cell_angle_gamma   91.99120129
_symmetry_Int_Tables_number   1
_chemical_formula_structural   Ba6Ca2TmUSe12
_chemical_formula_sum   'Ba6 Ca2 Tm1 U1 Se12'
_cell_volume   703.25967888
_cell_formula_units_Z   1
loop_
 _symmetry_equiv_pos_site_id
 _symmetry_equiv_pos_as_xyz
  1  'x, y, z'
loop_
 _atom_site_type_symbol
 _atom_site_label
 _atom_site_symmetry_multiplicity
 _atom_site_fract_x
 _atom_site_fract_y
 _atom_site_fract_z
 _atom_site_occupancy
  Ba  Ba0  1  0.869221  0.623359  0.258999  1
  Ba  Ba1  1  0.258999  0.869221  0.623359  1
  Ba  Ba2  1  0.623359  0.258999  0.869221  1
  Ba  Ba3  1  0.741001  0.130779  0.376641  1
  Ba  Ba4  1  0.376641  0.741001  0.130779  1
  Ba  Ba5  1  0.130779  0.376641  0.741001  1
  Ca  Ca6  1  0.255316  0.255316  0.255316  1
  Ca  Ca7  1  0.744684  0.744684  0.744684  1
  Tm  Tm8  1  0.500000  0.500000  0.500000  1
  U  U9  1  0.000000  0.000000  0.000000  1
  Se  Se10  1  0.199117  0.550128  0.409223  1
  Se  Se11  1  0.409223  0.199117  0.550128  1
  Se  Se12  1  0.550128  0.409223  0.199117  1
  Se  Se13  1  0.918399  0.045090  0.703365  1
  Se  Se14  1  0.703365  0.918399  0.045090  1
  Se  Se15  1  0.045090  0.703365  0.918399  1
  Se  Se16  1  0.800883  0.449872  0.590777  1
  Se  Se17  1  0.590777  0.800883  0.449872  1
  Se  Se18  1  0.449872  0.590777  0.800883  1
  Se  Se19  1  0.081601  0.954910  0.296635  1
  Se  Se20  1  0.296635  0.081601  0.954910  1
  Se  Se21  1  0.954910  0.296635  0.081601  1
