# generated using pymatgen
data_Dy2YMg3CuPb2
_symmetry_space_group_name_H-M   'P 1'
_cell_length_a   7.55116742
_cell_length_b   7.55116877
_cell_length_c   4.47163000
_cell_angle_alpha   90.00000000
_cell_angle_beta   90.00000000
_cell_angle_gamma   119.96154745
_symmetry_Int_Tables_number   1
_chemical_formula_structural   Dy2YMg3CuPb2
_chemical_formula_sum   'Dy2 Y1 Mg3 Cu1 Pb2'
_cell_volume   220.89857621
_cell_formula_units_Z   1
loop_
 _symmetry_equiv_pos_site_id
 _symmetry_equiv_pos_as_xyz
  1  'x, y, z'
loop_
 _atom_site_type_symbol
 _atom_site_label
 _atom_site_symmetry_multiplicity
 _atom_site_fract_x
 _atom_site_fract_y
 _atom_site_fract_z
 _atom_site_occupancy
  Dy  Dy0  1  0.000008  0.598416  0.000000  1
  Dy  Dy1  1  0.598416  0.000008  0.000000  1
  Y  Y2  1  0.402208  0.402208  0.000000  1
  Mg  Mg3  1  0.999732  0.231021  0.500000  1
  Mg  Mg4  1  0.769108  0.769108  0.500000  1
  Mg  Mg5  1  0.231021  0.999732  0.500000  1
  Cu  Cu6  1  0.998940  0.998940  0.000000  1
  Pb  Pb7  1  0.333322  0.667246  0.500000  1
  Pb  Pb8  1  0.667246  0.333322  0.500000  1
