# generated using pymatgen
data_LaPr(Si2Pd)2
_symmetry_space_group_name_H-M   'P 1'
_cell_length_a   8.74016370
_cell_length_b   8.74016315
_cell_length_c   4.28048500
_cell_angle_alpha   90.00000000
_cell_angle_beta   90.00000000
_cell_angle_gamma   151.32082713
_symmetry_Int_Tables_number   1
_chemical_formula_structural   LaPr(Si2Pd)2
_chemical_formula_sum   'La1 Pr1 Si4 Pd2'
_cell_volume   156.92315034
_cell_formula_units_Z   1
loop_
 _symmetry_equiv_pos_site_id
 _symmetry_equiv_pos_as_xyz
  1  'x, y, z'
loop_
 _atom_site_type_symbol
 _atom_site_label
 _atom_site_symmetry_multiplicity
 _atom_site_fract_x
 _atom_site_fract_y
 _atom_site_fract_z
 _atom_site_occupancy
  La  La0  1  0.104812  0.895186  0.250000  1
  Pr  Pr1  1  0.894056  0.105942  0.750001  1
  Si  Si2  1  0.751019  0.248980  0.250000  1
  Si  Si3  1  0.464635  0.535364  0.250000  1
  Si  Si4  1  0.534451  0.465548  0.750001  1
  Si  Si5  1  0.250394  0.749605  0.750001  1
  Pd  Pd6  1  0.321472  0.678527  0.250000  1
  Pd  Pd7  1  0.679155  0.320844  0.750001  1
