# generated using pymatgen
data_TbNb6PbS12
_symmetry_space_group_name_H-M   'P 1'
_cell_length_a   5.84606200
_cell_length_b   5.84606269
_cell_length_c   14.45216600
_cell_angle_alpha   90.00000000
_cell_angle_beta   90.00000000
_cell_angle_gamma   119.99999610
_symmetry_Int_Tables_number   1
_chemical_formula_structural   TbNb6PbS12
_chemical_formula_sum   'Tb1 Nb6 Pb1 S12'
_cell_volume   427.75045003
_cell_formula_units_Z   1
loop_
 _symmetry_equiv_pos_site_id
 _symmetry_equiv_pos_as_xyz
  1  'x, y, z'
loop_
 _atom_site_type_symbol
 _atom_site_label
 _atom_site_symmetry_multiplicity
 _atom_site_fract_x
 _atom_site_fract_y
 _atom_site_fract_z
 _atom_site_occupancy
  Tb  Tb0  1  0.000000  0.000000  0.000000  1
  Nb  Nb1  1  0.000000  0.000000  0.761325  1
  Nb  Nb2  1  0.000000  0.000000  0.238675  1
  Nb  Nb3  1  0.333333  0.666667  0.238997  1
  Nb  Nb4  1  0.666667  0.333333  0.761003  1
  Nb  Nb5  1  0.666667  0.333333  0.238997  1
  Nb  Nb6  1  0.333333  0.666667  0.761003  1
  Pb  Pb7  1  0.000000  0.000000  0.500000  1
  S  S8  1  0.337921  0.000000  0.129842  1
  S  S9  1  0.000000  0.337921  0.129842  1
  S  S10  1  0.662079  0.662079  0.129842  1
  S  S11  1  0.336073  0.336073  0.652871  1
  S  S12  1  0.663927  0.663927  0.347129  1
  S  S13  1  0.663927  0.000000  0.652871  1
  S  S14  1  0.000000  0.663927  0.652871  1
  S  S15  1  0.000000  0.662079  0.870158  1
  S  S16  1  0.337921  0.337921  0.870158  1
  S  S17  1  0.000000  0.336073  0.347129  1
  S  S18  1  0.336073  0.000000  0.347129  1
  S  S19  1  0.662079  0.000000  0.870158  1
