# generated using pymatgen
data_K2Pa(TeO4)3
_symmetry_space_group_name_H-M   'P 1'
_cell_length_a   7.70981975
_cell_length_b   7.70981960
_cell_length_c   7.71133009
_cell_angle_alpha   57.61527515
_cell_angle_beta   57.61527534
_cell_angle_gamma   57.64866937
_symmetry_Int_Tables_number   1
_chemical_formula_structural   K2Pa(TeO4)3
_chemical_formula_sum   'K2 Pa1 Te3 O12'
_cell_volume   306.43519728
_cell_formula_units_Z   1
loop_
 _symmetry_equiv_pos_site_id
 _symmetry_equiv_pos_as_xyz
  1  'x, y, z'
loop_
 _atom_site_type_symbol
 _atom_site_label
 _atom_site_symmetry_multiplicity
 _atom_site_fract_x
 _atom_site_fract_y
 _atom_site_fract_z
 _atom_site_occupancy
  K  K0  1  0.863876  0.923746  0.390514  1
  K  K1  1  0.076254  0.136124  0.609486  1
  Pa  Pa2  1  0.497669  0.502331  0.000000  1
  Te  Te3  1  0.998806  0.501336  0.998976  1
  Te  Te4  1  0.498664  0.001194  0.001024  1
  Te  Te5  1  0.497769  0.502231  0.500000  1
  O  O6  1  0.181994  0.183916  0.080439  1
  O  O7  1  0.570718  0.568695  0.660827  1
  O  O8  1  0.160023  0.569222  0.070007  1
  O  O9  1  0.579841  0.184975  0.683789  1
  O  O10  1  0.570235  0.162095  0.069275  1
  O  O11  1  0.181815  0.580760  0.682430  1
  O  O12  1  0.816084  0.818006  0.919561  1
  O  O13  1  0.431305  0.429282  0.339173  1
  O  O14  1  0.837905  0.429765  0.930725  1
  O  O15  1  0.419240  0.818185  0.317570  1
  O  O16  1  0.430778  0.839977  0.929993  1
  O  O17  1  0.815025  0.420159  0.316211  1
