# generated using pymatgen
data_Li7Nd8ZnSn7Pb
_symmetry_space_group_name_H-M   'P 1'
_cell_length_a   9.56010500
_cell_length_b   9.56017899
_cell_length_c   7.64056300
_cell_angle_alpha   89.98387921
_cell_angle_beta   90.00000000
_cell_angle_gamma   119.99974054
_symmetry_Int_Tables_number   1
_chemical_formula_structural   Li7Nd8ZnSn7Pb
_chemical_formula_sum   'Li7 Nd8 Zn1 Sn7 Pb1'
_cell_volume   604.76380500
_cell_formula_units_Z   1
loop_
 _symmetry_equiv_pos_site_id
 _symmetry_equiv_pos_as_xyz
  1  'x, y, z'
loop_
 _atom_site_type_symbol
 _atom_site_label
 _atom_site_symmetry_multiplicity
 _atom_site_fract_x
 _atom_site_fract_y
 _atom_site_fract_z
 _atom_site_occupancy
  Li  Li0  1  0.165381  0.832271  0.288716  1
  Li  Li1  1  0.666891  0.832271  0.288716  1
  Li  Li2  1  0.833071  0.666141  0.787491  1
  Li  Li3  1  0.831816  0.166150  0.787919  1
  Li  Li4  1  0.334333  0.166150  0.787919  1
  Li  Li5  1  0.334386  0.668775  0.673060  1
  Li  Li6  1  0.667797  0.335595  0.170900  1
  Nd  Nd7  1  0.511820  0.023641  0.497940  1
  Nd  Nd8  1  0.512175  0.488718  0.494113  1
  Nd  Nd9  1  0.976542  0.488718  0.494113  1
  Nd  Nd10  1  0.488583  0.977164  0.991449  1
  Nd  Nd11  1  0.488742  0.511604  0.994418  1
  Nd  Nd12  1  0.022864  0.511604  0.994418  1
  Nd  Nd13  1  0.999103  0.998208  0.498368  1
  Nd  Nd14  1  0.999981  0.999962  0.998505  1
  Zn  Zn15  1  0.166792  0.333584  0.292713  1
  Sn  Sn16  1  0.166084  0.833012  0.729220  1
  Sn  Sn17  1  0.666927  0.833012  0.729220  1
  Sn  Sn18  1  0.833547  0.667094  0.229525  1
  Sn  Sn19  1  0.833002  0.166199  0.228124  1
  Sn  Sn20  1  0.333198  0.166199  0.228124  1
  Sn  Sn21  1  0.333653  0.667306  0.263802  1
  Sn  Sn22  1  0.666788  0.333573  0.765691  1
  Pb  Pb23  1  0.166524  0.333051  0.727512  1
