# generated using pymatgen
data_CuSi4(Ni5B2)3
_symmetry_space_group_name_H-M   'P 1'
_cell_length_a   2.88402100
_cell_length_b   6.00221900
_cell_length_c   14.57873600
_cell_angle_alpha   90.00000000
_cell_angle_beta   90.00000000
_cell_angle_gamma   90.00000000
_symmetry_Int_Tables_number   1
_chemical_formula_structural   CuSi4(Ni5B2)3
_chemical_formula_sum   'Cu1 Si4 Ni15 B6'
_cell_volume   252.36558336
_cell_formula_units_Z   1
loop_
 _symmetry_equiv_pos_site_id
 _symmetry_equiv_pos_as_xyz
  1  'x, y, z'
loop_
 _atom_site_type_symbol
 _atom_site_label
 _atom_site_symmetry_multiplicity
 _atom_site_fract_x
 _atom_site_fract_y
 _atom_site_fract_z
 _atom_site_occupancy
  Cu  Cu0  1  0.000000  0.705392  0.500000  1
  Si  Si1  1  0.000000  0.966868  0.627793  1
  Si  Si2  1  0.500000  0.038132  0.122918  1
  Si  Si3  1  0.000000  0.966868  0.372207  1
  Si  Si4  1  0.500000  0.038132  0.877082  1
  Ni  Ni5  1  0.000000  0.932773  0.000000  1
  Ni  Ni6  1  0.500000  0.646320  0.644490  1
  Ni  Ni7  1  0.000000  0.357697  0.855934  1
  Ni  Ni8  1  0.500000  0.646320  0.355510  1
  Ni  Ni9  1  0.500000  0.060013  0.500000  1
  Ni  Ni10  1  0.500000  0.293105  0.000000  1
  Ni  Ni11  1  0.000000  0.814898  0.225621  1
  Ni  Ni12  1  0.000000  0.814898  0.774379  1
  Ni  Ni13  1  0.500000  0.189911  0.727487  1
  Ni  Ni14  1  0.500000  0.664900  0.087394  1
  Ni  Ni15  1  0.500000  0.189911  0.272513  1
  Ni  Ni16  1  0.000000  0.333971  0.588518  1
  Ni  Ni17  1  0.500000  0.664900  0.912606  1
  Ni  Ni18  1  0.000000  0.333971  0.411482  1
  Ni  Ni19  1  0.000000  0.357697  0.144066  1
  B  B20  1  0.000000  0.542800  0.000000  1
  B  B21  1  0.500000  0.431783  0.500000  1
  B  B22  1  0.000000  0.462734  0.281523  1
  B  B23  1  0.500000  0.541636  0.216761  1
  B  B24  1  0.000000  0.462734  0.718477  1
  B  B25  1  0.500000  0.541636  0.783239  1
