# generated using pymatgen
data_Mn3Co3W6C
_symmetry_space_group_name_H-M   'P 1'
_cell_length_a   7.74893848
_cell_length_b   7.74893779
_cell_length_c   7.73255100
_cell_angle_alpha   60.06993382
_cell_angle_beta   60.06993676
_cell_angle_gamma   59.94622561
_symmetry_Int_Tables_number   1
_chemical_formula_structural   Mn3Co3W6C
_chemical_formula_sum   'Mn6 Co6 W12 C2'
_cell_volume   328.52866960
_cell_formula_units_Z   2
loop_
 _symmetry_equiv_pos_site_id
 _symmetry_equiv_pos_as_xyz
  1  'x, y, z'
loop_
 _atom_site_type_symbol
 _atom_site_label
 _atom_site_symmetry_multiplicity
 _atom_site_fract_x
 _atom_site_fract_y
 _atom_site_fract_z
 _atom_site_occupancy
  Mn  Mn0  1  0.505587  0.998637  0.497888  1
  Mn  Mn1  1  0.998637  0.505587  0.497888  1
  Mn  Mn2  1  0.502022  0.502022  0.002012  1
  Mn  Mn3  1  0.502022  0.502022  0.493943  1
  Mn  Mn4  1  0.604661  0.295660  0.299838  1
  Mn  Mn5  1  0.295660  0.604661  0.299838  1
  Co  Co6  1  0.293496  0.293496  0.616549  1
  Co  Co7  1  0.293496  0.293496  0.296457  1
  Co  Co8  1  0.704302  0.383850  0.705924  1
  Co  Co9  1  0.383850  0.704302  0.705924  1
  Co  Co10  1  0.705546  0.705546  0.382618  1
  Co  Co11  1  0.705546  0.705546  0.706289  1
  W  W12  1  0.071685  0.071685  0.678313  1
  W  W13  1  0.677593  0.072288  0.071717  1
  W  W14  1  0.678348  0.678348  0.071650  1
  W  W15  1  0.072286  0.677595  0.678401  1
  W  W16  1  0.072288  0.677593  0.071717  1
  W  W17  1  0.677595  0.072286  0.678401  1
  W  W18  1  0.929260  0.929260  0.320740  1
  W  W19  1  0.929124  0.321909  0.927137  1
  W  W20  1  0.322477  0.322477  0.927523  1
  W  W21  1  0.321909  0.929124  0.321830  1
  W  W22  1  0.321909  0.929124  0.927137  1
  W  W23  1  0.929124  0.321909  0.321830  1
  C  C24  1  0.875523  0.875523  0.874477  1
  C  C25  1  0.126046  0.126046  0.123952  1
