# generated using pymatgen
data_Al4V10Cu
_symmetry_space_group_name_H-M   'P 1'
_cell_length_a   9.29845200
_cell_length_b   9.29845200
_cell_length_c   4.77686800
_cell_angle_alpha   90.00000000
_cell_angle_beta   90.00000000
_cell_angle_gamma   90.00000000
_symmetry_Int_Tables_number   1
_chemical_formula_structural   Al4V10Cu
_chemical_formula_sum   'Al8 V20 Cu2'
_cell_volume   413.01378536
_cell_formula_units_Z   2
loop_
 _symmetry_equiv_pos_site_id
 _symmetry_equiv_pos_as_xyz
  1  'x, y, z'
loop_
 _atom_site_type_symbol
 _atom_site_label
 _atom_site_symmetry_multiplicity
 _atom_site_fract_x
 _atom_site_fract_y
 _atom_site_fract_z
 _atom_site_occupancy
  Al  Al0  1  0.259715  0.937015  0.000000  1
  Al  Al1  1  0.437015  0.240285  0.500000  1
  Al  Al2  1  0.562985  0.759715  0.500000  1
  Al  Al3  1  0.740285  0.062985  0.000000  1
  Al  Al4  1  0.240285  0.437015  0.500000  1
  Al  Al5  1  0.759715  0.562985  0.500000  1
  Al  Al6  1  0.937015  0.259715  0.000000  1
  Al  Al7  1  0.062985  0.740285  0.000000  1
  V  V8  1  0.398938  0.398938  0.000000  1
  V  V9  1  0.898938  0.101062  0.500000  1
  V  V10  1  0.101062  0.898938  0.500000  1
  V  V11  1  0.601062  0.601062  0.000000  1
  V  V12  1  0.128244  0.466005  0.000000  1
  V  V13  1  0.966005  0.371756  0.500000  1
  V  V14  1  0.033995  0.628244  0.500000  1
  V  V15  1  0.871756  0.533995  0.000000  1
  V  V16  1  0.371756  0.966005  0.500000  1
  V  V17  1  0.628244  0.033995  0.500000  1
  V  V18  1  0.466005  0.128244  0.000000  1
  V  V19  1  0.533995  0.871756  0.000000  1
  V  V20  1  0.181945  0.181945  0.256114  1
  V  V21  1  0.681945  0.318055  0.756114  1
  V  V22  1  0.318055  0.681945  0.756114  1
  V  V23  1  0.818055  0.818055  0.256114  1
  V  V24  1  0.318055  0.681945  0.243886  1
  V  V25  1  0.681945  0.318055  0.243886  1
  V  V26  1  0.181945  0.181945  0.743886  1
  V  V27  1  0.818055  0.818055  0.743886  1
  Cu  Cu28  1  0.000000  0.000000  0.000000  1
  Cu  Cu29  1  0.500000  0.500000  0.500000  1
