# generated using pymatgen
data_Hf6C3N2
_symmetry_space_group_name_H-M   'P 1'
_cell_length_a   5.63753720
_cell_length_b   5.63753792
_cell_length_c   5.63233408
_cell_angle_alpha   99.66491643
_cell_angle_beta   99.66492354
_cell_angle_gamma   119.57931424
_symmetry_Int_Tables_number   1
_chemical_formula_structural   Hf6C3N2
_chemical_formula_sum   'Hf6 C3 N2'
_cell_volume   146.75575614
_cell_formula_units_Z   1
loop_
 _symmetry_equiv_pos_site_id
 _symmetry_equiv_pos_as_xyz
  1  'x, y, z'
loop_
 _atom_site_type_symbol
 _atom_site_label
 _atom_site_symmetry_multiplicity
 _atom_site_fract_x
 _atom_site_fract_y
 _atom_site_fract_z
 _atom_site_occupancy
  Hf  Hf0  1  0.431436  0.083914  0.252205  1
  Hf  Hf1  1  0.084603  0.431954  0.252183  1
  Hf  Hf2  1  0.737679  0.738707  0.263684  1
  Hf  Hf3  1  0.261294  0.262322  0.736316  1
  Hf  Hf4  1  0.916086  0.568564  0.747793  1
  Hf  Hf5  1  0.568046  0.915397  0.747815  1
  C  C6  1  0.332933  0.667066  0.000000  1
  C  C7  1  0.833014  0.166985  0.500000  1
  C  C8  1  0.167038  0.832961  0.500000  1
  N  N9  1  0.668135  0.331864  0.000000  1
  N  N10  1  0.499735  0.500263  0.500000  1
