# generated using pymatgen
data_Zr2(Ga3Co)3
_symmetry_space_group_name_H-M   'P 1'
_cell_length_a   7.27891650
_cell_length_b   7.27891710
_cell_length_c   9.18926500
_cell_angle_alpha   90.00000000
_cell_angle_beta   90.00000000
_cell_angle_gamma   119.83667069
_symmetry_Int_Tables_number   1
_chemical_formula_structural   Zr2(Ga3Co)3
_chemical_formula_sum   'Zr4 Ga18 Co6'
_cell_volume   422.33525465
_cell_formula_units_Z   2
loop_
 _symmetry_equiv_pos_site_id
 _symmetry_equiv_pos_as_xyz
  1  'x, y, z'
loop_
 _atom_site_type_symbol
 _atom_site_label
 _atom_site_symmetry_multiplicity
 _atom_site_fract_x
 _atom_site_fract_y
 _atom_site_fract_z
 _atom_site_occupancy
  Zr  Zr0  1  0.330948  0.004570  0.250000  1
  Zr  Zr1  1  0.995430  0.669052  0.750000  1
  Zr  Zr2  1  0.669052  0.995430  0.750000  1
  Zr  Zr3  1  0.004570  0.330948  0.250000  1
  Ga  Ga4  1  0.334031  0.996032  0.926933  1
  Ga  Ga5  1  0.003968  0.665969  0.073067  1
  Ga  Ga6  1  0.334031  0.996032  0.573067  1
  Ga  Ga7  1  0.003968  0.665969  0.426933  1
  Ga  Ga8  1  0.665969  0.003968  0.073067  1
  Ga  Ga9  1  0.996032  0.334031  0.926933  1
  Ga  Ga10  1  0.665969  0.003968  0.426933  1
  Ga  Ga11  1  0.996032  0.334031  0.573067  1
  Ga  Ga12  1  0.668747  0.668747  0.937855  1
  Ga  Ga13  1  0.331253  0.331253  0.062145  1
  Ga  Ga14  1  0.668747  0.668747  0.562145  1
  Ga  Ga15  1  0.331253  0.331253  0.437855  1
  Ga  Ga16  1  0.116597  0.116597  0.750000  1
  Ga  Ga17  1  0.883403  0.883403  0.250000  1
  Ga  Ga18  1  0.443969  0.664715  0.250000  1
  Ga  Ga19  1  0.335285  0.556031  0.750000  1
  Ga  Ga20  1  0.556031  0.335285  0.750000  1
  Ga  Ga21  1  0.664715  0.443969  0.250000  1
  Co  Co22  1  0.000000  0.000000  0.000000  1
  Co  Co23  1  0.000000  0.000000  0.500000  1
  Co  Co24  1  0.328532  0.671468  0.000000  1
  Co  Co25  1  0.328532  0.671468  0.500000  1
  Co  Co26  1  0.671468  0.328532  0.000000  1
  Co  Co27  1  0.671468  0.328532  0.500000  1
