# generated using pymatgen
data_Sr2As3BrO6
_symmetry_space_group_name_H-M   'P 1'
_cell_length_a   5.46755100
_cell_length_b   8.51907738
_cell_length_c   10.72318912
_cell_angle_alpha   71.31452421
_cell_angle_beta   90.00000000
_cell_angle_gamma   90.00000000
_symmetry_Int_Tables_number   1
_chemical_formula_structural   Sr2As3BrO6
_chemical_formula_sum   'Sr4 As6 Br2 O12'
_cell_volume   473.14365587
_cell_formula_units_Z   2
loop_
 _symmetry_equiv_pos_site_id
 _symmetry_equiv_pos_as_xyz
  1  'x, y, z'
loop_
 _atom_site_type_symbol
 _atom_site_label
 _atom_site_symmetry_multiplicity
 _atom_site_fract_x
 _atom_site_fract_y
 _atom_site_fract_z
 _atom_site_occupancy
  Sr  Sr0  1  0.250000  0.151629  0.388723  1
  Sr  Sr1  1  0.750000  0.848371  0.611277  1
  Sr  Sr2  1  0.250000  0.059673  0.783814  1
  Sr  Sr3  1  0.750000  0.940327  0.216186  1
  As  As4  1  0.250000  0.727372  0.426680  1
  As  As5  1  0.750000  0.272628  0.573320  1
  As  As6  1  0.250000  0.596934  0.164255  1
  As  As7  1  0.750000  0.403066  0.835745  1
  As  As8  1  0.250000  0.603256  0.822969  1
  As  As9  1  0.750000  0.396744  0.177031  1
  Br  Br10  1  0.750000  0.830567  0.949272  1
  Br  Br11  1  0.250000  0.169433  0.050728  1
  O  O12  1  0.989992  0.537846  0.734894  1
  O  O13  1  0.489992  0.462154  0.265106  1
  O  O14  1  0.010008  0.462154  0.265106  1
  O  O15  1  0.510008  0.537846  0.734894  1
  O  O16  1  0.009711  0.870535  0.413772  1
  O  O17  1  0.509711  0.129465  0.586228  1
  O  O18  1  0.990289  0.129465  0.586228  1
  O  O19  1  0.490289  0.870535  0.413772  1
  O  O20  1  0.750000  0.241743  0.761818  1
  O  O21  1  0.250000  0.758257  0.238182  1
  O  O22  1  0.250000  0.807676  0.721121  1
  O  O23  1  0.750000  0.192324  0.278879  1
