# generated using pymatgen
data_Tm12Fe4RhPb
_symmetry_space_group_name_H-M   'P 1'
_cell_length_a   8.20278904
_cell_length_b   8.20278904
_cell_length_c   8.20278900
_cell_angle_alpha   110.69264841
_cell_angle_beta   111.22803706
_cell_angle_gamma   106.53281463
_symmetry_Int_Tables_number   1
_chemical_formula_structural   Tm12Fe4RhPb
_chemical_formula_sum   'Tm12 Fe4 Rh1 Pb1'
_cell_volume   424.03408103
_cell_formula_units_Z   1
loop_
 _symmetry_equiv_pos_site_id
 _symmetry_equiv_pos_as_xyz
  1  'x, y, z'
loop_
 _atom_site_type_symbol
 _atom_site_label
 _atom_site_symmetry_multiplicity
 _atom_site_fract_x
 _atom_site_fract_y
 _atom_site_fract_z
 _atom_site_occupancy
  Tm  Tm0  1  0.413608  0.216414  0.197196  1
  Tm  Tm1  1  0.586392  0.783586  0.802804  1
  Tm  Tm2  1  0.019219  0.216414  0.802804  1
  Tm  Tm3  1  0.980781  0.783586  0.197196  1
  Tm  Tm4  1  0.185030  0.284695  0.469725  1
  Tm  Tm5  1  0.814970  0.715305  0.530275  1
  Tm  Tm6  1  0.185030  0.715305  0.900337  1
  Tm  Tm7  1  0.814970  0.284695  0.099663  1
  Tm  Tm8  1  0.311789  0.615575  0.303784  1
  Tm  Tm9  1  0.688211  0.384425  0.696216  1
  Tm  Tm10  1  0.311789  0.008003  0.696216  1
  Tm  Tm11  1  0.688211  0.991997  0.303784  1
  Fe  Fe12  1  0.382177  0.000000  0.382177  1
  Fe  Fe13  1  0.617823  0.000000  0.617823  1
  Fe  Fe14  1  0.108317  0.608317  0.500000  1
  Fe  Fe15  1  0.891683  0.391683  0.500000  1
  Rh  Rh16  1  0.000000  0.000000  0.000000  1
  Pb  Pb17  1  0.500000  0.500000  0.000000  1
