# generated using pymatgen
data_Y4Ga2(ReRu)3
_symmetry_space_group_name_H-M   'P 1'
_cell_length_a   5.33509253
_cell_length_b   5.33509190
_cell_length_c   9.03250300
_cell_angle_alpha   90.00000000
_cell_angle_beta   90.00000000
_cell_angle_gamma   120.03311402
_symmetry_Int_Tables_number   1
_chemical_formula_structural   Y4Ga2(ReRu)3
_chemical_formula_sum   'Y4 Ga2 Re3 Ru3'
_cell_volume   222.57562151
_cell_formula_units_Z   1
loop_
 _symmetry_equiv_pos_site_id
 _symmetry_equiv_pos_as_xyz
  1  'x, y, z'
loop_
 _atom_site_type_symbol
 _atom_site_label
 _atom_site_symmetry_multiplicity
 _atom_site_fract_x
 _atom_site_fract_y
 _atom_site_fract_z
 _atom_site_occupancy
  Y  Y0  1  0.331358  0.668642  0.440717  1
  Y  Y1  1  0.666498  0.333502  0.562114  1
  Y  Y2  1  0.666498  0.333502  0.937886  1
  Y  Y3  1  0.331358  0.668642  0.059283  1
  Ga  Ga4  1  0.336787  0.163267  0.250000  1
  Ga  Ga5  1  0.836733  0.663213  0.250000  1
  Re  Re6  1  0.168579  0.337008  0.750000  1
  Re  Re7  1  0.172429  0.827571  0.750000  1
  Re  Re8  1  0.662992  0.831421  0.750000  1
  Ru  Ru9  1  0.998244  0.001756  0.003353  1
  Ru  Ru10  1  0.830280  0.169720  0.250000  1
  Ru  Ru11  1  0.998244  0.001756  0.496647  1
