# generated using pymatgen
data_Lu8Sc12Si15B
_symmetry_space_group_name_H-M   'P 1'
_cell_length_a   6.95192783
_cell_length_b   7.31272579
_cell_length_c   13.79426500
_cell_angle_alpha   90.00000000
_cell_angle_beta   90.00000000
_cell_angle_gamma   89.36845026
_symmetry_Int_Tables_number   1
_chemical_formula_structural   Lu8Sc12Si15B
_chemical_formula_sum   'Lu8 Sc12 Si15 B1'
_cell_volume   701.22392420
_cell_formula_units_Z   1
loop_
 _symmetry_equiv_pos_site_id
 _symmetry_equiv_pos_as_xyz
  1  'x, y, z'
loop_
 _atom_site_type_symbol
 _atom_site_label
 _atom_site_symmetry_multiplicity
 _atom_site_fract_x
 _atom_site_fract_y
 _atom_site_fract_z
 _atom_site_occupancy
  Lu  Lu0  1  0.009576  0.179683  0.096037  1
  Lu  Lu1  1  0.989142  0.828344  0.903128  1
  Lu  Lu2  1  0.489951  0.678857  0.903045  1
  Lu  Lu3  1  0.989142  0.828344  0.596872  1
  Lu  Lu4  1  0.510474  0.323641  0.094564  1
  Lu  Lu5  1  0.009576  0.179683  0.403963  1
  Lu  Lu6  1  0.510474  0.323641  0.405436  1
  Lu  Lu7  1  0.489951  0.678857  0.596955  1
  Sc  Sc8  1  0.169540  0.513391  0.750000  1
  Sc  Sc9  1  0.837588  0.496835  0.250000  1
  Sc  Sc10  1  0.337818  0.004804  0.250000  1
  Sc  Sc11  1  0.672814  0.995426  0.750000  1
  Sc  Sc12  1  0.314840  0.174328  0.629551  1
  Sc  Sc13  1  0.668251  0.823748  0.375984  1
  Sc  Sc14  1  0.167434  0.677727  0.375876  1
  Sc  Sc15  1  0.668251  0.823748  0.124016  1
  Sc  Sc16  1  0.850733  0.308401  0.631950  1
  Sc  Sc17  1  0.314840  0.174328  0.870449  1
  Sc  Sc18  1  0.850733  0.308401  0.868050  1
  Sc  Sc19  1  0.167434  0.677727  0.124124  1
  Si  Si20  1  0.965973  0.887257  0.250000  1
  Si  Si21  1  0.466819  0.613617  0.250000  1
  Si  Si22  1  0.539361  0.382714  0.750000  1
  Si  Si23  1  0.268850  0.882682  0.750000  1
  Si  Si24  1  0.711603  0.132750  0.250000  1
  Si  Si25  1  0.214029  0.370051  0.250000  1
  Si  Si26  1  0.788385  0.625834  0.750000  1
  Si  Si27  1  0.161976  0.467679  0.540031  1
  Si  Si28  1  0.837167  0.533909  0.465383  1
  Si  Si29  1  0.336963  0.965713  0.463153  1
  Si  Si30  1  0.837167  0.533909  0.034617  1
  Si  Si31  1  0.656540  0.036884  0.540824  1
  Si  Si32  1  0.161976  0.467679  0.959969  1
  Si  Si33  1  0.656540  0.036884  0.959176  1
  Si  Si34  1  0.336963  0.965713  0.036847  1
  B  B35  1  0.041129  0.096812  0.750000  1
