# generated using pymatgen
data_Sm3DyCo8(SiNi)12
_symmetry_space_group_name_H-M   'P 1'
_cell_length_a   3.75343700
_cell_length_b   6.72905764
_cell_length_c   18.67853901
_cell_angle_alpha   89.96185109
_cell_angle_beta   90.00000000
_cell_angle_gamma   90.00000000
_symmetry_Int_Tables_number   1
_chemical_formula_structural   Sm3DyCo8(SiNi)12
_chemical_formula_sum   'Sm3 Dy1 Co8 Si12 Ni12'
_cell_volume   471.76550930
_cell_formula_units_Z   1
loop_
 _symmetry_equiv_pos_site_id
 _symmetry_equiv_pos_as_xyz
  1  'x, y, z'
loop_
 _atom_site_type_symbol
 _atom_site_label
 _atom_site_symmetry_multiplicity
 _atom_site_fract_x
 _atom_site_fract_y
 _atom_site_fract_z
 _atom_site_occupancy
  Sm  Sm0  1  0.250000  0.878228  0.356459  1
  Sm  Sm1  1  0.750000  0.126244  0.642688  1
  Sm  Sm2  1  0.750000  0.373527  0.141709  1
  Dy  Dy3  1  0.250000  0.620524  0.856218  1
  Co  Co4  1  0.750000  0.939014  0.794345  1
  Co  Co5  1  0.750000  0.560382  0.293718  1
  Co  Co6  1  0.750000  0.388171  0.511902  1
  Co  Co7  1  0.750000  0.113222  0.009472  1
  Co  Co8  1  0.750000  0.320326  0.800229  1
  Co  Co9  1  0.750000  0.180900  0.299367  1
  Co  Co10  1  0.750000  0.639612  0.617656  1
  Co  Co11  1  0.750000  0.861147  0.115534  1
  Si  Si12  1  0.250000  0.078606  0.080458  1
  Si  Si13  1  0.750000  0.915392  0.913235  1
  Si  Si14  1  0.750000  0.579250  0.413872  1
  Si  Si15  1  0.250000  0.422997  0.582673  1
  Si  Si16  1  0.250000  0.663623  0.075833  1
  Si  Si17  1  0.750000  0.348517  0.925393  1
  Si  Si18  1  0.750000  0.154732  0.427003  1
  Si  Si19  1  0.250000  0.835939  0.576673  1
  Si  Si20  1  0.250000  0.370996  0.264664  1
  Si  Si21  1  0.750000  0.627042  0.739544  1
  Si  Si22  1  0.750000  0.873053  0.237266  1
  Si  Si23  1  0.250000  0.129050  0.765442  1
  Ni  Ni24  1  0.250000  0.063638  0.204102  1
  Ni  Ni25  1  0.250000  0.437196  0.705972  1
  Ni  Ni26  1  0.250000  0.622193  0.484163  1
  Ni  Ni27  1  0.250000  0.875353  0.983020  1
  Ni  Ni28  1  0.250000  0.681028  0.201847  1
  Ni  Ni29  1  0.250000  0.818516  0.703295  1
  Ni  Ni30  1  0.250000  0.355373  0.386432  1
  Ni  Ni31  1  0.250000  0.145032  0.886956  1
  Ni  Ni32  1  0.250000  0.373773  0.005198  1
  Ni  Ni33  1  0.750000  0.635184  0.994787  1
  Ni  Ni34  1  0.750000  0.864152  0.496182  1
  Ni  Ni35  1  0.250000  0.128074  0.506692  1
