# generated using pymatgen
data_Rb2Tb3Dy(CuSe4)2
_symmetry_space_group_name_H-M   'P 1'
_cell_length_a   4.14894300
_cell_length_b   7.46168995
_cell_length_c   14.51472414
_cell_angle_alpha   89.98489093
_cell_angle_beta   90.00000000
_cell_angle_gamma   73.85815654
_symmetry_Int_Tables_number   1
_chemical_formula_structural   Rb2Tb3Dy(CuSe4)2
_chemical_formula_sum   'Rb2 Tb3 Dy1 Cu2 Se8'
_cell_volume   431.63369243
_cell_formula_units_Z   1
loop_
 _symmetry_equiv_pos_site_id
 _symmetry_equiv_pos_as_xyz
  1  'x, y, z'
loop_
 _atom_site_type_symbol
 _atom_site_label
 _atom_site_symmetry_multiplicity
 _atom_site_fract_x
 _atom_site_fract_y
 _atom_site_fract_z
 _atom_site_occupancy
  Rb  Rb0  1  0.889560  0.220883  0.249969  1
  Rb  Rb1  1  0.110451  0.779095  0.750047  1
  Tb  Tb2  1  0.633692  0.732619  0.063642  1
  Tb  Tb3  1  0.633792  0.732419  0.436304  1
  Tb  Tb4  1  0.366212  0.267575  0.563837  1
  Dy  Dy5  1  0.366021  0.267957  0.936150  1
  Cu  Cu6  1  0.163104  0.673791  0.250011  1
  Cu  Cu7  1  0.836977  0.326046  0.749914  1
  Se  Se8  1  0.999369  0.001262  0.999668  1
  Se  Se9  1  0.261727  0.476545  0.108789  1
  Se  Se10  1  0.570994  0.858015  0.249960  1
  Se  Se11  1  0.261571  0.476857  0.390848  1
  Se  Se12  1  0.999994  0.000012  0.500008  1
  Se  Se13  1  0.738437  0.523129  0.609130  1
  Se  Se14  1  0.428932  0.142136  0.750594  1
  Se  Se15  1  0.739172  0.521659  0.891131  1
