# generated using pymatgen
data_Nd4Y12CdHg3Pt4
_symmetry_space_group_name_H-M   'P 1'
_cell_length_a   9.78455893
_cell_length_b   9.79582398
_cell_length_c   9.79582400
_cell_angle_alpha   59.99999993
_cell_angle_beta   59.96190761
_cell_angle_gamma   59.96191349
_symmetry_Int_Tables_number   1
_chemical_formula_structural   Nd4Y12CdHg3Pt4
_chemical_formula_sum   'Nd4 Y12 Cd1 Hg3 Pt4'
_cell_volume   663.52597434
_cell_formula_units_Z   1
loop_
 _symmetry_equiv_pos_site_id
 _symmetry_equiv_pos_as_xyz
  1  'x, y, z'
loop_
 _atom_site_type_symbol
 _atom_site_label
 _atom_site_symmetry_multiplicity
 _atom_site_fract_x
 _atom_site_fract_y
 _atom_site_fract_z
 _atom_site_occupancy
  Nd  Nd0  1  0.355562  0.354643  0.354643  1
  Nd  Nd1  1  0.355562  0.354643  0.935152  1
  Nd  Nd2  1  0.355562  0.935152  0.354643  1
  Nd  Nd3  1  0.932621  0.355793  0.355793  1
  Y  Y4  1  0.811180  0.188660  0.188660  1
  Y  Y5  1  0.187544  0.811985  0.811985  1
  Y  Y6  1  0.187544  0.811985  0.188487  1
  Y  Y7  1  0.811180  0.188660  0.811500  1
  Y  Y8  1  0.187544  0.188487  0.811985  1
  Y  Y9  1  0.811180  0.811500  0.188660  1
  Y  Y10  1  0.933537  0.565702  0.565702  1
  Y  Y11  1  0.564763  0.934927  0.934927  1
  Y  Y12  1  0.564763  0.934927  0.565382  1
  Y  Y13  1  0.933537  0.565702  0.935059  1
  Y  Y14  1  0.564763  0.565382  0.934927  1
  Y  Y15  1  0.933537  0.935059  0.565702  1
  Cd  Cd16  1  0.251505  0.582831  0.582831  1
  Hg  Hg17  1  0.586311  0.588641  0.588641  1
  Hg  Hg18  1  0.586311  0.588641  0.236405  1
  Hg  Hg19  1  0.586311  0.236405  0.588641  1
  Pt  Pt20  1  0.141805  0.142225  0.142225  1
  Pt  Pt21  1  0.141805  0.142225  0.573746  1
  Pt  Pt22  1  0.141805  0.573746  0.142225  1
  Pt  Pt23  1  0.573767  0.142077  0.142077  1
