# generated using pymatgen
data_AgF18
_symmetry_space_group_name_H-M   'P 1'
_cell_length_a   6.48870022
_cell_length_b   10.21535422
_cell_length_c   10.87302788
_cell_angle_alpha   93.71230476
_cell_angle_beta   101.65595616
_cell_angle_gamma   72.97734722
_symmetry_Int_Tables_number   1
_chemical_formula_structural   AgF18
_chemical_formula_sum   'Ag2 F36'
_cell_volume   674.91360254
_cell_formula_units_Z   2
loop_
 _symmetry_equiv_pos_site_id
 _symmetry_equiv_pos_as_xyz
  1  'x, y, z'
loop_
 _atom_site_type_symbol
 _atom_site_label
 _atom_site_symmetry_multiplicity
 _atom_site_fract_x
 _atom_site_fract_y
 _atom_site_fract_z
 _atom_site_occupancy
  Ag  Ag0  1  0.747978  0.812865  0.854860  1
  Ag  Ag1  1  0.252022  0.187135  0.145140  1
  F  F2  1  0.334094  0.401581  0.905042  1
  F  F3  1  0.665906  0.598419  0.094958  1
  F  F4  1  0.323961  0.260945  0.585926  1
  F  F5  1  0.676039  0.739055  0.414074  1
  F  F6  1  0.863944  0.227064  0.802322  1
  F  F7  1  0.136056  0.772936  0.197678  1
  F  F8  1  0.718033  0.865823  0.026008  1
  F  F9  1  0.281967  0.134177  0.973992  1
  F  F10  1  0.737705  0.630004  0.886168  1
  F  F11  1  0.262295  0.369996  0.113832  1
  F  F12  1  0.434165  0.453573  0.821066  1
  F  F13  1  0.565835  0.546427  0.178934  1
  F  F14  1  0.766030  0.760761  0.682244  1
  F  F15  1  0.233970  0.239239  0.317756  1
  F  F16  1  0.749187  0.002439  0.503793  1
  F  F17  1  0.250813  0.997561  0.496207  1
  F  F18  1  0.307484  0.181254  0.684295  1
  F  F19  1  0.692516  0.818746  0.315705  1
  F  F20  1  0.816948  0.090720  0.600265  1
  F  F21  1  0.183052  0.909280  0.399735  1
  F  F22  1  0.755729  0.995364  0.822233  1
  F  F23  1  0.244271  0.004636  0.177767  1
  F  F24  1  0.883725  0.361525  0.794690  1
  F  F25  1  0.116275  0.638475  0.205310  1
  F  F26  1  0.076933  0.744297  0.910412  1
  F  F27  1  0.923067  0.255703  0.089588  1
  F  F28  1  0.413250  0.887050  0.795789  1
  F  F29  1  0.586750  0.112950  0.204211  1
  F  F30  1  0.134824  0.741129  0.566453  1
  F  F31  1  0.865176  0.258871  0.433547  1
  F  F32  1  0.204582  0.628245  0.650226  1
  F  F33  1  0.795418  0.371755  0.349774  1
  F  F34  1  0.247375  0.820232  0.852941  1
  F  F35  1  0.752625  0.179768  0.147059  1
  F  F36  1  0.520495  0.441149  0.537210  1
  F  F37  1  0.479505  0.558851  0.462790  1
