# generated using pymatgen
data_LaCe(Tl2Cl5)2
_symmetry_space_group_name_H-M   'P 1'
_cell_length_a   8.42740507
_cell_length_b   8.98675600
_cell_length_c   13.62722100
_cell_angle_alpha   90.00000000
_cell_angle_beta   90.57682208
_cell_angle_gamma   90.00000000
_symmetry_Int_Tables_number   1
_chemical_formula_structural   LaCe(Tl2Cl5)2
_chemical_formula_sum   'La2 Ce2 Tl8 Cl20'
_cell_volume   1032.00573227
_cell_formula_units_Z   2
loop_
 _symmetry_equiv_pos_site_id
 _symmetry_equiv_pos_as_xyz
  1  'x, y, z'
loop_
 _atom_site_type_symbol
 _atom_site_label
 _atom_site_symmetry_multiplicity
 _atom_site_fract_x
 _atom_site_fract_y
 _atom_site_fract_z
 _atom_site_occupancy
  La  La0  1  0.429288  0.250000  0.995622  1
  La  La1  1  0.570712  0.750000  0.004378  1
  Ce  Ce2  1  0.931159  0.750000  0.503718  1
  Ce  Ce3  1  0.068841  0.250000  0.496282  1
  Tl  Tl4  1  0.947308  0.004446  0.826920  1
  Tl  Tl5  1  0.052692  0.995554  0.173080  1
  Tl  Tl6  1  0.447118  0.995230  0.670342  1
  Tl  Tl7  1  0.052692  0.504446  0.173080  1
  Tl  Tl8  1  0.552882  0.004770  0.329658  1
  Tl  Tl9  1  0.947308  0.495554  0.826920  1
  Tl  Tl10  1  0.552882  0.495230  0.329658  1
  Tl  Tl11  1  0.447118  0.504770  0.670342  1
  Cl  Cl12  1  0.116579  0.750000  0.676028  1
  Cl  Cl13  1  0.883421  0.250000  0.323972  1
  Cl  Cl14  1  0.618541  0.250000  0.823721  1
  Cl  Cl15  1  0.381459  0.750000  0.176279  1
  Cl  Cl16  1  0.839416  0.042316  0.570521  1
  Cl  Cl17  1  0.160584  0.957684  0.429479  1
  Cl  Cl18  1  0.339148  0.958444  0.924954  1
  Cl  Cl19  1  0.160584  0.542316  0.429479  1
  Cl  Cl20  1  0.660852  0.041556  0.075046  1
  Cl  Cl21  1  0.839416  0.457684  0.570521  1
  Cl  Cl22  1  0.660852  0.458444  0.075046  1
  Cl  Cl23  1  0.339148  0.541556  0.924954  1
  Cl  Cl24  1  0.593726  0.750000  0.511374  1
  Cl  Cl25  1  0.406274  0.250000  0.488626  1
  Cl  Cl26  1  0.089529  0.250000  0.989306  1
  Cl  Cl27  1  0.910471  0.750000  0.010694  1
  Cl  Cl28  1  0.654861  0.750000  0.802169  1
  Cl  Cl29  1  0.345139  0.250000  0.197831  1
  Cl  Cl30  1  0.156193  0.250000  0.696663  1
  Cl  Cl31  1  0.843807  0.750000  0.303337  1
