# generated using pymatgen
data_Dy12GaCo4Pb
_symmetry_space_group_name_H-M   'P 1'
_cell_length_a   8.34606965
_cell_length_b   8.34607000
_cell_length_c   8.34606976
_cell_angle_alpha   112.06009833
_cell_angle_beta   109.18228930
_cell_angle_gamma   107.20828858
_symmetry_Int_Tables_number   1
_chemical_formula_structural   Dy12GaCo4Pb
_chemical_formula_sum   'Dy12 Ga1 Co4 Pb1'
_cell_volume   446.71692780
_cell_formula_units_Z   1
loop_
 _symmetry_equiv_pos_site_id
 _symmetry_equiv_pos_as_xyz
  1  'x, y, z'
loop_
 _atom_site_type_symbol
 _atom_site_label
 _atom_site_symmetry_multiplicity
 _atom_site_fract_x
 _atom_site_fract_y
 _atom_site_fract_z
 _atom_site_occupancy
  Dy  Dy0  1  0.029949  0.731622  0.298327  1
  Dy  Dy1  1  0.970051  0.268378  0.701673  1
  Dy  Dy2  1  0.566704  0.268378  0.298327  1
  Dy  Dy3  1  0.433296  0.731622  0.701673  1
  Dy  Dy4  1  0.675388  0.860347  0.184958  1
  Dy  Dy5  1  0.324612  0.509571  0.184958  1
  Dy  Dy6  1  0.324612  0.139653  0.815042  1
  Dy  Dy7  1  0.675388  0.490429  0.815042  1
  Dy  Dy8  1  0.179370  0.219113  0.398484  1
  Dy  Dy9  1  0.820630  0.219113  0.039743  1
  Dy  Dy10  1  0.179370  0.780887  0.960257  1
  Dy  Dy11  1  0.820630  0.780887  0.601516  1
  Ga  Ga12  1  0.000000  0.500000  0.500000  1
  Co  Co13  1  0.659913  0.500000  0.159913  1
  Co  Co14  1  0.340087  0.500000  0.840087  1
  Co  Co15  1  0.885901  0.885901  0.000000  1
  Co  Co16  1  0.114099  0.114099  0.000000  1
  Pb  Pb17  1  0.500000  0.000000  0.500000  1
