# generated using pymatgen
data_Tb3Nd3IrCl10
_symmetry_space_group_name_H-M   'P 1'
_cell_length_a   7.29324957
_cell_length_b   9.08516513
_cell_length_c   9.14064131
_cell_angle_alpha   108.94132642
_cell_angle_beta   96.25929528
_cell_angle_gamma   107.55196078
_symmetry_Int_Tables_number   1
_chemical_formula_structural   Tb3Nd3IrCl10
_chemical_formula_sum   'Tb3 Nd3 Ir1 Cl10'
_cell_volume   531.62443819
_cell_formula_units_Z   1
loop_
 _symmetry_equiv_pos_site_id
 _symmetry_equiv_pos_as_xyz
  1  'x, y, z'
loop_
 _atom_site_type_symbol
 _atom_site_label
 _atom_site_symmetry_multiplicity
 _atom_site_fract_x
 _atom_site_fract_y
 _atom_site_fract_z
 _atom_site_occupancy
  Tb  Tb0  1  0.974863  0.311942  0.103628  1
  Tb  Tb1  1  0.022652  0.687130  0.893957  1
  Tb  Tb2  1  0.627495  0.851212  0.806724  1
  Nd  Nd3  1  0.379859  0.153448  0.198727  1
  Nd  Nd4  1  0.137754  0.054798  0.753188  1
  Nd  Nd5  1  0.857523  0.942309  0.245340  1
  Ir  Ir6  1  0.999094  0.999371  0.000180  1
  Cl  Cl7  1  0.557362  0.168564  0.924169  1
  Cl  Cl8  1  0.443785  0.824060  0.065439  1
  Cl  Cl9  1  0.747682  0.916031  0.552205  1
  Cl  Cl10  1  0.243178  0.079342  0.452461  1
  Cl  Cl11  1  0.084367  0.374874  0.843243  1
  Cl  Cl12  1  0.914741  0.624389  0.155461  1
  Cl  Cl13  1  0.207650  0.740814  0.657290  1
  Cl  Cl14  1  0.808183  0.263126  0.348907  1
  Cl  Cl15  1  0.644710  0.543839  0.724483  1
  Cl  Cl16  1  0.349101  0.464750  0.274599  1
