# generated using pymatgen
data_Cs2Tm7BBr18
_symmetry_space_group_name_H-M   'P 1'
_cell_length_a   10.59915136
_cell_length_b   10.59915086
_cell_length_c   11.47335282
_cell_angle_alpha   117.50997489
_cell_angle_beta   62.49002865
_cell_angle_gamma   120.00000067
_symmetry_Int_Tables_number   1
_chemical_formula_structural   Cs2Tm7BBr18
_chemical_formula_sum   'Cs2 Tm7 B1 Br18'
_cell_volume   944.22676517
_cell_formula_units_Z   1
loop_
 _symmetry_equiv_pos_site_id
 _symmetry_equiv_pos_as_xyz
  1  'x, y, z'
loop_
 _atom_site_type_symbol
 _atom_site_label
 _atom_site_symmetry_multiplicity
 _atom_site_fract_x
 _atom_site_fract_y
 _atom_site_fract_z
 _atom_site_occupancy
  Cs  Cs0  1  0.222118  0.777882  0.333650  1
  Cs  Cs1  1  0.777883  0.222117  0.666350  1
  Tm  Tm2  1  0.778825  0.107090  0.154588  1
  Tm  Tm3  1  0.892909  0.826324  0.154588  1
  Tm  Tm4  1  0.173677  0.221175  0.154588  1
  Tm  Tm5  1  0.500000  0.500000  0.500000  1
  Tm  Tm6  1  0.826324  0.778826  0.845412  1
  Tm  Tm7  1  0.107090  0.173675  0.845412  1
  Tm  Tm8  1  0.221174  0.892908  0.845412  1
  B  B9  1  0.000000  0.000000  0.000000  1
  Br  Br10  1  0.286064  0.422955  0.007061  1
  Br  Br11  1  0.577043  0.870170  0.007061  1
  Br  Br12  1  0.129831  0.713937  0.007061  1
  Br  Br13  1  0.946112  0.347641  0.332756  1
  Br  Br14  1  0.068774  0.053888  0.332756  1
  Br  Br15  1  0.652358  0.931226  0.332756  1
  Br  Br16  1  0.524933  0.215041  0.334151  1
  Br  Br17  1  0.784958  0.644044  0.334151  1
  Br  Br18  1  0.355956  0.475066  0.334151  1
  Br  Br19  1  0.644044  0.524934  0.665849  1
  Br  Br20  1  0.215043  0.355958  0.665849  1
  Br  Br21  1  0.475066  0.784958  0.665849  1
  Br  Br22  1  0.347641  0.068773  0.667243  1
  Br  Br23  1  0.931227  0.946111  0.667243  1
  Br  Br24  1  0.053888  0.652358  0.667243  1
  Br  Br25  1  0.870171  0.286064  0.992939  1
  Br  Br26  1  0.422955  0.129829  0.992939  1
  Br  Br27  1  0.713936  0.577045  0.992939  1
