# generated using pymatgen
data_V3Mo4W
_symmetry_space_group_name_H-M   'P 1'
_cell_length_a   5.38857050
_cell_length_b   5.38857075
_cell_length_c   4.39041400
_cell_angle_alpha   90.00000000
_cell_angle_beta   90.00000000
_cell_angle_gamma   109.69840447
_symmetry_Int_Tables_number   1
_chemical_formula_structural   V3Mo4W
_chemical_formula_sum   'V3 Mo4 W1'
_cell_volume   120.02278501
_cell_formula_units_Z   1
loop_
 _symmetry_equiv_pos_site_id
 _symmetry_equiv_pos_as_xyz
  1  'x, y, z'
loop_
 _atom_site_type_symbol
 _atom_site_label
 _atom_site_symmetry_multiplicity
 _atom_site_fract_x
 _atom_site_fract_y
 _atom_site_fract_z
 _atom_site_occupancy
  V  V0  1  0.875326  0.124674  0.000000  1
  V  V1  1  0.625716  0.374284  0.500000  1
  V  V2  1  0.123906  0.876094  0.500000  1
  Mo  Mo3  1  0.629215  0.879385  0.500000  1
  Mo  Mo4  1  0.120615  0.370785  0.500000  1
  Mo  Mo5  1  0.374925  0.124767  0.000000  1
  Mo  Mo6  1  0.875233  0.625075  0.000000  1
  W  W7  1  0.375064  0.624936  0.000000  1
