# generated using pymatgen
data_CaHo3U4(ReB6)4
_symmetry_space_group_name_H-M   'P 1'
_cell_length_a   3.63721600
_cell_length_b   9.29286761
_cell_length_c   11.41422342
_cell_angle_alpha   90.00783653
_cell_angle_beta   90.00000000
_cell_angle_gamma   90.00000000
_symmetry_Int_Tables_number   1
_chemical_formula_structural   CaHo3U4(ReB6)4
_chemical_formula_sum   'Ca1 Ho3 U4 Re4 B24'
_cell_volume   385.80265148
_cell_formula_units_Z   1
loop_
 _symmetry_equiv_pos_site_id
 _symmetry_equiv_pos_as_xyz
  1  'x, y, z'
loop_
 _atom_site_type_symbol
 _atom_site_label
 _atom_site_symmetry_multiplicity
 _atom_site_fract_x
 _atom_site_fract_y
 _atom_site_fract_z
 _atom_site_occupancy
  Ca  Ca0  1  0.000000  0.162010  0.908379  1
  Ho  Ho1  1  0.000000  0.337248  0.408319  1
  Ho  Ho2  1  0.000000  0.662758  0.592241  1
  Ho  Ho3  1  0.000000  0.837769  0.091420  1
  U  U4  1  0.000000  0.956780  0.396316  1
  U  U5  1  0.000000  0.043738  0.604557  1
  U  U6  1  0.000000  0.455465  0.103672  1
  U  U7  1  0.000000  0.543085  0.895673  1
  Re  Re8  1  0.000000  0.646160  0.318211  1
  Re  Re9  1  0.000000  0.355133  0.680506  1
  Re  Re10  1  0.000000  0.146204  0.183418  1
  Re  Re11  1  0.000000  0.851720  0.817556  1
  B  B12  1  0.500000  0.552206  0.430708  1
  B  B13  1  0.500000  0.448429  0.568360  1
  B  B14  1  0.500000  0.052081  0.069653  1
  B  B15  1  0.500000  0.947080  0.930801  1
  B  B16  1  0.500000  0.743447  0.422798  1
  B  B17  1  0.500000  0.257266  0.576831  1
  B  B18  1  0.500000  0.243484  0.078070  1
  B  B19  1  0.500000  0.756222  0.922760  1
  B  B20  1  0.500000  0.802547  0.274867  1
  B  B21  1  0.500000  0.198211  0.724417  1
  B  B22  1  0.500000  0.302429  0.225519  1
  B  B23  1  0.500000  0.696844  0.774830  1
  B  B24  1  0.500000  0.644598  0.188322  1
  B  B25  1  0.500000  0.356628  0.810739  1
  B  B26  1  0.500000  0.144522  0.312028  1
  B  B27  1  0.500000  0.854853  0.688569  1
  B  B28  1  0.500000  0.989469  0.219656  1
  B  B29  1  0.500000  0.009483  0.780554  1
  B  B30  1  0.500000  0.489587  0.280553  1
  B  B31  1  0.500000  0.510806  0.718844  1
  B  B32  1  0.500000  0.639438  0.038724  1
  B  B33  1  0.500000  0.362439  0.961690  1
  B  B34  1  0.500000  0.139982  0.461609  1
  B  B35  1  0.500000  0.859878  0.538830  1
