# generated using pymatgen
data_Li8DyY7(SnBi)4
_symmetry_space_group_name_H-M   'P 1'
_cell_length_a   9.53636600
_cell_length_b   9.53558635
_cell_length_c   7.22593875
_cell_angle_alpha   89.92314040
_cell_angle_beta   90.00000000
_cell_angle_gamma   120.00270471
_symmetry_Int_Tables_number   1
_chemical_formula_structural   Li8DyY7(SnBi)4
_chemical_formula_sum   'Li8 Dy1 Y7 Sn4 Bi4'
_cell_volume   569.04008874
_cell_formula_units_Z   1
loop_
 _symmetry_equiv_pos_site_id
 _symmetry_equiv_pos_as_xyz
  1  'x, y, z'
loop_
 _atom_site_type_symbol
 _atom_site_label
 _atom_site_symmetry_multiplicity
 _atom_site_fract_x
 _atom_site_fract_y
 _atom_site_fract_z
 _atom_site_occupancy
  Li  Li0  1  0.167154  0.334309  0.267411  1
  Li  Li1  1  0.170922  0.834165  0.277267  1
  Li  Li2  1  0.663243  0.834165  0.277267  1
  Li  Li3  1  0.831635  0.663269  0.777598  1
  Li  Li4  1  0.830303  0.168425  0.785390  1
  Li  Li5  1  0.338122  0.168425  0.785390  1
  Li  Li6  1  0.334081  0.668162  0.678387  1
  Li  Li7  1  0.664677  0.329354  0.185739  1
  Dy  Dy8  1  0.001914  0.003828  0.006077  1
  Y  Y9  1  0.513531  0.027061  0.490932  1
  Y  Y10  1  0.505801  0.483845  0.491446  1
  Y  Y11  1  0.978045  0.483845  0.491446  1
  Y  Y12  1  0.491947  0.983894  0.999836  1
  Y  Y13  1  0.488969  0.505744  0.996904  1
  Y  Y14  1  0.016773  0.505744  0.996904  1
  Y  Y15  1  0.003129  0.006258  0.496406  1
  Sn  Sn16  1  0.833907  0.166261  0.236033  1
  Sn  Sn17  1  0.332354  0.166261  0.236033  1
  Sn  Sn18  1  0.332809  0.665620  0.257111  1
  Sn  Sn19  1  0.667330  0.334659  0.759022  1
  Bi  Bi20  1  0.166591  0.333182  0.738340  1
  Bi  Bi21  1  0.166065  0.833320  0.736462  1
  Bi  Bi22  1  0.667255  0.833320  0.736462  1
  Bi  Bi23  1  0.833441  0.666883  0.238132  1
