# generated using pymatgen
data_Hf18Ta2FeCoRe6
_symmetry_space_group_name_H-M   'P 1'
_cell_length_a   8.64732200
_cell_length_b   8.64732018
_cell_length_c   8.44330600
_cell_angle_alpha   90.00000000
_cell_angle_beta   90.00000000
_cell_angle_gamma   119.99999932
_symmetry_Int_Tables_number   1
_chemical_formula_structural   Hf18Ta2FeCoRe6
_chemical_formula_sum   'Hf18 Ta2 Fe1 Co1 Re6'
_cell_volume   546.77208570
_cell_formula_units_Z   1
loop_
 _symmetry_equiv_pos_site_id
 _symmetry_equiv_pos_as_xyz
  1  'x, y, z'
loop_
 _atom_site_type_symbol
 _atom_site_label
 _atom_site_symmetry_multiplicity
 _atom_site_fract_x
 _atom_site_fract_y
 _atom_site_fract_z
 _atom_site_occupancy
  Hf  Hf0  1  0.201734  0.798266  0.439945  1
  Hf  Hf1  1  0.201734  0.403469  0.439945  1
  Hf  Hf2  1  0.596531  0.798266  0.439945  1
  Hf  Hf3  1  0.798722  0.201278  0.559633  1
  Hf  Hf4  1  0.798722  0.597443  0.559633  1
  Hf  Hf5  1  0.402557  0.201278  0.559633  1
  Hf  Hf6  1  0.798722  0.201278  0.940367  1
  Hf  Hf7  1  0.798722  0.597443  0.940367  1
  Hf  Hf8  1  0.402557  0.201278  0.940367  1
  Hf  Hf9  1  0.201734  0.798266  0.060055  1
  Hf  Hf10  1  0.201734  0.403469  0.060055  1
  Hf  Hf11  1  0.596531  0.798266  0.060055  1
  Hf  Hf12  1  0.541586  0.458414  0.250000  1
  Hf  Hf13  1  0.541586  0.083171  0.250000  1
  Hf  Hf14  1  0.916829  0.458414  0.250000  1
  Hf  Hf15  1  0.458103  0.541897  0.750000  1
  Hf  Hf16  1  0.458103  0.916208  0.750000  1
  Hf  Hf17  1  0.083792  0.541897  0.750000  1
  Ta  Ta18  1  0.000000  0.000000  0.499872  1
  Ta  Ta19  1  0.000000  0.000000  0.000128  1
  Fe  Fe20  1  0.333333  0.666667  0.250000  1
  Co  Co21  1  0.666667  0.333333  0.750000  1
  Re  Re22  1  0.885756  0.114244  0.250000  1
  Re  Re23  1  0.885756  0.771514  0.250000  1
  Re  Re24  1  0.228486  0.114244  0.250000  1
  Re  Re25  1  0.114269  0.885731  0.750000  1
  Re  Re26  1  0.114269  0.228536  0.750000  1
  Re  Re27  1  0.771464  0.885731  0.750000  1
