# generated using pymatgen
data_CaSc6Co6Sn23
_symmetry_space_group_name_H-M   'P 1'
_cell_length_a   9.56820400
_cell_length_b   9.56820250
_cell_length_c   9.79253100
_cell_angle_alpha   90.00000000
_cell_angle_beta   90.00000000
_cell_angle_gamma   120.00000519
_symmetry_Int_Tables_number   1
_chemical_formula_structural   CaSc6Co6Sn23
_chemical_formula_sum   'Ca1 Sc6 Co6 Sn23'
_cell_volume   776.40146874
_cell_formula_units_Z   1
loop_
 _symmetry_equiv_pos_site_id
 _symmetry_equiv_pos_as_xyz
  1  'x, y, z'
loop_
 _atom_site_type_symbol
 _atom_site_label
 _atom_site_symmetry_multiplicity
 _atom_site_fract_x
 _atom_site_fract_y
 _atom_site_fract_z
 _atom_site_occupancy
  Ca  Ca0  1  0.000000  0.000000  0.000000  1
  Sc  Sc1  1  0.482293  0.517707  0.307752  1
  Sc  Sc2  1  0.517707  0.482293  0.692248  1
  Sc  Sc3  1  0.482293  0.964587  0.307752  1
  Sc  Sc4  1  0.517707  0.035413  0.692248  1
  Sc  Sc5  1  0.035413  0.517707  0.307752  1
  Sc  Sc6  1  0.964587  0.482293  0.692248  1
  Co  Co7  1  0.829784  0.170216  0.200201  1
  Co  Co8  1  0.170216  0.829784  0.799799  1
  Co  Co9  1  0.829784  0.659569  0.200201  1
  Co  Co10  1  0.170216  0.340431  0.799799  1
  Co  Co11  1  0.340431  0.170216  0.200201  1
  Co  Co12  1  0.659569  0.829784  0.799799  1
  Sn  Sn13  1  0.121403  0.878597  0.275963  1
  Sn  Sn14  1  0.878597  0.121403  0.724037  1
  Sn  Sn15  1  0.121403  0.242807  0.275963  1
  Sn  Sn16  1  0.878597  0.757193  0.724037  1
  Sn  Sn17  1  0.757193  0.878597  0.275963  1
  Sn  Sn18  1  0.242807  0.121403  0.724037  1
  Sn  Sn19  1  0.779488  0.220512  0.454289  1
  Sn  Sn20  1  0.220512  0.779488  0.545711  1
  Sn  Sn21  1  0.779488  0.558976  0.454289  1
  Sn  Sn22  1  0.220512  0.441024  0.545711  1
  Sn  Sn23  1  0.441024  0.220512  0.454289  1
  Sn  Sn24  1  0.558976  0.779488  0.545711  1
  Sn  Sn25  1  0.347681  0.000000  0.000000  1
  Sn  Sn26  1  0.652319  0.000000  0.000000  1
  Sn  Sn27  1  0.000000  0.347681  0.000000  1
  Sn  Sn28  1  0.000000  0.652319  0.000000  1
  Sn  Sn29  1  0.652319  0.652319  0.000000  1
  Sn  Sn30  1  0.347681  0.347681  0.000000  1
  Sn  Sn31  1  0.333333  0.666667  0.135219  1
  Sn  Sn32  1  0.666667  0.333333  0.864781  1
  Sn  Sn33  1  0.333333  0.666667  0.820570  1
  Sn  Sn34  1  0.666667  0.333333  0.179430  1
  Sn  Sn35  1  0.000000  0.000000  0.500000  1
