# generated using pymatgen
data_NdEr3IrRh3O14
_symmetry_space_group_name_H-M   'P 1'
_cell_length_a   7.29032114
_cell_length_b   7.21015357
_cell_length_c   7.21015300
_cell_angle_alpha   59.99999804
_cell_angle_beta   60.36309551
_cell_angle_gamma   60.36310186
_symmetry_Int_Tables_number   1
_chemical_formula_structural   NdEr3IrRh3O14
_chemical_formula_sum   'Nd1 Er3 Ir1 Rh3 O14'
_cell_volume   269.45266623
_cell_formula_units_Z   1
loop_
 _symmetry_equiv_pos_site_id
 _symmetry_equiv_pos_as_xyz
  1  'x, y, z'
loop_
 _atom_site_type_symbol
 _atom_site_label
 _atom_site_symmetry_multiplicity
 _atom_site_fract_x
 _atom_site_fract_y
 _atom_site_fract_z
 _atom_site_occupancy
  Nd  Nd0  1  0.625000  0.125000  0.125000  1
  Er  Er1  1  0.125000  0.625000  0.125000  1
  Er  Er2  1  0.125000  0.125000  0.625000  1
  Er  Er3  1  0.125000  0.125000  0.125000  1
  Ir  Ir4  1  0.125000  0.625000  0.625000  1
  Rh  Rh5  1  0.625000  0.125000  0.625000  1
  Rh  Rh6  1  0.625000  0.625000  0.125000  1
  Rh  Rh7  1  0.625000  0.625000  0.625000  1
  O  O8  1  0.724573  0.701133  0.287147  1
  O  O9  1  0.286479  0.291518  0.711002  1
  O  O10  1  0.724573  0.287147  0.701133  1
  O  O11  1  0.286479  0.711002  0.291518  1
  O  O12  1  0.286479  0.711002  0.711002  1
  O  O13  1  0.724573  0.287147  0.287147  1
  O  O14  1  0.525427  0.548867  0.962853  1
  O  O15  1  0.963521  0.958482  0.538998  1
  O  O16  1  0.525427  0.962853  0.548867  1
  O  O17  1  0.963521  0.538998  0.958482  1
  O  O18  1  0.963521  0.538998  0.538998  1
  O  O19  1  0.525427  0.962853  0.962853  1
  O  O20  1  0.237591  0.254137  0.254137  1
  O  O21  1  0.012409  0.995863  0.995863  1
