# generated using pymatgen
data_HfZr7Fe4(CoP)12
_symmetry_space_group_name_H-M   'P 1'
_cell_length_a   12.13881210
_cell_length_b   12.14701284
_cell_length_c   3.67415400
_cell_angle_alpha   90.00000000
_cell_angle_beta   90.00000000
_cell_angle_gamma   120.16113907
_symmetry_Int_Tables_number   1
_chemical_formula_structural   HfZr7Fe4(CoP)12
_chemical_formula_sum   'Hf1 Zr7 Fe4 Co12 P12'
_cell_volume   468.41003549
_cell_formula_units_Z   1
loop_
 _symmetry_equiv_pos_site_id
 _symmetry_equiv_pos_as_xyz
  1  'x, y, z'
loop_
 _atom_site_type_symbol
 _atom_site_label
 _atom_site_symmetry_multiplicity
 _atom_site_fract_x
 _atom_site_fract_y
 _atom_site_fract_z
 _atom_site_occupancy
  Hf  Hf0  1  0.999171  0.557008  0.000000  1
  Zr  Zr1  1  0.820910  0.819862  0.500000  1
  Zr  Zr2  1  0.442906  0.442678  0.000000  1
  Zr  Zr3  1  0.001780  0.180633  0.500000  1
  Zr  Zr4  1  0.556120  0.998926  0.000000  1
  Zr  Zr5  1  0.333421  0.666348  0.000000  1
  Zr  Zr6  1  0.664906  0.333160  0.000000  1
  Zr  Zr7  1  0.179653  0.999961  0.500000  1
  Fe  Fe8  1  0.628562  0.822607  0.000000  1
  Fe  Fe9  1  0.373532  0.193731  0.000000  1
  Fe  Fe10  1  0.000397  0.722054  0.500000  1
  Fe  Fe11  1  0.275640  0.278391  0.500000  1
  Co  Co12  1  0.873718  0.355500  0.500000  1
  Co  Co13  1  0.725102  0.002762  0.500000  1
  Co  Co14  1  0.820474  0.627686  0.000000  1
  Co  Co15  1  0.179950  0.806717  0.000000  1
  Co  Co16  1  0.355419  0.871664  0.500000  1
  Co  Co17  1  0.124690  0.480823  0.500000  1
  Co  Co18  1  0.645337  0.518059  0.500000  1
  Co  Co19  1  0.000612  0.000703  0.000000  1
  Co  Co20  1  0.519362  0.644509  0.500000  1
  Co  Co21  1  0.480807  0.124048  0.500000  1
  Co  Co22  1  0.191883  0.373393  0.000000  1
  Co  Co23  1  0.807222  0.179154  0.000000  1
  P  P24  1  0.999945  0.347812  0.000000  1
  P  P25  1  0.827519  0.520334  0.500000  1
  P  P26  1  0.691757  0.174288  0.500000  1
  P  P27  1  0.179487  0.177495  0.000000  1
  P  P28  1  0.652861  0.654598  0.000000  1
  P  P29  1  0.823118  0.998595  0.000000  1
  P  P30  1  0.520556  0.825550  0.500000  1
  P  P31  1  0.171875  0.691708  0.500000  1
  P  P32  1  0.346970  0.001625  0.000000  1
  P  P33  1  0.477139  0.304288  0.500000  1
  P  P34  1  0.000460  0.823244  0.000000  1
  P  P35  1  0.306739  0.480085  0.500000  1
