# generated using pymatgen
data_Rb4Na2HoInP4
_symmetry_space_group_name_H-M   'P 1'
_cell_length_a   9.26845816
_cell_length_b   9.26845860
_cell_length_c   9.26845809
_cell_angle_alpha   136.08109677
_cell_angle_beta   62.75595746
_cell_angle_gamma   137.51542725
_symmetry_Int_Tables_number   1
_chemical_formula_structural   Rb4Na2HoInP4
_chemical_formula_sum   'Rb4 Na2 Ho1 In1 P4'
_cell_volume   368.39269990
_cell_formula_units_Z   1
loop_
 _symmetry_equiv_pos_site_id
 _symmetry_equiv_pos_as_xyz
  1  'x, y, z'
loop_
 _atom_site_type_symbol
 _atom_site_label
 _atom_site_symmetry_multiplicity
 _atom_site_fract_x
 _atom_site_fract_y
 _atom_site_fract_z
 _atom_site_occupancy
  Rb  Rb0  1  0.329474  0.777689  0.090496  1
  Rb  Rb1  1  0.170526  0.261022  0.448215  1
  Rb  Rb2  1  0.812806  0.722310  0.551786  1
  Rb  Rb3  1  0.687194  0.238979  0.909505  1
  Na  Na4  1  0.750001  0.250001  0.500000  1
  Na  Na5  1  0.250001  0.750001  0.500000  1
  Ho  Ho6  1  0.250001  0.250001  0.000000  1
  In  In7  1  0.750000  0.750000  0.000000  1
  P  P8  1  0.900071  0.212389  0.123318  1
  P  P9  1  0.599928  0.723246  0.312316  1
  P  P10  1  0.410929  0.287611  0.687683  1
  P  P11  1  0.089071  0.776754  0.876682  1
