# generated using pymatgen
data_DyHo7Sc11Si16Tc
_symmetry_space_group_name_H-M   'P 1'
_cell_length_a   7.01290343
_cell_length_b   7.34318622
_cell_length_c   13.88632810
_cell_angle_alpha   90.01297293
_cell_angle_beta   89.99454200
_cell_angle_gamma   90.13597852
_symmetry_Int_Tables_number   1
_chemical_formula_structural   DyHo7Sc11Si16Tc
_chemical_formula_sum   'Dy1 Ho7 Sc11 Si16 Tc1'
_cell_volume   715.10297837
_cell_formula_units_Z   1
loop_
 _symmetry_equiv_pos_site_id
 _symmetry_equiv_pos_as_xyz
  1  'x, y, z'
loop_
 _atom_site_type_symbol
 _atom_site_label
 _atom_site_symmetry_multiplicity
 _atom_site_fract_x
 _atom_site_fract_y
 _atom_site_fract_z
 _atom_site_occupancy
  Dy  Dy0  1  0.487668  0.672309  0.598285  1
  Ho  Ho1  1  0.011642  0.177318  0.093675  1
  Ho  Ho2  1  0.993102  0.818416  0.900667  1
  Ho  Ho3  1  0.487541  0.672410  0.901575  1
  Ho  Ho4  1  0.993124  0.818448  0.599367  1
  Ho  Ho5  1  0.511156  0.323687  0.095549  1
  Ho  Ho6  1  0.011653  0.177330  0.406290  1
  Ho  Ho7  1  0.511160  0.323676  0.404408  1
  Sc  Sc8  1  0.840807  0.496232  0.249987  1
  Sc  Sc9  1  0.341426  0.003723  0.249993  1
  Sc  Sc10  1  0.657961  0.995950  0.750047  1
  Sc  Sc11  1  0.326325  0.178683  0.627446  1
  Sc  Sc12  1  0.671788  0.823962  0.374730  1
  Sc  Sc13  1  0.171777  0.674758  0.376599  1
  Sc  Sc14  1  0.671758  0.823892  0.125220  1
  Sc  Sc15  1  0.828645  0.330682  0.628306  1
  Sc  Sc16  1  0.326381  0.178726  0.872592  1
  Sc  Sc17  1  0.828560  0.330750  0.871755  1
  Sc  Sc18  1  0.171817  0.674770  0.123362  1
  Si  Si19  1  0.029844  0.120110  0.750019  1
  Si  Si20  1  0.971744  0.885563  0.249994  1
  Si  Si21  1  0.468257  0.616419  0.249983  1
  Si  Si22  1  0.520247  0.393672  0.750114  1
  Si  Si23  1  0.285221  0.863816  0.750131  1
  Si  Si24  1  0.716150  0.129177  0.249997  1
  Si  Si25  1  0.214058  0.371334  0.249997  1
  Si  Si26  1  0.795225  0.628804  0.750095  1
  Si  Si27  1  0.156109  0.465809  0.547034  1
  Si  Si28  1  0.842593  0.535475  0.463078  1
  Si  Si29  1  0.345258  0.965103  0.463246  1
  Si  Si30  1  0.842499  0.535483  0.036882  1
  Si  Si31  1  0.657962  0.034667  0.540015  1
  Si  Si32  1  0.156470  0.466014  0.952908  1
  Si  Si33  1  0.657880  0.034414  0.959938  1
  Si  Si34  1  0.345320  0.964902  0.036678  1
  Tc  Tc35  1  0.150874  0.493516  0.750039  1
