# generated using pymatgen
data_Nd2DyV(Co4P3)2
_symmetry_space_group_name_H-M   'P 1'
_cell_length_a   3.73873200
_cell_length_b   10.65642800
_cell_length_c   12.37000600
_cell_angle_alpha   90.00000000
_cell_angle_beta   90.00000000
_cell_angle_gamma   90.00000000
_symmetry_Int_Tables_number   1
_chemical_formula_structural   Nd2DyV(Co4P3)2
_chemical_formula_sum   'Nd4 Dy2 V2 Co16 P12'
_cell_volume   492.83994498
_cell_formula_units_Z   2
loop_
 _symmetry_equiv_pos_site_id
 _symmetry_equiv_pos_as_xyz
  1  'x, y, z'
loop_
 _atom_site_type_symbol
 _atom_site_label
 _atom_site_symmetry_multiplicity
 _atom_site_fract_x
 _atom_site_fract_y
 _atom_site_fract_z
 _atom_site_occupancy
  Nd  Nd0  1  0.000000  0.500000  0.522287  1
  Nd  Nd1  1  0.500000  0.000000  0.476213  1
  Nd  Nd2  1  0.000000  0.681484  0.795434  1
  Nd  Nd3  1  0.000000  0.318516  0.795434  1
  Dy  Dy4  1  0.500000  0.819014  0.203864  1
  Dy  Dy5  1  0.500000  0.180986  0.203864  1
  V  V6  1  0.500000  0.500000  0.152414  1
  V  V7  1  0.000000  0.000000  0.848709  1
  Co  Co8  1  0.500000  0.500000  0.703410  1
  Co  Co9  1  0.000000  0.000000  0.294852  1
  Co  Co10  1  0.000000  0.500000  0.990366  1
  Co  Co11  1  0.500000  0.000000  0.015114  1
  Co  Co12  1  0.500000  0.331415  0.996371  1
  Co  Co13  1  0.500000  0.668585  0.996371  1
  Co  Co14  1  0.000000  0.166645  0.009008  1
  Co  Co15  1  0.000000  0.833355  0.009008  1
  Co  Co16  1  0.500000  0.294964  0.427814  1
  Co  Co17  1  0.500000  0.705036  0.427814  1
  Co  Co18  1  0.000000  0.203872  0.567271  1
  Co  Co19  1  0.000000  0.796128  0.567271  1
  Co  Co20  1  0.500000  0.880798  0.708697  1
  Co  Co21  1  0.500000  0.119202  0.708697  1
  Co  Co22  1  0.000000  0.620833  0.289418  1
  Co  Co23  1  0.000000  0.379167  0.289418  1
  P  P24  1  0.500000  0.500000  0.887839  1
  P  P25  1  0.000000  0.000000  0.117943  1
  P  P26  1  0.500000  0.500000  0.342004  1
  P  P27  1  0.000000  0.000000  0.657402  1
  P  P28  1  0.500000  0.306545  0.613004  1
  P  P29  1  0.500000  0.693455  0.613004  1
  P  P30  1  0.000000  0.191484  0.381348  1
  P  P31  1  0.000000  0.808516  0.381348  1
  P  P32  1  0.500000  0.848270  0.895282  1
  P  P33  1  0.500000  0.151730  0.895282  1
  P  P34  1  0.000000  0.654828  0.108214  1
  P  P35  1  0.000000  0.345172  0.108214  1
