# generated using pymatgen
data_BeV6Si5W4
_symmetry_space_group_name_H-M   'P 1'
_cell_length_a   7.12270520
_cell_length_b   7.12245472
_cell_length_c   7.12278690
_cell_angle_alpha   96.35213038
_cell_angle_beta   96.35144394
_cell_angle_gamma   141.14790929
_symmetry_Int_Tables_number   1
_chemical_formula_structural   BeV6Si5W4
_chemical_formula_sum   'Be1 V6 Si5 W4'
_cell_volume   213.76903626
_cell_formula_units_Z   1
loop_
 _symmetry_equiv_pos_site_id
 _symmetry_equiv_pos_as_xyz
  1  'x, y, z'
loop_
 _atom_site_type_symbol
 _atom_site_label
 _atom_site_symmetry_multiplicity
 _atom_site_fract_x
 _atom_site_fract_y
 _atom_site_fract_z
 _atom_site_occupancy
  Be  Be0  1  0.747218  0.747278  0.000047  1
  V  V1  1  0.728223  0.579867  0.297523  1
  V  V2  1  0.282389  0.430684  0.702494  1
  V  V3  1  0.749306  0.249302  0.499977  1
  V  V4  1  0.249360  0.749338  0.499995  1
  V  V5  1  0.579888  0.282365  0.851661  1
  V  V6  1  0.430726  0.728268  0.148358  1
  Si  Si7  1  0.259143  0.259190  0.000049  1
  Si  Si8  1  0.336341  0.167800  0.506710  1
  Si  Si9  1  0.829579  0.336288  0.168594  1
  Si  Si10  1  0.167795  0.661007  0.831453  1
  Si  Si11  1  0.661001  0.829589  0.493180  1
  W  W12  1  0.771533  0.068154  0.850183  1
  W  W13  1  0.921384  0.771580  0.703347  1
  W  W14  1  0.068116  0.217958  0.296621  1
  W  W15  1  0.218002  0.921331  0.149806  1
