# generated using pymatgen
data_Nd2Si7(Ir3Rh)3
_symmetry_space_group_name_H-M   'P 1'
_cell_length_a   9.79761800
_cell_length_b   9.79761783
_cell_length_c   3.91262600
_cell_angle_alpha   90.00000000
_cell_angle_beta   90.00000000
_cell_angle_gamma   120.00001095
_symmetry_Int_Tables_number   1
_chemical_formula_structural   Nd2Si7(Ir3Rh)3
_chemical_formula_sum   'Nd2 Si7 Ir9 Rh3'
_cell_volume   325.26693562
_cell_formula_units_Z   1
loop_
 _symmetry_equiv_pos_site_id
 _symmetry_equiv_pos_as_xyz
  1  'x, y, z'
loop_
 _atom_site_type_symbol
 _atom_site_label
 _atom_site_symmetry_multiplicity
 _atom_site_fract_x
 _atom_site_fract_y
 _atom_site_fract_z
 _atom_site_occupancy
  Nd  Nd0  1  0.333333  0.666667  0.741083  1
  Nd  Nd1  1  0.666667  0.333333  0.240968  1
  Si  Si2  1  0.000000  0.000000  0.688049  1
  Si  Si3  1  0.886578  0.596579  0.741518  1
  Si  Si4  1  0.403421  0.289999  0.741518  1
  Si  Si5  1  0.710001  0.113422  0.741518  1
  Si  Si6  1  0.110426  0.399629  0.239920  1
  Si  Si7  1  0.600371  0.710796  0.239920  1
  Si  Si8  1  0.289204  0.889574  0.239920  1
  Ir  Ir9  1  0.622972  0.559139  0.740729  1
  Ir  Ir10  1  0.440861  0.063833  0.740729  1
  Ir  Ir11  1  0.936167  0.377028  0.740729  1
  Ir  Ir12  1  0.384299  0.440911  0.239897  1
  Ir  Ir13  1  0.559089  0.943386  0.239897  1
  Ir  Ir14  1  0.056614  0.615701  0.239897  1
  Ir  Ir15  1  0.120447  0.848537  0.738785  1
  Ir  Ir16  1  0.151463  0.271910  0.738785  1
  Ir  Ir17  1  0.728090  0.879553  0.738785  1
  Rh  Rh18  1  0.891796  0.135086  0.242451  1
  Rh  Rh19  1  0.864914  0.756710  0.242451  1
  Rh  Rh20  1  0.243290  0.108204  0.242451  1
