# generated using pymatgen
data_LiMnGaO4
_symmetry_space_group_name_H-M   'P 1'
_cell_length_a   5.89752637
_cell_length_b   5.89752610
_cell_length_c   5.89752672
_cell_angle_alpha   120.69644183
_cell_angle_beta   119.96894596
_cell_angle_gamma   89.42589148
_symmetry_Int_Tables_number   1
_chemical_formula_structural   LiMnGaO4
_chemical_formula_sum   'Li2 Mn2 Ga2 O8'
_cell_volume   144.29770786
_cell_formula_units_Z   2
loop_
 _symmetry_equiv_pos_site_id
 _symmetry_equiv_pos_as_xyz
  1  'x, y, z'
loop_
 _atom_site_type_symbol
 _atom_site_label
 _atom_site_symmetry_multiplicity
 _atom_site_fract_x
 _atom_site_fract_y
 _atom_site_fract_z
 _atom_site_occupancy
  Li  Li0  1  0.136213  0.386213  0.750000  1
  Li  Li1  1  0.863787  0.613787  0.250000  1
  Mn  Mn2  1  0.500000  0.000000  0.000000  1
  Mn  Mn3  1  0.500000  0.500000  0.500000  1
  Ga  Ga4  1  0.000000  0.000000  0.000000  1
  Ga  Ga5  1  0.500000  0.000000  0.500000  1
  O  O6  1  0.269069  0.790148  0.021079  1
  O  O7  1  0.273366  0.243740  0.029626  1
  O  O8  1  0.714113  0.243740  0.470374  1
  O  O9  1  0.269069  0.247989  0.478921  1
  O  O10  1  0.730931  0.752011  0.521079  1
  O  O11  1  0.726634  0.756260  0.970374  1
  O  O12  1  0.285887  0.756260  0.529626  1
  O  O13  1  0.730931  0.209852  0.978921  1
