# generated using pymatgen
data_Pr7Nd7Th2(MgIr)4
_symmetry_space_group_name_H-M   'P 1'
_cell_length_a   10.07113481
_cell_length_b   10.07113555
_cell_length_c   10.10446400
_cell_angle_alpha   59.89046859
_cell_angle_beta   59.89046615
_cell_angle_gamma   59.98348127
_symmetry_Int_Tables_number   1
_chemical_formula_structural   Pr7Nd7Th2(MgIr)4
_chemical_formula_sum   'Pr7 Nd7 Th2 Mg4 Ir4'
_cell_volume   723.40260505
_cell_formula_units_Z   1
loop_
 _symmetry_equiv_pos_site_id
 _symmetry_equiv_pos_as_xyz
  1  'x, y, z'
loop_
 _atom_site_type_symbol
 _atom_site_label
 _atom_site_symmetry_multiplicity
 _atom_site_fract_x
 _atom_site_fract_y
 _atom_site_fract_z
 _atom_site_occupancy
  Pr  Pr0  1  0.810744  0.810744  0.189256  1
  Pr  Pr1  1  0.940456  0.560976  0.562792  1
  Pr  Pr2  1  0.560976  0.940456  0.935776  1
  Pr  Pr3  1  0.560976  0.940456  0.562792  1
  Pr  Pr4  1  0.940456  0.560976  0.935776  1
  Pr  Pr5  1  0.561969  0.561969  0.938031  1
  Pr  Pr6  1  0.938125  0.938125  0.561875  1
  Nd  Nd7  1  0.346579  0.958038  0.347692  1
  Nd  Nd8  1  0.958038  0.346579  0.347692  1
  Nd  Nd9  1  0.811443  0.188832  0.188844  1
  Nd  Nd10  1  0.188832  0.811443  0.810881  1
  Nd  Nd11  1  0.188832  0.811443  0.188844  1
  Nd  Nd12  1  0.811443  0.188832  0.810881  1
  Nd  Nd13  1  0.188877  0.188877  0.811123  1
  Th  Th14  1  0.343134  0.343134  0.345112  1
  Th  Th15  1  0.343134  0.343134  0.968620  1
  Mg  Mg16  1  0.577799  0.577799  0.580699  1
  Mg  Mg17  1  0.577799  0.577799  0.263702  1
  Mg  Mg18  1  0.577247  0.262798  0.579978  1
  Mg  Mg19  1  0.262798  0.577247  0.579978  1
  Ir  Ir20  1  0.146187  0.146187  0.136877  1
  Ir  Ir21  1  0.146187  0.146187  0.570750  1
  Ir  Ir22  1  0.151276  0.566692  0.141016  1
  Ir  Ir23  1  0.566692  0.151276  0.141016  1
