# generated using pymatgen
data_Pr4Al15Si3Ir5Rh
_symmetry_space_group_name_H-M   'P 1'
_cell_length_a   7.59151600
_cell_length_b   7.56382480
_cell_length_c   9.58458030
_cell_angle_alpha   89.97999147
_cell_angle_beta   89.93147315
_cell_angle_gamma   119.66163451
_symmetry_Int_Tables_number   1
_chemical_formula_structural   Pr4Al15Si3Ir5Rh
_chemical_formula_sum   'Pr4 Al15 Si3 Ir5 Rh1'
_cell_volume   478.23772583
_cell_formula_units_Z   1
loop_
 _symmetry_equiv_pos_site_id
 _symmetry_equiv_pos_as_xyz
  1  'x, y, z'
loop_
 _atom_site_type_symbol
 _atom_site_label
 _atom_site_symmetry_multiplicity
 _atom_site_fract_x
 _atom_site_fract_y
 _atom_site_fract_z
 _atom_site_occupancy
  Pr  Pr0  1  0.994517  0.665108  0.747793  1
  Pr  Pr1  1  0.005765  0.339255  0.252950  1
  Pr  Pr2  1  0.672945  0.999452  0.747972  1
  Pr  Pr3  1  0.322942  0.995088  0.250247  1
  Al  Al4  1  0.131322  0.129012  0.750585  1
  Al  Al5  1  0.868996  0.868979  0.248625  1
  Al  Al6  1  0.338844  0.005641  0.926167  1
  Al  Al7  1  0.003416  0.329645  0.931963  1
  Al  Al8  1  0.665600  0.999571  0.073066  1
  Al  Al9  1  0.661896  0.995458  0.424664  1
  Al  Al10  1  0.338930  0.005832  0.574117  1
  Al  Al11  1  0.334845  0.333193  0.051752  1
  Al  Al12  1  0.662900  0.666991  0.949728  1
  Al  Al13  1  0.661499  0.665928  0.551876  1
  Al  Al14  1  0.337412  0.333536  0.448482  1
  Al  Al15  1  0.338790  0.547015  0.750515  1
  Al  Al16  1  0.659846  0.452817  0.250473  1
  Al  Al17  1  0.546238  0.343764  0.750292  1
  Al  Al18  1  0.456820  0.657972  0.249732  1
  Si  Si19  1  0.003746  0.328380  0.571267  1
  Si  Si20  1  0.995525  0.671365  0.433585  1
  Si  Si21  1  0.996458  0.665701  0.062738  1
  Ir  Ir22  1  0.687611  0.338228  0.500995  1
  Ir  Ir23  1  0.312275  0.662122  0.498295  1
  Ir  Ir24  1  0.320388  0.669871  0.002195  1
  Ir  Ir25  1  0.679464  0.337375  0.000231  1
  Ir  Ir26  1  0.000215  0.999861  0.499247  1
  Rh  Rh27  1  0.000797  0.992839  0.000451  1
