# generated using pymatgen
data_Th4Sc6Si7Ge
_symmetry_space_group_name_H-M   'P 1'
_cell_length_a   7.34842197
_cell_length_b   7.49077417
_cell_length_c   14.14989798
_cell_angle_alpha   90.05927471
_cell_angle_beta   89.84417266
_cell_angle_gamma   89.97519712
_symmetry_Int_Tables_number   1
_chemical_formula_structural   Th4Sc6Si7Ge
_chemical_formula_sum   'Th8 Sc12 Si14 Ge2'
_cell_volume   778.88299165
_cell_formula_units_Z   2
loop_
 _symmetry_equiv_pos_site_id
 _symmetry_equiv_pos_as_xyz
  1  'x, y, z'
loop_
 _atom_site_type_symbol
 _atom_site_label
 _atom_site_symmetry_multiplicity
 _atom_site_fract_x
 _atom_site_fract_y
 _atom_site_fract_z
 _atom_site_occupancy
  Th  Th0  1  0.006330  0.674682  0.597725  1
  Th  Th1  1  0.993670  0.325318  0.402275  1
  Th  Th2  1  0.493631  0.180471  0.401515  1
  Th  Th3  1  0.995052  0.322749  0.096146  1
  Th  Th4  1  0.506369  0.819529  0.598485  1
  Th  Th5  1  0.004948  0.677251  0.903854  1
  Th  Th6  1  0.505327  0.822400  0.903657  1
  Th  Th7  1  0.494673  0.177600  0.096343  1
  Sc  Sc8  1  0.179183  0.999812  0.751932  1
  Sc  Sc9  1  0.820817  0.000188  0.248068  1
  Sc  Sc10  1  0.320734  0.500890  0.249086  1
  Sc  Sc11  1  0.679266  0.499110  0.750914  1
  Sc  Sc12  1  0.353327  0.332315  0.626003  1
  Sc  Sc13  1  0.646673  0.667685  0.373997  1
  Sc  Sc14  1  0.149264  0.829629  0.374026  1
  Sc  Sc15  1  0.649119  0.670194  0.124609  1
  Sc  Sc16  1  0.850736  0.170371  0.625974  1
  Sc  Sc17  1  0.350881  0.329806  0.875391  1
  Sc  Sc18  1  0.850761  0.169881  0.875261  1
  Sc  Sc19  1  0.149239  0.830119  0.124739  1
  Si  Si20  1  0.054072  0.376893  0.750548  1
  Si  Si21  1  0.945928  0.623107  0.249452  1
  Si  Si22  1  0.446511  0.877936  0.249600  1
  Si  Si23  1  0.553489  0.122064  0.750400  1
  Si  Si24  1  0.306280  0.622601  0.751221  1
  Si  Si25  1  0.693720  0.377399  0.248779  1
  Si  Si26  1  0.192421  0.122923  0.249638  1
  Si  Si27  1  0.807579  0.877077  0.750362  1
  Si  Si28  1  0.316681  0.542283  0.457938  1
  Si  Si29  1  0.818185  0.958950  0.041958  1
  Si  Si30  1  0.683319  0.457717  0.542062  1
  Si  Si31  1  0.181815  0.041050  0.958042  1
  Si  Si32  1  0.681321  0.459013  0.957781  1
  Si  Si33  1  0.318679  0.540987  0.042219  1
  Ge  Ge34  1  0.186535  0.042919  0.543120  1
  Ge  Ge35  1  0.813465  0.957081  0.456880  1
