# generated using pymatgen
data_NaYb(GaPt)4
_symmetry_space_group_name_H-M   'P 1'
_cell_length_a   4.10414900
_cell_length_b   4.10414900
_cell_length_c   11.13346000
_cell_angle_alpha   90.00000000
_cell_angle_beta   90.00000000
_cell_angle_gamma   90.00000000
_symmetry_Int_Tables_number   1
_chemical_formula_structural   NaYb(GaPt)4
_chemical_formula_sum   'Na1 Yb1 Ga4 Pt4'
_cell_volume   187.53243460
_cell_formula_units_Z   1
loop_
 _symmetry_equiv_pos_site_id
 _symmetry_equiv_pos_as_xyz
  1  'x, y, z'
loop_
 _atom_site_type_symbol
 _atom_site_label
 _atom_site_symmetry_multiplicity
 _atom_site_fract_x
 _atom_site_fract_y
 _atom_site_fract_z
 _atom_site_occupancy
  Na  Na0  1  0.000000  0.500000  0.248130  1
  Yb  Yb1  1  0.500000  0.000000  0.751424  1
  Ga  Ga2  1  0.500000  0.000000  0.137559  1
  Ga  Ga3  1  0.000000  0.000000  0.498997  1
  Ga  Ga4  1  0.500000  0.500000  0.498997  1
  Ga  Ga5  1  0.000000  0.500000  0.865115  1
  Pt  Pt6  1  0.000000  0.000000  0.997882  1
  Pt  Pt7  1  0.500000  0.500000  0.997882  1
  Pt  Pt8  1  0.500000  0.000000  0.363324  1
  Pt  Pt9  1  0.000000  0.500000  0.640692  1
