# generated using pymatgen
data_Ba6Sc2MoO12
_symmetry_space_group_name_H-M   'P 1'
_cell_length_a   9.27558920
_cell_length_b   9.27558862
_cell_length_c   7.41055800
_cell_angle_alpha   68.05108065
_cell_angle_beta   68.05108209
_cell_angle_gamma   36.91244653
_symmetry_Int_Tables_number   1
_chemical_formula_structural   Ba6Sc2MoO12
_chemical_formula_sum   'Ba6 Sc2 Mo1 O12'
_cell_volume   351.94349756
_cell_formula_units_Z   1
loop_
 _symmetry_equiv_pos_site_id
 _symmetry_equiv_pos_as_xyz
  1  'x, y, z'
loop_
 _atom_site_type_symbol
 _atom_site_label
 _atom_site_symmetry_multiplicity
 _atom_site_fract_x
 _atom_site_fract_y
 _atom_site_fract_z
 _atom_site_occupancy
  Ba  Ba0  1  0.875949  0.875949  0.713761  1
  Ba  Ba1  1  0.220045  0.220045  0.707420  1
  Ba  Ba2  1  0.548585  0.548585  0.704617  1
  Ba  Ba3  1  0.451415  0.451415  0.295383  1
  Ba  Ba4  1  0.779955  0.779955  0.292580  1
  Ba  Ba5  1  0.124051  0.124051  0.286239  1
  Sc  Sc6  1  0.668689  0.668689  0.998785  1
  Sc  Sc7  1  0.331311  0.331311  0.001215  1
  Mo  Mo8  1  0.000000  0.000000  0.000000  1
  O  O9  1  0.951663  0.951663  0.291671  1
  O  O10  1  0.283692  0.283692  0.315111  1
  O  O11  1  0.610585  0.610585  0.316419  1
  O  O12  1  0.389415  0.389415  0.683581  1
  O  O13  1  0.716308  0.716308  0.684889  1
  O  O14  1  0.048337  0.048337  0.708329  1
  O  O15  1  0.500000  0.000000  0.000000  1
  O  O16  1  0.842377  0.313402  0.000761  1
  O  O17  1  0.157623  0.686598  0.999239  1
  O  O18  1  0.000000  0.500000  0.000000  1
  O  O19  1  0.313402  0.842377  0.000761  1
  O  O20  1  0.686598  0.157623  0.999239  1
