# generated using pymatgen
data_Ba6Nd2(TeO6)3
_symmetry_space_group_name_H-M   'P 1'
_cell_length_a   10.56628424
_cell_length_b   10.56628381
_cell_length_c   10.56628391
_cell_angle_alpha   146.54767975
_cell_angle_beta   131.78288326
_cell_angle_gamma   59.95668243
_symmetry_Int_Tables_number   1
_chemical_formula_structural   Ba6Nd2(TeO6)3
_chemical_formula_sum   'Ba6 Nd2 Te3 O18'
_cell_volume   480.50339723
_cell_formula_units_Z   1
loop_
 _symmetry_equiv_pos_site_id
 _symmetry_equiv_pos_as_xyz
  1  'x, y, z'
loop_
 _atom_site_type_symbol
 _atom_site_label
 _atom_site_symmetry_multiplicity
 _atom_site_fract_x
 _atom_site_fract_y
 _atom_site_fract_z
 _atom_site_occupancy
  Ba  Ba0  1  0.780623  0.500000  0.280623  1
  Ba  Ba1  1  0.382213  0.151280  0.230933  1
  Ba  Ba2  1  0.079652  0.848720  0.230933  1
  Ba  Ba3  1  0.219377  0.500000  0.719377  1
  Ba  Ba4  1  0.920348  0.151280  0.769067  1
  Ba  Ba5  1  0.617787  0.848720  0.769067  1
  Nd  Nd6  1  0.666467  0.666467  0.000000  1
  Nd  Nd7  1  0.333533  0.333533  0.000000  1
  Te  Te8  1  0.500000  0.000000  0.500000  1
  Te  Te9  1  0.169370  0.669370  0.500000  1
  Te  Te10  1  0.830630  0.330630  0.500000  1
  O  O11  1  0.722275  0.000000  0.722275  1
  O  O12  1  0.398240  0.668507  0.729733  1
  O  O13  1  0.061227  0.331493  0.729733  1
  O  O14  1  0.577039  0.847830  0.270790  1
  O  O15  1  0.244383  0.515273  0.270890  1
  O  O16  1  0.905610  0.181296  0.275686  1
  O  O17  1  0.422961  0.693751  0.270790  1
  O  O18  1  0.094390  0.370076  0.275686  1
  O  O19  1  0.755617  0.026507  0.270890  1
  O  O20  1  0.277725  0.000000  0.277725  1
  O  O21  1  0.938773  0.668507  0.270267  1
  O  O22  1  0.601760  0.331493  0.270267  1
  O  O23  1  0.422961  0.152170  0.729210  1
  O  O24  1  0.094390  0.818704  0.724314  1
  O  O25  1  0.755617  0.484727  0.729110  1
  O  O26  1  0.577039  0.306249  0.729210  1
  O  O27  1  0.244383  0.973493  0.729110  1
  O  O28  1  0.905610  0.629925  0.724314  1
