# generated using pymatgen
data_Hf18GaMo8S
_symmetry_space_group_name_H-M   'P 1'
_cell_length_a   8.69542700
_cell_length_b   8.69542616
_cell_length_c   8.62123800
_cell_angle_alpha   90.00000000
_cell_angle_beta   90.00000000
_cell_angle_gamma   119.99999938
_symmetry_Int_Tables_number   1
_chemical_formula_structural   Hf18GaMo8S
_chemical_formula_sum   'Hf18 Ga1 Mo8 S1'
_cell_volume   564.52353702
_cell_formula_units_Z   1
loop_
 _symmetry_equiv_pos_site_id
 _symmetry_equiv_pos_as_xyz
  1  'x, y, z'
loop_
 _atom_site_type_symbol
 _atom_site_label
 _atom_site_symmetry_multiplicity
 _atom_site_fract_x
 _atom_site_fract_y
 _atom_site_fract_z
 _atom_site_occupancy
  Hf  Hf0  1  0.195192  0.804808  0.452937  1
  Hf  Hf1  1  0.195192  0.390384  0.452937  1
  Hf  Hf2  1  0.609616  0.804808  0.452937  1
  Hf  Hf3  1  0.802391  0.197609  0.548964  1
  Hf  Hf4  1  0.802391  0.604783  0.548964  1
  Hf  Hf5  1  0.395217  0.197609  0.548964  1
  Hf  Hf6  1  0.802391  0.197609  0.951036  1
  Hf  Hf7  1  0.802391  0.604783  0.951036  1
  Hf  Hf8  1  0.395217  0.197609  0.951036  1
  Hf  Hf9  1  0.195192  0.804808  0.047063  1
  Hf  Hf10  1  0.195192  0.390384  0.047063  1
  Hf  Hf11  1  0.609616  0.804808  0.047063  1
  Hf  Hf12  1  0.541445  0.458555  0.250000  1
  Hf  Hf13  1  0.541445  0.082890  0.250000  1
  Hf  Hf14  1  0.917110  0.458555  0.250000  1
  Hf  Hf15  1  0.457016  0.542984  0.750000  1
  Hf  Hf16  1  0.457016  0.914032  0.750000  1
  Hf  Hf17  1  0.085968  0.542984  0.750000  1
  Ga  Ga18  1  0.333333  0.666667  0.250000  1
  Mo  Mo19  1  0.888956  0.111044  0.250000  1
  Mo  Mo20  1  0.888956  0.777911  0.250000  1
  Mo  Mo21  1  0.222089  0.111044  0.250000  1
  Mo  Mo22  1  0.110554  0.889446  0.750000  1
  Mo  Mo23  1  0.110554  0.221109  0.750000  1
  Mo  Mo24  1  0.778891  0.889446  0.750000  1
  Mo  Mo25  1  0.000000  0.000000  0.499853  1
  Mo  Mo26  1  0.000000  0.000000  0.000147  1
  S  S27  1  0.666667  0.333333  0.750000  1
