# generated using pymatgen
data_Nd10Sn6As
_symmetry_space_group_name_H-M   'P 1'
_cell_length_a   6.86212300
_cell_length_b   9.44955751
_cell_length_c   9.44965600
_cell_angle_alpha   119.99965877
_cell_angle_beta   89.99951156
_cell_angle_gamma   90.00098754
_symmetry_Int_Tables_number   1
_chemical_formula_structural   Nd10Sn6As
_chemical_formula_sum   'Nd10 Sn6 As1'
_cell_volume   530.66212876
_cell_formula_units_Z   1
loop_
 _symmetry_equiv_pos_site_id
 _symmetry_equiv_pos_as_xyz
  1  'x, y, z'
loop_
 _atom_site_type_symbol
 _atom_site_label
 _atom_site_symmetry_multiplicity
 _atom_site_fract_x
 _atom_site_fract_y
 _atom_site_fract_z
 _atom_site_occupancy
  Nd  Nd0  1  0.499998  0.333337  0.666678  1
  Nd  Nd1  1  0.499998  0.666659  0.333322  1
  Nd  Nd2  1  0.000001  0.666658  0.333321  1
  Nd  Nd3  1  0.000001  0.333337  0.666679  1
  Nd  Nd4  1  0.747520  0.251306  0.000000  1
  Nd  Nd5  1  0.747521  0.748697  0.748690  1
  Nd  Nd6  1  0.747521  0.000007  0.251310  1
  Nd  Nd7  1  0.252480  0.748696  0.000000  1
  Nd  Nd8  1  0.252484  0.251309  0.251313  1
  Nd  Nd9  1  0.252484  0.999996  0.748687  1
  Sn  Sn10  1  0.748778  0.607748  0.000000  1
  Sn  Sn11  1  0.748773  0.392260  0.392263  1
  Sn  Sn12  1  0.748773  0.999998  0.607737  1
  Sn  Sn13  1  0.251224  0.392256  0.000000  1
  Sn  Sn14  1  0.251222  0.607740  0.607740  1
  Sn  Sn15  1  0.251222  0.000001  0.392260  1
  As  As16  1  0.500001  0.000000  0.000000  1
