# generated using pymatgen
data_Sr2CaIn5Au6
_symmetry_space_group_name_H-M   'P 1'
_cell_length_a   4.60316500
_cell_length_b   8.14090800
_cell_length_c   9.29777400
_cell_angle_alpha   90.00000000
_cell_angle_beta   90.00000000
_cell_angle_gamma   90.00000000
_symmetry_Int_Tables_number   1
_chemical_formula_structural   Sr2CaIn5Au6
_chemical_formula_sum   'Sr2 Ca1 In5 Au6'
_cell_volume   348.42425080
_cell_formula_units_Z   1
loop_
 _symmetry_equiv_pos_site_id
 _symmetry_equiv_pos_as_xyz
  1  'x, y, z'
loop_
 _atom_site_type_symbol
 _atom_site_label
 _atom_site_symmetry_multiplicity
 _atom_site_fract_x
 _atom_site_fract_y
 _atom_site_fract_z
 _atom_site_occupancy
  Sr  Sr0  1  0.500000  0.000000  0.726327  1
  Sr  Sr1  1  0.000000  0.500000  0.267965  1
  Ca  Ca2  1  0.000000  0.000000  0.354621  1
  In  In3  1  0.000000  0.306994  0.889195  1
  In  In4  1  0.500000  0.193343  0.116459  1
  In  In5  1  0.000000  0.693006  0.889195  1
  In  In6  1  0.500000  0.806657  0.116459  1
  In  In7  1  0.500000  0.500000  0.642420  1
  Au  Au8  1  0.000000  0.722303  0.590527  1
  Au  Au9  1  0.500000  0.752165  0.412781  1
  Au  Au10  1  0.500000  0.500000  0.964905  1
  Au  Au11  1  0.000000  0.000000  0.025838  1
  Au  Au12  1  0.500000  0.247835  0.412781  1
  Au  Au13  1  0.000000  0.277697  0.590527  1
