# generated using pymatgen
data_GeBiF7
_symmetry_space_group_name_H-M   'P 1'
_cell_length_a   5.54949900
_cell_length_b   9.01774895
_cell_length_c   11.94580837
_cell_angle_alpha   61.67976948
_cell_angle_beta   90.00000000
_cell_angle_gamma   90.00000000
_symmetry_Int_Tables_number   1
_chemical_formula_structural   GeBiF7
_chemical_formula_sum   'Ge4 Bi4 F28'
_cell_volume   526.26325708
_cell_formula_units_Z   4
loop_
 _symmetry_equiv_pos_site_id
 _symmetry_equiv_pos_as_xyz
  1  'x, y, z'
loop_
 _atom_site_type_symbol
 _atom_site_label
 _atom_site_symmetry_multiplicity
 _atom_site_fract_x
 _atom_site_fract_y
 _atom_site_fract_z
 _atom_site_occupancy
  Ge  Ge0  1  0.758014  0.274411  0.957612  1
  Ge  Ge1  1  0.258014  0.725589  0.542388  1
  Ge  Ge2  1  0.241986  0.725589  0.042388  1
  Ge  Ge3  1  0.741986  0.274411  0.457612  1
  Bi  Bi4  1  0.765167  0.813667  0.761362  1
  Bi  Bi5  1  0.265167  0.186333  0.738638  1
  Bi  Bi6  1  0.234833  0.186333  0.238638  1
  Bi  Bi7  1  0.734833  0.813667  0.261362  1
  F  F8  1  0.424698  0.710265  0.921803  1
  F  F9  1  0.924698  0.289735  0.578197  1
  F  F10  1  0.575302  0.289735  0.078197  1
  F  F11  1  0.075302  0.710265  0.421803  1
  F  F12  1  0.459731  0.277308  0.539630  1
  F  F13  1  0.959731  0.722692  0.960370  1
  F  F14  1  0.540269  0.722692  0.460370  1
  F  F15  1  0.040269  0.277308  0.039630  1
  F  F16  1  0.772728  0.502029  0.865422  1
  F  F17  1  0.272728  0.497971  0.634578  1
  F  F18  1  0.227272  0.497971  0.134578  1
  F  F19  1  0.727272  0.502029  0.365422  1
  F  F20  1  0.759197  0.041863  0.048315  1
  F  F21  1  0.259197  0.958137  0.451685  1
  F  F22  1  0.240803  0.958137  0.951685  1
  F  F23  1  0.740803  0.041863  0.548315  1
  F  F24  1  0.985441  0.730216  0.627637  1
  F  F25  1  0.485441  0.269784  0.872363  1
  F  F26  1  0.014559  0.269784  0.372363  1
  F  F27  1  0.514559  0.730216  0.127637  1
  F  F28  1  0.061716  0.742782  0.165008  1
  F  F29  1  0.561716  0.257218  0.334992  1
  F  F30  1  0.938284  0.257218  0.834992  1
  F  F31  1  0.438284  0.742782  0.665008  1
  F  F32  1  0.395656  0.968162  0.224957  1
  F  F33  1  0.895656  0.031838  0.275043  1
  F  F34  1  0.604344  0.031838  0.775043  1
  F  F35  1  0.104344  0.968162  0.724957  1
