# generated using pymatgen
data_EuTm3(Ni7P4)2
_symmetry_space_group_name_H-M   'P 1'
_cell_length_a   3.69315100
_cell_length_b   9.14698099
_cell_length_c   10.29937728
_cell_angle_alpha   89.56935752
_cell_angle_beta   90.00000000
_cell_angle_gamma   90.00000000
_symmetry_Int_Tables_number   1
_chemical_formula_structural   EuTm3(Ni7P4)2
_chemical_formula_sum   'Eu1 Tm3 Ni14 P8'
_cell_volume   347.91531087
_cell_formula_units_Z   1
loop_
 _symmetry_equiv_pos_site_id
 _symmetry_equiv_pos_as_xyz
  1  'x, y, z'
loop_
 _atom_site_type_symbol
 _atom_site_label
 _atom_site_symmetry_multiplicity
 _atom_site_fract_x
 _atom_site_fract_y
 _atom_site_fract_z
 _atom_site_occupancy
  Eu  Eu0  1  0.500000  0.938907  0.235624  1
  Tm  Tm1  1  0.000000  0.441836  0.520056  1
  Tm  Tm2  1  0.500000  0.558603  0.018261  1
  Tm  Tm3  1  0.000000  0.064433  0.735680  1
  Ni  Ni4  1  0.000000  0.767773  0.406820  1
  Ni  Ni5  1  0.500000  0.225500  0.903334  1
  Ni  Ni6  1  0.000000  0.754198  0.642538  1
  Ni  Ni7  1  0.500000  0.252275  0.140264  1
  Ni  Ni8  1  0.000000  0.811449  0.999332  1
  Ni  Ni9  1  0.500000  0.186369  0.506636  1
  Ni  Ni10  1  0.000000  0.443703  0.213167  1
  Ni  Ni11  1  0.500000  0.555422  0.713204  1
  Ni  Ni12  1  0.000000  0.403575  0.820409  1
  Ni  Ni13  1  0.500000  0.592795  0.321471  1
  Ni  Ni14  1  0.000000  0.199496  0.319335  1
  Ni  Ni15  1  0.500000  0.806210  0.809403  1
  Ni  Ni16  1  0.000000  0.084932  0.034093  1
  Ni  Ni17  1  0.500000  0.917742  0.551995  1
  P  P18  1  0.000000  0.688252  0.198807  1
  P  P19  1  0.500000  0.309202  0.699411  1
  P  P20  1  0.000000  0.018913  0.457705  1
  P  P21  1  0.500000  0.979419  0.949043  1
  P  P22  1  0.000000  0.321728  0.024100  1
  P  P23  1  0.500000  0.680168  0.524221  1
  P  P24  1  0.000000  0.652774  0.831615  1
  P  P25  1  0.500000  0.344327  0.333075  1
