# generated using pymatgen
data_Zr3Ga3Rh2Au
_symmetry_space_group_name_H-M   'P 1'
_cell_length_a   7.30076900
_cell_length_b   7.30076925
_cell_length_c   3.48293300
_cell_angle_alpha   90.00000000
_cell_angle_beta   90.00000000
_cell_angle_gamma   119.99999433
_symmetry_Int_Tables_number   1
_chemical_formula_structural   Zr3Ga3Rh2Au
_chemical_formula_sum   'Zr3 Ga3 Rh2 Au1'
_cell_volume   160.77295951
_cell_formula_units_Z   1
loop_
 _symmetry_equiv_pos_site_id
 _symmetry_equiv_pos_as_xyz
  1  'x, y, z'
loop_
 _atom_site_type_symbol
 _atom_site_label
 _atom_site_symmetry_multiplicity
 _atom_site_fract_x
 _atom_site_fract_y
 _atom_site_fract_z
 _atom_site_occupancy
  Zr  Zr0  1  0.982630  0.381213  0.500000  1
  Zr  Zr1  1  0.618787  0.601417  0.500000  1
  Zr  Zr2  1  0.398583  0.017370  0.500000  1
  Ga  Ga3  1  0.000144  0.733142  0.000000  1
  Ga  Ga4  1  0.266858  0.267002  0.000000  1
  Ga  Ga5  1  0.732998  0.999856  0.000000  1
  Rh  Rh6  1  0.666667  0.333333  0.000000  1
  Rh  Rh7  1  0.000000  0.000000  0.500000  1
  Au  Au8  1  0.333333  0.666667  0.000000  1
