# generated using pymatgen
data_Sr2Fe5P6WO24
_symmetry_space_group_name_H-M   'P 1'
_cell_length_a   9.35763863
_cell_length_b   9.34914308
_cell_length_c   9.35763908
_cell_angle_alpha   138.63286658
_cell_angle_beta   109.59444333
_cell_angle_gamma   85.10979539
_symmetry_Int_Tables_number   1
_chemical_formula_structural   Sr2Fe5P6WO24
_chemical_formula_sum   'Sr2 Fe5 P6 W1 O24'
_cell_volume   491.15690130
_cell_formula_units_Z   1
loop_
 _symmetry_equiv_pos_site_id
 _symmetry_equiv_pos_as_xyz
  1  'x, y, z'
loop_
 _atom_site_type_symbol
 _atom_site_label
 _atom_site_symmetry_multiplicity
 _atom_site_fract_x
 _atom_site_fract_y
 _atom_site_fract_z
 _atom_site_occupancy
  Sr  Sr0  1  0.747511  0.148277  0.400766  1
  Sr  Sr1  1  0.252489  0.851723  0.599234  1
  Fe  Fe2  1  0.614850  0.614021  0.493994  1
  Fe  Fe3  1  0.385150  0.385979  0.506006  1
  Fe  Fe4  1  0.120027  0.614021  0.999171  1
  Fe  Fe5  1  0.879973  0.385979  0.000829  1
  Fe  Fe6  1  0.500000  0.500000  0.000000  1
  P  P7  1  0.325833  0.822964  0.999883  1
  P  P8  1  0.751742  0.657346  0.905604  1
  P  P9  1  0.176919  0.177036  0.502869  1
  P  P10  1  0.674167  0.177036  0.000117  1
  P  P11  1  0.248258  0.342654  0.094396  1
  P  P12  1  0.823081  0.822964  0.497131  1
  W  W13  1  0.000000  0.000000  0.000000  1
  O  O14  1  0.578135  0.929312  0.780655  1
  O  O15  1  0.072822  0.295907  0.641830  1
  O  O16  1  0.846188  0.883474  0.037285  1
  O  O17  1  0.345923  0.704093  0.776915  1
  O  O18  1  0.137794  0.208320  0.347006  1
  O  O19  1  0.333706  0.281211  0.947505  1
  O  O20  1  0.643620  0.706441  0.351253  1
  O  O21  1  0.862206  0.791680  0.652994  1
  O  O22  1  0.363647  0.488368  0.354218  1
  O  O23  1  0.148658  0.929312  0.351178  1
  O  O24  1  0.644812  0.293559  0.937178  1
  O  O25  1  0.636353  0.511632  0.645782  1
  O  O26  1  0.861314  0.208320  0.070526  1
  O  O27  1  0.851342  0.070688  0.648822  1
  O  O28  1  0.355188  0.706441  0.062822  1
  O  O29  1  0.356380  0.293559  0.648747  1
  O  O30  1  0.666294  0.718789  0.052495  1
  O  O31  1  0.927178  0.704093  0.358170  1
  O  O32  1  0.153812  0.116525  0.962715  1
  O  O33  1  0.865850  0.511632  0.875279  1
  O  O34  1  0.134150  0.488368  0.124721  1
  O  O35  1  0.138686  0.791680  0.929474  1
  O  O36  1  0.654077  0.295907  0.223085  1
  O  O37  1  0.421865  0.070688  0.219345  1
