# generated using pymatgen
data_LuTh3(Si5Rh3)2
_symmetry_space_group_name_H-M   'P 1'
_cell_length_a   8.23044210
_cell_length_b   8.20971446
_cell_length_c   5.90590802
_cell_angle_alpha   68.91352211
_cell_angle_beta   68.98190229
_cell_angle_gamma   90.42634508
_symmetry_Int_Tables_number   1
_chemical_formula_structural   LuTh3(Si5Rh3)2
_chemical_formula_sum   'Lu1 Th3 Si10 Rh6'
_cell_volume   343.27163514
_cell_formula_units_Z   1
loop_
 _symmetry_equiv_pos_site_id
 _symmetry_equiv_pos_as_xyz
  1  'x, y, z'
loop_
 _atom_site_type_symbol
 _atom_site_label
 _atom_site_symmetry_multiplicity
 _atom_site_fract_x
 _atom_site_fract_y
 _atom_site_fract_z
 _atom_site_occupancy
  Lu  Lu0  1  0.600805  0.861707  0.268913  1
  Th  Th1  1  0.862676  0.602082  0.767298  1
  Th  Th2  1  0.136223  0.398138  0.232985  1
  Th  Th3  1  0.400937  0.136211  0.731425  1
  Si  Si4  1  0.774255  0.222524  0.754024  1
  Si  Si5  1  0.227432  0.774613  0.248004  1
  Si  Si6  1  0.499660  0.503724  0.745377  1
  Si  Si7  1  0.499782  0.503493  0.251351  1
  Si  Si8  1  0.227212  0.774429  0.750440  1
  Si  Si9  1  0.774281  0.222523  0.248893  1
  Si  Si10  1  0.262122  0.041336  0.347876  1
  Si  Si11  1  0.738927  0.955804  0.653190  1
  Si  Si12  1  0.950807  0.743322  0.153388  1
  Si  Si13  1  0.043780  0.259220  0.848100  1
  Rh  Rh14  1  0.528117  0.249276  0.111090  1
  Rh  Rh15  1  0.748498  0.473066  0.389005  1
  Rh  Rh16  1  0.474148  0.750386  0.887753  1
  Rh  Rh17  1  0.249417  0.527945  0.611467  1
  Rh  Rh18  1  0.000375  0.000200  0.250910  1
  Rh  Rh19  1  0.000546  0.000005  0.748510  1
