# generated using pymatgen
data_Y3AlZn2Si2Pd
_symmetry_space_group_name_H-M   'P 1'
_cell_length_a   6.90786567
_cell_length_b   6.81070582
_cell_length_c   4.28202500
_cell_angle_alpha   90.00000000
_cell_angle_beta   90.00000000
_cell_angle_gamma   119.53580995
_symmetry_Int_Tables_number   1
_chemical_formula_structural   Y3AlZn2Si2Pd
_chemical_formula_sum   'Y3 Al1 Zn2 Si2 Pd1'
_cell_volume   175.27835844
_cell_formula_units_Z   1
loop_
 _symmetry_equiv_pos_site_id
 _symmetry_equiv_pos_as_xyz
  1  'x, y, z'
loop_
 _atom_site_type_symbol
 _atom_site_label
 _atom_site_symmetry_multiplicity
 _atom_site_fract_x
 _atom_site_fract_y
 _atom_site_fract_z
 _atom_site_occupancy
  Y  Y0  1  0.422648  0.003802  0.000000  1
  Y  Y1  1  0.000000  0.415458  0.000000  1
  Y  Y2  1  0.577352  0.581154  0.000000  1
  Al  Al3  1  0.000000  0.768742  0.500000  1
  Zn  Zn4  1  0.756117  0.999261  0.500000  1
  Zn  Zn5  1  0.243883  0.243144  0.500000  1
  Si  Si6  1  0.671432  0.337559  0.500000  1
  Si  Si7  1  0.328569  0.666126  0.500000  1
  Pd  Pd8  1  0.000000  0.984757  0.000000  1
