# generated using pymatgen
data_Tb2Y10Tc3Pt
_symmetry_space_group_name_H-M   'P 1'
_cell_length_a   6.33725130
_cell_length_b   7.42653857
_cell_length_c   9.26157600
_cell_angle_alpha   90.00000000
_cell_angle_beta   90.00000000
_cell_angle_gamma   90.05242668
_symmetry_Int_Tables_number   1
_chemical_formula_structural   Tb2Y10Tc3Pt
_chemical_formula_sum   'Tb2 Y10 Tc3 Pt1'
_cell_volume   435.88516011
_cell_formula_units_Z   1
loop_
 _symmetry_equiv_pos_site_id
 _symmetry_equiv_pos_as_xyz
  1  'x, y, z'
loop_
 _atom_site_type_symbol
 _atom_site_label
 _atom_site_symmetry_multiplicity
 _atom_site_fract_x
 _atom_site_fract_y
 _atom_site_fract_z
 _atom_site_occupancy
  Tb  Tb0  1  0.125247  0.039988  0.250000  1
  Tb  Tb1  1  0.371118  0.544083  0.250000  1
  Y  Y2  1  0.629761  0.455169  0.750000  1
  Y  Y3  1  0.869775  0.964059  0.750000  1
  Y  Y4  1  0.665798  0.176932  0.064203  1
  Y  Y5  1  0.168474  0.319536  0.940630  1
  Y  Y6  1  0.828918  0.675545  0.432470  1
  Y  Y7  1  0.336521  0.827333  0.560670  1
  Y  Y8  1  0.336521  0.827333  0.939330  1
  Y  Y9  1  0.828918  0.675545  0.067530  1
  Y  Y10  1  0.168474  0.319536  0.559370  1
  Y  Y11  1  0.665798  0.176932  0.435797  1
  Tc  Tc12  1  0.966413  0.385870  0.250000  1
  Tc  Tc13  1  0.457333  0.114197  0.750000  1
  Tc  Tc14  1  0.535176  0.884276  0.250000  1
  Pt  Pt15  1  0.045749  0.613664  0.750000  1
