# generated using pymatgen
data_Mn3Ni3S8
_symmetry_space_group_name_H-M   'P 1'
_cell_length_a   6.81431634
_cell_length_b   6.81381328
_cell_length_c   6.81393851
_cell_angle_alpha   58.96798023
_cell_angle_beta   58.98074743
_cell_angle_gamma   58.98899732
_symmetry_Int_Tables_number   1
_chemical_formula_structural   Mn3Ni3S8
_chemical_formula_sum   'Mn3 Ni3 S8'
_cell_volume   218.50569459
_cell_formula_units_Z   1
loop_
 _symmetry_equiv_pos_site_id
 _symmetry_equiv_pos_as_xyz
  1  'x, y, z'
loop_
 _atom_site_type_symbol
 _atom_site_label
 _atom_site_symmetry_multiplicity
 _atom_site_fract_x
 _atom_site_fract_y
 _atom_site_fract_z
 _atom_site_occupancy
  Mn  Mn0  1  0.499993  0.499999  0.000002  1
  Mn  Mn1  1  0.000003  0.499995  0.500010  1
  Mn  Mn2  1  0.500020  0.999979  0.500009  1
  Ni  Ni3  1  0.875413  0.875249  0.875205  1
  Ni  Ni4  1  0.124595  0.124767  0.124784  1
  Ni  Ni5  1  0.499982  0.500017  0.499980  1
  S  S6  1  0.744933  0.744989  0.745016  1
  S  S7  1  0.257336  0.257397  0.728935  1
  S  S8  1  0.257341  0.729022  0.257324  1
  S  S9  1  0.729000  0.257365  0.257307  1
  S  S10  1  0.742636  0.271005  0.742637  1
  S  S11  1  0.271005  0.742627  0.742690  1
  S  S12  1  0.255104  0.254978  0.255025  1
  S  S13  1  0.742646  0.742606  0.271078  1
