# generated using pymatgen
data_Tb4Y2NpO12
_symmetry_space_group_name_H-M   'P 1'
_cell_length_a   6.59543786
_cell_length_b   6.59250552
_cell_length_c   6.60197387
_cell_angle_alpha   98.91229319
_cell_angle_beta   98.82792859
_cell_angle_gamma   98.85754232
_symmetry_Int_Tables_number   1
_chemical_formula_structural   Tb4Y2NpO12
_chemical_formula_sum   'Tb4 Y2 Np1 O12'
_cell_volume   275.54702583
_cell_formula_units_Z   1
loop_
 _symmetry_equiv_pos_site_id
 _symmetry_equiv_pos_as_xyz
  1  'x, y, z'
loop_
 _atom_site_type_symbol
 _atom_site_label
 _atom_site_symmetry_multiplicity
 _atom_site_fract_x
 _atom_site_fract_y
 _atom_site_fract_z
 _atom_site_occupancy
  Tb  Tb0  1  0.389258  0.680012  0.854646  1
  Tb  Tb1  1  0.854545  0.389368  0.679790  1
  Tb  Tb2  1  0.679796  0.854575  0.389567  1
  Tb  Tb3  1  0.610352  0.319952  0.145131  1
  Y  Y4  1  0.145811  0.609807  0.321178  1
  Y  Y5  1  0.320567  0.145470  0.609624  1
  Np  Np6  1  0.000221  0.000126  0.000285  1
  O  O7  1  0.178535  0.429174  0.588393  1
  O  O8  1  0.588740  0.178331  0.430235  1
  O  O9  1  0.429523  0.588944  0.178610  1
  O  O10  1  0.823475  0.569721  0.410683  1
  O  O11  1  0.410305  0.823181  0.569951  1
  O  O12  1  0.569398  0.411124  0.822304  1
  O  O13  1  0.920982  0.044922  0.694022  1
  O  O14  1  0.955310  0.306827  0.078448  1
  O  O15  1  0.306189  0.077935  0.954457  1
  O  O16  1  0.078490  0.955032  0.306295  1
  O  O17  1  0.044826  0.693482  0.920874  1
  O  O18  1  0.693676  0.922016  0.045508  1
