# generated using pymatgen
data_Yb6Fe2N7
_symmetry_space_group_name_H-M   'P 1'
_cell_length_a   5.95594671
_cell_length_b   5.95594716
_cell_length_c   5.95594586
_cell_angle_alpha   94.91774762
_cell_angle_beta   94.91775474
_cell_angle_gamma   94.91776649
_symmetry_Int_Tables_number   1
_chemical_formula_structural   Yb6Fe2N7
_chemical_formula_sum   'Yb6 Fe2 N7'
_cell_volume   208.80048033
_cell_formula_units_Z   1
loop_
 _symmetry_equiv_pos_site_id
 _symmetry_equiv_pos_as_xyz
  1  'x, y, z'
loop_
 _atom_site_type_symbol
 _atom_site_label
 _atom_site_symmetry_multiplicity
 _atom_site_fract_x
 _atom_site_fract_y
 _atom_site_fract_z
 _atom_site_occupancy
  Yb  Yb0  1  0.656224  0.104837  0.800279  1
  Yb  Yb1  1  0.104837  0.800279  0.656224  1
  Yb  Yb2  1  0.800279  0.656224  0.104837  1
  Yb  Yb3  1  0.343776  0.895163  0.199721  1
  Yb  Yb4  1  0.895163  0.199721  0.343776  1
  Yb  Yb5  1  0.199721  0.343776  0.895163  1
  Fe  Fe6  1  0.633072  0.633072  0.633072  1
  Fe  Fe7  1  0.366928  0.366928  0.366928  1
  N  N8  1  0.000000  0.000000  0.000000  1
  N  N9  1  0.718613  0.843904  0.466166  1
  N  N10  1  0.843904  0.466166  0.718613  1
  N  N11  1  0.466166  0.718613  0.843904  1
  N  N12  1  0.281387  0.156096  0.533834  1
  N  N13  1  0.156096  0.533834  0.281387  1
  N  N14  1  0.533834  0.281387  0.156096  1
