# generated using pymatgen
data_Ac2Al16RePt8
_symmetry_space_group_name_H-M   'P 1'
_cell_length_a   11.21489541
_cell_length_b   11.21489711
_cell_length_c   11.21489700
_cell_angle_alpha   158.42179054
_cell_angle_beta   116.66145936
_cell_angle_gamma   67.75088580
_symmetry_Int_Tables_number   1
_chemical_formula_structural   Ac2Al16RePt8
_chemical_formula_sum   'Ac2 Al16 Re1 Pt8'
_cell_volume   460.38419130
_cell_formula_units_Z   1
loop_
 _symmetry_equiv_pos_site_id
 _symmetry_equiv_pos_as_xyz
  1  'x, y, z'
loop_
 _atom_site_type_symbol
 _atom_site_label
 _atom_site_symmetry_multiplicity
 _atom_site_fract_x
 _atom_site_fract_y
 _atom_site_fract_z
 _atom_site_occupancy
  Ac  Ac0  1  0.230018  0.230041  0.999978  1
  Ac  Ac1  1  0.769937  0.769959  0.999978  1
  Al  Al2  1  0.278128  0.393897  0.884229  1
  Al  Al3  1  0.091286  0.925252  0.166034  1
  Al  Al4  1  0.502032  0.199252  0.302780  1
  Al  Al5  1  0.240781  0.074748  0.166034  1
  Al  Al6  1  0.909221  0.417680  0.491541  1
  Al  Al7  1  0.721681  0.597363  0.124319  1
  Al  Al8  1  0.904569  0.208402  0.696167  1
  Al  Al9  1  0.487765  0.791598  0.696167  1
  Al  Al10  1  0.387380  0.000000  0.387380  1
  Al  Al11  1  0.627659  0.000000  0.627659  1
  Al  Al12  1  0.490332  0.606103  0.884229  1
  Al  Al13  1  0.103528  0.800748  0.302780  1
  Al  Al14  1  0.904380  0.084956  0.819424  1
  Al  Al15  1  0.734468  0.915044  0.819424  1
  Al  Al16  1  0.526956  0.402637  0.124319  1
  Al  Al17  1  0.073860  0.582320  0.491541  1
  Re  Re18  1  0.784093  0.500000  0.284093  1
  Pt  Pt19  1  0.030460  0.344909  0.685553  1
  Pt  Pt20  1  0.625113  0.122020  0.503093  1
  Pt  Pt21  1  0.252363  0.500000  0.752363  1
  Pt  Pt22  1  0.381073  0.877980  0.503093  1
  Pt  Pt23  1  0.984192  0.000000  0.984192  1
  Pt  Pt24  1  0.644562  0.335522  0.309039  1
  Pt  Pt25  1  0.340644  0.655091  0.685553  1
  Pt  Pt26  1  0.973517  0.664478  0.309039  1
