# generated using pymatgen
data_CsRb5Na4(UAs3)2
_symmetry_space_group_name_H-M   'P 1'
_cell_length_a   10.77707248
_cell_length_b   10.77276782
_cell_length_c   16.79526996
_cell_angle_alpha   90.09458672
_cell_angle_beta   90.04121173
_cell_angle_gamma   140.54491833
_symmetry_Int_Tables_number   1
_chemical_formula_structural   CsRb5Na4(UAs3)2
_chemical_formula_sum   'Cs2 Rb10 Na8 U4 As12'
_cell_volume   1239.10904858
_cell_formula_units_Z   2
loop_
 _symmetry_equiv_pos_site_id
 _symmetry_equiv_pos_as_xyz
  1  'x, y, z'
loop_
 _atom_site_type_symbol
 _atom_site_label
 _atom_site_symmetry_multiplicity
 _atom_site_fract_x
 _atom_site_fract_y
 _atom_site_fract_z
 _atom_site_occupancy
  Cs  Cs0  1  0.947562  0.603911  0.822015  1
  Cs  Cs1  1  0.805150  0.805071  0.192305  1
  Rb  Rb2  1  0.601081  0.940599  0.827390  1
  Rb  Rb3  1  0.301815  0.302313  0.312720  1
  Rb  Rb4  1  0.198117  0.198623  0.811623  1
  Rb  Rb5  1  0.699150  0.698928  0.687879  1
  Rb  Rb6  1  0.442437  0.100483  0.671835  1
  Rb  Rb7  1  0.899196  0.557350  0.329013  1
  Rb  Rb8  1  0.059330  0.402141  0.171638  1
  Rb  Rb9  1  0.401945  0.059958  0.171574  1
  Rb  Rb10  1  0.557700  0.899584  0.328080  1
  Rb  Rb11  1  0.101859  0.441415  0.672604  1
  Na  Na12  1  0.081832  0.919205  0.999973  1
  Na  Na13  1  0.579305  0.415946  0.500522  1
  Na  Na14  1  0.919554  0.082373  0.000309  1
  Na  Na15  1  0.749704  0.243597  0.999166  1
  Na  Na16  1  0.747154  0.252709  0.500009  1
  Na  Na17  1  0.244147  0.750115  0.999489  1
  Na  Na18  1  0.253329  0.747245  0.499539  1
  Na  Na19  1  0.416469  0.580824  0.501693  1
  U  U20  1  0.065912  0.933886  0.500357  1
  U  U21  1  0.434770  0.567760  0.999896  1
  U  U22  1  0.933475  0.066201  0.501467  1
  U  U23  1  0.567027  0.435125  0.999138  1
  As  As24  1  0.054001  0.359219  0.407375  1
  As  As25  1  0.862735  0.554228  0.090367  1
  As  As26  1  0.441768  0.137267  0.907121  1
  As  As27  1  0.638725  0.945986  0.593867  1
  As  As28  1  0.944442  0.637265  0.590383  1
  As  As29  1  0.138283  0.441501  0.907307  1
  As  As30  1  0.554566  0.863966  0.091041  1
  As  As31  1  0.359119  0.053727  0.406490  1
  As  As32  1  0.242848  0.242071  0.605808  1
  As  As33  1  0.740707  0.743236  0.895080  1
  As  As34  1  0.263390  0.263721  0.105132  1
  As  As35  1  0.751400  0.752448  0.399794  1
