# generated using pymatgen
data_Tb4Re3Os2Ru3
_symmetry_space_group_name_H-M   'P 1'
_cell_length_a   5.27961981
_cell_length_b   5.15317389
_cell_length_c   9.16856700
_cell_angle_alpha   90.00000000
_cell_angle_beta   90.00000000
_cell_angle_gamma   117.40038091
_symmetry_Int_Tables_number   1
_chemical_formula_structural   Tb4Re3Os2Ru3
_chemical_formula_sum   'Tb4 Re3 Os2 Ru3'
_cell_volume   221.46243994
_cell_formula_units_Z   1
loop_
 _symmetry_equiv_pos_site_id
 _symmetry_equiv_pos_as_xyz
  1  'x, y, z'
loop_
 _atom_site_type_symbol
 _atom_site_label
 _atom_site_symmetry_multiplicity
 _atom_site_fract_x
 _atom_site_fract_y
 _atom_site_fract_z
 _atom_site_occupancy
  Tb  Tb0  1  0.329832  0.664651  0.436463  1
  Tb  Tb1  1  0.670912  0.332153  0.565396  1
  Tb  Tb2  1  0.670912  0.332153  0.934604  1
  Tb  Tb3  1  0.329832  0.664651  0.063537  1
  Re  Re4  1  0.835361  0.170582  0.250000  1
  Re  Re5  1  0.835378  0.666200  0.250000  1
  Re  Re6  1  0.160028  0.837411  0.750000  1
  Os  Os7  1  0.348292  0.174532  0.250000  1
  Os  Os8  1  0.166581  0.346828  0.750000  1
  Ru  Ru9  1  0.002477  0.991781  0.502345  1
  Ru  Ru10  1  0.002477  0.991781  0.997655  1
  Ru  Ru11  1  0.647917  0.827278  0.750000  1
