# generated using pymatgen
data_Ba6TbYb2USe12
_symmetry_space_group_name_H-M   'P 1'
_cell_length_a   8.91872009
_cell_length_b   8.91871894
_cell_length_c   8.91872000
_cell_angle_alpha   91.94929051
_cell_angle_beta   91.94929669
_cell_angle_gamma   91.94929831
_symmetry_Int_Tables_number   1
_chemical_formula_structural   Ba6TbYb2USe12
_chemical_formula_sum   'Ba6 Tb1 Yb2 U1 Se12'
_cell_volume   708.16644385
_cell_formula_units_Z   1
loop_
 _symmetry_equiv_pos_site_id
 _symmetry_equiv_pos_as_xyz
  1  'x, y, z'
loop_
 _atom_site_type_symbol
 _atom_site_label
 _atom_site_symmetry_multiplicity
 _atom_site_fract_x
 _atom_site_fract_y
 _atom_site_fract_z
 _atom_site_occupancy
  Ba  Ba0  1  0.868994  0.623306  0.257568  1
  Ba  Ba1  1  0.257568  0.868994  0.623306  1
  Ba  Ba2  1  0.623306  0.257568  0.868994  1
  Ba  Ba3  1  0.742432  0.131006  0.376694  1
  Ba  Ba4  1  0.376694  0.742432  0.131006  1
  Ba  Ba5  1  0.131006  0.376694  0.742432  1
  Tb  Tb6  1  0.500000  0.500000  0.500000  1
  Yb  Yb7  1  0.255321  0.255321  0.255321  1
  Yb  Yb8  1  0.744679  0.744679  0.744679  1
  U  U9  1  0.000000  0.000000  0.000000  1
  Se  Se10  1  0.196218  0.548725  0.407317  1
  Se  Se11  1  0.407317  0.196218  0.548725  1
  Se  Se12  1  0.548725  0.407317  0.196218  1
  Se  Se13  1  0.918055  0.044435  0.704037  1
  Se  Se14  1  0.704037  0.918055  0.044435  1
  Se  Se15  1  0.044435  0.704037  0.918055  1
  Se  Se16  1  0.803782  0.451275  0.592683  1
  Se  Se17  1  0.592683  0.803782  0.451275  1
  Se  Se18  1  0.451275  0.592683  0.803782  1
  Se  Se19  1  0.081945  0.955565  0.295963  1
  Se  Se20  1  0.295963  0.081945  0.955565  1
  Se  Se21  1  0.955565  0.295963  0.081945  1
