# generated using pymatgen
data_Sr2Ag(H6Pt)2
_symmetry_space_group_name_H-M   'P 1'
_cell_length_a   5.02373100
_cell_length_b   5.02373154
_cell_length_c   9.42809700
_cell_angle_alpha   90.00000000
_cell_angle_beta   90.00000000
_cell_angle_gamma   120.00000304
_symmetry_Int_Tables_number   1
_chemical_formula_structural   Sr2Ag(H6Pt)2
_chemical_formula_sum   'Sr2 Ag1 H12 Pt2'
_cell_volume   206.06653110
_cell_formula_units_Z   1
loop_
 _symmetry_equiv_pos_site_id
 _symmetry_equiv_pos_as_xyz
  1  'x, y, z'
loop_
 _atom_site_type_symbol
 _atom_site_label
 _atom_site_symmetry_multiplicity
 _atom_site_fract_x
 _atom_site_fract_y
 _atom_site_fract_z
 _atom_site_occupancy
  Sr  Sr0  1  0.000000  0.000000  0.998782  1
  Sr  Sr1  1  0.333333  0.666667  0.608633  1
  Ag  Ag2  1  0.666667  0.333333  0.251223  1
  H  H3  1  0.179064  0.820936  0.352906  1
  H  H4  1  0.641872  0.820936  0.352906  1
  H  H5  1  0.179064  0.358128  0.352906  1
  H  H6  1  0.826138  0.173862  0.676087  1
  H  H7  1  0.347722  0.173862  0.676087  1
  H  H8  1  0.826138  0.652278  0.676087  1
  H  H9  1  0.507872  0.015744  0.877350  1
  H  H10  1  0.507872  0.492128  0.877350  1
  H  H11  1  0.984256  0.492128  0.877350  1
  H  H12  1  0.483203  0.966405  0.131700  1
  H  H13  1  0.483203  0.516797  0.131700  1
  H  H14  1  0.033595  0.516797  0.131700  1
  Pt  Pt15  1  0.666667  0.333333  0.776507  1
  Pt  Pt16  1  0.333333  0.666667  0.250722  1
