# generated using pymatgen
data_YbEr3TcRu7
_symmetry_space_group_name_H-M   'P 1'
_cell_length_a   5.18729517
_cell_length_b   5.34873564
_cell_length_c   8.94263985
_cell_angle_alpha   90.00000081
_cell_angle_beta   89.92126902
_cell_angle_gamma   121.03496832
_symmetry_Int_Tables_number   1
_chemical_formula_structural   YbEr3TcRu7
_chemical_formula_sum   'Yb1 Er3 Tc1 Ru7'
_cell_volume   212.60011760
_cell_formula_units_Z   1
loop_
 _symmetry_equiv_pos_site_id
 _symmetry_equiv_pos_as_xyz
  1  'x, y, z'
loop_
 _atom_site_type_symbol
 _atom_site_label
 _atom_site_symmetry_multiplicity
 _atom_site_fract_x
 _atom_site_fract_y
 _atom_site_fract_z
 _atom_site_occupancy
  Yb  Yb0  1  0.326560  0.663281  0.433737  1
  Er  Er1  1  0.655603  0.327800  0.562337  1
  Er  Er2  1  0.656083  0.328040  0.934440  1
  Er  Er3  1  0.327788  0.663895  0.070716  1
  Tc  Tc4  1  0.684271  0.842135  0.749049  1
  Ru  Ru5  1  0.977146  0.988573  0.499103  1
  Ru  Ru6  1  0.977195  0.988597  0.000321  1
  Ru  Ru7  1  0.836018  0.165578  0.249681  1
  Ru  Ru8  1  0.836018  0.670442  0.249681  1
  Ru  Ru9  1  0.360690  0.180345  0.248333  1
  Ru  Ru10  1  0.181315  0.827761  0.751301  1
  Ru  Ru11  1  0.181315  0.353554  0.751301  1
