# generated using pymatgen
data_LiTb6Dy10Cd3Ir4
_symmetry_space_group_name_H-M   'P 1'
_cell_length_a   9.67334494
_cell_length_b   9.67334487
_cell_length_c   9.67334501
_cell_angle_alpha   59.80520646
_cell_angle_beta   59.80520769
_cell_angle_gamma   59.80520882
_symmetry_Int_Tables_number   1
_chemical_formula_structural   LiTb6Dy10Cd3Ir4
_chemical_formula_sum   'Li1 Tb6 Dy10 Cd3 Ir4'
_cell_volume   637.22146888
_cell_formula_units_Z   1
loop_
 _symmetry_equiv_pos_site_id
 _symmetry_equiv_pos_as_xyz
  1  'x, y, z'
loop_
 _atom_site_type_symbol
 _atom_site_label
 _atom_site_symmetry_multiplicity
 _atom_site_fract_x
 _atom_site_fract_y
 _atom_site_fract_z
 _atom_site_occupancy
  Li  Li0  1  0.821320  0.821320  0.821320  1
  Tb  Tb1  1  0.188732  0.811611  0.811611  1
  Tb  Tb2  1  0.812630  0.186583  0.186583  1
  Tb  Tb3  1  0.811611  0.188732  0.811611  1
  Tb  Tb4  1  0.186583  0.812630  0.186583  1
  Tb  Tb5  1  0.811611  0.811611  0.188732  1
  Tb  Tb6  1  0.186583  0.186583  0.812630  1
  Dy  Dy7  1  0.599758  0.599758  0.599758  1
  Dy  Dy8  1  0.597837  0.597837  0.207316  1
  Dy  Dy9  1  0.597837  0.207316  0.597837  1
  Dy  Dy10  1  0.207316  0.597837  0.597837  1
  Dy  Dy11  1  0.060938  0.439458  0.439458  1
  Dy  Dy12  1  0.435252  0.062951  0.062951  1
  Dy  Dy13  1  0.439458  0.060938  0.439458  1
  Dy  Dy14  1  0.062951  0.435252  0.062951  1
  Dy  Dy15  1  0.439458  0.439458  0.060938  1
  Dy  Dy16  1  0.062951  0.062951  0.435252  1
  Cd  Cd17  1  0.832141  0.832141  0.507444  1
  Cd  Cd18  1  0.832141  0.507444  0.832141  1
  Cd  Cd19  1  0.507444  0.832141  0.832141  1
  Ir  Ir20  1  0.392017  0.392017  0.392017  1
  Ir  Ir21  1  0.393781  0.393781  0.825875  1
  Ir  Ir22  1  0.393781  0.825875  0.393781  1
  Ir  Ir23  1  0.825875  0.393781  0.393781  1
