# generated using pymatgen
data_Yb4SiAgPt4
_symmetry_space_group_name_H-M   'P 1'
_cell_length_a   5.62194392
_cell_length_b   5.62194519
_cell_length_c   7.94204396
_cell_angle_alpha   77.64602059
_cell_angle_beta   77.64601744
_cell_angle_gamma   59.42752762
_symmetry_Int_Tables_number   1
_chemical_formula_structural   Yb4SiAgPt4
_chemical_formula_sum   'Yb4 Si1 Ag1 Pt4'
_cell_volume   209.46311197
_cell_formula_units_Z   1
loop_
 _symmetry_equiv_pos_site_id
 _symmetry_equiv_pos_as_xyz
  1  'x, y, z'
loop_
 _atom_site_type_symbol
 _atom_site_label
 _atom_site_symmetry_multiplicity
 _atom_site_fract_x
 _atom_site_fract_y
 _atom_site_fract_z
 _atom_site_occupancy
  Yb  Yb0  1  0.792358  0.509448  0.848828  1
  Yb  Yb1  1  0.490552  0.207642  0.651172  1
  Yb  Yb2  1  0.211545  0.495543  0.148088  1
  Yb  Yb3  1  0.504457  0.788455  0.351912  1
  Si  Si4  1  0.878835  0.121165  0.250000  1
  Ag  Ag5  1  0.172974  0.827026  0.750000  1
  Pt  Pt6  1  0.986074  0.742778  0.485007  1
  Pt  Pt7  1  0.257222  0.013926  0.014993  1
  Pt  Pt8  1  0.979866  0.273882  0.474902  1
  Pt  Pt9  1  0.726118  0.020134  0.025098  1
