# generated using pymatgen
data_Yb6TmLu3Ge8
_symmetry_space_group_name_H-M   'P 1'
_cell_length_a   7.33026700
_cell_length_b   7.85049501
_cell_length_c   15.03153201
_cell_angle_alpha   89.99572321
_cell_angle_beta   90.00000000
_cell_angle_gamma   90.00000000
_symmetry_Int_Tables_number   1
_chemical_formula_structural   Yb6TmLu3Ge8
_chemical_formula_sum   'Yb12 Tm2 Lu6 Ge16'
_cell_volume   865.00791283
_cell_formula_units_Z   2
loop_
 _symmetry_equiv_pos_site_id
 _symmetry_equiv_pos_as_xyz
  1  'x, y, z'
loop_
 _atom_site_type_symbol
 _atom_site_label
 _atom_site_symmetry_multiplicity
 _atom_site_fract_x
 _atom_site_fract_y
 _atom_site_fract_z
 _atom_site_occupancy
  Yb  Yb0  1  0.983465  0.813976  0.405817  1
  Yb  Yb1  1  0.483465  0.686024  0.094183  1
  Yb  Yb2  1  0.516515  0.313950  0.594224  1
  Yb  Yb3  1  0.016515  0.186050  0.905776  1
  Yb  Yb4  1  0.016603  0.186015  0.594246  1
  Yb  Yb5  1  0.516603  0.313985  0.905754  1
  Yb  Yb6  1  0.483366  0.686094  0.405829  1
  Yb  Yb7  1  0.983366  0.813906  0.094171  1
  Yb  Yb8  1  0.341944  0.019500  0.749984  1
  Yb  Yb9  1  0.841944  0.480500  0.750016  1
  Yb  Yb10  1  0.158113  0.519650  0.250007  1
  Yb  Yb11  1  0.658113  0.980350  0.249993  1
  Tm  Tm12  1  0.319544  0.171415  0.121297  1
  Tm  Tm13  1  0.819544  0.328585  0.378703  1
  Lu  Lu14  1  0.180470  0.671335  0.878634  1
  Lu  Lu15  1  0.680470  0.828665  0.621366  1
  Lu  Lu16  1  0.319509  0.171204  0.378722  1
  Lu  Lu17  1  0.819509  0.328796  0.121278  1
  Lu  Lu18  1  0.180519  0.671339  0.621380  1
  Lu  Lu19  1  0.680519  0.828661  0.878620  1
  Ge  Ge20  1  0.842308  0.534621  0.540024  1
  Ge  Ge21  1  0.342308  0.965379  0.959976  1
  Ge  Ge22  1  0.657457  0.034197  0.460234  1
  Ge  Ge23  1  0.157457  0.465803  0.039766  1
  Ge  Ge24  1  0.158056  0.465686  0.460209  1
  Ge  Ge25  1  0.658056  0.034314  0.039791  1
  Ge  Ge26  1  0.342206  0.965537  0.539873  1
  Ge  Ge27  1  0.842206  0.534463  0.960127  1
  Ge  Ge28  1  0.975750  0.873649  0.750001  1
  Ge  Ge29  1  0.475750  0.626351  0.749999  1
  Ge  Ge30  1  0.524270  0.373938  0.249936  1
  Ge  Ge31  1  0.024270  0.126062  0.250064  1
  Ge  Ge32  1  0.235385  0.387206  0.750000  1
  Ge  Ge33  1  0.735385  0.112794  0.750000  1
  Ge  Ge34  1  0.264522  0.887037  0.250098  1
  Ge  Ge35  1  0.764522  0.612963  0.249902  1
