# generated using pymatgen
data_Dy2YIn3Ag2Rh
_symmetry_space_group_name_H-M   'P 1'
_cell_length_a   7.82447253
_cell_length_b   7.80962813
_cell_length_c   3.91457900
_cell_angle_alpha   90.00000000
_cell_angle_beta   90.00000000
_cell_angle_gamma   119.99107512
_symmetry_Int_Tables_number   1
_chemical_formula_structural   Dy2YIn3Ag2Rh
_chemical_formula_sum   'Dy2 Y1 In3 Ag2 Rh1'
_cell_volume   207.17634596
_cell_formula_units_Z   1
loop_
 _symmetry_equiv_pos_site_id
 _symmetry_equiv_pos_as_xyz
  1  'x, y, z'
loop_
 _atom_site_type_symbol
 _atom_site_label
 _atom_site_symmetry_multiplicity
 _atom_site_fract_x
 _atom_site_fract_y
 _atom_site_fract_z
 _atom_site_occupancy
  Dy  Dy0  1  0.576965  0.972312  0.500000  1
  Dy  Dy1  1  0.395190  0.422914  0.500000  1
  Y  Y2  1  0.026499  0.604596  0.500000  1
  In  In3  1  0.998895  0.264024  0.000000  1
  In  In4  1  0.265242  0.001229  0.000000  1
  In  In5  1  0.735951  0.734799  0.000000  1
  Ag  Ag6  1  0.999945  0.000295  0.500000  1
  Ag  Ag7  1  0.666016  0.332759  0.000000  1
  Rh  Rh8  1  0.335298  0.667072  0.000000  1
