# generated using pymatgen
data_Hf6Al16Os3Au4
_symmetry_space_group_name_H-M   'P 1'
_cell_length_a   8.85285413
_cell_length_b   8.76915066
_cell_length_c   8.85285502
_cell_angle_alpha   60.31228335
_cell_angle_beta   59.37544142
_cell_angle_gamma   60.31228666
_symmetry_Int_Tables_number   1
_chemical_formula_structural   Hf6Al16Os3Au4
_chemical_formula_sum   'Hf6 Al16 Os3 Au4'
_cell_volume   485.88366692
_cell_formula_units_Z   1
loop_
 _symmetry_equiv_pos_site_id
 _symmetry_equiv_pos_as_xyz
  1  'x, y, z'
loop_
 _atom_site_type_symbol
 _atom_site_label
 _atom_site_symmetry_multiplicity
 _atom_site_fract_x
 _atom_site_fract_y
 _atom_site_fract_z
 _atom_site_occupancy
  Hf  Hf0  1  0.182057  0.817943  0.817943  1
  Hf  Hf1  1  0.817943  0.182057  0.182057  1
  Hf  Hf2  1  0.811064  0.188936  0.811064  1
  Hf  Hf3  1  0.817943  0.817943  0.182057  1
  Hf  Hf4  1  0.188936  0.811064  0.188936  1
  Hf  Hf5  1  0.182057  0.182057  0.817943  1
  Al  Al6  1  0.840126  0.829801  0.840126  1
  Al  Al7  1  0.829801  0.840126  0.489947  1
  Al  Al8  1  0.489947  0.840126  0.829801  1
  Al  Al9  1  0.840126  0.489947  0.840126  1
  Al  Al10  1  0.159874  0.170199  0.159874  1
  Al  Al11  1  0.170199  0.159874  0.510053  1
  Al  Al12  1  0.159874  0.510053  0.159874  1
  Al  Al13  1  0.510053  0.159874  0.170199  1
  Al  Al14  1  0.610364  0.631774  0.610364  1
  Al  Al15  1  0.631774  0.610364  0.147498  1
  Al  Al16  1  0.147498  0.610364  0.631774  1
  Al  Al17  1  0.610364  0.147498  0.610364  1
  Al  Al18  1  0.389636  0.368226  0.389636  1
  Al  Al19  1  0.368226  0.389636  0.852502  1
  Al  Al20  1  0.389636  0.852502  0.389636  1
  Al  Al21  1  0.852502  0.389636  0.368226  1
  Os  Os22  1  0.500000  0.500000  0.500000  1
  Os  Os23  1  0.500000  0.000000  0.500000  1
  Os  Os24  1  0.000000  0.500000  0.000000  1
  Au  Au25  1  0.000000  0.500000  0.500000  1
  Au  Au26  1  0.500000  0.000000  0.000000  1
  Au  Au27  1  0.500000  0.500000  0.000000  1
  Au  Au28  1  0.000000  0.000000  0.500000  1
