# generated using pymatgen
data_TaGaSiRh5
_symmetry_space_group_name_H-M   'P 1'
_cell_length_a   4.06343600
_cell_length_b   5.43922495
_cell_length_c   10.45429333
_cell_angle_alpha   86.19331487
_cell_angle_beta   90.00000000
_cell_angle_gamma   90.00000000
_symmetry_Int_Tables_number   1
_chemical_formula_structural   TaGaSiRh5
_chemical_formula_sum   'Ta2 Ga2 Si2 Rh10'
_cell_volume   230.55040831
_cell_formula_units_Z   2
loop_
 _symmetry_equiv_pos_site_id
 _symmetry_equiv_pos_as_xyz
  1  'x, y, z'
loop_
 _atom_site_type_symbol
 _atom_site_label
 _atom_site_symmetry_multiplicity
 _atom_site_fract_x
 _atom_site_fract_y
 _atom_site_fract_z
 _atom_site_occupancy
  Ta  Ta0  1  0.500000  0.153723  0.646829  1
  Ta  Ta1  1  0.500000  0.846277  0.353171  1
  Ga  Ga2  1  0.500000  0.640147  0.857398  1
  Ga  Ga3  1  0.500000  0.359853  0.142602  1
  Si  Si4  1  0.000000  0.500000  0.500000  1
  Si  Si5  1  0.000000  0.000000  0.000000  1
  Rh  Rh6  1  0.500000  0.323980  0.399237  1
  Rh  Rh7  1  0.500000  0.676020  0.600763  1
  Rh  Rh8  1  0.500000  0.824641  0.103940  1
  Rh  Rh9  1  0.500000  0.175359  0.896060  1
  Rh  Rh10  1  0.000000  0.396516  0.733140  1
  Rh  Rh11  1  0.000000  0.603484  0.266860  1
  Rh  Rh12  1  0.000000  0.894651  0.774911  1
  Rh  Rh13  1  0.000000  0.105349  0.225089  1
  Rh  Rh14  1  0.000000  0.500000  0.000000  1
  Rh  Rh15  1  0.000000  0.000000  0.500000  1
