# generated using pymatgen
data_Tm10(InBi)3
_symmetry_space_group_name_H-M   'P 1'
_cell_length_a   6.49098400
_cell_length_b   8.95648749
_cell_length_c   8.95741559
_cell_angle_alpha   119.99656813
_cell_angle_beta   90.00005852
_cell_angle_gamma   89.99987692
_symmetry_Int_Tables_number   1
_chemical_formula_structural   Tm10(InBi)3
_chemical_formula_sum   'Tm10 In3 Bi3'
_cell_volume   451.00009732
_cell_formula_units_Z   1
loop_
 _symmetry_equiv_pos_site_id
 _symmetry_equiv_pos_as_xyz
  1  'x, y, z'
loop_
 _atom_site_type_symbol
 _atom_site_label
 _atom_site_symmetry_multiplicity
 _atom_site_fract_x
 _atom_site_fract_y
 _atom_site_fract_z
 _atom_site_occupancy
  Tm  Tm0  1  0.492078  0.333333  0.666659  1
  Tm  Tm1  1  0.492078  0.666674  0.333341  1
  Tm  Tm2  1  0.007923  0.666670  0.333342  1
  Tm  Tm3  1  0.007923  0.333329  0.666658  1
  Tm  Tm4  1  0.750002  0.236308  0.000000  1
  Tm  Tm5  1  0.749998  0.763424  0.763532  1
  Tm  Tm6  1  0.749998  0.999892  0.236468  1
  Tm  Tm7  1  0.250001  0.762267  0.000000  1
  Tm  Tm8  1  0.249998  0.237971  0.237868  1
  Tm  Tm9  1  0.249998  0.000103  0.762132  1
  In  In10  1  0.250000  0.393542  0.000000  1
  In  In11  1  0.250000  0.606685  0.606658  1
  In  In12  1  0.250000  0.000026  0.393342  1
  Bi  Bi13  1  0.750002  0.604161  0.000000  1
  Bi  Bi14  1  0.749999  0.395648  0.395680  1
  Bi  Bi15  1  0.749999  0.999969  0.604320  1
