# generated using pymatgen
data_Pr(AlI4)3
_symmetry_space_group_name_H-M   'P 1'
_cell_length_a   11.70402700
_cell_length_b   11.70402664
_cell_length_c   20.32407100
_cell_angle_alpha   90.00000000
_cell_angle_beta   90.00000000
_cell_angle_gamma   120.00000385
_symmetry_Int_Tables_number   1
_chemical_formula_structural   Pr(AlI4)3
_chemical_formula_sum   'Pr3 Al9 I36'
_cell_volume   2411.08174406
_cell_formula_units_Z   3
loop_
 _symmetry_equiv_pos_site_id
 _symmetry_equiv_pos_as_xyz
  1  'x, y, z'
loop_
 _atom_site_type_symbol
 _atom_site_label
 _atom_site_symmetry_multiplicity
 _atom_site_fract_x
 _atom_site_fract_y
 _atom_site_fract_z
 _atom_site_occupancy
  Pr  Pr0  1  0.000000  0.735980  0.666667  1
  Pr  Pr1  1  0.735980  0.000000  0.333333  1
  Pr  Pr2  1  0.264020  0.264020  0.000000  1
  Al  Al3  1  0.902645  0.902645  0.500000  1
  Al  Al4  1  0.341124  0.703751  0.387423  1
  Al  Al5  1  0.296249  0.637373  0.720757  1
  Al  Al6  1  0.362627  0.658876  0.054090  1
  Al  Al7  1  0.097355  0.000000  0.833333  1
  Al  Al8  1  0.000000  0.097355  0.166667  1
  Al  Al9  1  0.703751  0.341124  0.612577  1
  Al  Al10  1  0.658876  0.362627  0.945910  1
  Al  Al11  1  0.637373  0.296249  0.279243  1
  I  I12  1  0.289978  0.507967  0.458093  1
  I  I13  1  0.217991  0.710022  0.124760  1
  I  I14  1  0.492033  0.782009  0.791427  1
  I  I15  1  0.713358  0.486461  0.712443  1
  I  I16  1  0.513539  0.226896  0.045777  1
  I  I17  1  0.773104  0.286642  0.379110  1
  I  I18  1  0.226896  0.513539  0.954223  1
  I  I19  1  0.286642  0.773104  0.620890  1
  I  I20  1  0.486461  0.713358  0.287557  1
  I  I21  1  0.923983  0.515305  0.554229  1
  I  I22  1  0.484695  0.408677  0.887563  1
  I  I23  1  0.591323  0.076017  0.220896  1
  I  I24  1  0.408677  0.484695  0.112437  1
  I  I25  1  0.076017  0.591323  0.779104  1
  I  I26  1  0.515305  0.923983  0.445771  1
  I  I27  1  0.126141  0.928227  0.531033  1
  I  I28  1  0.071773  0.197914  0.864366  1
  I  I29  1  0.802086  0.873859  0.197699  1
  I  I30  1  0.197914  0.071773  0.135634  1
  I  I31  1  0.873859  0.802086  0.802301  1
  I  I32  1  0.928227  0.126141  0.468967  1
  I  I33  1  0.232277  0.028883  0.728758  1
  I  I34  1  0.971117  0.203394  0.062092  1
  I  I35  1  0.796606  0.767723  0.395425  1
  I  I36  1  0.203394  0.971117  0.937908  1
  I  I37  1  0.767723  0.796606  0.604575  1
  I  I38  1  0.028883  0.232277  0.271242  1
  I  I39  1  0.147929  0.723182  0.348670  1
  I  I40  1  0.276818  0.424747  0.682003  1
  I  I41  1  0.575253  0.852071  0.015337  1
  I  I42  1  0.424747  0.276818  0.317997  1
  I  I43  1  0.852071  0.575253  0.984663  1
  I  I44  1  0.723182  0.147929  0.651330  1
  I  I45  1  0.507967  0.289978  0.541906  1
  I  I46  1  0.710022  0.217991  0.875240  1
  I  I47  1  0.782009  0.492033  0.208573  1
