# generated using pymatgen
data_Er7Tm3Cd3Co
_symmetry_space_group_name_H-M   'P 1'
_cell_length_a   9.48997501
_cell_length_b   9.48997500
_cell_length_c   9.65426900
_cell_angle_alpha   89.99718589
_cell_angle_beta   90.00281325
_cell_angle_gamma   119.99562193
_symmetry_Int_Tables_number   1
_chemical_formula_structural   Er7Tm3Cd3Co
_chemical_formula_sum   'Er14 Tm6 Cd6 Co2'
_cell_volume   753.00753461
_cell_formula_units_Z   2
loop_
 _symmetry_equiv_pos_site_id
 _symmetry_equiv_pos_as_xyz
  1  'x, y, z'
loop_
 _atom_site_type_symbol
 _atom_site_label
 _atom_site_symmetry_multiplicity
 _atom_site_fract_x
 _atom_site_fract_y
 _atom_site_fract_z
 _atom_site_occupancy
  Er  Er0  1  0.542291  0.457709  0.250060  1
  Er  Er1  1  0.542348  0.084619  0.250134  1
  Er  Er2  1  0.915381  0.457652  0.250134  1
  Er  Er3  1  0.457663  0.542337  0.749868  1
  Er  Er4  1  0.457742  0.915415  0.749829  1
  Er  Er5  1  0.084585  0.542258  0.749829  1
  Er  Er6  1  0.787969  0.575827  0.563095  1
  Er  Er7  1  0.424173  0.212031  0.563095  1
  Er  Er8  1  0.787929  0.212071  0.936763  1
  Er  Er9  1  0.787966  0.575936  0.936886  1
  Er  Er10  1  0.424064  0.212034  0.936886  1
  Er  Er11  1  0.212014  0.787986  0.063221  1
  Er  Er12  1  0.212002  0.424022  0.063223  1
  Er  Er13  1  0.575978  0.787998  0.063223  1
  Tm  Tm14  1  0.999950  0.000050  0.499996  1
  Tm  Tm15  1  0.000003  0.999997  0.999958  1
  Tm  Tm16  1  0.212171  0.787829  0.436892  1
  Tm  Tm17  1  0.212111  0.424314  0.436909  1
  Tm  Tm18  1  0.575686  0.787889  0.436909  1
  Tm  Tm19  1  0.787971  0.212029  0.563008  1
  Cd  Cd20  1  0.885054  0.114946  0.250066  1
  Cd  Cd21  1  0.885059  0.770126  0.250026  1
  Cd  Cd22  1  0.229874  0.114941  0.250026  1
  Cd  Cd23  1  0.114947  0.885053  0.749943  1
  Cd  Cd24  1  0.114919  0.229870  0.749937  1
  Cd  Cd25  1  0.770130  0.885081  0.749937  1
  Co  Co26  1  0.333333  0.666667  0.250228  1
  Co  Co27  1  0.666689  0.333311  0.749917  1
