# generated using pymatgen
data_Pr6ScCo16TcP12
_symmetry_space_group_name_H-M   'P 1'
_cell_length_a   3.79259700
_cell_length_b   10.78027000
_cell_length_c   12.55571600
_cell_angle_alpha   90.00000000
_cell_angle_beta   90.00000000
_cell_angle_gamma   90.00000000
_symmetry_Int_Tables_number   1
_chemical_formula_structural   Pr6ScCo16TcP12
_chemical_formula_sum   'Pr6 Sc1 Co16 Tc1 P12'
_cell_volume   513.34320666
_cell_formula_units_Z   1
loop_
 _symmetry_equiv_pos_site_id
 _symmetry_equiv_pos_as_xyz
  1  'x, y, z'
loop_
 _atom_site_type_symbol
 _atom_site_label
 _atom_site_symmetry_multiplicity
 _atom_site_fract_x
 _atom_site_fract_y
 _atom_site_fract_z
 _atom_site_occupancy
  Pr  Pr0  1  0.000000  0.500000  0.523343  1
  Pr  Pr1  1  0.500000  0.000000  0.473954  1
  Pr  Pr2  1  0.500000  0.818057  0.205398  1
  Pr  Pr3  1  0.500000  0.181943  0.205398  1
  Pr  Pr4  1  0.000000  0.679638  0.792976  1
  Pr  Pr5  1  0.000000  0.320362  0.792976  1
  Sc  Sc6  1  0.000000  0.000000  0.849710  1
  Co  Co7  1  0.500000  0.500000  0.705603  1
  Co  Co8  1  0.000000  0.000000  0.294492  1
  Co  Co9  1  0.000000  0.500000  0.990939  1
  Co  Co10  1  0.500000  0.000000  0.014690  1
  Co  Co11  1  0.500000  0.336514  0.995431  1
  Co  Co12  1  0.500000  0.663486  0.995431  1
  Co  Co13  1  0.000000  0.173294  0.008368  1
  Co  Co14  1  0.000000  0.826706  0.008368  1
  Co  Co15  1  0.500000  0.297656  0.429348  1
  Co  Co16  1  0.500000  0.702344  0.429348  1
  Co  Co17  1  0.000000  0.205118  0.566431  1
  Co  Co18  1  0.000000  0.794882  0.566431  1
  Co  Co19  1  0.500000  0.879839  0.703733  1
  Co  Co20  1  0.500000  0.120161  0.703733  1
  Co  Co21  1  0.000000  0.617261  0.291383  1
  Co  Co22  1  0.000000  0.382739  0.291383  1
  Tc  Tc23  1  0.500000  0.500000  0.156565  1
  P  P24  1  0.500000  0.500000  0.887454  1
  P  P25  1  0.000000  0.000000  0.112037  1
  P  P26  1  0.500000  0.500000  0.343708  1
  P  P27  1  0.000000  0.000000  0.647730  1
  P  P28  1  0.500000  0.305539  0.612211  1
  P  P29  1  0.500000  0.694461  0.612211  1
  P  P30  1  0.000000  0.195456  0.385094  1
  P  P31  1  0.000000  0.804544  0.385094  1
  P  P32  1  0.500000  0.840195  0.901705  1
  P  P33  1  0.500000  0.159805  0.901705  1
  P  P34  1  0.000000  0.650252  0.107811  1
  P  P35  1  0.000000  0.349748  0.107811  1
