# generated using pymatgen
data_CeTm(SnHg2)2
_symmetry_space_group_name_H-M   'P 1'
_cell_length_a   4.86008600
_cell_length_b   4.51547500
_cell_length_c   9.22116000
_cell_angle_alpha   90.00000000
_cell_angle_beta   90.00000000
_cell_angle_gamma   90.00000000
_symmetry_Int_Tables_number   1
_chemical_formula_structural   CeTm(SnHg2)2
_chemical_formula_sum   'Ce1 Tm1 Sn2 Hg4'
_cell_volume   202.36385967
_cell_formula_units_Z   1
loop_
 _symmetry_equiv_pos_site_id
 _symmetry_equiv_pos_as_xyz
  1  'x, y, z'
loop_
 _atom_site_type_symbol
 _atom_site_label
 _atom_site_symmetry_multiplicity
 _atom_site_fract_x
 _atom_site_fract_y
 _atom_site_fract_z
 _atom_site_occupancy
  Ce  Ce0  1  0.000000  0.000000  0.000000  1
  Tm  Tm1  1  0.000000  0.000000  0.500000  1
  Sn  Sn2  1  0.000000  0.500000  0.255255  1
  Sn  Sn3  1  0.000000  0.500000  0.744745  1
  Hg  Hg4  1  0.500000  0.500000  0.000000  1
  Hg  Hg5  1  0.500000  0.500000  0.500000  1
  Hg  Hg6  1  0.500000  0.000000  0.255624  1
  Hg  Hg7  1  0.500000  0.000000  0.744376  1
