# generated using pymatgen
data_Yb4CuH12Rh
_symmetry_space_group_name_H-M   'P 1'
_cell_length_a   6.95627416
_cell_length_b   6.95627349
_cell_length_c   5.05625800
_cell_angle_alpha   90.01232190
_cell_angle_beta   90.01233013
_cell_angle_gamma   137.42514498
_symmetry_Int_Tables_number   1
_chemical_formula_structural   Yb4CuH12Rh
_chemical_formula_sum   'Yb4 Cu1 H12 Rh1'
_cell_volume   165.53286119
_cell_formula_units_Z   1
loop_
 _symmetry_equiv_pos_site_id
 _symmetry_equiv_pos_as_xyz
  1  'x, y, z'
loop_
 _atom_site_type_symbol
 _atom_site_label
 _atom_site_symmetry_multiplicity
 _atom_site_fract_x
 _atom_site_fract_y
 _atom_site_fract_z
 _atom_site_occupancy
  Yb  Yb0  1  0.148997  0.851003  0.500000  1
  Yb  Yb1  1  0.648174  0.351826  0.000000  1
  Yb  Yb2  1  0.851003  0.148997  0.500000  1
  Yb  Yb3  1  0.351826  0.648174  0.000000  1
  Cu  Cu4  1  0.000000  0.000000  0.000000  1
  H  H5  1  0.999939  0.500062  0.752036  1
  H  H6  1  0.499938  0.000061  0.247964  1
  H  H7  1  0.000061  0.499938  0.247964  1
  H  H8  1  0.500062  0.999939  0.752036  1
  H  H9  1  0.370826  0.629174  0.500000  1
  H  H10  1  0.876907  0.123093  0.000000  1
  H  H11  1  0.629174  0.370826  0.500000  1
  H  H12  1  0.123093  0.876907  0.000000  1
  H  H13  1  0.261611  0.261611  0.738348  1
  H  H14  1  0.738389  0.738389  0.261652  1
  H  H15  1  0.261364  0.261364  0.261678  1
  H  H16  1  0.738636  0.738636  0.738322  1
  Rh  Rh17  1  0.500000  0.500000  0.500000  1
