# generated using pymatgen
data_Ho3Mg3Hg2Bi
_symmetry_space_group_name_H-M   'P 1'
_cell_length_a   7.52627000
_cell_length_b   7.52627049
_cell_length_c   4.55958700
_cell_angle_alpha   90.00000000
_cell_angle_beta   90.00000000
_cell_angle_gamma   120.00000665
_symmetry_Int_Tables_number   1
_chemical_formula_structural   Ho3Mg3Hg2Bi
_chemical_formula_sum   'Ho3 Mg3 Hg2 Bi1'
_cell_volume   223.67411414
_cell_formula_units_Z   1
loop_
 _symmetry_equiv_pos_site_id
 _symmetry_equiv_pos_as_xyz
  1  'x, y, z'
loop_
 _atom_site_type_symbol
 _atom_site_label
 _atom_site_symmetry_multiplicity
 _atom_site_fract_x
 _atom_site_fract_y
 _atom_site_fract_z
 _atom_site_occupancy
  Ho  Ho0  1  0.408225  0.982209  0.000000  1
  Ho  Ho1  1  0.017791  0.426014  0.000000  1
  Ho  Ho2  1  0.573985  0.591776  0.000000  1
  Mg  Mg3  1  0.753026  0.985424  0.500000  1
  Mg  Mg4  1  0.232399  0.246974  0.500000  1
  Mg  Mg5  1  0.014576  0.767602  0.500000  1
  Hg  Hg6  1  0.000000  0.000000  0.000000  1
  Hg  Hg7  1  0.333333  0.666667  0.500000  1
  Bi  Bi8  1  0.666667  0.333333  0.500000  1
