# generated using pymatgen
data_RbGa6Ge
_symmetry_space_group_name_H-M   'P 1'
_cell_length_a   10.21847739
_cell_length_b   10.21847701
_cell_length_c   10.21847772
_cell_angle_alpha   39.48784414
_cell_angle_beta   39.48784536
_cell_angle_gamma   39.48785004
_symmetry_Int_Tables_number   1
_chemical_formula_structural   RbGa6Ge
_chemical_formula_sum   'Rb2 Ga12 Ge2'
_cell_volume   388.39066540
_cell_formula_units_Z   2
loop_
 _symmetry_equiv_pos_site_id
 _symmetry_equiv_pos_as_xyz
  1  'x, y, z'
loop_
 _atom_site_type_symbol
 _atom_site_label
 _atom_site_symmetry_multiplicity
 _atom_site_fract_x
 _atom_site_fract_y
 _atom_site_fract_z
 _atom_site_occupancy
  Rb  Rb0  1  0.196078  0.196078  0.196078  1
  Rb  Rb1  1  0.803922  0.803922  0.803922  1
  Ga  Ga2  1  0.576236  0.183830  0.183830  1
  Ga  Ga3  1  0.183830  0.183830  0.576236  1
  Ga  Ga4  1  0.183830  0.576236  0.183830  1
  Ga  Ga5  1  0.816170  0.423764  0.816170  1
  Ga  Ga6  1  0.423764  0.816170  0.816170  1
  Ga  Ga7  1  0.816170  0.816170  0.423764  1
  Ga  Ga8  1  0.799249  0.214961  0.214961  1
  Ga  Ga9  1  0.214961  0.214961  0.799249  1
  Ga  Ga10  1  0.214961  0.799249  0.214961  1
  Ga  Ga11  1  0.785039  0.200751  0.785039  1
  Ga  Ga12  1  0.200751  0.785039  0.785039  1
  Ga  Ga13  1  0.785039  0.785039  0.200751  1
  Ge  Ge14  1  0.453420  0.453420  0.453420  1
  Ge  Ge15  1  0.546580  0.546580  0.546580  1
