# generated using pymatgen
data_Cs12Lu(InTe4)3
_symmetry_space_group_name_H-M   'P 1'
_cell_length_a   15.47754031
_cell_length_b   9.56128230
_cell_length_c   12.21274353
_cell_angle_alpha   52.78494671
_cell_angle_beta   90.47004252
_cell_angle_gamma   90.32269241
_symmetry_Int_Tables_number   1
_chemical_formula_structural   Cs12Lu(InTe4)3
_chemical_formula_sum   'Cs12 Lu1 In3 Te12'
_cell_volume   1439.23600218
_cell_formula_units_Z   1
loop_
 _symmetry_equiv_pos_site_id
 _symmetry_equiv_pos_as_xyz
  1  'x, y, z'
loop_
 _atom_site_type_symbol
 _atom_site_label
 _atom_site_symmetry_multiplicity
 _atom_site_fract_x
 _atom_site_fract_y
 _atom_site_fract_z
 _atom_site_occupancy
  Cs  Cs0  1  0.316131  0.152806  0.071077  1
  Cs  Cs1  1  0.688470  0.848557  0.929604  1
  Cs  Cs2  1  0.808761  0.849431  0.429041  1
  Cs  Cs3  1  0.897444  0.321529  0.400775  1
  Cs  Cs4  1  0.612361  0.361443  0.473852  1
  Cs  Cs5  1  0.114691  0.628363  0.027055  1
  Cs  Cs6  1  0.387776  0.636608  0.526425  1
  Cs  Cs7  1  0.883485  0.370311  0.972551  1
  Cs  Cs8  1  0.604392  0.320403  0.900265  1
  Cs  Cs9  1  0.105112  0.678648  0.602889  1
  Cs  Cs10  1  0.395026  0.678167  0.102082  1
  Cs  Cs11  1  0.189665  0.155392  0.567474  1
  Lu  Lu12  1  0.062603  0.945852  0.154328  1
  In  In13  1  0.566609  0.056110  0.338990  1
  In  In14  1  0.434172  0.943265  0.661911  1
  In  In15  1  0.934270  0.055345  0.840295  1
  Te  Te16  1  0.401621  0.171008  0.366426  1
  Te  Te17  1  0.893760  0.825817  0.133051  1
  Te  Te18  1  0.599310  0.827986  0.634499  1
  Te  Te19  1  0.101534  0.175898  0.860077  1
  Te  Te20  1  0.691972  0.323064  0.198997  1
  Te  Te21  1  0.192135  0.677249  0.302590  1
  Te  Te22  1  0.308985  0.675440  0.802457  1
  Te  Te23  1  0.809196  0.323461  0.699347  1
  Te  Te24  1  0.553077  0.865778  0.233887  1
  Te  Te25  1  0.052100  0.134283  0.266909  1
  Te  Te26  1  0.447885  0.132641  0.767694  1
  Te  Te27  1  0.947455  0.865145  0.735451  1
