# generated using pymatgen
data_Ce2Si3IrPd2
_symmetry_space_group_name_H-M   'P 1'
_cell_length_a   4.09780200
_cell_length_b   4.16766600
_cell_length_c   17.50642800
_cell_angle_alpha   90.00133213
_cell_angle_beta   90.00000000
_cell_angle_gamma   90.00000000
_symmetry_Int_Tables_number   1
_chemical_formula_structural   Ce2Si3IrPd2
_chemical_formula_sum   'Ce4 Si6 Ir2 Pd4'
_cell_volume   298.97950531
_cell_formula_units_Z   2
loop_
 _symmetry_equiv_pos_site_id
 _symmetry_equiv_pos_as_xyz
  1  'x, y, z'
loop_
 _atom_site_type_symbol
 _atom_site_label
 _atom_site_symmetry_multiplicity
 _atom_site_fract_x
 _atom_site_fract_y
 _atom_site_fract_z
 _atom_site_occupancy
  Ce  Ce0  1  0.750001  0.249987  0.146162  1
  Ce  Ce1  1  0.750001  0.750006  0.353780  1
  Ce  Ce2  1  0.250001  0.249995  0.646220  1
  Ce  Ce3  1  0.250001  0.750014  0.853838  1
  Si  Si4  1  0.250001  0.749996  0.077165  1
  Si  Si5  1  0.250001  0.749996  0.212110  1
  Si  Si6  1  0.250001  0.250008  0.426182  1
  Si  Si7  1  0.750001  0.749993  0.573818  1
  Si  Si8  1  0.750001  0.250005  0.787890  1
  Si  Si9  1  0.750001  0.250005  0.922835  1
  Ir  Ir10  1  0.750001  0.250003  0.499616  1
  Ir  Ir11  1  0.250001  0.749998  0.500384  1
  Pd  Pd12  1  0.250001  0.250001  0.001954  1
  Pd  Pd13  1  0.250001  0.250000  0.285801  1
  Pd  Pd14  1  0.750001  0.750001  0.714199  1
  Pd  Pd15  1  0.750001  0.750000  0.998046  1
