# generated using pymatgen
data_Cs2RbGa3F12
_symmetry_space_group_name_H-M   'P 1'
_cell_length_a   7.51016600
_cell_length_b   7.51016490
_cell_length_c   13.40519652
_cell_angle_alpha   74.60594693
_cell_angle_beta   74.60595018
_cell_angle_gamma   59.98113413
_symmetry_Int_Tables_number   1
_chemical_formula_structural   Cs2RbGa3F12
_chemical_formula_sum   'Cs4 Rb2 Ga6 F24'
_cell_volume   623.15945521
_cell_formula_units_Z   2
loop_
 _symmetry_equiv_pos_site_id
 _symmetry_equiv_pos_as_xyz
  1  'x, y, z'
loop_
 _atom_site_type_symbol
 _atom_site_label
 _atom_site_symmetry_multiplicity
 _atom_site_fract_x
 _atom_site_fract_y
 _atom_site_fract_z
 _atom_site_occupancy
  Cs  Cs0  1  0.903066  0.471686  0.680237  1
  Cs  Cs1  1  0.096934  0.528314  0.319763  1
  Cs  Cs2  1  0.528314  0.096934  0.819763  1
  Cs  Cs3  1  0.471686  0.903066  0.180237  1
  Rb  Rb4  1  0.221910  0.778090  0.750000  1
  Rb  Rb5  1  0.778090  0.221910  0.250000  1
  Ga  Ga6  1  0.500000  0.000000  0.500000  1
  Ga  Ga7  1  0.000000  0.500000  0.000000  1
  Ga  Ga8  1  0.000000  0.000000  0.500000  1
  Ga  Ga9  1  0.000000  0.000000  0.000000  1
  Ga  Ga10  1  0.500000  0.500000  0.500000  1
  Ga  Ga11  1  0.500000  0.500000  0.000000  1
  F  F12  1  0.886656  0.981996  0.639954  1
  F  F13  1  0.522704  0.900524  0.640534  1
  F  F14  1  0.281852  0.411497  0.024650  1
  F  F15  1  0.699022  0.196947  0.028316  1
  F  F16  1  0.900524  0.522704  0.140534  1
  F  F17  1  0.099476  0.477296  0.859466  1
  F  F18  1  0.477296  0.099476  0.359466  1
  F  F19  1  0.803053  0.300978  0.471684  1
  F  F20  1  0.113344  0.018004  0.360046  1
  F  F21  1  0.588503  0.718148  0.475350  1
  F  F22  1  0.451852  0.513468  0.140515  1
  F  F23  1  0.411497  0.281852  0.524650  1
  F  F24  1  0.513468  0.451852  0.640515  1
  F  F25  1  0.801537  0.930402  0.465064  1
  F  F26  1  0.198463  0.069598  0.534936  1
  F  F27  1  0.548148  0.486532  0.859485  1
  F  F28  1  0.930402  0.801537  0.965064  1
  F  F29  1  0.486532  0.548148  0.359485  1
  F  F30  1  0.718148  0.588503  0.975350  1
  F  F31  1  0.981996  0.886656  0.139954  1
  F  F32  1  0.069598  0.198463  0.034936  1
  F  F33  1  0.300978  0.803053  0.971684  1
  F  F34  1  0.018004  0.113344  0.860046  1
  F  F35  1  0.196947  0.699022  0.528316  1
