# generated using pymatgen
data_Tb2YEr2Pb3
_symmetry_space_group_name_H-M   'P 1'
_cell_length_a   9.05429114
_cell_length_b   9.05429059
_cell_length_c   6.62308000
_cell_angle_alpha   90.00000000
_cell_angle_beta   90.00000000
_cell_angle_gamma   120.02033880
_symmetry_Int_Tables_number   1
_chemical_formula_structural   Tb2YEr2Pb3
_chemical_formula_sum   'Tb4 Y2 Er4 Pb6'
_cell_volume   470.12188912
_cell_formula_units_Z   2
loop_
 _symmetry_equiv_pos_site_id
 _symmetry_equiv_pos_as_xyz
  1  'x, y, z'
loop_
 _atom_site_type_symbol
 _atom_site_label
 _atom_site_symmetry_multiplicity
 _atom_site_fract_x
 _atom_site_fract_y
 _atom_site_fract_z
 _atom_site_occupancy
  Tb  Tb0  1  0.760646  0.760646  0.750000  1
  Tb  Tb1  1  0.239418  0.000008  0.750000  1
  Tb  Tb2  1  0.000008  0.239418  0.750000  1
  Tb  Tb3  1  0.239423  0.239423  0.250000  1
  Y  Y4  1  0.760563  0.999981  0.250000  1
  Y  Y5  1  0.999981  0.760563  0.250000  1
  Er  Er6  1  0.666691  0.333341  0.000039  1
  Er  Er7  1  0.333341  0.666691  0.000039  1
  Er  Er8  1  0.333341  0.666691  0.499961  1
  Er  Er9  1  0.666691  0.333341  0.499961  1
  Pb  Pb10  1  0.394704  0.394704  0.750000  1
  Pb  Pb11  1  0.605207  0.999976  0.750000  1
  Pb  Pb12  1  0.999976  0.605207  0.750000  1
  Pb  Pb13  1  0.605531  0.605531  0.250000  1
  Pb  Pb14  1  0.394601  0.999876  0.250000  1
  Pb  Pb15  1  0.999876  0.394601  0.250000  1
