# generated using pymatgen
data_Pr3Dy5Cd2CoIr
_symmetry_space_group_name_H-M   'P 1'
_cell_length_a   9.69222823
_cell_length_b   9.69216411
_cell_length_c   9.67225987
_cell_angle_alpha   60.03240219
_cell_angle_beta   60.03274668
_cell_angle_gamma   60.15594609
_symmetry_Int_Tables_number   1
_chemical_formula_structural   Pr3Dy5Cd2CoIr
_chemical_formula_sum   'Pr6 Dy10 Cd4 Co2 Ir2'
_cell_volume   643.54769606
_cell_formula_units_Z   2
loop_
 _symmetry_equiv_pos_site_id
 _symmetry_equiv_pos_as_xyz
  1  'x, y, z'
loop_
 _atom_site_type_symbol
 _atom_site_label
 _atom_site_symmetry_multiplicity
 _atom_site_fract_x
 _atom_site_fract_y
 _atom_site_fract_z
 _atom_site_occupancy
  Pr  Pr0  1  0.940893  0.560248  0.557351  1
  Pr  Pr1  1  0.558197  0.941489  0.942193  1
  Pr  Pr2  1  0.560247  0.940895  0.557354  1
  Pr  Pr3  1  0.941494  0.558194  0.942196  1
  Pr  Pr4  1  0.557183  0.557181  0.942191  1
  Pr  Pr5  1  0.940266  0.940264  0.559112  1
  Dy  Dy6  1  0.343689  0.343690  0.351939  1
  Dy  Dy7  1  0.344571  0.344569  0.959268  1
  Dy  Dy8  1  0.341129  0.962072  0.349378  1
  Dy  Dy9  1  0.962071  0.341127  0.349379  1
  Dy  Dy10  1  0.816997  0.188058  0.186340  1
  Dy  Dy11  1  0.186900  0.817313  0.808160  1
  Dy  Dy12  1  0.188057  0.817000  0.186339  1
  Dy  Dy13  1  0.817310  0.186899  0.808160  1
  Dy  Dy14  1  0.187049  0.187049  0.812141  1
  Dy  Dy15  1  0.813062  0.813064  0.185660  1
  Cd  Cd16  1  0.579081  0.579084  0.578248  1
  Cd  Cd17  1  0.579687  0.579687  0.262363  1
  Cd  Cd18  1  0.580085  0.262300  0.579155  1
  Cd  Cd19  1  0.262298  0.580086  0.579154  1
  Co  Co20  1  0.140325  0.140326  0.141561  1
  Co  Co21  1  0.140951  0.140950  0.578477  1
  Ir  Ir22  1  0.141839  0.576616  0.141939  1
  Ir  Ir23  1  0.576615  0.141840  0.141940  1
