# generated using pymatgen
data_CaYGa5Ir3
_symmetry_space_group_name_H-M   'P 1'
_cell_length_a   8.66785337
_cell_length_b   8.58462942
_cell_length_c   8.58463011
_cell_angle_alpha   140.77166553
_cell_angle_beta   110.19993577
_cell_angle_gamma   82.98710563
_symmetry_Int_Tables_number   1
_chemical_formula_structural   CaYGa5Ir3
_chemical_formula_sum   'Ca2 Y2 Ga10 Ir6'
_cell_volume   367.57790107
_cell_formula_units_Z   2
loop_
 _symmetry_equiv_pos_site_id
 _symmetry_equiv_pos_as_xyz
  1  'x, y, z'
loop_
 _atom_site_type_symbol
 _atom_site_label
 _atom_site_symmetry_multiplicity
 _atom_site_fract_x
 _atom_site_fract_y
 _atom_site_fract_z
 _atom_site_occupancy
  Ca  Ca0  1  0.627423  0.354332  0.273090  1
  Ca  Ca1  1  0.372577  0.645668  0.726910  1
  Y  Y2  1  0.915499  0.143145  0.772355  1
  Y  Y3  1  0.084501  0.856855  0.227645  1
  Ga  Ga4  1  0.401307  0.082900  0.318406  1
  Ga  Ga5  1  0.598693  0.917100  0.681594  1
  Ga  Ga6  1  0.235955  0.416636  0.819320  1
  Ga  Ga7  1  0.764045  0.583364  0.180680  1
  Ga  Ga8  1  0.298187  0.547509  0.250190  1
  Ga  Ga9  1  0.701813  0.952003  0.249321  1
  Ga  Ga10  1  0.701813  0.452491  0.749810  1
  Ga  Ga11  1  0.298187  0.047997  0.750679  1
  Ga  Ga12  1  0.000000  0.255523  0.255523  1
  Ga  Ga13  1  0.000000  0.744477  0.744477  1
  Ir  Ir14  1  0.230368  0.148809  0.081560  1
  Ir  Ir15  1  0.769632  0.851191  0.918440  1
  Ir  Ir16  1  0.937671  0.346383  0.591289  1
  Ir  Ir17  1  0.062329  0.653617  0.408711  1
  Ir  Ir18  1  0.500000  0.252697  0.752697  1
  Ir  Ir19  1  0.500000  0.747303  0.247303  1
