# generated using pymatgen
data_YTa8CoS16
_symmetry_space_group_name_H-M   'P 1'
_cell_length_a   6.68500300
_cell_length_b   6.68500288
_cell_length_c   12.90237800
_cell_angle_alpha   90.00000000
_cell_angle_beta   90.00000000
_cell_angle_gamma   120.00000552
_symmetry_Int_Tables_number   1
_chemical_formula_structural   YTa8CoS16
_chemical_formula_sum   'Y1 Ta8 Co1 S16'
_cell_volume   499.34829833
_cell_formula_units_Z   1
loop_
 _symmetry_equiv_pos_site_id
 _symmetry_equiv_pos_as_xyz
  1  'x, y, z'
loop_
 _atom_site_type_symbol
 _atom_site_label
 _atom_site_symmetry_multiplicity
 _atom_site_fract_x
 _atom_site_fract_y
 _atom_site_fract_z
 _atom_site_occupancy
  Y  Y0  1  0.000000  0.000000  0.500000  1
  Ta  Ta1  1  0.504898  0.495102  0.769824  1
  Ta  Ta2  1  0.009794  0.504898  0.230176  1
  Ta  Ta3  1  0.495102  0.990206  0.230176  1
  Ta  Ta4  1  0.504898  0.009794  0.769824  1
  Ta  Ta5  1  0.990206  0.495102  0.769824  1
  Ta  Ta6  1  0.495102  0.504898  0.230176  1
  Ta  Ta7  1  0.000000  0.000000  0.768909  1
  Ta  Ta8  1  0.000000  0.000000  0.231091  1
  Co  Co9  1  0.000000  0.000000  0.000000  1
  S  S10  1  0.831260  0.168740  0.352434  1
  S  S11  1  0.831260  0.662521  0.352434  1
  S  S12  1  0.337479  0.168740  0.352434  1
  S  S13  1  0.665985  0.832993  0.888690  1
  S  S14  1  0.168740  0.337479  0.647566  1
  S  S15  1  0.167007  0.832993  0.888690  1
  S  S16  1  0.167007  0.334015  0.888690  1
  S  S17  1  0.832993  0.167007  0.111310  1
  S  S18  1  0.334015  0.167007  0.111310  1
  S  S19  1  0.662521  0.831260  0.647566  1
  S  S20  1  0.333333  0.666667  0.107847  1
  S  S21  1  0.666667  0.333333  0.644883  1
  S  S22  1  0.666667  0.333333  0.892153  1
  S  S23  1  0.333333  0.666667  0.355117  1
  S  S24  1  0.832993  0.665985  0.111310  1
  S  S25  1  0.168740  0.831260  0.647566  1
