# generated using pymatgen
data_Nd2BeAl12Cu13
_symmetry_space_group_name_H-M   'P 1'
_cell_length_a   8.42034094
_cell_length_b   8.42034318
_cell_length_c   8.47510200
_cell_angle_alpha   123.84880058
_cell_angle_beta   117.85054607
_cell_angle_gamma   88.23326686
_symmetry_Int_Tables_number   1
_chemical_formula_structural   Nd2BeAl12Cu13
_chemical_formula_sum   'Nd2 Be1 Al12 Cu13'
_cell_volume   419.16898771
_cell_formula_units_Z   1
loop_
 _symmetry_equiv_pos_site_id
 _symmetry_equiv_pos_as_xyz
  1  'x, y, z'
loop_
 _atom_site_type_symbol
 _atom_site_label
 _atom_site_symmetry_multiplicity
 _atom_site_fract_x
 _atom_site_fract_y
 _atom_site_fract_z
 _atom_site_occupancy
  Nd  Nd0  1  0.251734  0.751734  0.500000  1
  Nd  Nd1  1  0.748266  0.248266  0.500000  1
  Be  Be2  1  0.500000  0.500000  0.000000  1
  Al  Al3  1  0.556414  0.546921  0.359209  1
  Al  Al4  1  0.443586  0.453079  0.640791  1
  Al  Al5  1  0.187714  0.197205  0.640791  1
  Al  Al6  1  0.317944  0.958449  0.010965  1
  Al  Al7  1  0.812286  0.802795  0.359209  1
  Al  Al8  1  0.682056  0.041551  0.989035  1
  Al  Al9  1  0.947483  0.306979  0.989035  1
  Al  Al10  1  0.052517  0.693021  0.010965  1
  Al  Al11  1  0.047964  0.318323  0.366288  1
  Al  Al12  1  0.952036  0.681677  0.633712  1
  Al  Al13  1  0.549525  0.185453  0.734977  1
  Al  Al14  1  0.450475  0.814547  0.265023  1
  Cu  Cu15  1  0.281827  0.302698  0.232591  1
  Cu  Cu16  1  0.718173  0.697302  0.767409  1
  Cu  Cu17  1  0.070108  0.049235  0.767409  1
  Cu  Cu18  1  0.430889  0.208041  0.978075  1
  Cu  Cu19  1  0.929892  0.950765  0.232591  1
  Cu  Cu20  1  0.569111  0.791959  0.021925  1
  Cu  Cu21  1  0.229965  0.452813  0.021925  1
  Cu  Cu22  1  0.770035  0.547187  0.978075  1
  Cu  Cu23  1  0.000000  0.000000  0.000000  1
  Cu  Cu24  1  0.281129  0.067946  0.349075  1
  Cu  Cu25  1  0.718871  0.932054  0.650925  1
  Cu  Cu26  1  0.774435  0.431348  0.205784  1
  Cu  Cu27  1  0.225565  0.568652  0.794216  1
