# generated using pymatgen
data_Dy2GaRu2
_symmetry_space_group_name_H-M   'P 1'
_cell_length_a   4.13942333
_cell_length_b   5.77712307
_cell_length_c   5.51645203
_cell_angle_alpha   121.57585603
_cell_angle_beta   112.03597679
_cell_angle_gamma   90.00000943
_symmetry_Int_Tables_number   1
_chemical_formula_structural   Dy2GaRu2
_chemical_formula_sum   'Dy2 Ga1 Ru2'
_cell_volume   100.90370810
_cell_formula_units_Z   1
loop_
 _symmetry_equiv_pos_site_id
 _symmetry_equiv_pos_as_xyz
  1  'x, y, z'
loop_
 _atom_site_type_symbol
 _atom_site_label
 _atom_site_symmetry_multiplicity
 _atom_site_fract_x
 _atom_site_fract_y
 _atom_site_fract_z
 _atom_site_occupancy
  Dy  Dy0  1  0.793603  0.293603  0.587204  1
  Dy  Dy1  1  0.206397  0.706397  0.412796  1
  Ga  Ga2  1  0.000000  0.000000  0.000000  1
  Ru  Ru3  1  0.500000  0.276291  0.000000  1
  Ru  Ru4  1  0.500000  0.723709  0.000000  1
