# generated using pymatgen
data_Na3Fe(IO3)6
_symmetry_space_group_name_H-M   'P 1'
_cell_length_a   6.74221442
_cell_length_b   6.86058485
_cell_length_c   10.31136144
_cell_angle_alpha   99.00065372
_cell_angle_beta   108.62546613
_cell_angle_gamma   100.88202556
_symmetry_Int_Tables_number   1
_chemical_formula_structural   Na3Fe(IO3)6
_chemical_formula_sum   'Na3 Fe1 I6 O18'
_cell_volume   431.64375606
_cell_formula_units_Z   1
loop_
 _symmetry_equiv_pos_site_id
 _symmetry_equiv_pos_as_xyz
  1  'x, y, z'
loop_
 _atom_site_type_symbol
 _atom_site_label
 _atom_site_symmetry_multiplicity
 _atom_site_fract_x
 _atom_site_fract_y
 _atom_site_fract_z
 _atom_site_occupancy
  Na  Na0  1  0.393955  0.539403  0.305250  1
  Na  Na1  1  0.606045  0.460597  0.694750  1
  Na  Na2  1  0.000000  0.500000  0.500000  1
  Fe  Fe3  1  0.000000  0.000000  0.000000  1
  I  I4  1  0.564946  0.035835  0.196699  1
  I  I5  1  0.435054  0.964165  0.803301  1
  I  I6  1  0.792136  0.532165  0.107478  1
  I  I7  1  0.207864  0.467835  0.892522  1
  I  I8  1  0.150201  0.067938  0.384189  1
  I  I9  1  0.849799  0.932062  0.615811  1
  O  O10  1  0.584280  0.657140  0.133519  1
  O  O11  1  0.415720  0.342860  0.866481  1
  O  O12  1  0.987098  0.361432  0.721876  1
  O  O13  1  0.012902  0.638568  0.278124  1
  O  O14  1  0.600700  0.313607  0.241827  1
  O  O15  1  0.399300  0.686393  0.758173  1
  O  O16  1  0.051528  0.109106  0.202200  1
  O  O17  1  0.948472  0.890894  0.797800  1
  O  O18  1  0.302605  0.961506  0.039124  1
  O  O19  1  0.697395  0.038494  0.960876  1
  O  O20  1  0.301813  0.331403  0.470255  1
  O  O21  1  0.698187  0.668597  0.529745  1
  O  O22  1  0.892144  0.101355  0.407031  1
  O  O23  1  0.107856  0.898645  0.592969  1
  O  O24  1  0.555118  0.045259  0.677026  1
  O  O25  1  0.444882  0.954741  0.322974  1
  O  O26  1  0.106633  0.310005  0.001395  1
  O  O27  1  0.893367  0.689995  0.998605  1
