# generated using pymatgen
data_ZnIn9(HgIr2)2
_symmetry_space_group_name_H-M   'P 1'
_cell_length_a   7.16480607
_cell_length_b   7.04606636
_cell_length_c   7.25333000
_cell_angle_alpha   90.00000000
_cell_angle_beta   90.00000000
_cell_angle_gamma   89.10810473
_symmetry_Int_Tables_number   1
_chemical_formula_structural   ZnIn9(HgIr2)2
_chemical_formula_sum   'Zn1 In9 Hg2 Ir4'
_cell_volume   366.13056429
_cell_formula_units_Z   1
loop_
 _symmetry_equiv_pos_site_id
 _symmetry_equiv_pos_as_xyz
  1  'x, y, z'
loop_
 _atom_site_type_symbol
 _atom_site_label
 _atom_site_symmetry_multiplicity
 _atom_site_fract_x
 _atom_site_fract_y
 _atom_site_fract_z
 _atom_site_occupancy
  Zn  Zn0  1  0.000000  0.500000  0.000000  1
  In  In1  1  0.335949  0.350842  0.260020  1
  In  In2  1  0.158573  0.835353  0.771039  1
  In  In3  1  0.158573  0.835353  0.228961  1
  In  In4  1  0.841427  0.164647  0.228961  1
  In  In5  1  0.841427  0.164647  0.771039  1
  In  In6  1  0.664051  0.649158  0.260020  1
  In  In7  1  0.664051  0.649158  0.739980  1
  In  In8  1  0.335949  0.350842  0.739980  1
  In  In9  1  0.500000  0.000000  0.500000  1
  Hg  Hg10  1  0.500000  0.000000  0.000000  1
  Hg  Hg11  1  0.000000  0.500000  0.500000  1
  Ir  Ir12  1  0.145196  0.165484  0.000000  1
  Ir  Ir13  1  0.648375  0.338230  0.500000  1
  Ir  Ir14  1  0.351625  0.661770  0.500000  1
  Ir  Ir15  1  0.854804  0.834516  0.000000  1
