# generated using pymatgen
data_Tb5Al2SnC4
_symmetry_space_group_name_H-M   'P 1'
_cell_length_a   11.00697800
_cell_length_b   11.00697800
_cell_length_c   3.57143300
_cell_angle_alpha   90.00000000
_cell_angle_beta   90.00000000
_cell_angle_gamma   90.00000000
_symmetry_Int_Tables_number   1
_chemical_formula_structural   Tb5Al2SnC4
_chemical_formula_sum   'Tb10 Al4 Sn2 C8'
_cell_volume   432.69183901
_cell_formula_units_Z   2
loop_
 _symmetry_equiv_pos_site_id
 _symmetry_equiv_pos_as_xyz
  1  'x, y, z'
loop_
 _atom_site_type_symbol
 _atom_site_label
 _atom_site_symmetry_multiplicity
 _atom_site_fract_x
 _atom_site_fract_y
 _atom_site_fract_z
 _atom_site_occupancy
  Tb  Tb0  1  0.551041  0.732052  0.500000  1
  Tb  Tb1  1  0.448959  0.267948  0.500000  1
  Tb  Tb2  1  0.051041  0.767948  0.500000  1
  Tb  Tb3  1  0.948959  0.232052  0.500000  1
  Tb  Tb4  1  0.267948  0.551041  0.500000  1
  Tb  Tb5  1  0.732052  0.448959  0.500000  1
  Tb  Tb6  1  0.232052  0.051041  0.500000  1
  Tb  Tb7  1  0.767948  0.948959  0.500000  1
  Tb  Tb8  1  0.500000  0.000000  0.000000  1
  Tb  Tb9  1  0.000000  0.500000  0.000000  1
  Al  Al10  1  0.703708  0.203708  0.000000  1
  Al  Al11  1  0.296292  0.796292  0.000000  1
  Al  Al12  1  0.203708  0.296292  0.000000  1
  Al  Al13  1  0.796292  0.703708  0.000000  1
  Sn  Sn14  1  0.500000  0.500000  0.000000  1
  Sn  Sn15  1  0.000000  0.000000  0.000000  1
  C  C16  1  0.633496  0.133496  0.500000  1
  C  C17  1  0.366504  0.866504  0.500000  1
  C  C18  1  0.133496  0.366504  0.500000  1
  C  C19  1  0.866504  0.633496  0.500000  1
  C  C20  1  0.163062  0.663062  0.000000  1
  C  C21  1  0.836938  0.336938  0.000000  1
  C  C22  1  0.663062  0.836938  0.000000  1
  C  C23  1  0.336938  0.163062  0.000000  1
