# generated using pymatgen
data_LaPrY2CdPd
_symmetry_space_group_name_H-M   'P 1'
_cell_length_a   9.97219731
_cell_length_b   9.93394903
_cell_length_c   9.93394792
_cell_angle_alpha   60.25489237
_cell_angle_beta   59.87255210
_cell_angle_gamma   59.87255418
_symmetry_Int_Tables_number   1
_chemical_formula_structural   LaPrY2CdPd
_chemical_formula_sum   'La4 Pr4 Y8 Cd4 Pd4'
_cell_volume   695.83575449
_cell_formula_units_Z   4
loop_
 _symmetry_equiv_pos_site_id
 _symmetry_equiv_pos_as_xyz
  1  'x, y, z'
loop_
 _atom_site_type_symbol
 _atom_site_label
 _atom_site_symmetry_multiplicity
 _atom_site_fract_x
 _atom_site_fract_y
 _atom_site_fract_z
 _atom_site_occupancy
  La  La0  1  0.354081  0.353665  0.353665  1
  La  La1  1  0.353665  0.354081  0.938592  1
  La  La2  1  0.353665  0.938592  0.354081  1
  La  La3  1  0.938592  0.353665  0.353665  1
  Pr  Pr4  1  0.567102  0.932898  0.567102  1
  Pr  Pr5  1  0.932898  0.567102  0.932898  1
  Pr  Pr6  1  0.567102  0.567102  0.932898  1
  Pr  Pr7  1  0.932898  0.932898  0.567102  1
  Y  Y8  1  0.814090  0.185910  0.185910  1
  Y  Y9  1  0.185910  0.814090  0.814090  1
  Y  Y10  1  0.186183  0.813817  0.186183  1
  Y  Y11  1  0.813817  0.186183  0.813817  1
  Y  Y12  1  0.186183  0.186183  0.813817  1
  Y  Y13  1  0.813817  0.813817  0.186183  1
  Y  Y14  1  0.937864  0.562136  0.562136  1
  Y  Y15  1  0.562136  0.937864  0.937864  1
  Cd  Cd16  1  0.584366  0.580292  0.580292  1
  Cd  Cd17  1  0.580292  0.584366  0.255049  1
  Cd  Cd18  1  0.580292  0.255049  0.584366  1
  Cd  Cd19  1  0.255049  0.580292  0.580292  1
  Pd  Pd20  1  0.143889  0.141408  0.141408  1
  Pd  Pd21  1  0.141408  0.143889  0.573294  1
  Pd  Pd22  1  0.141408  0.573294  0.143889  1
  Pd  Pd23  1  0.573294  0.141408  0.141408  1
