# generated using pymatgen
data_KRb2Ba5(CrN3)4
_symmetry_space_group_name_H-M   'P 1'
_cell_length_a   6.63051890
_cell_length_b   6.63052006
_cell_length_c   12.94650848
_cell_angle_alpha   89.65319984
_cell_angle_beta   90.34679946
_cell_angle_gamma   127.90145911
_symmetry_Int_Tables_number   1
_chemical_formula_structural   KRb2Ba5(CrN3)4
_chemical_formula_sum   'K1 Rb2 Ba5 Cr4 N12'
_cell_volume   449.10985887
_cell_formula_units_Z   1
loop_
 _symmetry_equiv_pos_site_id
 _symmetry_equiv_pos_as_xyz
  1  'x, y, z'
loop_
 _atom_site_type_symbol
 _atom_site_label
 _atom_site_symmetry_multiplicity
 _atom_site_fract_x
 _atom_site_fract_y
 _atom_site_fract_z
 _atom_site_occupancy
  K  K0  1  0.556482  0.443516  0.638297  1
  Rb  Rb1  1  0.448356  0.551644  0.357146  1
  Rb  Rb2  1  0.949601  0.050399  0.147513  1
  Ba  Ba3  1  0.058631  0.941368  0.855767  1
  Ba  Ba4  1  0.851620  0.148381  0.580840  1
  Ba  Ba5  1  0.145232  0.854768  0.415938  1
  Ba  Ba6  1  0.645913  0.354087  0.085162  1
  Ba  Ba7  1  0.356796  0.643204  0.918864  1
  Cr  Cr8  1  0.734271  0.265729  0.831390  1
  Cr  Cr9  1  0.265016  0.734985  0.166815  1
  Cr  Cr10  1  0.766260  0.233741  0.330363  1
  Cr  Cr11  1  0.232353  0.767646  0.669918  1
  N  N12  1  0.827395  0.172604  0.933297  1
  N  N13  1  0.180300  0.819700  0.057309  1
  N  N14  1  0.682073  0.317928  0.436419  1
  N  N15  1  0.318084  0.681915  0.565782  1
  N  N16  1  0.596294  0.403704  0.872459  1
  N  N17  1  0.400172  0.599830  0.129036  1
  N  N18  1  0.901375  0.098626  0.371236  1
  N  N19  1  0.093976  0.906024  0.634282  1
  N  N20  1  0.509274  0.989333  0.752590  1
  N  N21  1  0.985789  0.515928  0.248494  1
  N  N22  1  0.484073  0.014212  0.248494  1
  N  N23  1  0.010666  0.490725  0.752590  1
