# generated using pymatgen
data_Ag3IrRh3PbO14
_symmetry_space_group_name_H-M   'P 1'
_cell_length_a   7.24233654
_cell_length_b   7.19031376
_cell_length_c   7.19031400
_cell_angle_alpha   59.99999892
_cell_angle_beta   60.23733245
_cell_angle_gamma   60.23733372
_symmetry_Int_Tables_number   1
_chemical_formula_structural   Ag3IrRh3PbO14
_chemical_formula_sum   'Ag3 Ir1 Rh3 Pb1 O14'
_cell_volume   265.71009797
_cell_formula_units_Z   1
loop_
 _symmetry_equiv_pos_site_id
 _symmetry_equiv_pos_as_xyz
  1  'x, y, z'
loop_
 _atom_site_type_symbol
 _atom_site_label
 _atom_site_symmetry_multiplicity
 _atom_site_fract_x
 _atom_site_fract_y
 _atom_site_fract_z
 _atom_site_occupancy
  Ag  Ag0  1  0.125000  0.625000  0.125000  1
  Ag  Ag1  1  0.125000  0.125000  0.625000  1
  Ag  Ag2  1  0.125000  0.125000  0.125000  1
  Ir  Ir3  1  0.125000  0.625000  0.625000  1
  Rh  Rh4  1  0.625000  0.125000  0.625000  1
  Rh  Rh5  1  0.625000  0.625000  0.125000  1
  Rh  Rh6  1  0.625000  0.625000  0.625000  1
  Pb  Pb7  1  0.625000  0.125000  0.125000  1
  O  O8  1  0.711369  0.707520  0.290556  1
  O  O9  1  0.303875  0.308474  0.693826  1
  O  O10  1  0.711369  0.290556  0.707520  1
  O  O11  1  0.303875  0.693826  0.308474  1
  O  O12  1  0.303875  0.693826  0.693826  1
  O  O13  1  0.711369  0.290556  0.290556  1
  O  O14  1  0.538631  0.542480  0.959444  1
  O  O15  1  0.946125  0.941526  0.556174  1
  O  O16  1  0.538631  0.959444  0.542480  1
  O  O17  1  0.946125  0.556174  0.941526  1
  O  O18  1  0.946125  0.556174  0.556174  1
  O  O19  1  0.538631  0.959444  0.959444  1
  O  O20  1  0.221634  0.259455  0.259455  1
  O  O21  1  0.028366  0.990545  0.990545  1
