# generated using pymatgen
data_Tb3Er2In4CoPd
_symmetry_space_group_name_H-M   'P 1'
_cell_length_a   3.59070500
_cell_length_b   8.11409202
_cell_length_c   18.13344357
_cell_angle_alpha   90.34654700
_cell_angle_beta   90.00000000
_cell_angle_gamma   90.00000000
_symmetry_Int_Tables_number   1
_chemical_formula_structural   Tb3Er2In4CoPd
_chemical_formula_sum   'Tb6 Er4 In8 Co2 Pd2'
_cell_volume   528.31385018
_cell_formula_units_Z   2
loop_
 _symmetry_equiv_pos_site_id
 _symmetry_equiv_pos_as_xyz
  1  'x, y, z'
loop_
 _atom_site_type_symbol
 _atom_site_label
 _atom_site_symmetry_multiplicity
 _atom_site_fract_x
 _atom_site_fract_y
 _atom_site_fract_z
 _atom_site_occupancy
  Tb  Tb0  1  0.000000  0.500000  0.500000  1
  Tb  Tb1  1  0.000000  0.000000  0.000000  1
  Tb  Tb2  1  0.000000  0.725715  0.276451  1
  Tb  Tb3  1  0.000000  0.274285  0.723549  1
  Tb  Tb4  1  0.000000  0.741566  0.782575  1
  Tb  Tb5  1  0.000000  0.258434  0.217425  1
  Er  Er6  1  0.000000  0.615010  0.089926  1
  Er  Er7  1  0.000000  0.384990  0.910074  1
  Er  Er8  1  0.000000  0.880904  0.585187  1
  Er  Er9  1  0.000000  0.119096  0.414813  1
  In  In10  1  0.500000  0.700697  0.933330  1
  In  In11  1  0.500000  0.299303  0.066670  1
  In  In12  1  0.500000  0.794560  0.432221  1
  In  In13  1  0.500000  0.205440  0.567779  1
  In  In14  1  0.500000  0.576967  0.652246  1
  In  In15  1  0.500000  0.423033  0.347754  1
  In  In16  1  0.500000  0.922737  0.150436  1
  In  In17  1  0.500000  0.077263  0.849564  1
  Co  Co18  1  0.500000  0.517946  0.193483  1
  Co  Co19  1  0.500000  0.482054  0.806517  1
  Pd  Pd20  1  0.500000  0.979144  0.696077  1
  Pd  Pd21  1  0.500000  0.020856  0.303923  1
