# generated using pymatgen
data_Dy2Er2SiBr6
_symmetry_space_group_name_H-M   'P 1'
_cell_length_a   4.03815900
_cell_length_b   13.17462100
_cell_length_c   13.94542400
_cell_angle_alpha   90.00000000
_cell_angle_beta   90.00000000
_cell_angle_gamma   90.00000000
_symmetry_Int_Tables_number   1
_chemical_formula_structural   Dy2Er2SiBr6
_chemical_formula_sum   'Dy4 Er4 Si2 Br12'
_cell_volume   741.91349160
_cell_formula_units_Z   2
loop_
 _symmetry_equiv_pos_site_id
 _symmetry_equiv_pos_as_xyz
  1  'x, y, z'
loop_
 _atom_site_type_symbol
 _atom_site_label
 _atom_site_symmetry_multiplicity
 _atom_site_fract_x
 _atom_site_fract_y
 _atom_site_fract_z
 _atom_site_occupancy
  Dy  Dy0  1  0.000000  0.118560  0.578858  1
  Dy  Dy1  1  0.000000  0.881440  0.421142  1
  Dy  Dy2  1  0.000000  0.618560  0.921142  1
  Dy  Dy3  1  0.000000  0.381440  0.078858  1
  Er  Er4  1  0.500000  0.117554  0.341762  1
  Er  Er5  1  0.500000  0.882446  0.658238  1
  Er  Er6  1  0.500000  0.617554  0.158238  1
  Er  Er7  1  0.500000  0.382446  0.841762  1
  Si  Si8  1  0.500000  0.000000  0.500000  1
  Si  Si9  1  0.500000  0.500000  0.000000  1
  Br  Br10  1  0.500000  0.242084  0.164329  1
  Br  Br11  1  0.500000  0.757916  0.835671  1
  Br  Br12  1  0.500000  0.742084  0.335671  1
  Br  Br13  1  0.500000  0.257916  0.664329  1
  Br  Br14  1  0.000000  0.254905  0.409391  1
  Br  Br15  1  0.000000  0.745095  0.590609  1
  Br  Br16  1  0.000000  0.754905  0.090609  1
  Br  Br17  1  0.000000  0.245095  0.909391  1
  Br  Br18  1  0.000000  0.003770  0.242693  1
  Br  Br19  1  0.000000  0.996230  0.757307  1
  Br  Br20  1  0.000000  0.503770  0.257307  1
  Br  Br21  1  0.000000  0.496230  0.742693  1
