# generated using pymatgen
data_TaBe4NbW4
_symmetry_space_group_name_H-M   'P 1'
_cell_length_a   6.34371748
_cell_length_b   6.32990533
_cell_length_c   3.25770100
_cell_angle_alpha   90.00000000
_cell_angle_beta   90.00000000
_cell_angle_gamma   89.94716385
_symmetry_Int_Tables_number   1
_chemical_formula_structural   TaBe4NbW4
_chemical_formula_sum   'Ta1 Be4 Nb1 W4'
_cell_volume   130.81335496
_cell_formula_units_Z   1
loop_
 _symmetry_equiv_pos_site_id
 _symmetry_equiv_pos_as_xyz
  1  'x, y, z'
loop_
 _atom_site_type_symbol
 _atom_site_label
 _atom_site_symmetry_multiplicity
 _atom_site_fract_x
 _atom_site_fract_y
 _atom_site_fract_z
 _atom_site_occupancy
  Ta  Ta0  1  0.175929  0.322751  0.500000  1
  Be  Be1  1  0.878645  0.383252  0.000000  1
  Be  Be2  1  0.388828  0.117929  0.000000  1
  Be  Be3  1  0.621264  0.883569  0.000000  1
  Be  Be4  1  0.111689  0.618215  0.000000  1
  Nb  Nb5  1  0.323061  0.822150  0.500000  1
  W  W6  1  0.995883  0.999144  0.000000  1
  W  W7  1  0.503663  0.499142  0.000000  1
  W  W8  1  0.678106  0.177788  0.500000  1
  W  W9  1  0.822932  0.676060  0.500000  1
