# generated using pymatgen
data_NdCdHg2(Ir2O7)2
_symmetry_space_group_name_H-M   'P 1'
_cell_length_a   7.28594061
_cell_length_b   7.41259072
_cell_length_c   7.28594274
_cell_angle_alpha   60.00781422
_cell_angle_beta   59.58086084
_cell_angle_gamma   60.00781563
_symmetry_Int_Tables_number   1
_chemical_formula_structural   NdCdHg2(Ir2O7)2
_chemical_formula_sum   'Nd1 Cd1 Hg2 Ir4 O14'
_cell_volume   277.38487325
_cell_formula_units_Z   1
loop_
 _symmetry_equiv_pos_site_id
 _symmetry_equiv_pos_as_xyz
  1  'x, y, z'
loop_
 _atom_site_type_symbol
 _atom_site_label
 _atom_site_symmetry_multiplicity
 _atom_site_fract_x
 _atom_site_fract_y
 _atom_site_fract_z
 _atom_site_occupancy
  Nd  Nd0  1  0.125000  0.625000  0.125000  1
  Cd  Cd1  1  0.125000  0.125000  0.125000  1
  Hg  Hg2  1  0.625000  0.125000  0.125000  1
  Hg  Hg3  1  0.125000  0.125000  0.625000  1
  Ir  Ir4  1  0.125000  0.625000  0.625000  1
  Ir  Ir5  1  0.625000  0.125000  0.625000  1
  Ir  Ir6  1  0.625000  0.625000  0.125000  1
  Ir  Ir7  1  0.625000  0.625000  0.625000  1
  O  O8  1  0.707182  0.694502  0.298165  1
  O  O9  1  0.302683  0.305374  0.701785  1
  O  O10  1  0.693668  0.306636  0.693668  1
  O  O11  1  0.295593  0.702633  0.295593  1
  O  O12  1  0.298165  0.694502  0.707182  1
  O  O13  1  0.701785  0.305374  0.302683  1
  O  O14  1  0.542818  0.555498  0.951835  1
  O  O15  1  0.947317  0.944626  0.548215  1
  O  O16  1  0.556332  0.943364  0.556332  1
  O  O17  1  0.954407  0.547367  0.954407  1
  O  O18  1  0.951835  0.555498  0.542818  1
  O  O19  1  0.548215  0.944626  0.947317  1
  O  O20  1  0.258352  0.232207  0.258352  1
  O  O21  1  0.991648  0.017793  0.991648  1
