# generated using pymatgen
data_SmTmMn2Co10P7
_symmetry_space_group_name_H-M   'P 1'
_cell_length_a   9.05983214
_cell_length_b   9.05119489
_cell_length_c   3.60704200
_cell_angle_alpha   90.00000000
_cell_angle_beta   90.00000000
_cell_angle_gamma   120.10264810
_symmetry_Int_Tables_number   1
_chemical_formula_structural   SmTmMn2Co10P7
_chemical_formula_sum   'Sm1 Tm1 Mn2 Co10 P7'
_cell_volume   255.89261689
_cell_formula_units_Z   1
loop_
 _symmetry_equiv_pos_site_id
 _symmetry_equiv_pos_as_xyz
  1  'x, y, z'
loop_
 _atom_site_type_symbol
 _atom_site_label
 _atom_site_symmetry_multiplicity
 _atom_site_fract_x
 _atom_site_fract_y
 _atom_site_fract_z
 _atom_site_occupancy
  Sm  Sm0  1  0.334971  0.668503  0.500000  1
  Tm  Tm1  1  0.666541  0.333769  0.000000  1
  Mn  Mn2  1  0.899931  0.119841  0.000000  1
  Mn  Mn3  1  0.880592  0.779328  0.000000  1
  Co  Co4  1  0.429197  0.062743  0.500000  1
  Co  Co5  1  0.937318  0.368501  0.500000  1
  Co  Co6  1  0.631226  0.568391  0.500000  1
  Co  Co7  1  0.157764  0.273861  0.500000  1
  Co  Co8  1  0.726089  0.884557  0.500000  1
  Co  Co9  1  0.117930  0.843592  0.500000  1
  Co  Co10  1  0.386951  0.432333  0.000000  1
  Co  Co11  1  0.564920  0.953883  0.000000  1
  Co  Co12  1  0.048205  0.613648  0.000000  1
  Co  Co13  1  0.217693  0.093796  0.000000  1
  P  P14  1  0.114334  0.403996  0.000000  1
  P  P15  1  0.600272  0.710999  0.000000  1
  P  P16  1  0.288322  0.889352  0.000000  1
  P  P17  1  0.000880  0.999343  0.500000  1
  P  P18  1  0.411366  0.298853  0.500000  1
  P  P19  1  0.698378  0.113275  0.500000  1
  P  P20  1  0.887117  0.587437  0.500000  1
