# generated using pymatgen
data_PrNdCd2(Ir2O7)2
_symmetry_space_group_name_H-M   'P 1'
_cell_length_a   7.32522935
_cell_length_b   7.32522998
_cell_length_c   7.48005818
_cell_angle_alpha   59.31861113
_cell_angle_beta   59.31861032
_cell_angle_gamma   59.20306131
_symmetry_Int_Tables_number   1
_chemical_formula_structural   PrNdCd2(Ir2O7)2
_chemical_formula_sum   'Pr1 Nd1 Cd2 Ir4 O14'
_cell_volume   279.15944019
_cell_formula_units_Z   1
loop_
 _symmetry_equiv_pos_site_id
 _symmetry_equiv_pos_as_xyz
  1  'x, y, z'
loop_
 _atom_site_type_symbol
 _atom_site_label
 _atom_site_symmetry_multiplicity
 _atom_site_fract_x
 _atom_site_fract_y
 _atom_site_fract_z
 _atom_site_occupancy
  Pr  Pr0  1  0.125000  0.125000  0.625000  1
  Nd  Nd1  1  0.125000  0.125000  0.125000  1
  Cd  Cd2  1  0.625000  0.125000  0.125000  1
  Cd  Cd3  1  0.125000  0.625000  0.125000  1
  Ir  Ir4  1  0.125000  0.625000  0.625000  1
  Ir  Ir5  1  0.625000  0.125000  0.625000  1
  Ir  Ir6  1  0.625000  0.625000  0.125000  1
  Ir  Ir7  1  0.625000  0.625000  0.625000  1
  O  O8  1  0.696858  0.696858  0.303118  1
  O  O9  1  0.291407  0.291407  0.709487  1
  O  O10  1  0.702356  0.297964  0.699192  1
  O  O11  1  0.297564  0.703672  0.300091  1
  O  O12  1  0.297964  0.702356  0.699192  1
  O  O13  1  0.703672  0.297564  0.300091  1
  O  O14  1  0.553142  0.553142  0.946882  1
  O  O15  1  0.958593  0.958593  0.540513  1
  O  O16  1  0.547644  0.952036  0.550808  1
  O  O17  1  0.952436  0.546328  0.949909  1
  O  O18  1  0.952036  0.547644  0.550808  1
  O  O19  1  0.546328  0.952436  0.949909  1
  O  O20  1  0.258512  0.258512  0.239895  1
  O  O21  1  0.991488  0.991488  0.010105  1
