# generated using pymatgen
data_TcOs6W
_symmetry_space_group_name_H-M   'P 1'
_cell_length_a   5.56033400
_cell_length_b   5.56033444
_cell_length_c   4.36570700
_cell_angle_alpha   90.00000000
_cell_angle_beta   90.00000000
_cell_angle_gamma   119.99999741
_symmetry_Int_Tables_number   1
_chemical_formula_structural   TcOs6W
_chemical_formula_sum   'Tc1 Os6 W1'
_cell_volume   116.89260080
_cell_formula_units_Z   1
loop_
 _symmetry_equiv_pos_site_id
 _symmetry_equiv_pos_as_xyz
  1  'x, y, z'
loop_
 _atom_site_type_symbol
 _atom_site_label
 _atom_site_symmetry_multiplicity
 _atom_site_fract_x
 _atom_site_fract_y
 _atom_site_fract_z
 _atom_site_occupancy
  Tc  Tc0  1  0.666667  0.333333  0.250000  1
  Os  Os1  1  0.165607  0.331214  0.250000  1
  Os  Os2  1  0.668786  0.834393  0.250000  1
  Os  Os3  1  0.165607  0.834393  0.250000  1
  Os  Os4  1  0.831455  0.662910  0.750000  1
  Os  Os5  1  0.337090  0.168545  0.750000  1
  Os  Os6  1  0.831455  0.168545  0.750000  1
  W  W7  1  0.333333  0.666667  0.750000  1
