# generated using pymatgen
data_Tb3ErAl18Ir5Pd
_symmetry_space_group_name_H-M   'P 1'
_cell_length_a   7.57216468
_cell_length_b   7.57483503
_cell_length_c   9.48066674
_cell_angle_alpha   89.98350494
_cell_angle_beta   89.96920674
_cell_angle_gamma   119.53112321
_symmetry_Int_Tables_number   1
_chemical_formula_structural   Tb3ErAl18Ir5Pd
_chemical_formula_sum   'Tb3 Er1 Al18 Ir5 Pd1'
_cell_volume   473.14600747
_cell_formula_units_Z   1
loop_
 _symmetry_equiv_pos_site_id
 _symmetry_equiv_pos_as_xyz
  1  'x, y, z'
loop_
 _atom_site_type_symbol
 _atom_site_label
 _atom_site_symmetry_multiplicity
 _atom_site_fract_x
 _atom_site_fract_y
 _atom_site_fract_z
 _atom_site_occupancy
  Tb  Tb0  1  0.995760  0.670916  0.248923  1
  Tb  Tb1  1  0.004364  0.329035  0.751096  1
  Tb  Tb2  1  0.670831  0.995562  0.248938  1
  Er  Er3  1  0.329061  0.004182  0.751336  1
  Al  Al4  1  0.130198  0.129940  0.247623  1
  Al  Al5  1  0.870794  0.870138  0.752224  1
  Al  Al6  1  0.000899  0.334623  0.074072  1
  Al  Al7  1  0.999875  0.666173  0.925340  1
  Al  Al8  1  0.998585  0.661759  0.577002  1
  Al  Al9  1  0.338998  0.002073  0.424406  1
  Al  Al10  1  0.002181  0.339141  0.423558  1
  Al  Al11  1  0.660060  0.997916  0.577208  1
  Al  Al12  1  0.664709  0.999151  0.925242  1
  Al  Al13  1  0.334600  0.000854  0.073221  1
  Al  Al14  1  0.337190  0.336555  0.554919  1
  Al  Al15  1  0.662717  0.662698  0.446031  1
  Al  Al16  1  0.666471  0.666439  0.050702  1
  Al  Al17  1  0.333592  0.332969  0.948398  1
  Al  Al18  1  0.339152  0.548406  0.249536  1
  Al  Al19  1  0.660145  0.450793  0.750435  1
  Al  Al20  1  0.548193  0.338916  0.249563  1
  Al  Al21  1  0.451586  0.661582  0.750425  1
  Ir  Ir22  1  0.671698  0.327955  0.999698  1
  Ir  Ir23  1  0.328115  0.671987  0.999728  1
  Ir  Ir24  1  0.327918  0.672126  0.500267  1
  Ir  Ir25  1  0.671866  0.327800  0.500287  1
  Ir  Ir26  1  0.000310  0.000195  0.999654  1
  Pd  Pd27  1  0.000133  0.000116  0.500168  1
