# generated using pymatgen
data_Er5Si12Ir11Ru8
_symmetry_space_group_name_H-M   'P 1'
_cell_length_a   12.75445482
_cell_length_b   12.73734768
_cell_length_c   4.01078700
_cell_angle_alpha   90.00000000
_cell_angle_beta   90.00000000
_cell_angle_gamma   119.95564537
_symmetry_Int_Tables_number   1
_chemical_formula_structural   Er5Si12Ir11Ru8
_chemical_formula_sum   'Er5 Si12 Ir11 Ru8'
_cell_volume   564.54045211
_cell_formula_units_Z   1
loop_
 _symmetry_equiv_pos_site_id
 _symmetry_equiv_pos_as_xyz
  1  'x, y, z'
loop_
 _atom_site_type_symbol
 _atom_site_label
 _atom_site_symmetry_multiplicity
 _atom_site_fract_x
 _atom_site_fract_y
 _atom_site_fract_z
 _atom_site_occupancy
  Er  Er0  1  0.664671  0.331990  0.000000  1
  Er  Er1  1  0.335329  0.667320  0.000000  1
  Er  Er2  1  0.813067  0.812594  0.500000  1
  Er  Er3  1  0.186933  0.999527  0.500000  1
  Er  Er4  1  0.000000  0.186284  0.500000  1
  Si  Si5  1  0.692331  0.168499  0.500000  1
  Si  Si6  1  0.829221  0.523870  0.500000  1
  Si  Si7  1  0.474439  0.306963  0.500000  1
  Si  Si8  1  0.170779  0.694650  0.500000  1
  Si  Si9  1  0.525561  0.832525  0.500000  1
  Si  Si10  1  0.307669  0.476169  0.500000  1
  Si  Si11  1  0.620941  0.620683  0.000000  1
  Si  Si12  1  0.379059  0.999742  0.000000  1
  Si  Si13  1  0.000000  0.376507  0.000000  1
  Si  Si14  1  0.182559  0.183117  0.000000  1
  Si  Si15  1  0.817441  0.000558  0.000000  1
  Si  Si16  1  0.000000  0.816990  0.000000  1
  Ir  Ir17  1  0.000000  0.561417  0.000000  1
  Ir  Ir18  1  0.277047  0.277967  0.500000  1
  Ir  Ir19  1  0.722953  0.000920  0.500000  1
  Ir  Ir20  1  0.000000  0.720522  0.500000  1
  Ir  Ir21  1  0.874381  0.366066  0.500000  1
  Ir  Ir22  1  0.633828  0.508631  0.500000  1
  Ir  Ir23  1  0.490451  0.125596  0.500000  1
  Ir  Ir24  1  0.366172  0.874801  0.500000  1
  Ir  Ir25  1  0.509549  0.635143  0.500000  1
  Ir  Ir26  1  0.125619  0.491683  0.500000  1
  Ir  Ir27  1  0.000000  0.999966  0.000000  1
  Ru  Ru28  1  0.810881  0.187233  0.000000  1
  Ru  Ru29  1  0.813685  0.624492  0.000000  1
  Ru  Ru30  1  0.374820  0.189021  0.000000  1
  Ru  Ru31  1  0.186315  0.810807  0.000000  1
  Ru  Ru32  1  0.625180  0.814201  0.000000  1
  Ru  Ru33  1  0.189119  0.376352  0.000000  1
  Ru  Ru34  1  0.436170  0.436683  0.000000  1
  Ru  Ru35  1  0.563830  0.000513  0.000000  1
