# generated using pymatgen
data_Li2TaV3O8
_symmetry_space_group_name_H-M   'P 1'
_cell_length_a   5.99149000
_cell_length_b   5.99148953
_cell_length_c   9.73764400
_cell_angle_alpha   90.00000000
_cell_angle_beta   90.00000000
_cell_angle_gamma   120.00000261
_symmetry_Int_Tables_number   1
_chemical_formula_structural   Li2TaV3O8
_chemical_formula_sum   'Li4 Ta2 V6 O16'
_cell_volume   302.72909084
_cell_formula_units_Z   2
loop_
 _symmetry_equiv_pos_site_id
 _symmetry_equiv_pos_as_xyz
  1  'x, y, z'
loop_
 _atom_site_type_symbol
 _atom_site_label
 _atom_site_symmetry_multiplicity
 _atom_site_fract_x
 _atom_site_fract_y
 _atom_site_fract_z
 _atom_site_occupancy
  Li  Li0  1  0.333333  0.666667  0.900888  1
  Li  Li1  1  0.000000  0.000000  0.992753  1
  Li  Li2  1  0.000000  0.000000  0.492753  1
  Li  Li3  1  0.666667  0.333333  0.400888  1
  Ta  Ta4  1  0.333333  0.666667  0.488381  1
  Ta  Ta5  1  0.666667  0.333333  0.988381  1
  V  V6  1  0.169953  0.830047  0.214253  1
  V  V7  1  0.169953  0.339907  0.214253  1
  V  V8  1  0.660093  0.830047  0.214253  1
  V  V9  1  0.339907  0.169953  0.714253  1
  V  V10  1  0.830047  0.660093  0.714253  1
  V  V11  1  0.830047  0.169953  0.714253  1
  O  O12  1  0.168333  0.831667  0.591236  1
  O  O13  1  0.037669  0.518834  0.345197  1
  O  O14  1  0.333333  0.666667  0.106896  1
  O  O15  1  0.000000  0.000000  0.309056  1
  O  O16  1  0.000000  0.000000  0.809056  1
  O  O17  1  0.168333  0.336667  0.591236  1
  O  O18  1  0.481166  0.962331  0.345197  1
  O  O19  1  0.481166  0.518834  0.345197  1
  O  O20  1  0.336667  0.168333  0.091236  1
  O  O21  1  0.663333  0.831667  0.591236  1
  O  O22  1  0.518834  0.481166  0.845197  1
  O  O23  1  0.518834  0.037669  0.845197  1
  O  O24  1  0.666667  0.333333  0.606896  1
  O  O25  1  0.831667  0.663333  0.091236  1
  O  O26  1  0.962331  0.481166  0.845197  1
  O  O27  1  0.831667  0.168333  0.091236  1
