# generated using pymatgen
data_Th6OsPd7
_symmetry_space_group_name_H-M   'P 1'
_cell_length_a   8.17916919
_cell_length_b   8.17916970
_cell_length_c   8.17916874
_cell_angle_alpha   114.48353252
_cell_angle_beta   114.48353811
_cell_angle_gamma   114.48353921
_symmetry_Int_Tables_number   1
_chemical_formula_structural   Th6OsPd7
_chemical_formula_sum   'Th6 Os1 Pd7'
_cell_volume   320.17018147
_cell_formula_units_Z   1
loop_
 _symmetry_equiv_pos_site_id
 _symmetry_equiv_pos_as_xyz
  1  'x, y, z'
loop_
 _atom_site_type_symbol
 _atom_site_label
 _atom_site_symmetry_multiplicity
 _atom_site_fract_x
 _atom_site_fract_y
 _atom_site_fract_z
 _atom_site_occupancy
  Th  Th0  1  0.389469  0.021634  0.269749  1
  Th  Th1  1  0.021634  0.269749  0.389469  1
  Th  Th2  1  0.269749  0.389469  0.021634  1
  Th  Th3  1  0.610531  0.978366  0.730251  1
  Th  Th4  1  0.978366  0.730251  0.610531  1
  Th  Th5  1  0.730251  0.610531  0.978366  1
  Os  Os6  1  0.000000  0.000000  0.000000  1
  Pd  Pd7  1  0.500000  0.500000  0.500000  1
  Pd  Pd8  1  0.237013  0.075383  0.582502  1
  Pd  Pd9  1  0.075383  0.582502  0.237013  1
  Pd  Pd10  1  0.582502  0.237013  0.075383  1
  Pd  Pd11  1  0.762987  0.924617  0.417498  1
  Pd  Pd12  1  0.924617  0.417498  0.762987  1
  Pd  Pd13  1  0.417498  0.762987  0.924617  1
