# generated using pymatgen
data_Dy4Th(ReB3)2
_symmetry_space_group_name_H-M   'P 1'
_cell_length_a   5.52396024
_cell_length_b   5.52396030
_cell_length_c   8.64287453
_cell_angle_alpha   71.36324642
_cell_angle_beta   71.36324699
_cell_angle_gamma   59.99998761
_symmetry_Int_Tables_number   1
_chemical_formula_structural   Dy4Th(ReB3)2
_chemical_formula_sum   'Dy4 Th1 Re2 B6'
_cell_volume   212.27823398
_cell_formula_units_Z   1
loop_
 _symmetry_equiv_pos_site_id
 _symmetry_equiv_pos_as_xyz
  1  'x, y, z'
loop_
 _atom_site_type_symbol
 _atom_site_label
 _atom_site_symmetry_multiplicity
 _atom_site_fract_x
 _atom_site_fract_y
 _atom_site_fract_z
 _atom_site_occupancy
  Dy  Dy0  1  0.247527  0.247527  0.257419  1
  Dy  Dy1  1  0.752473  0.752473  0.742581  1
  Dy  Dy2  1  0.419086  0.419086  0.742743  1
  Dy  Dy3  1  0.580914  0.580914  0.257257  1
  Th  Th4  1  0.000000  0.000000  0.000000  1
  Re  Re5  1  0.111961  0.111961  0.664117  1
  Re  Re6  1  0.888039  0.888039  0.335883  1
  B  B7  1  0.171383  0.828617  0.500000  1
  B  B8  1  0.828617  0.500000  0.500000  1
  B  B9  1  0.500000  0.171383  0.500000  1
  B  B10  1  0.171383  0.500000  0.500000  1
  B  B11  1  0.500000  0.828617  0.500000  1
  B  B12  1  0.828617  0.171383  0.500000  1
