# generated using pymatgen
data_BeSiBW5
_symmetry_space_group_name_H-M   'P 1'
_cell_length_a   7.07310141
_cell_length_b   7.07310139
_cell_length_c   7.07310050
_cell_angle_alpha   128.70529973
_cell_angle_beta   128.69732363
_cell_angle_gamma   75.49164671
_symmetry_Int_Tables_number   1
_chemical_formula_structural   BeSiBW5
_chemical_formula_sum   'Be2 Si2 B2 W10'
_cell_volume   209.71020230
_cell_formula_units_Z   2
loop_
 _symmetry_equiv_pos_site_id
 _symmetry_equiv_pos_as_xyz
  1  'x, y, z'
loop_
 _atom_site_type_symbol
 _atom_site_label
 _atom_site_symmetry_multiplicity
 _atom_site_fract_x
 _atom_site_fract_y
 _atom_site_fract_z
 _atom_site_occupancy
  Be  Be0  1  0.376929  0.876596  0.253526  1
  Be  Be1  1  0.876929  0.623404  0.500332  1
  Si  Si2  1  0.752982  0.750000  0.002982  1
  Si  Si3  1  0.252982  0.250000  0.002982  1
  B  B4  1  0.621867  0.121601  0.743467  1
  B  B5  1  0.121867  0.378399  0.500266  1
  W  W6  1  0.998635  0.004591  0.003226  1
  W  W7  1  0.807243  0.982394  0.502865  1
  W  W8  1  0.307243  0.804378  0.824848  1
  W  W9  1  0.193866  0.024445  0.502454  1
  W  W10  1  0.520471  0.695622  0.502865  1
  W  W11  1  0.020471  0.517606  0.824848  1
  W  W12  1  0.693866  0.191412  0.169420  1
  W  W13  1  0.978009  0.475555  0.169420  1
  W  W14  1  0.498635  0.495409  0.994045  1
  W  W15  1  0.478009  0.308588  0.502454  1
