# generated using pymatgen
data_RbPr5Y(CI6)2
_symmetry_space_group_name_H-M   'P 1'
_cell_length_a   9.74465389
_cell_length_b   9.74857603
_cell_length_c   10.19093291
_cell_angle_alpha   72.45467507
_cell_angle_beta   71.21948901
_cell_angle_gamma   72.90056058
_symmetry_Int_Tables_number   1
_chemical_formula_structural   RbPr5Y(CI6)2
_chemical_formula_sum   'Rb1 Pr5 Y1 C2 I12'
_cell_volume   852.86140186
_cell_formula_units_Z   1
loop_
 _symmetry_equiv_pos_site_id
 _symmetry_equiv_pos_as_xyz
  1  'x, y, z'
loop_
 _atom_site_type_symbol
 _atom_site_label
 _atom_site_symmetry_multiplicity
 _atom_site_fract_x
 _atom_site_fract_y
 _atom_site_fract_z
 _atom_site_occupancy
  Rb  Rb0  1  0.001198  0.499567  0.999575  1
  Pr  Pr1  1  0.771376  0.031609  0.409194  1
  Pr  Pr2  1  0.590424  0.731040  0.474779  1
  Pr  Pr3  1  0.410023  0.269214  0.526393  1
  Pr  Pr4  1  0.228562  0.968843  0.588722  1
  Pr  Pr5  1  0.524334  0.892990  0.806718  1
  Y  Y6  1  0.474511  0.105806  0.201395  1
  C  C7  1  0.493733  0.024838  0.427769  1
  C  C8  1  0.506056  0.976811  0.569287  1
  I  I9  1  0.789688  0.158494  0.078183  1
  I  I10  1  0.582282  0.789397  0.142180  1
  I  I11  1  0.354988  0.425879  0.217531  1
  I  I12  1  0.143296  0.071878  0.285299  1
  I  I13  1  0.930495  0.717453  0.352323  1
  I  I14  1  0.720393  0.367647  0.428542  1
  I  I15  1  0.280647  0.632069  0.569466  1
  I  I16  1  0.070500  0.282628  0.647751  1
  I  I17  1  0.865574  0.929694  0.708243  1
  I  I18  1  0.649336  0.564501  0.779497  1
  I  I19  1  0.414404  0.220572  0.864981  1
  I  I20  1  0.198185  0.839070  0.922172  1
