# generated using pymatgen
data_La8DyErRu4
_symmetry_space_group_name_H-M   'P 1'
_cell_length_a   6.67458949
_cell_length_b   7.23504651
_cell_length_c   9.05814302
_cell_angle_alpha   94.35891879
_cell_angle_beta   111.61884074
_cell_angle_gamma   89.99999446
_symmetry_Int_Tables_number   1
_chemical_formula_structural   La8DyErRu4
_chemical_formula_sum   'La8 Dy1 Er1 Ru4'
_cell_volume   405.29457266
_cell_formula_units_Z   1
loop_
 _symmetry_equiv_pos_site_id
 _symmetry_equiv_pos_as_xyz
  1  'x, y, z'
loop_
 _atom_site_type_symbol
 _atom_site_label
 _atom_site_symmetry_multiplicity
 _atom_site_fract_x
 _atom_site_fract_y
 _atom_site_fract_z
 _atom_site_occupancy
  La  La0  1  0.794116  0.591426  0.818317  1
  La  La1  1  0.975798  0.908574  0.181683  1
  La  La2  1  0.205813  0.408328  0.181668  1
  La  La3  1  0.024144  0.091672  0.818332  1
  La  La4  1  0.208637  0.683700  0.573114  1
  La  La5  1  0.635524  0.816300  0.426886  1
  La  La6  1  0.791271  0.316175  0.426678  1
  La  La7  1  0.364593  0.183825  0.573322  1
  Dy  Dy8  1  0.430557  0.750000  0.000000  1
  Er  Er9  1  0.569369  0.250000  0.000000  1
  Ru  Ru10  1  0.601766  0.921680  0.782593  1
  Ru  Ru11  1  0.819171  0.578320  0.217407  1
  Ru  Ru12  1  0.398334  0.078574  0.217429  1
  Ru  Ru13  1  0.180906  0.421426  0.782571  1
