# generated using pymatgen
data_Nd16Dy3LuSn16
_symmetry_space_group_name_H-M   'P 1'
_cell_length_a   8.22643901
_cell_length_b   8.39975401
_cell_length_c   15.93359600
_cell_angle_alpha   90.00000000
_cell_angle_beta   90.00000000
_cell_angle_gamma   89.99456891
_symmetry_Int_Tables_number   1
_chemical_formula_structural   Nd16Dy3LuSn16
_chemical_formula_sum   'Nd16 Dy3 Lu1 Sn16'
_cell_volume   1101.01249922
_cell_formula_units_Z   1
loop_
 _symmetry_equiv_pos_site_id
 _symmetry_equiv_pos_as_xyz
  1  'x, y, z'
loop_
 _atom_site_type_symbol
 _atom_site_label
 _atom_site_symmetry_multiplicity
 _atom_site_fract_x
 _atom_site_fract_y
 _atom_site_fract_z
 _atom_site_occupancy
  Nd  Nd0  1  0.018628  0.180852  0.401919  1
  Nd  Nd1  1  0.365788  0.838414  0.121151  1
  Nd  Nd2  1  0.133940  0.338565  0.621174  1
  Nd  Nd3  1  0.481512  0.680791  0.901898  1
  Nd  Nd4  1  0.865802  0.661624  0.121111  1
  Nd  Nd5  1  0.133940  0.338565  0.878826  1
  Nd  Nd6  1  0.481512  0.680791  0.598102  1
  Nd  Nd7  1  0.634337  0.161779  0.621176  1
  Nd  Nd8  1  0.865802  0.661624  0.378889  1
  Nd  Nd9  1  0.018628  0.180852  0.098081  1
  Nd  Nd10  1  0.981303  0.819043  0.901920  1
  Nd  Nd11  1  0.634337  0.161779  0.878824  1
  Nd  Nd12  1  0.518587  0.319127  0.098056  1
  Nd  Nd13  1  0.365788  0.838414  0.378849  1
  Nd  Nd14  1  0.981303  0.819043  0.598080  1
  Nd  Nd15  1  0.518587  0.319127  0.401944  1
  Dy  Dy16  1  0.197739  0.502463  0.250000  1
  Dy  Dy17  1  0.697749  0.997479  0.250000  1
  Dy  Dy18  1  0.302302  0.002398  0.750000  1
  Lu  Lu19  1  0.801911  0.497470  0.750000  1
  Sn  Sn20  1  0.793199  0.465540  0.544839  1
  Sn  Sn21  1  0.706813  0.965501  0.455395  1
  Sn  Sn22  1  0.675354  0.851240  0.750000  1
  Sn  Sn23  1  0.206821  0.534530  0.455395  1
  Sn  Sn24  1  0.293198  0.034469  0.955359  1
  Sn  Sn25  1  0.824643  0.351838  0.250000  1
  Sn  Sn26  1  0.793199  0.465540  0.955161  1
  Sn  Sn27  1  0.562381  0.616211  0.250000  1
  Sn  Sn28  1  0.206821  0.534530  0.044605  1
  Sn  Sn29  1  0.438218  0.383897  0.750000  1
  Sn  Sn30  1  0.175229  0.648124  0.750000  1
  Sn  Sn31  1  0.937581  0.116373  0.750000  1
  Sn  Sn32  1  0.293198  0.034469  0.544641  1
  Sn  Sn33  1  0.706813  0.965501  0.044605  1
  Sn  Sn34  1  0.324699  0.148261  0.250000  1
  Sn  Sn35  1  0.062341  0.883778  0.250000  1
