# generated using pymatgen
data_Nd4LuIr3
_symmetry_space_group_name_H-M   'P 1'
_cell_length_a   11.16438300
_cell_length_b   11.16438300
_cell_length_c   6.50028700
_cell_angle_alpha   90.00000000
_cell_angle_beta   90.00000000
_cell_angle_gamma   90.00000000
_symmetry_Int_Tables_number   1
_chemical_formula_structural   Nd4LuIr3
_chemical_formula_sum   'Nd16 Lu4 Ir12'
_cell_volume   810.21818318
_cell_formula_units_Z   4
loop_
 _symmetry_equiv_pos_site_id
 _symmetry_equiv_pos_as_xyz
  1  'x, y, z'
loop_
 _atom_site_type_symbol
 _atom_site_label
 _atom_site_symmetry_multiplicity
 _atom_site_fract_x
 _atom_site_fract_y
 _atom_site_fract_z
 _atom_site_occupancy
  Nd  Nd0  1  0.088016  0.288456  0.117799  1
  Nd  Nd1  1  0.788456  0.411984  0.117799  1
  Nd  Nd2  1  0.211544  0.588016  0.117799  1
  Nd  Nd3  1  0.911984  0.711544  0.117799  1
  Nd  Nd4  1  0.411984  0.788456  0.382201  1
  Nd  Nd5  1  0.588016  0.211544  0.382201  1
  Nd  Nd6  1  0.288456  0.088016  0.382201  1
  Nd  Nd7  1  0.711544  0.911984  0.382201  1
  Nd  Nd8  1  0.411984  0.211544  0.882201  1
  Nd  Nd9  1  0.711544  0.088016  0.882201  1
  Nd  Nd10  1  0.288456  0.911984  0.882201  1
  Nd  Nd11  1  0.588016  0.788456  0.882201  1
  Nd  Nd12  1  0.088016  0.711544  0.617799  1
  Nd  Nd13  1  0.911984  0.288456  0.617799  1
  Nd  Nd14  1  0.211544  0.411984  0.617799  1
  Nd  Nd15  1  0.788456  0.588016  0.617799  1
  Lu  Lu16  1  0.000000  0.000000  0.000000  1
  Lu  Lu17  1  0.500000  0.500000  0.000000  1
  Lu  Lu18  1  0.500000  0.500000  0.500000  1
  Lu  Lu19  1  0.000000  0.000000  0.500000  1
  Ir  Ir20  1  0.147353  0.852647  0.250000  1
  Ir  Ir21  1  0.352647  0.352647  0.250000  1
  Ir  Ir22  1  0.647353  0.647353  0.250000  1
  Ir  Ir23  1  0.852647  0.147353  0.250000  1
  Ir  Ir24  1  0.352647  0.647353  0.750000  1
  Ir  Ir25  1  0.147353  0.147353  0.750000  1
  Ir  Ir26  1  0.852647  0.852647  0.750000  1
  Ir  Ir27  1  0.647353  0.352647  0.750000  1
  Ir  Ir28  1  0.000000  0.500000  0.378796  1
  Ir  Ir29  1  0.500000  0.000000  0.121204  1
  Ir  Ir30  1  0.500000  0.000000  0.621204  1
  Ir  Ir31  1  0.000000  0.500000  0.878796  1
