# generated using pymatgen
data_Dy8Y4Co5Pb
_symmetry_space_group_name_H-M   'P 1'
_cell_length_a   8.34497906
_cell_length_b   8.34467772
_cell_length_c   8.34497706
_cell_angle_alpha   110.62972985
_cell_angle_beta   110.70343171
_cell_angle_gamma   107.10748663
_symmetry_Int_Tables_number   1
_chemical_formula_structural   Dy8Y4Co5Pb
_chemical_formula_sum   'Dy8 Y4 Co5 Pb1'
_cell_volume   446.76401232
_cell_formula_units_Z   1
loop_
 _symmetry_equiv_pos_site_id
 _symmetry_equiv_pos_as_xyz
  1  'x, y, z'
loop_
 _atom_site_type_symbol
 _atom_site_label
 _atom_site_symmetry_multiplicity
 _atom_site_fract_x
 _atom_site_fract_y
 _atom_site_fract_z
 _atom_site_occupancy
  Dy  Dy0  1  0.687452  0.379171  0.691719  1
  Dy  Dy1  1  0.312548  0.620829  0.308281  1
  Dy  Dy2  1  0.687465  0.995721  0.308256  1
  Dy  Dy3  1  0.312535  0.004279  0.691744  1
  Dy  Dy4  1  0.601153  0.794048  0.807125  1
  Dy  Dy5  1  0.398847  0.205952  0.192875  1
  Dy  Dy6  1  0.986922  0.794048  0.192894  1
  Dy  Dy7  1  0.013078  0.205952  0.807106  1
  Y  Y8  1  0.814030  0.708102  0.522141  1
  Y  Y9  1  0.185970  0.291898  0.477859  1
  Y  Y10  1  0.185961  0.708102  0.894071  1
  Y  Y11  1  0.814039  0.291898  0.105929  1
  Co  Co12  1  0.620822  0.000000  0.620822  1
  Co  Co13  1  0.379178  0.000000  0.379178  1
  Co  Co14  1  0.111498  0.611504  0.500006  1
  Co  Co15  1  0.888502  0.388496  0.499994  1
  Co  Co16  1  0.000000  0.000000  0.000000  1
  Pb  Pb17  1  0.500000  0.500000  0.000000  1
