# generated using pymatgen
data_Ho20Sn15Bi
_symmetry_space_group_name_H-M   'P 1'
_cell_length_a   8.05815530
_cell_length_b   8.14804069
_cell_length_c   15.40334363
_cell_angle_alpha   90.11248860
_cell_angle_beta   90.75566350
_cell_angle_gamma   89.94909575
_symmetry_Int_Tables_number   1
_chemical_formula_structural   Ho20Sn15Bi
_chemical_formula_sum   'Ho20 Sn15 Bi1'
_cell_volume   1011.26518256
_cell_formula_units_Z   1
loop_
 _symmetry_equiv_pos_site_id
 _symmetry_equiv_pos_as_xyz
  1  'x, y, z'
loop_
 _atom_site_type_symbol
 _atom_site_label
 _atom_site_symmetry_multiplicity
 _atom_site_fract_x
 _atom_site_fract_y
 _atom_site_fract_z
 _atom_site_occupancy
  Ho  Ho0  1  0.377874  0.835427  0.877335  1
  Ho  Ho1  1  0.871281  0.663981  0.621973  1
  Ho  Ho2  1  0.629832  0.162822  0.377033  1
  Ho  Ho3  1  0.123453  0.342876  0.122008  1
  Ho  Ho4  1  0.628599  0.161877  0.121626  1
  Ho  Ho5  1  0.130171  0.337586  0.377585  1
  Ho  Ho6  1  0.370241  0.837994  0.622646  1
  Ho  Ho7  1  0.874636  0.661992  0.878803  1
  Ho  Ho8  1  0.533785  0.327144  0.898118  1
  Ho  Ho9  1  0.023699  0.178151  0.597441  1
  Ho  Ho10  1  0.476939  0.677628  0.402745  1
  Ho  Ho11  1  0.961438  0.819488  0.102625  1
  Ho  Ho12  1  0.470864  0.670751  0.100918  1
  Ho  Ho13  1  0.976458  0.822001  0.402525  1
  Ho  Ho14  1  0.522987  0.321731  0.597030  1
  Ho  Ho15  1  0.025728  0.180894  0.897843  1
  Ho  Ho16  1  0.203322  0.502977  0.749572  1
  Ho  Ho17  1  0.703278  0.997531  0.749988  1
  Ho  Ho18  1  0.796661  0.496744  0.250991  1
  Ho  Ho19  1  0.297233  0.002055  0.253429  1
  Sn  Sn20  1  0.791417  0.462987  0.458536  1
  Sn  Sn21  1  0.708395  0.963795  0.541382  1
  Sn  Sn22  1  0.216324  0.532147  0.957209  1
  Sn  Sn23  1  0.717403  0.968235  0.957252  1
  Sn  Sn24  1  0.208765  0.537687  0.541519  1
  Sn  Sn25  1  0.292379  0.036978  0.459052  1
  Sn  Sn26  1  0.785014  0.466172  0.042387  1
  Sn  Sn27  1  0.570758  0.620310  0.749189  1
  Sn  Sn28  1  0.070167  0.880545  0.751528  1
  Sn  Sn29  1  0.430322  0.378480  0.248687  1
  Sn  Sn30  1  0.931523  0.120230  0.248910  1
  Sn  Sn31  1  0.336925  0.148447  0.749122  1
  Sn  Sn32  1  0.836207  0.352972  0.747728  1
  Sn  Sn33  1  0.662110  0.851063  0.251059  1
  Sn  Sn34  1  0.163294  0.648302  0.251315  1
  Bi  Bi35  1  0.280517  0.030001  0.042892  1
