# generated using pymatgen
data_Tm20Al5CdRh2
_symmetry_space_group_name_H-M   'P 1'
_cell_length_a   9.35889200
_cell_length_b   9.37195822
_cell_length_c   9.49501800
_cell_angle_alpha   90.00000000
_cell_angle_beta   90.00000000
_cell_angle_gamma   120.04618486
_symmetry_Int_Tables_number   1
_chemical_formula_structural   Tm20Al5CdRh2
_chemical_formula_sum   'Tm20 Al5 Cd1 Rh2'
_cell_volume   720.90643025
_cell_formula_units_Z   1
loop_
 _symmetry_equiv_pos_site_id
 _symmetry_equiv_pos_as_xyz
  1  'x, y, z'
loop_
 _atom_site_type_symbol
 _atom_site_label
 _atom_site_symmetry_multiplicity
 _atom_site_fract_x
 _atom_site_fract_y
 _atom_site_fract_z
 _atom_site_occupancy
  Tm  Tm0  1  0.000640  0.000320  0.499426  1
  Tm  Tm1  1  0.000640  0.000320  0.000574  1
  Tm  Tm2  1  0.542379  0.457604  0.250000  1
  Tm  Tm3  1  0.542379  0.084773  0.250000  1
  Tm  Tm4  1  0.915890  0.457945  0.250000  1
  Tm  Tm5  1  0.456424  0.540284  0.750000  1
  Tm  Tm6  1  0.456424  0.916139  0.750000  1
  Tm  Tm7  1  0.085610  0.542805  0.750000  1
  Tm  Tm8  1  0.206130  0.793459  0.442740  1
  Tm  Tm9  1  0.206130  0.412672  0.442740  1
  Tm  Tm10  1  0.584809  0.792405  0.438429  1
  Tm  Tm11  1  0.793864  0.208613  0.555922  1
  Tm  Tm12  1  0.793864  0.585251  0.555922  1
  Tm  Tm13  1  0.413245  0.206623  0.558074  1
  Tm  Tm14  1  0.793864  0.208613  0.944078  1
  Tm  Tm15  1  0.793864  0.585251  0.944078  1
  Tm  Tm16  1  0.413245  0.206623  0.941926  1
  Tm  Tm17  1  0.206130  0.793459  0.057260  1
  Tm  Tm18  1  0.206130  0.412672  0.057260  1
  Tm  Tm19  1  0.584809  0.792405  0.061571  1
  Al  Al20  1  0.888492  0.111459  0.250000  1
  Al  Al21  1  0.888492  0.777034  0.250000  1
  Al  Al22  1  0.221956  0.110978  0.250000  1
  Al  Al23  1  0.115422  0.889748  0.750000  1
  Al  Al24  1  0.115422  0.225675  0.750000  1
  Cd  Cd25  1  0.774557  0.887278  0.750000  1
  Rh  Rh26  1  0.331777  0.665889  0.250000  1
  Rh  Rh27  1  0.667410  0.333705  0.750000  1
