# generated using pymatgen
data_Tb5Zr3(Ni4P3)4
_symmetry_space_group_name_H-M   'P 1'
_cell_length_a   12.35158400
_cell_length_b   12.35158405
_cell_length_c   3.80077000
_cell_angle_alpha   90.00000000
_cell_angle_beta   90.00000000
_cell_angle_gamma   120.00000523
_symmetry_Int_Tables_number   1
_chemical_formula_structural   Tb5Zr3(Ni4P3)4
_chemical_formula_sum   'Tb5 Zr3 Ni16 P12'
_cell_volume   502.16624026
_cell_formula_units_Z   1
loop_
 _symmetry_equiv_pos_site_id
 _symmetry_equiv_pos_as_xyz
  1  'x, y, z'
loop_
 _atom_site_type_symbol
 _atom_site_label
 _atom_site_symmetry_multiplicity
 _atom_site_fract_x
 _atom_site_fract_y
 _atom_site_fract_z
 _atom_site_occupancy
  Tb  Tb0  1  0.184179  0.184179  0.500000  1
  Tb  Tb1  1  0.815821  0.000000  0.500000  1
  Tb  Tb2  1  0.000000  0.815821  0.500000  1
  Tb  Tb3  1  0.333333  0.666667  0.000000  1
  Tb  Tb4  1  0.666667  0.333333  0.000000  1
  Zr  Zr5  1  0.561101  0.561101  0.000000  1
  Zr  Zr6  1  0.438899  0.000000  0.000000  1
  Zr  Zr7  1  0.000000  0.438899  0.000000  1
  Ni  Ni8  1  0.726236  0.726236  0.500000  1
  Ni  Ni9  1  0.273764  0.000000  0.500000  1
  Ni  Ni10  1  0.000000  0.273764  0.500000  1
  Ni  Ni11  1  0.185242  0.376757  0.000000  1
  Ni  Ni12  1  0.623243  0.808485  0.000000  1
  Ni  Ni13  1  0.191515  0.814758  0.000000  1
  Ni  Ni14  1  0.808485  0.623243  0.000000  1
  Ni  Ni15  1  0.814758  0.191515  0.000000  1
  Ni  Ni16  1  0.376757  0.185242  0.000000  1
  Ni  Ni17  1  0.359797  0.483650  0.500000  1
  Ni  Ni18  1  0.516350  0.876148  0.500000  1
  Ni  Ni19  1  0.123852  0.640203  0.500000  1
  Ni  Ni20  1  0.876148  0.516350  0.500000  1
  Ni  Ni21  1  0.640203  0.123852  0.500000  1
  Ni  Ni22  1  0.483650  0.359797  0.500000  1
  Ni  Ni23  1  0.000000  0.000000  0.000000  1
  P  P24  1  0.821684  0.821684  0.000000  1
  P  P25  1  0.178316  0.000000  0.000000  1
  P  P26  1  0.000000  0.178316  0.000000  1
  P  P27  1  0.170559  0.475851  0.500000  1
  P  P28  1  0.524149  0.694708  0.500000  1
  P  P29  1  0.305292  0.829441  0.500000  1
  P  P30  1  0.694708  0.524149  0.500000  1
  P  P31  1  0.829441  0.305292  0.500000  1
  P  P32  1  0.475851  0.170559  0.500000  1
  P  P33  1  0.356101  0.356101  0.000000  1
  P  P34  1  0.643899  0.000000  0.000000  1
  P  P35  1  0.000000  0.643899  0.000000  1
