# generated using pymatgen
data_Th4GaGe5Os7
_symmetry_space_group_name_H-M   'P 1'
_cell_length_a   7.41690227
_cell_length_b   7.41690352
_cell_length_c   7.41690398
_cell_angle_alpha   109.50072901
_cell_angle_beta   109.50072896
_cell_angle_gamma   109.41221936
_symmetry_Int_Tables_number   1
_chemical_formula_structural   Th4GaGe5Os7
_chemical_formula_sum   'Th4 Ga1 Ge5 Os7'
_cell_volume   314.08385341
_cell_formula_units_Z   1
loop_
 _symmetry_equiv_pos_site_id
 _symmetry_equiv_pos_as_xyz
  1  'x, y, z'
loop_
 _atom_site_type_symbol
 _atom_site_label
 _atom_site_symmetry_multiplicity
 _atom_site_fract_x
 _atom_site_fract_y
 _atom_site_fract_z
 _atom_site_occupancy
  Th  Th0  1  0.998054  0.998054  0.499074  1
  Th  Th1  1  0.998054  0.498980  0.000000  1
  Th  Th2  1  0.498980  0.998054  0.000000  1
  Th  Th3  1  0.498980  0.498980  0.500926  1
  Ga  Ga4  1  0.686278  0.686278  0.000000  1
  Ge  Ge5  1  0.315585  0.999907  0.315678  1
  Ge  Ge6  1  0.999907  0.315585  0.315678  1
  Ge  Ge7  1  0.319193  0.319193  0.000000  1
  Ge  Ge8  1  0.684229  0.999907  0.684322  1
  Ge  Ge9  1  0.999907  0.684229  0.684322  1
  Os  Os10  1  0.749509  0.249509  0.500000  1
  Os  Os11  1  0.749274  0.499120  0.250154  1
  Os  Os12  1  0.499120  0.248966  0.749846  1
  Os  Os13  1  0.248966  0.499120  0.749846  1
  Os  Os14  1  0.249509  0.749509  0.500000  1
  Os  Os15  1  0.499120  0.749274  0.250154  1
  Os  Os16  1  0.005337  0.005337  0.000000  1
