# generated using pymatgen
data_Nd6ZnGa3Pt13
_symmetry_space_group_name_H-M   'P 1'
_cell_length_a   8.42117168
_cell_length_b   8.37103557
_cell_length_c   8.42117164
_cell_angle_alpha   109.35066195
_cell_angle_beta   109.59151197
_cell_angle_gamma   109.35066480
_symmetry_Int_Tables_number   1
_chemical_formula_structural   Nd6ZnGa3Pt13
_chemical_formula_sum   'Nd6 Zn1 Ga3 Pt13'
_cell_volume   457.66354010
_cell_formula_units_Z   1
loop_
 _symmetry_equiv_pos_site_id
 _symmetry_equiv_pos_as_xyz
  1  'x, y, z'
loop_
 _atom_site_type_symbol
 _atom_site_label
 _atom_site_symmetry_multiplicity
 _atom_site_fract_x
 _atom_site_fract_y
 _atom_site_fract_z
 _atom_site_occupancy
  Nd  Nd0  1  0.699708  0.698444  0.000000  1
  Nd  Nd1  1  0.300292  0.998736  0.300292  1
  Nd  Nd2  1  0.000000  0.301556  0.300292  1
  Nd  Nd3  1  0.300292  0.301556  0.000000  1
  Nd  Nd4  1  0.699708  0.001264  0.699708  1
  Nd  Nd5  1  0.000000  0.698444  0.699708  1
  Zn  Zn6  1  0.000000  0.500000  0.000000  1
  Ga  Ga7  1  0.000000  0.000000  0.500000  1
  Ga  Ga8  1  0.500000  0.000000  0.000000  1
  Ga  Ga9  1  0.500000  0.500000  0.500000  1
  Pt  Pt10  1  0.322576  0.322576  0.645151  1
  Pt  Pt11  1  0.677424  0.000000  0.322576  1
  Pt  Pt12  1  0.000000  0.675830  0.324974  1
  Pt  Pt13  1  0.675026  0.324170  0.000000  1
  Pt  Pt14  1  0.324974  0.649144  0.324974  1
  Pt  Pt15  1  0.000000  0.324170  0.675026  1
  Pt  Pt16  1  0.324974  0.675830  0.000000  1
  Pt  Pt17  1  0.322576  0.000000  0.677424  1
  Pt  Pt18  1  0.645151  0.322576  0.322576  1
  Pt  Pt19  1  0.677424  0.677424  0.354849  1
  Pt  Pt20  1  0.675026  0.350856  0.675026  1
  Pt  Pt21  1  0.354849  0.677424  0.677424  1
  Pt  Pt22  1  0.000000  0.000000  0.000000  1
