# generated using pymatgen
data_PrZnCu3Rh
_symmetry_space_group_name_H-M   'P 1'
_cell_length_a   5.29087128
_cell_length_b   5.35294240
_cell_length_c   4.11393400
_cell_angle_alpha   90.00000000
_cell_angle_beta   90.00000000
_cell_angle_gamma   122.62895041
_symmetry_Int_Tables_number   1
_chemical_formula_structural   PrZnCu3Rh
_chemical_formula_sum   'Pr1 Zn1 Cu3 Rh1'
_cell_volume   98.12553549
_cell_formula_units_Z   1
loop_
 _symmetry_equiv_pos_site_id
 _symmetry_equiv_pos_as_xyz
  1  'x, y, z'
loop_
 _atom_site_type_symbol
 _atom_site_label
 _atom_site_symmetry_multiplicity
 _atom_site_fract_x
 _atom_site_fract_y
 _atom_site_fract_z
 _atom_site_occupancy
  Pr  Pr0  1  0.000000  0.000000  0.000000  1
  Zn  Zn1  1  0.000000  0.500000  0.500000  1
  Cu  Cu2  1  0.327770  0.681179  0.000000  1
  Cu  Cu3  1  0.672230  0.318821  0.000000  1
  Cu  Cu4  1  0.500000  0.000000  0.500000  1
  Rh  Rh5  1  0.500000  0.500000  0.500000  1
