# generated using pymatgen
data_Tb2ThSn3IrRh2
_symmetry_space_group_name_H-M   'P 1'
_cell_length_a   7.64924799
_cell_length_b   7.58987346
_cell_length_c   3.94023900
_cell_angle_alpha   90.00000000
_cell_angle_beta   90.00000000
_cell_angle_gamma   120.37606839
_symmetry_Int_Tables_number   1
_chemical_formula_structural   Tb2ThSn3IrRh2
_chemical_formula_sum   'Tb2 Th1 Sn3 Ir1 Rh2'
_cell_volume   197.35503160
_cell_formula_units_Z   1
loop_
 _symmetry_equiv_pos_site_id
 _symmetry_equiv_pos_as_xyz
  1  'x, y, z'
loop_
 _atom_site_type_symbol
 _atom_site_label
 _atom_site_symmetry_multiplicity
 _atom_site_fract_x
 _atom_site_fract_y
 _atom_site_fract_z
 _atom_site_occupancy
  Tb  Tb0  1  0.001404  0.407820  0.500000  1
  Tb  Tb1  1  0.590941  0.594143  0.500000  1
  Th  Th2  1  0.413397  0.999578  0.500000  1
  Sn  Sn3  1  0.755239  0.001414  0.000000  1
  Sn  Sn4  1  0.987632  0.731021  0.000000  1
  Sn  Sn5  1  0.257532  0.267472  0.000000  1
  Ir  Ir6  1  0.333953  0.680642  0.000000  1
  Rh  Rh7  1  0.652312  0.318433  0.000000  1
  Rh  Rh8  1  0.007590  0.999476  0.500000  1
