# generated using pymatgen
data_Er2Pa(ZnPt)3
_symmetry_space_group_name_H-M   'P 1'
_cell_length_a   7.39853300
_cell_length_b   7.33069337
_cell_length_c   3.75925100
_cell_angle_alpha   90.00000000
_cell_angle_beta   90.00000000
_cell_angle_gamma   120.30661481
_symmetry_Int_Tables_number   1
_chemical_formula_structural   Er2Pa(ZnPt)3
_chemical_formula_sum   'Er2 Pa1 Zn3 Pt3'
_cell_volume   176.02424758
_cell_formula_units_Z   1
loop_
 _symmetry_equiv_pos_site_id
 _symmetry_equiv_pos_as_xyz
  1  'x, y, z'
loop_
 _atom_site_type_symbol
 _atom_site_label
 _atom_site_symmetry_multiplicity
 _atom_site_fract_x
 _atom_site_fract_y
 _atom_site_fract_z
 _atom_site_occupancy
  Er  Er0  1  0.003395  0.599635  0.000000  1
  Er  Er1  1  0.403759  0.400365  0.000000  1
  Pa  Pa2  1  0.592959  0.000000  0.000000  1
  Zn  Zn3  1  0.244293  0.000000  0.500000  1
  Zn  Zn4  1  0.009024  0.263978  0.500000  1
  Zn  Zn5  1  0.745046  0.736022  0.500000  1
  Pt  Pt6  1  0.991575  0.000000  0.000000  1
  Pt  Pt7  1  0.345198  0.680446  0.500000  1
  Pt  Pt8  1  0.664753  0.319554  0.500000  1
