# generated using pymatgen
data_DyTh(ZnRu)2
_symmetry_space_group_name_H-M   'P 1'
_cell_length_a   4.00557200
_cell_length_b   6.97936752
_cell_length_c   8.36179753
_cell_angle_alpha   90.54643902
_cell_angle_beta   90.00000000
_cell_angle_gamma   90.00000000
_symmetry_Int_Tables_number   1
_chemical_formula_structural   DyTh(ZnRu)2
_chemical_formula_sum   'Dy2 Th2 Zn4 Ru4'
_cell_volume   233.75478325
_cell_formula_units_Z   2
loop_
 _symmetry_equiv_pos_site_id
 _symmetry_equiv_pos_as_xyz
  1  'x, y, z'
loop_
 _atom_site_type_symbol
 _atom_site_label
 _atom_site_symmetry_multiplicity
 _atom_site_fract_x
 _atom_site_fract_y
 _atom_site_fract_z
 _atom_site_occupancy
  Dy  Dy0  1  0.250000  0.038309  0.320861  1
  Dy  Dy1  1  0.750000  0.961691  0.679139  1
  Th  Th2  1  0.250000  0.535247  0.186958  1
  Th  Th3  1  0.750000  0.464753  0.813042  1
  Zn  Zn4  1  0.250000  0.120984  0.940795  1
  Zn  Zn5  1  0.750000  0.879016  0.059205  1
  Zn  Zn6  1  0.250000  0.645209  0.555769  1
  Zn  Zn7  1  0.750000  0.354791  0.444231  1
  Ru  Ru8  1  0.750000  0.740162  0.364135  1
  Ru  Ru9  1  0.250000  0.259838  0.635865  1
  Ru  Ru10  1  0.750000  0.258745  0.127344  1
  Ru  Ru11  1  0.250000  0.741255  0.872656  1
