# generated using pymatgen
data_SmEr7Sc12Si15Pt
_symmetry_space_group_name_H-M   'P 1'
_cell_length_a   7.06431188
_cell_length_b   7.42076391
_cell_length_c   13.94571313
_cell_angle_alpha   90.07515995
_cell_angle_beta   89.98379002
_cell_angle_gamma   90.13175718
_symmetry_Int_Tables_number   1
_chemical_formula_structural   SmEr7Sc12Si15Pt
_chemical_formula_sum   'Sm1 Er7 Sc12 Si15 Pt1'
_cell_volume   731.06781983
_cell_formula_units_Z   1
loop_
 _symmetry_equiv_pos_site_id
 _symmetry_equiv_pos_as_xyz
  1  'x, y, z'
loop_
 _atom_site_type_symbol
 _atom_site_label
 _atom_site_symmetry_multiplicity
 _atom_site_fract_x
 _atom_site_fract_y
 _atom_site_fract_z
 _atom_site_occupancy
  Sm  Sm0  1  0.488308  0.674881  0.593702  1
  Er  Er1  1  0.011893  0.179007  0.096818  1
  Er  Er2  1  0.990363  0.821526  0.906509  1
  Er  Er3  1  0.488574  0.677358  0.904866  1
  Er  Er4  1  0.989491  0.822502  0.594691  1
  Er  Er5  1  0.511835  0.322427  0.096818  1
  Er  Er6  1  0.011191  0.179000  0.402210  1
  Er  Er7  1  0.511706  0.322680  0.401775  1
  Sc  Sc8  1  0.159392  0.503505  0.750769  1
  Sc  Sc9  1  0.838522  0.498213  0.249772  1
  Sc  Sc10  1  0.339258  0.005862  0.249496  1
  Sc  Sc11  1  0.665136  0.998768  0.750743  1
  Sc  Sc12  1  0.321914  0.172066  0.625426  1
  Sc  Sc13  1  0.672948  0.827608  0.372698  1
  Sc  Sc14  1  0.171192  0.677514  0.372609  1
  Sc  Sc15  1  0.672252  0.826441  0.126707  1
  Sc  Sc16  1  0.830954  0.322599  0.625854  1
  Sc  Sc17  1  0.322331  0.172952  0.875548  1
  Sc  Sc18  1  0.831344  0.322560  0.875527  1
  Sc  Sc19  1  0.171483  0.676959  0.126931  1
  Si  Si20  1  0.970715  0.887540  0.249615  1
  Si  Si21  1  0.470289  0.614415  0.249638  1
  Si  Si22  1  0.531095  0.384690  0.751264  1
  Si  Si23  1  0.286497  0.867612  0.751545  1
  Si  Si24  1  0.713626  0.132864  0.249432  1
  Si  Si25  1  0.212820  0.370570  0.249510  1
  Si  Si26  1  0.782121  0.625741  0.751803  1
  Si  Si27  1  0.155255  0.464352  0.536610  1
  Si  Si28  1  0.842683  0.535467  0.459911  1
  Si  Si29  1  0.343981  0.968880  0.459157  1
  Si  Si30  1  0.841807  0.535463  0.039567  1
  Si  Si31  1  0.658984  0.036731  0.537342  1
  Si  Si32  1  0.160177  0.466500  0.962761  1
  Si  Si33  1  0.658612  0.033236  0.961728  1
  Si  Si34  1  0.344508  0.965549  0.039872  1
  Pt  Pt35  1  0.026742  0.105964  0.750777  1
