# generated using pymatgen
data_Pr4NdUSe10
_symmetry_space_group_name_H-M   'P 1'
_cell_length_a   7.95735000
_cell_length_b   8.49052700
_cell_length_c   12.58467500
_cell_angle_alpha   90.00000000
_cell_angle_beta   90.00000000
_cell_angle_gamma   90.00000000
_symmetry_Int_Tables_number   1
_chemical_formula_structural   Pr4NdUSe10
_chemical_formula_sum   'Pr8 Nd2 U2 Se20'
_cell_volume   850.24700819
_cell_formula_units_Z   2
loop_
 _symmetry_equiv_pos_site_id
 _symmetry_equiv_pos_as_xyz
  1  'x, y, z'
loop_
 _atom_site_type_symbol
 _atom_site_label
 _atom_site_symmetry_multiplicity
 _atom_site_fract_x
 _atom_site_fract_y
 _atom_site_fract_z
 _atom_site_occupancy
  Pr  Pr0  1  0.528162  0.500339  0.322369  1
  Pr  Pr1  1  0.971838  0.999661  0.822369  1
  Pr  Pr2  1  0.477414  0.997372  0.678036  1
  Pr  Pr3  1  0.022586  0.502628  0.178036  1
  Pr  Pr4  1  0.477414  0.502628  0.678036  1
  Pr  Pr5  1  0.022586  0.997372  0.178036  1
  Pr  Pr6  1  0.528162  0.999661  0.322369  1
  Pr  Pr7  1  0.971838  0.500339  0.822369  1
  Nd  Nd8  1  0.076763  0.750000  0.492170  1
  Nd  Nd9  1  0.423237  0.750000  0.992170  1
  U  U10  1  0.942147  0.250000  0.505215  1
  U  U11  1  0.557853  0.250000  0.005215  1
  Se  Se12  1  0.834277  0.970806  0.596224  1
  Se  Se13  1  0.665723  0.529194  0.096224  1
  Se  Se14  1  0.166407  0.448123  0.403614  1
  Se  Se15  1  0.333593  0.051877  0.903614  1
  Se  Se16  1  0.166407  0.051877  0.403614  1
  Se  Se17  1  0.333593  0.448123  0.903614  1
  Se  Se18  1  0.834277  0.529194  0.596224  1
  Se  Se19  1  0.665723  0.970806  0.096224  1
  Se  Se20  1  0.825943  0.750000  0.310133  1
  Se  Se21  1  0.674057  0.750000  0.810133  1
  Se  Se22  1  0.166770  0.250000  0.682463  1
  Se  Se23  1  0.333230  0.250000  0.182463  1
  Se  Se24  1  0.461047  0.750000  0.499581  1
  Se  Se25  1  0.038953  0.750000  0.999581  1
  Se  Se26  1  0.550183  0.250000  0.499913  1
  Se  Se27  1  0.949817  0.250000  0.999913  1
  Se  Se28  1  0.196595  0.750000  0.719257  1
  Se  Se29  1  0.303405  0.750000  0.219257  1
  Se  Se30  1  0.809663  0.250000  0.290782  1
  Se  Se31  1  0.690337  0.250000  0.790782  1
