# generated using pymatgen
data_Tm12Co4AgRu
_symmetry_space_group_name_H-M   'P 1'
_cell_length_a   8.11419017
_cell_length_b   8.11418917
_cell_length_c   8.11418837
_cell_angle_alpha   111.28531104
_cell_angle_beta   111.11907738
_cell_angle_gamma   106.06216585
_symmetry_Int_Tables_number   1
_chemical_formula_structural   Tm12Co4AgRu
_chemical_formula_sum   'Tm12 Co4 Ag1 Ru1'
_cell_volume   410.17268823
_cell_formula_units_Z   1
loop_
 _symmetry_equiv_pos_site_id
 _symmetry_equiv_pos_as_xyz
  1  'x, y, z'
loop_
 _atom_site_type_symbol
 _atom_site_label
 _atom_site_symmetry_multiplicity
 _atom_site_fract_x
 _atom_site_fract_y
 _atom_site_fract_z
 _atom_site_occupancy
  Tm  Tm0  1  0.580509  0.274227  0.306282  1
  Tm  Tm1  1  0.182639  0.223091  0.405730  1
  Tm  Tm2  1  0.182639  0.776909  0.959549  1
  Tm  Tm3  1  0.685872  0.494367  0.808495  1
  Tm  Tm4  1  0.685872  0.877376  0.191505  1
  Tm  Tm5  1  0.967945  0.274227  0.693718  1
  Tm  Tm6  1  0.032055  0.725773  0.306282  1
  Tm  Tm7  1  0.314128  0.122624  0.808495  1
  Tm  Tm8  1  0.314128  0.505633  0.191505  1
  Tm  Tm9  1  0.817361  0.223091  0.040451  1
  Tm  Tm10  1  0.817361  0.776909  0.594270  1
  Tm  Tm11  1  0.419491  0.725773  0.693718  1
  Co  Co12  1  0.887076  0.887076  0.000000  1
  Co  Co13  1  0.368090  0.500000  0.868090  1
  Co  Co14  1  0.631910  0.500000  0.131910  1
  Co  Co15  1  0.112924  0.112924  0.000000  1
  Ag  Ag16  1  0.500000  0.000000  0.500000  1
  Ru  Ru17  1  0.000000  0.500000  0.500000  1
