# generated using pymatgen
data_Tb6DyS8
_symmetry_space_group_name_H-M   'P 1'
_cell_length_a   7.84424349
_cell_length_b   7.84424431
_cell_length_c   7.84424349
_cell_angle_alpha   120.01407506
_cell_angle_beta   89.96079163
_cell_angle_gamma   120.03120626
_symmetry_Int_Tables_number   1
_chemical_formula_structural   Tb6DyS8
_chemical_formula_sum   'Tb6 Dy1 S8'
_cell_volume   341.18464055
_cell_formula_units_Z   1
loop_
 _symmetry_equiv_pos_site_id
 _symmetry_equiv_pos_as_xyz
  1  'x, y, z'
loop_
 _atom_site_type_symbol
 _atom_site_label
 _atom_site_symmetry_multiplicity
 _atom_site_fract_x
 _atom_site_fract_y
 _atom_site_fract_z
 _atom_site_occupancy
  Tb  Tb0  1  0.249984  0.499967  0.249984  1
  Tb  Tb1  1  0.750016  0.000000  0.249985  1
  Tb  Tb2  1  0.250000  0.500001  0.750001  1
  Tb  Tb3  1  0.249985  0.000000  0.750015  1
  Tb  Tb4  1  0.750017  0.000000  0.750017  1
  Tb  Tb5  1  0.750016  0.500032  0.750015  1
  Dy  Dy6  1  0.249986  0.000000  0.249986  1
  S  S7  1  0.000659  0.000000  0.000659  1
  S  S8  1  0.499341  0.000000  0.499341  1
  S  S9  1  0.000106  0.998936  0.498831  1
  S  S10  1  0.999748  0.500001  0.499750  1
  S  S11  1  0.499895  0.498724  0.498831  1
  S  S12  1  0.000108  0.501278  0.001171  1
  S  S13  1  0.500251  0.500001  0.000252  1
  S  S14  1  0.499893  0.001063  0.001171  1
