# generated using pymatgen
data_LiSn2(P3Pd10)2
_symmetry_space_group_name_H-M   'P 1'
_cell_length_a   8.59663859
_cell_length_b   8.59664009
_cell_length_c   8.59664000
_cell_angle_alpha   60.00000035
_cell_angle_beta   59.99999458
_cell_angle_gamma   59.99999327
_symmetry_Int_Tables_number   1
_chemical_formula_structural   LiSn2(P3Pd10)2
_chemical_formula_sum   'Li1 Sn2 P6 Pd20'
_cell_volume   449.23244786
_cell_formula_units_Z   1
loop_
 _symmetry_equiv_pos_site_id
 _symmetry_equiv_pos_as_xyz
  1  'x, y, z'
loop_
 _atom_site_type_symbol
 _atom_site_label
 _atom_site_symmetry_multiplicity
 _atom_site_fract_x
 _atom_site_fract_y
 _atom_site_fract_z
 _atom_site_occupancy
  Li  Li0  1  0.000000  0.000000  0.000000  1
  Sn  Sn1  1  0.250000  0.250000  0.250000  1
  Sn  Sn2  1  0.750000  0.750000  0.750000  1
  P  P3  1  0.737790  0.262210  0.262210  1
  P  P4  1  0.262210  0.737790  0.737790  1
  P  P5  1  0.262210  0.737790  0.262210  1
  P  P6  1  0.737790  0.262210  0.737790  1
  P  P7  1  0.262210  0.262210  0.737790  1
  P  P8  1  0.737790  0.737790  0.262210  1
  Pd  Pd9  1  0.382102  0.382102  0.382102  1
  Pd  Pd10  1  0.617898  0.617898  0.617898  1
  Pd  Pd11  1  0.382102  0.382102  0.853694  1
  Pd  Pd12  1  0.382102  0.853694  0.382102  1
  Pd  Pd13  1  0.617898  0.617898  0.146306  1
  Pd  Pd14  1  0.617898  0.146306  0.617898  1
  Pd  Pd15  1  0.853694  0.382102  0.382102  1
  Pd  Pd16  1  0.146306  0.617898  0.617898  1
  Pd  Pd17  1  0.343057  0.000000  0.000000  1
  Pd  Pd18  1  0.656943  0.000000  0.000000  1
  Pd  Pd19  1  0.000000  0.343057  0.656943  1
  Pd  Pd20  1  0.000000  0.656943  0.343057  1
  Pd  Pd21  1  0.000000  0.343057  0.000000  1
  Pd  Pd22  1  0.656943  0.000000  0.343057  1
  Pd  Pd23  1  0.000000  0.656943  0.000000  1
  Pd  Pd24  1  0.343057  0.000000  0.656943  1
  Pd  Pd25  1  0.000000  0.000000  0.343057  1
  Pd  Pd26  1  0.000000  0.000000  0.656943  1
  Pd  Pd27  1  0.656943  0.343057  0.000000  1
  Pd  Pd28  1  0.343057  0.656943  0.000000  1
