# generated using pymatgen
data_Cd6TeWO12
_symmetry_space_group_name_H-M   'P 1'
_cell_length_a   6.52502173
_cell_length_b   6.52502070
_cell_length_c   6.52502200
_cell_angle_alpha   91.70378751
_cell_angle_beta   91.70378724
_cell_angle_gamma   91.70380027
_symmetry_Int_Tables_number   1
_chemical_formula_structural   Cd6TeWO12
_chemical_formula_sum   'Cd6 Te1 W1 O12'
_cell_volume   277.43275951
_cell_formula_units_Z   1
loop_
 _symmetry_equiv_pos_site_id
 _symmetry_equiv_pos_as_xyz
  1  'x, y, z'
loop_
 _atom_site_type_symbol
 _atom_site_label
 _atom_site_symmetry_multiplicity
 _atom_site_fract_x
 _atom_site_fract_y
 _atom_site_fract_z
 _atom_site_occupancy
  Cd  Cd0  1  0.937225  0.437652  0.747566  1
  Cd  Cd1  1  0.747566  0.937225  0.437652  1
  Cd  Cd2  1  0.562348  0.252434  0.062775  1
  Cd  Cd3  1  0.437652  0.747566  0.937225  1
  Cd  Cd4  1  0.252434  0.062775  0.562348  1
  Cd  Cd5  1  0.062775  0.562348  0.252434  1
  Te  Te6  1  0.000000  0.000000  0.000000  1
  W  W7  1  0.500000  0.500000  0.500000  1
  O  O8  1  0.935081  0.285951  0.068343  1
  O  O9  1  0.931657  0.064919  0.714049  1
  O  O10  1  0.785773  0.578315  0.451285  1
  O  O11  1  0.714049  0.931657  0.064919  1
  O  O12  1  0.578315  0.451285  0.785773  1
  O  O13  1  0.548715  0.214227  0.421685  1
  O  O14  1  0.451285  0.785773  0.578315  1
  O  O15  1  0.421685  0.548715  0.214227  1
  O  O16  1  0.285951  0.068343  0.935081  1
  O  O17  1  0.214227  0.421685  0.548715  1
  O  O18  1  0.068343  0.935081  0.285951  1
  O  O19  1  0.064919  0.714049  0.931657  1
