# generated using pymatgen
data_CePa3(CoB10)2
_symmetry_space_group_name_H-M   'P 1'
_cell_length_a   4.12600400
_cell_length_b   5.53985930
_cell_length_c   11.05682060
_cell_angle_alpha   90.03763888
_cell_angle_beta   90.00000000
_cell_angle_gamma   90.00000000
_symmetry_Int_Tables_number   1
_chemical_formula_structural   CePa3(CoB10)2
_chemical_formula_sum   'Ce1 Pa3 Co2 B20'
_cell_volume   252.73101910
_cell_formula_units_Z   1
loop_
 _symmetry_equiv_pos_site_id
 _symmetry_equiv_pos_as_xyz
  1  'x, y, z'
loop_
 _atom_site_type_symbol
 _atom_site_label
 _atom_site_symmetry_multiplicity
 _atom_site_fract_x
 _atom_site_fract_y
 _atom_site_fract_z
 _atom_site_occupancy
  Ce  Ce0  1  0.500000  0.194755  0.363508  1
  Pa  Pa1  1  0.500000  0.305111  0.864394  1
  Pa  Pa2  1  0.500000  0.695211  0.135059  1
  Pa  Pa3  1  0.500000  0.803434  0.635687  1
  Co  Co4  1  0.000000  0.503275  0.501873  1
  Co  Co5  1  0.000000  0.000365  0.999264  1
  B  B6  1  0.000000  0.126601  0.540195  1
  B  B7  1  0.000000  0.873015  0.461086  1
  B  B8  1  0.000000  0.627298  0.961187  1
  B  B9  1  0.000000  0.373311  0.038534  1
  B  B10  1  0.000000  0.153197  0.698142  1
  B  B11  1  0.000000  0.845366  0.301995  1
  B  B12  1  0.301874  0.199304  0.112305  1
  B  B13  1  0.302411  0.800485  0.886580  1
  B  B14  1  0.698474  0.699399  0.386857  1
  B  B15  1  0.698114  0.300633  0.614245  1
  B  B16  1  0.697589  0.800485  0.886580  1
  B  B17  1  0.698126  0.199304  0.112305  1
  B  B18  1  0.301886  0.300633  0.614245  1
  B  B19  1  0.301526  0.699399  0.386857  1
  B  B20  1  0.000000  0.030052  0.186109  1
  B  B21  1  0.000000  0.969041  0.812959  1
  B  B22  1  0.000000  0.531191  0.312842  1
  B  B23  1  0.000000  0.469019  0.687709  1
  B  B24  1  0.000000  0.347254  0.196635  1
  B  B25  1  0.000000  0.652860  0.802848  1
