# generated using pymatgen
data_Be8VRe2Mo
_symmetry_space_group_name_H-M   'P 1'
_cell_length_a   4.38118600
_cell_length_b   4.38118704
_cell_length_c   7.19939000
_cell_angle_alpha   90.00000000
_cell_angle_beta   90.00000000
_cell_angle_gamma   120.00000724
_symmetry_Int_Tables_number   1
_chemical_formula_structural   Be8VRe2Mo
_chemical_formula_sum   'Be8 V1 Re2 Mo1'
_cell_volume   119.67674984
_cell_formula_units_Z   1
loop_
 _symmetry_equiv_pos_site_id
 _symmetry_equiv_pos_as_xyz
  1  'x, y, z'
loop_
 _atom_site_type_symbol
 _atom_site_label
 _atom_site_symmetry_multiplicity
 _atom_site_fract_x
 _atom_site_fract_y
 _atom_site_fract_z
 _atom_site_occupancy
  Be  Be0  1  0.000000  0.000000  0.000760  1
  Be  Be1  1  0.000000  0.000000  0.498990  1
  Be  Be2  1  0.830354  0.660707  0.248003  1
  Be  Be3  1  0.169481  0.830519  0.752647  1
  Be  Be4  1  0.661039  0.830519  0.752647  1
  Be  Be5  1  0.339293  0.169646  0.248003  1
  Be  Be6  1  0.830354  0.169646  0.248003  1
  Be  Be7  1  0.169481  0.338961  0.752647  1
  V  V8  1  0.333333  0.666667  0.063522  1
  Re  Re9  1  0.666667  0.333333  0.938371  1
  Re  Re10  1  0.333333  0.666667  0.434412  1
  Mo  Mo11  1  0.666667  0.333333  0.561995  1
