# generated using pymatgen
data_Tm2Al4Si2Ni
_symmetry_space_group_name_H-M   'P 1'
_cell_length_a   4.07606517
_cell_length_b   4.07606102
_cell_length_c   9.98556682
_cell_angle_alpha   101.73228490
_cell_angle_beta   101.73226940
_cell_angle_gamma   90.01698904
_symmetry_Int_Tables_number   1
_chemical_formula_structural   Tm2Al4Si2Ni
_chemical_formula_sum   'Tm2 Al4 Si2 Ni1'
_cell_volume   158.89343260
_cell_formula_units_Z   1
loop_
 _symmetry_equiv_pos_site_id
 _symmetry_equiv_pos_as_xyz
  1  'x, y, z'
loop_
 _atom_site_type_symbol
 _atom_site_label
 _atom_site_symmetry_multiplicity
 _atom_site_fract_x
 _atom_site_fract_y
 _atom_site_fract_z
 _atom_site_occupancy
  Tm  Tm0  1  0.188349  0.188350  0.376222  1
  Tm  Tm1  1  0.811654  0.811651  0.623778  1
  Al  Al2  1  0.569063  0.068958  0.138153  1
  Al  Al3  1  0.068960  0.569061  0.138153  1
  Al  Al4  1  0.931041  0.430938  0.861848  1
  Al  Al5  1  0.430938  0.931042  0.861847  1
  Si  Si6  1  0.662443  0.662441  0.324628  1
  Si  Si7  1  0.337561  0.337558  0.675373  1
  Ni  Ni8  1  0.999995  0.000007  0.000000  1
