# generated using pymatgen
data_CeTl(SO4)2
_symmetry_space_group_name_H-M   'P 1'
_cell_length_a   5.31933609
_cell_length_b   5.31933555
_cell_length_c   8.73506500
_cell_angle_alpha   92.38040459
_cell_angle_beta   92.38040435
_cell_angle_gamma   64.23423684
_symmetry_Int_Tables_number   1
_chemical_formula_structural   CeTl(SO4)2
_chemical_formula_sum   'Ce1 Tl1 S2 O8'
_cell_volume   222.32064720
_cell_formula_units_Z   1
loop_
 _symmetry_equiv_pos_site_id
 _symmetry_equiv_pos_as_xyz
  1  'x, y, z'
loop_
 _atom_site_type_symbol
 _atom_site_label
 _atom_site_symmetry_multiplicity
 _atom_site_fract_x
 _atom_site_fract_y
 _atom_site_fract_z
 _atom_site_occupancy
  Ce  Ce0  1  0.000000  0.000000  0.000000  1
  Tl  Tl1  1  0.000000  0.000000  0.500000  1
  S  S2  1  0.368867  0.368867  0.221565  1
  S  S3  1  0.631134  0.631134  0.778435  1
  O  O4  1  0.248637  0.248637  0.096215  1
  O  O5  1  0.678678  0.248374  0.198312  1
  O  O6  1  0.248374  0.678678  0.198312  1
  O  O7  1  0.310462  0.310462  0.374185  1
  O  O8  1  0.689539  0.689539  0.625815  1
  O  O9  1  0.751626  0.321322  0.801689  1
  O  O10  1  0.321322  0.751626  0.801689  1
  O  O11  1  0.751363  0.751363  0.903785  1
