# generated using pymatgen
data_Tb4As6Ir6Rh
_symmetry_space_group_name_H-M   'P 1'
_cell_length_a   7.33171388
_cell_length_b   7.33171419
_cell_length_c   7.33171500
_cell_angle_alpha   109.47122288
_cell_angle_beta   109.47122374
_cell_angle_gamma   109.47122449
_symmetry_Int_Tables_number   1
_chemical_formula_structural   Tb4As6Ir6Rh
_chemical_formula_sum   'Tb4 As6 Ir6 Rh1'
_cell_volume   303.38539432
_cell_formula_units_Z   1
loop_
 _symmetry_equiv_pos_site_id
 _symmetry_equiv_pos_as_xyz
  1  'x, y, z'
loop_
 _atom_site_type_symbol
 _atom_site_label
 _atom_site_symmetry_multiplicity
 _atom_site_fract_x
 _atom_site_fract_y
 _atom_site_fract_z
 _atom_site_occupancy
  Tb  Tb0  1  0.000000  0.000000  0.500000  1
  Tb  Tb1  1  0.500000  0.000000  0.000000  1
  Tb  Tb2  1  0.000000  0.500000  0.000000  1
  Tb  Tb3  1  0.500000  0.500000  0.500000  1
  As  As4  1  0.680110  0.680110  0.000000  1
  As  As5  1  0.319890  0.319890  0.000000  1
  As  As6  1  0.000000  0.680110  0.680110  1
  As  As7  1  0.000000  0.319890  0.319890  1
  As  As8  1  0.680110  0.000000  0.680110  1
  As  As9  1  0.319890  0.000000  0.319890  1
  Ir  Ir10  1  0.250000  0.500000  0.750000  1
  Ir  Ir11  1  0.750000  0.250000  0.500000  1
  Ir  Ir12  1  0.500000  0.250000  0.750000  1
  Ir  Ir13  1  0.500000  0.750000  0.250000  1
  Ir  Ir14  1  0.750000  0.500000  0.250000  1
  Ir  Ir15  1  0.250000  0.750000  0.500000  1
  Rh  Rh16  1  0.000000  0.000000  0.000000  1
