# generated using pymatgen
data_Pr8Lu10ScSi16Ag
_symmetry_space_group_name_H-M   'P 1'
_cell_length_a   7.33617398
_cell_length_b   7.71810377
_cell_length_c   14.63207300
_cell_angle_alpha   90.00000000
_cell_angle_beta   90.00000000
_cell_angle_gamma   90.09350480
_symmetry_Int_Tables_number   1
_chemical_formula_structural   Pr8Lu10ScSi16Ag
_chemical_formula_sum   'Pr8 Lu10 Sc1 Si16 Ag1'
_cell_volume   828.48665353
_cell_formula_units_Z   1
loop_
 _symmetry_equiv_pos_site_id
 _symmetry_equiv_pos_as_xyz
  1  'x, y, z'
loop_
 _atom_site_type_symbol
 _atom_site_label
 _atom_site_symmetry_multiplicity
 _atom_site_fract_x
 _atom_site_fract_y
 _atom_site_fract_z
 _atom_site_occupancy
  Pr  Pr0  1  0.013410  0.174520  0.402253  1
  Pr  Pr1  1  0.512544  0.327332  0.402181  1
  Pr  Pr2  1  0.489361  0.683728  0.897474  1
  Pr  Pr3  1  0.489361  0.683728  0.602526  1
  Pr  Pr4  1  0.978664  0.826074  0.602729  1
  Pr  Pr5  1  0.978664  0.826074  0.897271  1
  Pr  Pr6  1  0.512544  0.327332  0.097819  1
  Pr  Pr7  1  0.013410  0.174520  0.097747  1
  Lu  Lu8  1  0.335071  0.173263  0.625392  1
  Lu  Lu9  1  0.673344  0.821416  0.375520  1
  Lu  Lu10  1  0.173254  0.676809  0.377361  1
  Lu  Lu11  1  0.826498  0.314257  0.874722  1
  Lu  Lu12  1  0.826498  0.314257  0.625278  1
  Lu  Lu13  1  0.839302  0.494835  0.250000  1
  Lu  Lu14  1  0.338498  0.005690  0.250000  1
  Lu  Lu15  1  0.335071  0.173263  0.874608  1
  Lu  Lu16  1  0.173254  0.676809  0.122639  1
  Lu  Lu17  1  0.673344  0.821416  0.124480  1
  Sc  Sc18  1  0.157679  0.499052  0.750000  1
  Si  Si19  1  0.274826  0.877886  0.750000  1
  Si  Si20  1  0.467048  0.618248  0.250000  1
  Si  Si21  1  0.041633  0.117057  0.750000  1
  Si  Si22  1  0.528535  0.395832  0.750000  1
  Si  Si23  1  0.152901  0.467401  0.541705  1
  Si  Si24  1  0.967380  0.878812  0.250000  1
  Si  Si25  1  0.713894  0.121928  0.250000  1
  Si  Si26  1  0.849426  0.533997  0.036405  1
  Si  Si27  1  0.349385  0.965498  0.038361  1
  Si  Si28  1  0.152901  0.467401  0.958295  1
  Si  Si29  1  0.653169  0.038968  0.531493  1
  Si  Si30  1  0.349385  0.965498  0.461639  1
  Si  Si31  1  0.849426  0.533997  0.463595  1
  Si  Si32  1  0.790453  0.601192  0.750000  1
  Si  Si33  1  0.214472  0.379880  0.250000  1
  Si  Si34  1  0.653169  0.038968  0.968507  1
  Ag  Ag35  1  0.652225  0.003068  0.750000  1
