# generated using pymatgen
data_Sc2Mn3Co9Si4P3
_symmetry_space_group_name_H-M   'P 1'
_cell_length_a   9.07392000
_cell_length_b   9.07391980
_cell_length_c   3.55407200
_cell_angle_alpha   90.00000000
_cell_angle_beta   90.00000000
_cell_angle_gamma   120.00000073
_symmetry_Int_Tables_number   1
_chemical_formula_structural   Sc2Mn3Co9Si4P3
_chemical_formula_sum   'Sc2 Mn3 Co9 Si4 P3'
_cell_volume   253.42341128
_cell_formula_units_Z   1
loop_
 _symmetry_equiv_pos_site_id
 _symmetry_equiv_pos_as_xyz
  1  'x, y, z'
loop_
 _atom_site_type_symbol
 _atom_site_label
 _atom_site_symmetry_multiplicity
 _atom_site_fract_x
 _atom_site_fract_y
 _atom_site_fract_z
 _atom_site_occupancy
  Sc  Sc0  1  0.000000  0.000000  0.000000  1
  Sc  Sc1  1  0.666667  0.333333  0.500000  1
  Mn  Mn2  1  0.434971  0.543419  0.500000  1
  Mn  Mn3  1  0.108448  0.565029  0.500000  1
  Mn  Mn4  1  0.456581  0.891552  0.500000  1
  Co  Co5  1  0.388403  0.291599  0.000000  1
  Co  Co6  1  0.903197  0.611597  0.000000  1
  Co  Co7  1  0.708401  0.096803  0.000000  1
  Co  Co8  1  0.616137  0.791573  0.000000  1
  Co  Co9  1  0.175437  0.383863  0.000000  1
  Co  Co10  1  0.208427  0.824563  0.000000  1
  Co  Co11  1  0.775617  0.724864  0.500000  1
  Co  Co12  1  0.949246  0.224383  0.500000  1
  Co  Co13  1  0.275136  0.050754  0.500000  1
  Si  Si14  1  0.629394  0.548987  0.000000  1
  Si  Si15  1  0.919593  0.370606  0.000000  1
  Si  Si16  1  0.451013  0.080407  0.000000  1
  Si  Si17  1  0.333333  0.666667  0.000000  1
  P  P18  1  0.743939  0.956462  0.500000  1
  P  P19  1  0.212523  0.256061  0.500000  1
  P  P20  1  0.043538  0.787477  0.500000  1
