# generated using pymatgen
data_K2TiH10W
_symmetry_space_group_name_H-M   'P 1'
_cell_length_a   11.29780938
_cell_length_b   7.46540400
_cell_length_c   4.88638100
_cell_angle_alpha   90.00000000
_cell_angle_beta   90.17447185
_cell_angle_gamma   90.00000000
_symmetry_Int_Tables_number   1
_chemical_formula_structural   K2TiH10W
_chemical_formula_sum   'K4 Ti2 H20 W2'
_cell_volume   412.12871140
_cell_formula_units_Z   2
loop_
 _symmetry_equiv_pos_site_id
 _symmetry_equiv_pos_as_xyz
  1  'x, y, z'
loop_
 _atom_site_type_symbol
 _atom_site_label
 _atom_site_symmetry_multiplicity
 _atom_site_fract_x
 _atom_site_fract_y
 _atom_site_fract_z
 _atom_site_occupancy
  K  K0  1  0.670606  0.081137  0.338246  1
  K  K1  1  0.170606  0.418862  0.338246  1
  K  K2  1  0.832976  0.575560  0.842444  1
  K  K3  1  0.332976  0.924440  0.842444  1
  Ti  Ti4  1  0.979934  0.073692  0.817273  1
  Ti  Ti5  1  0.479934  0.426308  0.817273  1
  H  H6  1  0.337443  0.316773  0.805775  1
  H  H7  1  0.837443  0.183227  0.805775  1
  H  H8  1  0.975744  0.704657  0.315201  1
  H  H9  1  0.475744  0.795342  0.315201  1
  H  H10  1  0.606274  0.414015  0.093880  1
  H  H11  1  0.106273  0.085985  0.093880  1
  H  H12  1  0.384043  0.549438  0.089743  1
  H  H13  1  0.884043  0.950563  0.089743  1
  H  H14  1  0.961205  0.150312  0.403310  1
  H  H15  1  0.461205  0.349689  0.403310  1
  H  H16  1  0.153017  0.816700  0.308498  1
  H  H17  1  0.653017  0.683299  0.308498  1
  H  H18  1  0.523671  0.191748  0.816431  1
  H  H19  1  0.023671  0.308251  0.816431  1
  H  H20  1  0.907819  0.906291  0.568936  1
  H  H21  1  0.407819  0.593709  0.568936  1
  H  H22  1  0.109122  0.024238  0.573535  1
  H  H23  1  0.609122  0.475762  0.573535  1
  H  H24  1  0.540964  0.656611  0.961483  1
  H  H25  1  0.040964  0.843390  0.961483  1
  W  W26  1  0.517183  0.565374  0.299244  1
  W  W27  1  0.017183  0.934626  0.299244  1
