# generated using pymatgen
data_U2Ti3Co16Si7W
_symmetry_space_group_name_H-M   'P 1'
_cell_length_a   7.94133229
_cell_length_b   7.92912747
_cell_length_c   7.95265541
_cell_angle_alpha   60.00345747
_cell_angle_beta   60.35897182
_cell_angle_gamma   60.14528139
_symmetry_Int_Tables_number   1
_chemical_formula_structural   U2Ti3Co16Si7W
_chemical_formula_sum   'U2 Ti3 Co16 Si7 W1'
_cell_volume   355.44214999
_cell_formula_units_Z   1
loop_
 _symmetry_equiv_pos_site_id
 _symmetry_equiv_pos_as_xyz
  1  'x, y, z'
loop_
 _atom_site_type_symbol
 _atom_site_label
 _atom_site_symmetry_multiplicity
 _atom_site_fract_x
 _atom_site_fract_y
 _atom_site_fract_z
 _atom_site_occupancy
  U  U0  1  0.798102  0.789374  0.201898  1
  U  U1  1  0.798061  0.211601  0.201939  1
  Ti  Ti2  1  0.209560  0.196494  0.790440  1
  Ti  Ti3  1  0.799745  0.210948  0.776557  1
  Ti  Ti4  1  0.223443  0.787250  0.200255  1
  Co  Co5  1  0.615494  0.621433  0.141534  1
  Co  Co6  1  0.154900  0.506755  0.171760  1
  Co  Co7  1  0.858466  0.378460  0.384506  1
  Co  Co8  1  0.498862  0.831046  0.839180  1
  Co  Co9  1  0.510872  0.161057  0.166298  1
  Co  Co10  1  0.833702  0.838228  0.489128  1
  Co  Co11  1  0.160820  0.169086  0.501138  1
  Co  Co12  1  0.145678  0.619993  0.616466  1
  Co  Co13  1  0.154434  0.167233  0.171627  1
  Co  Co14  1  0.383534  0.382137  0.854322  1
  Co  Co15  1  0.615007  0.618900  0.622917  1
  Co  Co16  1  0.377083  0.856824  0.384993  1
  Co  Co17  1  0.377408  0.380886  0.381578  1
  Co  Co18  1  0.828240  0.833415  0.845100  1
  Co  Co19  1  0.618422  0.139872  0.622592  1
  Co  Co20  1  0.828373  0.493296  0.845566  1
  Si  Si21  1  0.485842  0.000837  0.514158  1
  Si  Si22  1  0.486762  0.505044  0.993168  1
  Si  Si23  1  0.500706  0.497245  0.499294  1
  Si  Si24  1  0.006832  0.984974  0.513238  1
  Si  Si25  1  0.027786  0.501328  0.972214  1
  Si  Si26  1  0.006728  0.494443  0.513617  1
  Si  Si27  1  0.486383  0.014788  0.993272  1
  W  W28  1  0.208752  0.807052  0.791248  1
