# generated using pymatgen
data_Sm3Ho9Fe2I17
_symmetry_space_group_name_H-M   'P 1'
_cell_length_a   9.74224031
_cell_length_b   11.72162994
_cell_length_c   11.74710542
_cell_angle_alpha   93.36191622
_cell_angle_beta   104.77506270
_cell_angle_gamma   114.05074511
_symmetry_Int_Tables_number   1
_chemical_formula_structural   Sm3Ho9Fe2I17
_chemical_formula_sum   'Sm3 Ho9 Fe2 I17'
_cell_volume   1164.24496172
_cell_formula_units_Z   1
loop_
 _symmetry_equiv_pos_site_id
 _symmetry_equiv_pos_as_xyz
  1  'x, y, z'
loop_
 _atom_site_type_symbol
 _atom_site_label
 _atom_site_symmetry_multiplicity
 _atom_site_fract_x
 _atom_site_fract_y
 _atom_site_fract_z
 _atom_site_occupancy
  Sm  Sm0  1  0.057647  0.508629  0.322279  1
  Sm  Sm1  1  0.991122  0.809130  0.587832  1
  Sm  Sm2  1  0.653677  0.239768  0.279959  1
  Ho  Ho3  1  0.007572  0.189772  0.411945  1
  Ho  Ho4  1  0.216073  0.672252  0.977381  1
  Ho  Ho5  1  0.252491  0.974202  0.887577  1
  Ho  Ho6  1  0.345155  0.757410  0.719821  1
  Ho  Ho7  1  0.951298  0.500491  0.682984  1
  Ho  Ho8  1  0.747061  0.023006  0.110527  1
  Ho  Ho9  1  0.133913  0.284723  0.154216  1
  Ho  Ho10  1  0.779910  0.327685  0.015643  1
  Ho  Ho11  1  0.858575  0.713349  0.846940  1
  Fe  Fe12  1  0.103489  0.738298  0.785084  1
  Fe  Fe13  1  0.894180  0.261708  0.214335  1
  I  I14  1  0.782136  0.526769  0.419653  1
  I  I15  1  0.646948  0.420067  0.763146  1
  I  I16  1  0.842791  0.897848  0.324657  1
  I  I17  1  0.321975  0.213354  0.367070  1
  I  I18  1  0.159207  0.107176  0.675440  1
  I  I19  1  0.585765  0.053307  0.844268  1
  I  I20  1  0.764838  0.189664  0.541844  1
  I  I21  1  0.553043  0.713163  0.955141  1
  I  I22  1  0.355603  0.576340  0.231699  1
  I  I23  1  0.216331  0.469166  0.585035  1
  I  I24  1  0.054630  0.367398  0.898774  1
  I  I25  1  0.447272  0.286918  0.041061  1
  I  I26  1  0.002017  0.001916  0.001004  1
  I  I27  1  0.250770  0.816583  0.464561  1
  I  I28  1  0.415300  0.944289  0.154090  1
  I  I29  1  0.667784  0.784878  0.635445  1
  I  I30  1  0.941428  0.630739  0.100589  1
