# generated using pymatgen
data_TaNb2B2Os4Ru
_symmetry_space_group_name_H-M   'P 1'
_cell_length_a   9.55799900
_cell_length_b   9.55799900
_cell_length_c   3.01748900
_cell_angle_alpha   90.00000000
_cell_angle_beta   90.00000000
_cell_angle_gamma   90.00000000
_symmetry_Int_Tables_number   1
_chemical_formula_structural   TaNb2B2Os4Ru
_chemical_formula_sum   'Ta2 Nb4 B4 Os8 Ru2'
_cell_volume   275.66374828
_cell_formula_units_Z   2
loop_
 _symmetry_equiv_pos_site_id
 _symmetry_equiv_pos_as_xyz
  1  'x, y, z'
loop_
 _atom_site_type_symbol
 _atom_site_label
 _atom_site_symmetry_multiplicity
 _atom_site_fract_x
 _atom_site_fract_y
 _atom_site_fract_z
 _atom_site_occupancy
  Ta  Ta0  1  0.500000  0.500000  0.000000  1
  Ta  Ta1  1  0.000000  0.000000  0.000000  1
  Nb  Nb2  1  0.823410  0.676590  0.000000  1
  Nb  Nb3  1  0.176590  0.323410  0.000000  1
  Nb  Nb4  1  0.323410  0.823410  0.000000  1
  Nb  Nb5  1  0.676590  0.176590  0.000000  1
  B  B6  1  0.620593  0.879407  0.000000  1
  B  B7  1  0.379407  0.120593  0.000000  1
  B  B8  1  0.120593  0.620593  0.000000  1
  B  B9  1  0.879407  0.379407  0.000000  1
  Os  Os10  1  0.570872  0.719518  0.500000  1
  Os  Os11  1  0.429128  0.280482  0.500000  1
  Os  Os12  1  0.070872  0.780482  0.500000  1
  Os  Os13  1  0.929128  0.219518  0.500000  1
  Os  Os14  1  0.280482  0.570872  0.500000  1
  Os  Os15  1  0.719518  0.429128  0.500000  1
  Os  Os16  1  0.219518  0.070872  0.500000  1
  Os  Os17  1  0.780482  0.929128  0.500000  1
  Ru  Ru18  1  0.500000  0.000000  0.500000  1
  Ru  Ru19  1  0.000000  0.500000  0.500000  1
