# generated using pymatgen
data_DyTm4(Hg2Pd)2
_symmetry_space_group_name_H-M   'P 1'
_cell_length_a   3.61639100
_cell_length_b   7.89929100
_cell_length_c   18.08012900
_cell_angle_alpha   90.00000000
_cell_angle_beta   90.00000000
_cell_angle_gamma   90.00000000
_symmetry_Int_Tables_number   1
_chemical_formula_structural   DyTm4(Hg2Pd)2
_chemical_formula_sum   'Dy2 Tm8 Hg8 Pd4'
_cell_volume   516.49368694
_cell_formula_units_Z   2
loop_
 _symmetry_equiv_pos_site_id
 _symmetry_equiv_pos_as_xyz
  1  'x, y, z'
loop_
 _atom_site_type_symbol
 _atom_site_label
 _atom_site_symmetry_multiplicity
 _atom_site_fract_x
 _atom_site_fract_y
 _atom_site_fract_z
 _atom_site_occupancy
  Dy  Dy0  1  0.000000  0.000000  0.000000  1
  Dy  Dy1  1  0.000000  0.500000  0.500000  1
  Tm  Tm2  1  0.000000  0.114980  0.415205  1
  Tm  Tm3  1  0.000000  0.885020  0.584795  1
  Tm  Tm4  1  0.000000  0.385020  0.915205  1
  Tm  Tm5  1  0.000000  0.614980  0.084795  1
  Tm  Tm6  1  0.000000  0.237471  0.215594  1
  Tm  Tm7  1  0.000000  0.762529  0.784406  1
  Tm  Tm8  1  0.000000  0.262529  0.715594  1
  Tm  Tm9  1  0.000000  0.737471  0.284406  1
  Hg  Hg10  1  0.500000  0.419456  0.352260  1
  Hg  Hg11  1  0.500000  0.580544  0.647740  1
  Hg  Hg12  1  0.500000  0.080544  0.852260  1
  Hg  Hg13  1  0.500000  0.919456  0.147740  1
  Hg  Hg14  1  0.500000  0.293155  0.064608  1
  Hg  Hg15  1  0.500000  0.706845  0.935392  1
  Hg  Hg16  1  0.500000  0.206845  0.564608  1
  Hg  Hg17  1  0.500000  0.793155  0.435392  1
  Pd  Pd18  1  0.500000  0.026195  0.303717  1
  Pd  Pd19  1  0.500000  0.973805  0.696283  1
  Pd  Pd20  1  0.500000  0.473805  0.803717  1
  Pd  Pd21  1  0.500000  0.526195  0.196283  1
