# generated using pymatgen
data_DyGaAu3
_symmetry_space_group_name_H-M   'P 1'
_cell_length_a   9.20221400
_cell_length_b   9.20221400
_cell_length_c   9.20221400
_cell_angle_alpha   90.00000000
_cell_angle_beta   90.00000000
_cell_angle_gamma   90.00000000
_symmetry_Int_Tables_number   1
_chemical_formula_structural   DyGaAu3
_chemical_formula_sum   'Dy8 Ga8 Au24'
_cell_volume   779.25031418
_cell_formula_units_Z   8
loop_
 _symmetry_equiv_pos_site_id
 _symmetry_equiv_pos_as_xyz
  1  'x, y, z'
loop_
 _atom_site_type_symbol
 _atom_site_label
 _atom_site_symmetry_multiplicity
 _atom_site_fract_x
 _atom_site_fract_y
 _atom_site_fract_z
 _atom_site_occupancy
  Dy  Dy0  1  0.390780  0.390780  0.390780  1
  Dy  Dy1  1  0.609220  0.890780  0.109220  1
  Dy  Dy2  1  0.109220  0.890780  0.390780  1
  Dy  Dy3  1  0.609220  0.609220  0.609220  1
  Dy  Dy4  1  0.890780  0.390780  0.109220  1
  Dy  Dy5  1  0.390780  0.109220  0.890780  1
  Dy  Dy6  1  0.109220  0.609220  0.890780  1
  Dy  Dy7  1  0.890780  0.109220  0.609220  1
  Ga  Ga8  1  0.895428  0.604572  0.395428  1
  Ga  Ga9  1  0.604572  0.395428  0.895428  1
  Ga  Ga10  1  0.895428  0.895428  0.895428  1
  Ga  Ga11  1  0.395428  0.604572  0.104572  1
  Ga  Ga12  1  0.104572  0.104572  0.104572  1
  Ga  Ga13  1  0.395428  0.895428  0.604572  1
  Ga  Ga14  1  0.604572  0.104572  0.395428  1
  Ga  Ga15  1  0.104572  0.395428  0.604572  1
  Au  Au16  1  0.579231  0.261733  0.142955  1
  Au  Au17  1  0.079231  0.238267  0.857045  1
  Au  Au18  1  0.261733  0.142955  0.579231  1
  Au  Au19  1  0.642955  0.579231  0.238267  1
  Au  Au20  1  0.579231  0.238267  0.642955  1
  Au  Au21  1  0.261733  0.357045  0.079231  1
  Au  Au22  1  0.357045  0.420769  0.761733  1
  Au  Au23  1  0.238267  0.857045  0.079231  1
  Au  Au24  1  0.238267  0.642955  0.579231  1
  Au  Au25  1  0.761733  0.142955  0.920769  1
  Au  Au26  1  0.738267  0.642955  0.920769  1
  Au  Au27  1  0.738267  0.857045  0.420769  1
  Au  Au28  1  0.357045  0.079231  0.261733  1
  Au  Au29  1  0.420769  0.738267  0.857045  1
  Au  Au30  1  0.920769  0.738267  0.642955  1
  Au  Au31  1  0.642955  0.920769  0.738267  1
  Au  Au32  1  0.857045  0.420769  0.738267  1
  Au  Au33  1  0.420769  0.761733  0.357045  1
  Au  Au34  1  0.920769  0.761733  0.142955  1
  Au  Au35  1  0.079231  0.261733  0.357045  1
  Au  Au36  1  0.761733  0.357045  0.420769  1
  Au  Au37  1  0.142955  0.579231  0.261733  1
  Au  Au38  1  0.857045  0.079231  0.238267  1
  Au  Au39  1  0.142955  0.920769  0.761733  1
