# generated using pymatgen
data_Gd3Ho5(MoO6)4
_symmetry_space_group_name_H-M   'P 1'
_cell_length_a   5.40399000
_cell_length_b   7.71526730
_cell_length_c   11.46989622
_cell_angle_alpha   75.64866924
_cell_angle_beta   90.00000000
_cell_angle_gamma   90.00000000
_symmetry_Int_Tables_number   1
_chemical_formula_structural   Gd3Ho5(MoO6)4
_chemical_formula_sum   'Gd3 Ho5 Mo4 O24'
_cell_volume   463.29377921
_cell_formula_units_Z   1
loop_
 _symmetry_equiv_pos_site_id
 _symmetry_equiv_pos_as_xyz
  1  'x, y, z'
loop_
 _atom_site_type_symbol
 _atom_site_label
 _atom_site_symmetry_multiplicity
 _atom_site_fract_x
 _atom_site_fract_y
 _atom_site_fract_z
 _atom_site_occupancy
  Gd  Gd0  1  0.739505  0.000000  0.750000  1
  Gd  Gd1  1  0.681716  0.500000  0.750000  1
  Gd  Gd2  1  0.316738  0.500000  0.250000  1
  Ho  Ho3  1  0.261926  0.000000  0.250000  1
  Ho  Ho4  1  0.186152  0.798622  0.577719  1
  Ho  Ho5  1  0.814759  0.798752  0.079151  1
  Ho  Ho6  1  0.186152  0.201378  0.922281  1
  Ho  Ho7  1  0.814759  0.201248  0.420849  1
  Mo  Mo8  1  0.253471  0.720864  0.887860  1
  Mo  Mo9  1  0.746085  0.723234  0.386538  1
  Mo  Mo10  1  0.253471  0.279136  0.612140  1
  Mo  Mo11  1  0.746085  0.276766  0.113462  1
  O  O12  1  0.040015  0.938478  0.898981  1
  O  O13  1  0.525723  0.845537  0.932480  1
  O  O14  1  0.964297  0.939671  0.396059  1
  O  O15  1  0.460147  0.786086  0.726607  1
  O  O16  1  0.473703  0.849577  0.430374  1
  O  O17  1  0.987641  0.711971  0.770581  1
  O  O18  1  0.536404  0.789488  0.226137  1
  O  O19  1  0.850953  0.637695  0.547217  1
  O  O20  1  0.355292  0.489829  0.889414  1
  O  O21  1  0.012761  0.713953  0.269502  1
  O  O22  1  0.355292  0.510171  0.610586  1
  O  O23  1  0.850953  0.362305  0.952783  1
  O  O24  1  0.146730  0.634290  0.048115  1
  O  O25  1  0.645926  0.492027  0.387625  1
  O  O26  1  0.987641  0.288029  0.729419  1
  O  O27  1  0.645926  0.507973  0.112375  1
  O  O28  1  0.146730  0.365710  0.451885  1
  O  O29  1  0.460147  0.213914  0.773393  1
  O  O30  1  0.012761  0.286047  0.230498  1
  O  O31  1  0.525723  0.154463  0.567520  1
  O  O32  1  0.536404  0.210512  0.273863  1
  O  O33  1  0.040015  0.061522  0.601019  1
  O  O34  1  0.473703  0.150423  0.069626  1
  O  O35  1  0.964297  0.060329  0.103941  1
