# generated using pymatgen
data_Ho3TiZn2Ir3
_symmetry_space_group_name_H-M   'P 1'
_cell_length_a   7.08534587
_cell_length_b   7.08534676
_cell_length_c   4.08583000
_cell_angle_alpha   90.00000000
_cell_angle_beta   90.00000000
_cell_angle_gamma   121.42817619
_symmetry_Int_Tables_number   1
_chemical_formula_structural   Ho3TiZn2Ir3
_chemical_formula_sum   'Ho3 Ti1 Zn2 Ir3'
_cell_volume   175.02552662
_cell_formula_units_Z   1
loop_
 _symmetry_equiv_pos_site_id
 _symmetry_equiv_pos_as_xyz
  1  'x, y, z'
loop_
 _atom_site_type_symbol
 _atom_site_label
 _atom_site_symmetry_multiplicity
 _atom_site_fract_x
 _atom_site_fract_y
 _atom_site_fract_z
 _atom_site_occupancy
  Ho  Ho0  1  0.392818  0.392818  0.500000  1
  Ho  Ho1  1  0.584919  0.010451  0.500000  1
  Ho  Ho2  1  0.010451  0.584919  0.500000  1
  Ti  Ti3  1  0.764440  0.764440  0.000000  1
  Zn  Zn4  1  0.243078  0.995532  0.000000  1
  Zn  Zn5  1  0.995532  0.243078  0.000000  1
  Ir  Ir6  1  0.674865  0.358177  0.000000  1
  Ir  Ir7  1  0.358177  0.674865  0.000000  1
  Ir  Ir8  1  0.975722  0.975722  0.500000  1
