# generated using pymatgen
data_Ti6Re5Ge6Os
_symmetry_space_group_name_H-M   'P 1'
_cell_length_a   6.94179400
_cell_length_b   6.57101850
_cell_length_c   7.68094090
_cell_angle_alpha   115.35872451
_cell_angle_beta   116.82876404
_cell_angle_gamma   90.01384281
_symmetry_Int_Tables_number   1
_chemical_formula_structural   Ti6Re5Ge6Os
_chemical_formula_sum   'Ti6 Re5 Ge6 Os1'
_cell_volume   274.26643697
_cell_formula_units_Z   1
loop_
 _symmetry_equiv_pos_site_id
 _symmetry_equiv_pos_as_xyz
  1  'x, y, z'
loop_
 _atom_site_type_symbol
 _atom_site_label
 _atom_site_symmetry_multiplicity
 _atom_site_fract_x
 _atom_site_fract_y
 _atom_site_fract_z
 _atom_site_occupancy
  Ti  Ti0  1  0.241860  0.452798  0.403459  1
  Ti  Ti1  1  0.848266  0.552484  0.601574  1
  Ti  Ti2  1  0.648779  0.746197  0.994547  1
  Ti  Ti3  1  0.649898  0.249316  0.995930  1
  Ti  Ti4  1  0.850777  0.050466  0.603967  1
  Ti  Ti5  1  0.242159  0.950187  0.402013  1
  Re  Re6  1  0.982442  0.000389  0.000293  1
  Re  Re7  1  0.980932  0.498578  0.997963  1
  Re  Re8  1  0.512659  0.634149  0.266055  1
  Re  Re9  1  0.245687  0.366472  0.734454  1
  Re  Re10  1  0.245985  0.868323  0.735647  1
  Ge  Ge11  1  0.250814  0.252162  0.004356  1
  Ge  Ge12  1  0.248143  0.750294  0.001260  1
  Ge  Ge13  1  0.579464  0.833418  0.665545  1
  Ge  Ge14  1  0.910122  0.165749  0.332373  1
  Ge  Ge15  1  0.911618  0.666779  0.332370  1
  Ge  Ge16  1  0.578326  0.330613  0.662356  1
  Os  Os17  1  0.512466  0.131625  0.265839  1
