# generated using pymatgen
data_Lu2Ta3Si4
_symmetry_space_group_name_H-M   'P 1'
_cell_length_a   6.79472900
_cell_length_b   6.98259600
_cell_length_c   13.27245600
_cell_angle_alpha   90.00000000
_cell_angle_beta   90.00000000
_cell_angle_gamma   90.00000000
_symmetry_Int_Tables_number   1
_chemical_formula_structural   Lu2Ta3Si4
_chemical_formula_sum   'Lu8 Ta12 Si16'
_cell_volume   629.70965135
_cell_formula_units_Z   4
loop_
 _symmetry_equiv_pos_site_id
 _symmetry_equiv_pos_as_xyz
  1  'x, y, z'
loop_
 _atom_site_type_symbol
 _atom_site_label
 _atom_site_symmetry_multiplicity
 _atom_site_fract_x
 _atom_site_fract_y
 _atom_site_fract_z
 _atom_site_occupancy
  Lu  Lu0  1  0.499603  0.327674  0.095008  1
  Lu  Lu1  1  0.999603  0.172326  0.404992  1
  Lu  Lu2  1  0.500397  0.672326  0.595008  1
  Lu  Lu3  1  0.000397  0.827674  0.904992  1
  Lu  Lu4  1  0.500397  0.672326  0.904992  1
  Lu  Lu5  1  0.000397  0.827674  0.595008  1
  Lu  Lu6  1  0.499603  0.327674  0.404992  1
  Lu  Lu7  1  0.999603  0.172326  0.095008  1
  Ta  Ta8  1  0.665080  0.008191  0.750000  1
  Ta  Ta9  1  0.165080  0.491809  0.750000  1
  Ta  Ta10  1  0.334920  0.991809  0.250000  1
  Ta  Ta11  1  0.834920  0.508191  0.250000  1
  Ta  Ta12  1  0.838953  0.325605  0.625045  1
  Ta  Ta13  1  0.338953  0.174395  0.874955  1
  Ta  Ta14  1  0.161047  0.674395  0.125045  1
  Ta  Ta15  1  0.661047  0.825605  0.374955  1
  Ta  Ta16  1  0.161047  0.674395  0.374955  1
  Ta  Ta17  1  0.661047  0.825605  0.125045  1
  Ta  Ta18  1  0.838953  0.325605  0.874955  1
  Ta  Ta19  1  0.338953  0.174395  0.625045  1
  Si  Si20  1  0.797582  0.632647  0.750000  1
  Si  Si21  1  0.297582  0.867353  0.750000  1
  Si  Si22  1  0.202418  0.367353  0.250000  1
  Si  Si23  1  0.702418  0.132647  0.250000  1
  Si  Si24  1  0.543028  0.380597  0.750000  1
  Si  Si25  1  0.043028  0.119403  0.750000  1
  Si  Si26  1  0.456972  0.619403  0.250000  1
  Si  Si27  1  0.956972  0.880597  0.250000  1
  Si  Si28  1  0.667635  0.035061  0.540209  1
  Si  Si29  1  0.167635  0.464939  0.959791  1
  Si  Si30  1  0.332365  0.964939  0.040209  1
  Si  Si31  1  0.832365  0.535061  0.459791  1
  Si  Si32  1  0.332365  0.964939  0.459791  1
  Si  Si33  1  0.832365  0.535061  0.040209  1
  Si  Si34  1  0.667635  0.035061  0.959791  1
  Si  Si35  1  0.167635  0.464939  0.540209  1
