# generated using pymatgen
data_Hf3ZrSiP3Rh4
_symmetry_space_group_name_H-M   'P 1'
_cell_length_a   3.82573700
_cell_length_b   6.50325872
_cell_length_c   7.47372951
_cell_angle_alpha   89.76154705
_cell_angle_beta   90.00000000
_cell_angle_gamma   90.00000000
_symmetry_Int_Tables_number   1
_chemical_formula_structural   Hf3ZrSiP3Rh4
_chemical_formula_sum   'Hf3 Zr1 Si1 P3 Rh4'
_cell_volume   185.94296741
_cell_formula_units_Z   1
loop_
 _symmetry_equiv_pos_site_id
 _symmetry_equiv_pos_as_xyz
  1  'x, y, z'
loop_
 _atom_site_type_symbol
 _atom_site_label
 _atom_site_symmetry_multiplicity
 _atom_site_fract_x
 _atom_site_fract_y
 _atom_site_fract_z
 _atom_site_occupancy
  Hf  Hf0  1  0.250000  0.526392  0.176950  1
  Hf  Hf1  1  0.250000  0.030997  0.319914  1
  Hf  Hf2  1  0.750000  0.973623  0.682960  1
  Zr  Zr3  1  0.750000  0.473530  0.820490  1
  Si  Si4  1  0.750000  0.735055  0.379831  1
  P  P5  1  0.250000  0.761572  0.875920  1
  P  P6  1  0.750000  0.239120  0.123504  1
  P  P7  1  0.250000  0.261682  0.622178  1
  Rh  Rh8  1  0.750000  0.853985  0.065670  1
  Rh  Rh9  1  0.250000  0.144923  0.937078  1
  Rh  Rh10  1  0.750000  0.351899  0.435814  1
  Rh  Rh11  1  0.250000  0.647222  0.559692  1
