# generated using pymatgen
data_Yb2ThGa8Ag3
_symmetry_space_group_name_H-M   'P 1'
_cell_length_a   4.42742646
_cell_length_b   8.35216409
_cell_length_c   8.35216421
_cell_angle_alpha   70.28846482
_cell_angle_beta   74.63027842
_cell_angle_gamma   74.63027853
_symmetry_Int_Tables_number   1
_chemical_formula_structural   Yb2ThGa8Ag3
_chemical_formula_sum   'Yb2 Th1 Ga8 Ag3'
_cell_volume   275.05592702
_cell_formula_units_Z   1
loop_
 _symmetry_equiv_pos_site_id
 _symmetry_equiv_pos_as_xyz
  1  'x, y, z'
loop_
 _atom_site_type_symbol
 _atom_site_label
 _atom_site_symmetry_multiplicity
 _atom_site_fract_x
 _atom_site_fract_y
 _atom_site_fract_z
 _atom_site_occupancy
  Yb  Yb0  1  0.302399  0.697601  0.697601  1
  Yb  Yb1  1  0.697601  0.302399  0.302399  1
  Th  Th2  1  0.000000  0.000000  0.000000  1
  Ga  Ga3  1  0.337389  0.293960  0.031262  1
  Ga  Ga4  1  0.662611  0.706040  0.968738  1
  Ga  Ga5  1  0.337389  0.031262  0.293960  1
  Ga  Ga6  1  0.662611  0.968738  0.706040  1
  Ga  Ga7  1  0.143164  0.576254  0.137419  1
  Ga  Ga8  1  0.856836  0.423746  0.862581  1
  Ga  Ga9  1  0.143164  0.137419  0.576254  1
  Ga  Ga10  1  0.856836  0.862581  0.423746  1
  Ag  Ag11  1  0.500000  0.303923  0.696077  1
  Ag  Ag12  1  0.500000  0.696077  0.303923  1
  Ag  Ag13  1  0.000000  0.500000  0.500000  1
