# generated using pymatgen
data_La4Ho5LuSi8
_symmetry_space_group_name_H-M   'P 1'
_cell_length_a   7.82409037
_cell_length_b   7.82487700
_cell_length_c   14.48494200
_cell_angle_alpha   90.00000000
_cell_angle_beta   89.98227835
_cell_angle_gamma   90.00000000
_symmetry_Int_Tables_number   1
_chemical_formula_structural   La4Ho5LuSi8
_chemical_formula_sum   'La8 Ho10 Lu2 Si16'
_cell_volume   886.80496832
_cell_formula_units_Z   2
loop_
 _symmetry_equiv_pos_site_id
 _symmetry_equiv_pos_as_xyz
  1  'x, y, z'
loop_
 _atom_site_type_symbol
 _atom_site_label
 _atom_site_symmetry_multiplicity
 _atom_site_fract_x
 _atom_site_fract_y
 _atom_site_fract_z
 _atom_site_occupancy
  La  La0  1  0.991073  0.643149  0.041923  1
  La  La1  1  0.008074  0.357245  0.541363  1
  La  La2  1  0.643310  0.991109  0.958751  1
  La  La3  1  0.142694  0.507863  0.791682  1
  La  La4  1  0.856690  0.491109  0.291249  1
  La  La5  1  0.508927  0.143149  0.208077  1
  La  La6  1  0.491926  0.857245  0.708637  1
  La  La7  1  0.357306  0.007863  0.458318  1
  Ho  Ho8  1  0.360799  0.492321  0.374284  1
  Ho  Ho9  1  0.860954  0.007233  0.374316  1
  Ho  Ho10  1  0.992918  0.138966  0.125135  1
  Ho  Ho11  1  0.007833  0.860784  0.624937  1
  Ho  Ho12  1  0.639046  0.507233  0.875684  1
  Ho  Ho13  1  0.492167  0.360784  0.625063  1
  Ho  Ho14  1  0.507082  0.638966  0.124865  1
  Ho  Ho15  1  0.139201  0.992321  0.875716  1
  Ho  Ho16  1  0.681924  0.683152  0.499922  1
  Ho  Ho17  1  0.818076  0.183152  0.750078  1
  Lu  Lu18  1  0.182743  0.818009  0.249783  1
  Lu  Lu19  1  0.317257  0.318009  0.000217  1
  Si  Si20  1  0.065391  0.711273  0.436507  1
  Si  Si21  1  0.936705  0.289362  0.938403  1
  Si  Si22  1  0.711078  0.064796  0.561612  1
  Si  Si23  1  0.210909  0.436063  0.186642  1
  Si  Si24  1  0.788922  0.564796  0.688388  1
  Si  Si25  1  0.434609  0.211274  0.813493  1
  Si  Si26  1  0.563295  0.789362  0.311597  1
  Si  Si27  1  0.289092  0.936063  0.063358  1
  Si  Si28  1  0.847974  0.795633  0.809124  1
  Si  Si29  1  0.152957  0.202691  0.308187  1
  Si  Si30  1  0.796584  0.847660  0.190991  1
  Si  Si31  1  0.296350  0.652689  0.558279  1
  Si  Si32  1  0.703416  0.347660  0.059009  1
  Si  Si33  1  0.652026  0.295633  0.440876  1
  Si  Si34  1  0.347043  0.702691  0.941813  1
  Si  Si35  1  0.203650  0.152689  0.691721  1
