# generated using pymatgen
data_Er4Tc3B16Os
_symmetry_space_group_name_H-M   'P 1'
_cell_length_a   3.57276700
_cell_length_b   5.95258456
_cell_length_c   11.51606262
_cell_angle_alpha   90.09082345
_cell_angle_beta   90.00000000
_cell_angle_gamma   90.00000000
_symmetry_Int_Tables_number   1
_chemical_formula_structural   Er4Tc3B16Os
_chemical_formula_sum   'Er4 Tc3 B16 Os1'
_cell_volume   244.91407268
_cell_formula_units_Z   1
loop_
 _symmetry_equiv_pos_site_id
 _symmetry_equiv_pos_as_xyz
  1  'x, y, z'
loop_
 _atom_site_type_symbol
 _atom_site_label
 _atom_site_symmetry_multiplicity
 _atom_site_fract_x
 _atom_site_fract_y
 _atom_site_fract_z
 _atom_site_occupancy
  Er  Er0  1  0.000000  0.629223  0.350738  1
  Er  Er1  1  0.000000  0.371735  0.648423  1
  Er  Er2  1  0.000000  0.127253  0.151014  1
  Er  Er3  1  0.000000  0.872961  0.849594  1
  Tc  Tc4  1  0.000000  0.632056  0.086986  1
  Tc  Tc5  1  0.000000  0.367559  0.911859  1
  Tc  Tc6  1  0.000000  0.138760  0.409793  1
  B  B7  1  0.500000  0.787824  0.185356  1
  B  B8  1  0.500000  0.211257  0.814354  1
  B  B9  1  0.500000  0.288194  0.314596  1
  B  B10  1  0.500000  0.711352  0.685337  1
  B  B11  1  0.500000  0.864816  0.031486  1
  B  B12  1  0.500000  0.134808  0.968127  1
  B  B13  1  0.500000  0.364955  0.469863  1
  B  B14  1  0.500000  0.636189  0.530901  1
  B  B15  1  0.500000  0.886700  0.452911  1
  B  B16  1  0.500000  0.113263  0.547554  1
  B  B17  1  0.500000  0.385983  0.047244  1
  B  B18  1  0.500000  0.613407  0.952243  1
  B  B19  1  0.500000  0.974863  0.307846  1
  B  B20  1  0.500000  0.025340  0.692192  1
  B  B21  1  0.500000  0.477732  0.192715  1
  B  B22  1  0.500000  0.522730  0.806937  1
  Os  Os23  1  0.000000  0.861040  0.591932  1
