# generated using pymatgen
data_Tb11Y5(NiAg)4
_symmetry_space_group_name_H-M   'P 1'
_cell_length_a   9.50640009
_cell_length_b   9.50731968
_cell_length_c   9.50731911
_cell_angle_alpha   60.01760104
_cell_angle_beta   60.00320071
_cell_angle_gamma   60.00320039
_symmetry_Int_Tables_number   1
_chemical_formula_structural   Tb11Y5(NiAg)4
_chemical_formula_sum   'Tb11 Y5 Ni4 Ag4'
_cell_volume   607.70947655
_cell_formula_units_Z   1
loop_
 _symmetry_equiv_pos_site_id
 _symmetry_equiv_pos_as_xyz
  1  'x, y, z'
loop_
 _atom_site_type_symbol
 _atom_site_label
 _atom_site_symmetry_multiplicity
 _atom_site_fract_x
 _atom_site_fract_y
 _atom_site_fract_z
 _atom_site_occupancy
  Tb  Tb0  1  0.600158  0.600285  0.600285  1
  Tb  Tb1  1  0.600246  0.600318  0.199189  1
  Tb  Tb2  1  0.600246  0.199189  0.600318  1
  Tb  Tb3  1  0.199272  0.600285  0.600285  1
  Tb  Tb4  1  0.060997  0.439003  0.439003  1
  Tb  Tb5  1  0.438977  0.061023  0.061023  1
  Tb  Tb6  1  0.438987  0.061060  0.438969  1
  Tb  Tb7  1  0.060984  0.438969  0.061060  1
  Tb  Tb8  1  0.438987  0.438969  0.061060  1
  Tb  Tb9  1  0.060984  0.061060  0.438969  1
  Tb  Tb10  1  0.185458  0.814542  0.814542  1
  Y  Y11  1  0.814459  0.185541  0.185541  1
  Y  Y12  1  0.814572  0.185474  0.814553  1
  Y  Y13  1  0.185400  0.814553  0.185474  1
  Y  Y14  1  0.814572  0.814553  0.185474  1
  Y  Y15  1  0.185400  0.185474  0.814553  1
  Ni  Ni16  1  0.392890  0.392882  0.392882  1
  Ni  Ni17  1  0.393086  0.393012  0.820816  1
  Ni  Ni18  1  0.393086  0.820816  0.393012  1
  Ni  Ni19  1  0.821345  0.392882  0.392882  1
  Ag  Ag20  1  0.831585  0.831549  0.831549  1
  Ag  Ag21  1  0.831494  0.831454  0.505558  1
  Ag  Ag22  1  0.831494  0.505558  0.831454  1
  Ag  Ag23  1  0.505317  0.831549  0.831549  1
