# generated using pymatgen
data_DyEr(WF7)2
_symmetry_space_group_name_H-M   'P 1'
_cell_length_a   5.66544400
_cell_length_b   9.08312009
_cell_length_c   12.16704800
_cell_angle_alpha   62.70108597
_cell_angle_beta   90.00000000
_cell_angle_gamma   90.00000000
_symmetry_Int_Tables_number   1
_chemical_formula_structural   DyEr(WF7)2
_chemical_formula_sum   'Dy2 Er2 W4 F28'
_cell_volume   556.38217562
_cell_formula_units_Z   2
loop_
 _symmetry_equiv_pos_site_id
 _symmetry_equiv_pos_as_xyz
  1  'x, y, z'
loop_
 _atom_site_type_symbol
 _atom_site_label
 _atom_site_symmetry_multiplicity
 _atom_site_fract_x
 _atom_site_fract_y
 _atom_site_fract_z
 _atom_site_occupancy
  Dy  Dy0  1  0.239671  0.185527  0.234939  1
  Dy  Dy1  1  0.739671  0.814473  0.265061  1
  Er  Er2  1  0.759939  0.815808  0.764730  1
  Er  Er3  1  0.259939  0.184192  0.735270  1
  W  W4  1  0.756624  0.274879  0.954735  1
  W  W5  1  0.256624  0.725121  0.545265  1
  W  W6  1  0.243969  0.726836  0.042128  1
  W  W7  1  0.743969  0.273164  0.457872  1
  F  F8  1  0.453556  0.708830  0.916217  1
  F  F9  1  0.953556  0.291170  0.583783  1
  F  F10  1  0.546153  0.291973  0.081556  1
  F  F11  1  0.046153  0.708027  0.418444  1
  F  F12  1  0.442283  0.276358  0.551997  1
  F  F13  1  0.942283  0.723642  0.948003  1
  F  F14  1  0.556509  0.721733  0.451246  1
  F  F15  1  0.056509  0.278267  0.048754  1
  F  F16  1  0.767484  0.521648  0.856810  1
  F  F17  1  0.267484  0.478352  0.643190  1
  F  F18  1  0.231182  0.480260  0.141040  1
  F  F19  1  0.731182  0.519740  0.358960  1
  F  F20  1  0.758623  0.028771  0.052856  1
  F  F21  1  0.258623  0.971229  0.447144  1
  F  F22  1  0.242786  0.972933  0.944796  1
  F  F23  1  0.742786  0.027067  0.555204  1
  F  F24  1  0.967590  0.732259  0.644113  1
  F  F25  1  0.467590  0.267741  0.855887  1
  F  F26  1  0.034555  0.268732  0.358339  1
  F  F27  1  0.534555  0.731268  0.141661  1
  F  F28  1  0.041269  0.748268  0.170415  1
  F  F29  1  0.541269  0.251732  0.329585  1
  F  F30  1  0.962519  0.251879  0.827539  1
  F  F31  1  0.462519  0.748121  0.672461  1
  F  F32  1  0.422514  0.972790  0.233291  1
  F  F33  1  0.922514  0.027210  0.266709  1
  F  F34  1  0.572775  0.024646  0.766294  1
  F  F35  1  0.072775  0.975354  0.733706  1
