# generated using pymatgen
data_ErTm5TcIr
_symmetry_space_group_name_H-M   'P 1'
_cell_length_a   6.23751800
_cell_length_b   7.33276600
_cell_length_c   9.00399500
_cell_angle_alpha   90.00000000
_cell_angle_beta   90.00000000
_cell_angle_gamma   90.00000000
_symmetry_Int_Tables_number   1
_chemical_formula_structural   ErTm5TcIr
_chemical_formula_sum   'Er2 Tm10 Tc2 Ir2'
_cell_volume   411.82706358
_cell_formula_units_Z   2
loop_
 _symmetry_equiv_pos_site_id
 _symmetry_equiv_pos_as_xyz
  1  'x, y, z'
loop_
 _atom_site_type_symbol
 _atom_site_label
 _atom_site_symmetry_multiplicity
 _atom_site_fract_x
 _atom_site_fract_y
 _atom_site_fract_z
 _atom_site_occupancy
  Er  Er0  1  0.132457  0.459559  0.750000  1
  Er  Er1  1  0.367543  0.959559  0.750000  1
  Tm  Tm2  1  0.332305  0.675994  0.065350  1
  Tm  Tm3  1  0.167695  0.175994  0.434650  1
  Tm  Tm4  1  0.665633  0.324092  0.560132  1
  Tm  Tm5  1  0.834367  0.824092  0.939868  1
  Tm  Tm6  1  0.665633  0.324092  0.939868  1
  Tm  Tm7  1  0.834367  0.824092  0.560132  1
  Tm  Tm8  1  0.332305  0.675994  0.434650  1
  Tm  Tm9  1  0.167695  0.175994  0.065350  1
  Tm  Tm10  1  0.874060  0.539653  0.250000  1
  Tm  Tm11  1  0.625940  0.039653  0.250000  1
  Tc  Tc12  1  0.035782  0.884672  0.250000  1
  Tc  Tc13  1  0.464218  0.384672  0.250000  1
  Ir  Ir14  1  0.955933  0.115943  0.750000  1
  Ir  Ir15  1  0.544067  0.615943  0.750000  1
