# generated using pymatgen
data_Cs4Rb3TaIn3P5
_symmetry_space_group_name_H-M   'P 1'
_cell_length_a   8.62786912
_cell_length_b   9.56738664
_cell_length_c   14.71031867
_cell_angle_alpha   84.99130924
_cell_angle_beta   84.00218252
_cell_angle_gamma   87.16079463
_symmetry_Int_Tables_number   1
_chemical_formula_structural   Cs4Rb3TaIn3P5
_chemical_formula_sum   'Cs8 Rb6 Ta2 In6 P10'
_cell_volume   1202.02064816
_cell_formula_units_Z   2
loop_
 _symmetry_equiv_pos_site_id
 _symmetry_equiv_pos_as_xyz
  1  'x, y, z'
loop_
 _atom_site_type_symbol
 _atom_site_label
 _atom_site_symmetry_multiplicity
 _atom_site_fract_x
 _atom_site_fract_y
 _atom_site_fract_z
 _atom_site_occupancy
  Cs  Cs0  1  0.682443  0.081793  0.887999  1
  Cs  Cs1  1  0.317557  0.918207  0.112001  1
  Cs  Cs2  1  0.678258  0.655930  0.400795  1
  Cs  Cs3  1  0.321742  0.344070  0.599205  1
  Cs  Cs4  1  0.759551  0.988226  0.534517  1
  Cs  Cs5  1  0.240449  0.011774  0.465483  1
  Cs  Cs6  1  0.828081  0.365580  0.649897  1
  Cs  Cs7  1  0.171919  0.634420  0.350103  1
  Rb  Rb8  1  0.816848  0.804907  0.134611  1
  Rb  Rb9  1  0.183152  0.195093  0.865389  1
  Rb  Rb10  1  0.275363  0.258577  0.246299  1
  Rb  Rb11  1  0.724637  0.741423  0.753701  1
  Rb  Rb12  1  0.739867  0.496828  0.973859  1
  Rb  Rb13  1  0.260133  0.503172  0.026141  1
  Ta  Ta14  1  0.652426  0.393705  0.222368  1
  Ta  Ta15  1  0.347574  0.606295  0.777632  1
  In  In16  1  0.908227  0.277571  0.369839  1
  In  In17  1  0.091773  0.722429  0.630161  1
  In  In18  1  0.945058  0.188834  0.127883  1
  In  In19  1  0.054942  0.811166  0.872117  1
  In  In20  1  0.638877  0.049379  0.293216  1
  In  In21  1  0.361123  0.950621  0.706784  1
  P  P22  1  0.493922  0.591417  0.185323  1
  P  P23  1  0.506078  0.408583  0.814677  1
  P  P24  1  0.924857  0.449872  0.206752  1
  P  P25  1  0.075143  0.550128  0.793248  1
  P  P26  1  0.587615  0.296632  0.380050  1
  P  P27  1  0.412385  0.703368  0.619950  1
  P  P28  1  0.626909  0.203076  0.125202  1
  P  P29  1  0.373091  0.796924  0.874798  1
  P  P30  1  0.964058  0.015690  0.292237  1
  P  P31  1  0.035942  0.984310  0.707763  1
