# generated using pymatgen
data_La5Tb3ZnPd24
_symmetry_space_group_name_H-M   'P 1'
_cell_length_a   8.50592987
_cell_length_b   8.50592987
_cell_length_c   8.45432484
_cell_angle_alpha   89.88306070
_cell_angle_beta   89.88306070
_cell_angle_gamma   89.76765724
_symmetry_Int_Tables_number   1
_chemical_formula_structural   La5Tb3ZnPd24
_chemical_formula_sum   'La5 Tb3 Zn1 Pd24'
_cell_volume   611.66996160
_cell_formula_units_Z   1
loop_
 _symmetry_equiv_pos_site_id
 _symmetry_equiv_pos_as_xyz
  1  'x, y, z'
loop_
 _atom_site_type_symbol
 _atom_site_label
 _atom_site_symmetry_multiplicity
 _atom_site_fract_x
 _atom_site_fract_y
 _atom_site_fract_z
 _atom_site_occupancy
  La  La0  1  0.748952  0.250970  0.748907  1
  La  La1  1  0.250807  0.250807  0.749979  1
  La  La2  1  0.251004  0.749088  0.251146  1
  La  La3  1  0.250970  0.748952  0.748907  1
  La  La4  1  0.749088  0.251004  0.251146  1
  Tb  Tb5  1  0.250691  0.250691  0.250251  1
  Tb  Tb6  1  0.749373  0.749373  0.750085  1
  Tb  Tb7  1  0.749161  0.749161  0.250115  1
  Zn  Zn8  1  0.999871  0.999871  0.999796  1
  Pd  Pd9  1  0.261570  0.498263  0.002531  1
  Pd  Pd10  1  0.738303  0.503962  0.000056  1
  Pd  Pd11  1  0.003347  0.261815  0.498205  1
  Pd  Pd12  1  0.498263  0.261570  0.002531  1
  Pd  Pd13  1  0.993809  0.738133  0.499772  1
  Pd  Pd14  1  0.503962  0.738303  0.000056  1
  Pd  Pd15  1  0.500367  0.999897  0.261651  1
  Pd  Pd16  1  0.261815  0.003347  0.498205  1
  Pd  Pd17  1  0.501879  0.997451  0.738313  1
  Pd  Pd18  1  0.738133  0.993809  0.499772  1
  Pd  Pd19  1  0.999897  0.500367  0.261651  1
  Pd  Pd20  1  0.997451  0.501879  0.738313  1
  Pd  Pd21  1  0.253665  0.497197  0.497702  1
  Pd  Pd22  1  0.746311  0.505394  0.499847  1
  Pd  Pd23  1  0.497197  0.253665  0.497702  1
  Pd  Pd24  1  0.505394  0.746311  0.499847  1
  Pd  Pd25  1  0.500221  0.500221  0.253602  1
  Pd  Pd26  1  0.502360  0.502360  0.746381  1
  Pd  Pd27  1  0.296308  0.002620  0.002197  1
  Pd  Pd28  1  0.704388  0.995042  0.000016  1
  Pd  Pd29  1  0.002620  0.296308  0.002197  1
  Pd  Pd30  1  0.995042  0.704388  0.000016  1
  Pd  Pd31  1  0.999935  0.999935  0.296229  1
  Pd  Pd32  1  0.997849  0.997849  0.702878  1
