# generated using pymatgen
data_Er6Tm2Re3B24Os
_symmetry_space_group_name_H-M   'P 1'
_cell_length_a   3.64695500
_cell_length_b   9.11508413
_cell_length_c   11.49007600
_cell_angle_alpha   90.07702833
_cell_angle_beta   90.00000000
_cell_angle_gamma   90.00000000
_symmetry_Int_Tables_number   1
_chemical_formula_structural   Er6Tm2Re3B24Os
_chemical_formula_sum   'Er6 Tm2 Re3 B24 Os1'
_cell_volume   381.95622696
_cell_formula_units_Z   1
loop_
 _symmetry_equiv_pos_site_id
 _symmetry_equiv_pos_as_xyz
  1  'x, y, z'
loop_
 _atom_site_type_symbol
 _atom_site_label
 _atom_site_symmetry_multiplicity
 _atom_site_fract_x
 _atom_site_fract_y
 _atom_site_fract_z
 _atom_site_occupancy
  Er  Er0  1  0.000000  0.321330  0.414136  1
  Er  Er1  1  0.000000  0.677866  0.587640  1
  Er  Er2  1  0.000000  0.823985  0.084299  1
  Er  Er3  1  0.000000  0.177301  0.913567  1
  Er  Er4  1  0.000000  0.942335  0.370184  1
  Er  Er5  1  0.000000  0.056684  0.629228  1
  Tm  Tm6  1  0.000000  0.442629  0.129637  1
  Tm  Tm7  1  0.000000  0.557172  0.871039  1
  Re  Re8  1  0.000000  0.362668  0.678353  1
  Re  Re9  1  0.000000  0.138382  0.179633  1
  Re  Re10  1  0.000000  0.861738  0.820865  1
  B  B11  1  0.500000  0.553484  0.433098  1
  B  B12  1  0.500000  0.447329  0.566482  1
  B  B13  1  0.500000  0.052957  0.066564  1
  B  B14  1  0.500000  0.947304  0.933201  1
  B  B15  1  0.500000  0.748754  0.418832  1
  B  B16  1  0.500000  0.250360  0.580819  1
  B  B17  1  0.500000  0.249723  0.080967  1
  B  B18  1  0.500000  0.750761  0.919170  1
  B  B19  1  0.500000  0.790937  0.265202  1
  B  B20  1  0.500000  0.208133  0.734619  1
  B  B21  1  0.500000  0.292097  0.235152  1
  B  B22  1  0.500000  0.707731  0.765565  1
  B  B23  1  0.500000  0.630604  0.185325  1
  B  B24  1  0.500000  0.370077  0.814658  1
  B  B25  1  0.500000  0.130553  0.315285  1
  B  B26  1  0.500000  0.869246  0.685167  1
  B  B27  1  0.500000  0.981373  0.211911  1
  B  B28  1  0.500000  0.018688  0.787722  1
  B  B29  1  0.500000  0.482205  0.288017  1
  B  B30  1  0.500000  0.519165  0.712191  1
  B  B31  1  0.500000  0.601018  0.028648  1
  B  B32  1  0.500000  0.399369  0.972181  1
  B  B33  1  0.500000  0.100212  0.471687  1
  B  B34  1  0.500000  0.898157  0.528017  1
  Os  Os35  1  0.000000  0.637674  0.320936  1
