# generated using pymatgen
data_Ho8GePd23Pt
_symmetry_space_group_name_H-M   'P 1'
_cell_length_a   8.33584900
_cell_length_b   8.33584900
_cell_length_c   8.33150300
_cell_angle_alpha   90.00000000
_cell_angle_beta   90.00000000
_cell_angle_gamma   90.00000000
_symmetry_Int_Tables_number   1
_chemical_formula_structural   Ho8GePd23Pt
_chemical_formula_sum   'Ho8 Ge1 Pd23 Pt1'
_cell_volume   578.92597136
_cell_formula_units_Z   1
loop_
 _symmetry_equiv_pos_site_id
 _symmetry_equiv_pos_as_xyz
  1  'x, y, z'
loop_
 _atom_site_type_symbol
 _atom_site_label
 _atom_site_symmetry_multiplicity
 _atom_site_fract_x
 _atom_site_fract_y
 _atom_site_fract_z
 _atom_site_occupancy
  Ho  Ho0  1  0.253334  0.253334  0.747209  1
  Ho  Ho1  1  0.252832  0.747168  0.252775  1
  Ho  Ho2  1  0.747168  0.252832  0.252775  1
  Ho  Ho3  1  0.746666  0.746666  0.747209  1
  Ho  Ho4  1  0.747168  0.747168  0.252775  1
  Ho  Ho5  1  0.746666  0.253334  0.747209  1
  Ho  Ho6  1  0.253334  0.746666  0.747209  1
  Ho  Ho7  1  0.252832  0.252832  0.252775  1
  Ge  Ge8  1  0.000000  0.000000  0.999854  1
  Pd  Pd9  1  0.500000  0.253271  0.499948  1
  Pd  Pd10  1  0.253271  0.500000  0.499948  1
  Pd  Pd11  1  0.500000  0.500000  0.253246  1
  Pd  Pd12  1  0.500000  0.746729  0.499948  1
  Pd  Pd13  1  0.746729  0.500000  0.499948  1
  Pd  Pd14  1  0.000000  0.000000  0.709716  1
  Pd  Pd15  1  0.000000  0.290038  0.000139  1
  Pd  Pd16  1  0.290038  0.000000  0.000139  1
  Pd  Pd17  1  0.000000  0.000000  0.290120  1
  Pd  Pd18  1  0.000000  0.709962  0.000139  1
  Pd  Pd19  1  0.709962  0.000000  0.000139  1
  Pd  Pd20  1  0.000000  0.500000  0.739783  1
  Pd  Pd21  1  0.500000  0.260126  0.000077  1
  Pd  Pd22  1  0.260158  0.000000  0.499878  1
  Pd  Pd23  1  0.000000  0.260158  0.499878  1
  Pd  Pd24  1  0.500000  0.000000  0.739783  1
  Pd  Pd25  1  0.260126  0.500000  0.000077  1
  Pd  Pd26  1  0.000000  0.500000  0.260261  1
  Pd  Pd27  1  0.500000  0.739874  0.000077  1
  Pd  Pd28  1  0.000000  0.739842  0.499878  1
  Pd  Pd29  1  0.500000  0.000000  0.260261  1
  Pd  Pd30  1  0.739842  0.000000  0.499878  1
  Pd  Pd31  1  0.739874  0.500000  0.000077  1
  Pt  Pt32  1  0.500000  0.500000  0.746870  1
