# generated using pymatgen
data_Ca12BeCoN10
_symmetry_space_group_name_H-M   'P 1'
_cell_length_a   6.16675000
_cell_length_b   6.16675036
_cell_length_c   12.21192300
_cell_angle_alpha   90.00000000
_cell_angle_beta   90.00000000
_cell_angle_gamma   120.00000878
_symmetry_Int_Tables_number   1
_chemical_formula_structural   Ca12BeCoN10
_chemical_formula_sum   'Ca12 Be1 Co1 N10'
_cell_volume   402.18638172
_cell_formula_units_Z   1
loop_
 _symmetry_equiv_pos_site_id
 _symmetry_equiv_pos_as_xyz
  1  'x, y, z'
loop_
 _atom_site_type_symbol
 _atom_site_label
 _atom_site_symmetry_multiplicity
 _atom_site_fract_x
 _atom_site_fract_y
 _atom_site_fract_z
 _atom_site_occupancy
  Ca  Ca0  1  0.000000  0.391086  0.869656  1
  Ca  Ca1  1  0.608914  0.608914  0.869656  1
  Ca  Ca2  1  0.604563  0.000000  0.114128  1
  Ca  Ca3  1  0.391086  0.000000  0.630344  1
  Ca  Ca4  1  0.395437  0.395437  0.385872  1
  Ca  Ca5  1  0.604563  0.000000  0.385872  1
  Ca  Ca6  1  0.395437  0.395437  0.114128  1
  Ca  Ca7  1  0.000000  0.604563  0.114128  1
  Ca  Ca8  1  0.000000  0.391086  0.630344  1
  Ca  Ca9  1  0.608914  0.608914  0.630344  1
  Ca  Ca10  1  0.391086  0.000000  0.869656  1
  Ca  Ca11  1  0.000000  0.604563  0.385872  1
  Be  Be12  1  0.000000  0.000000  0.750000  1
  Co  Co13  1  0.000000  0.000000  0.250000  1
  N  N14  1  0.722582  0.000000  0.750000  1
  N  N15  1  0.277418  0.277418  0.750000  1
  N  N16  1  0.281329  0.000000  0.250000  1
  N  N17  1  0.666667  0.333333  0.498286  1
  N  N18  1  0.333333  0.666667  0.001714  1
  N  N19  1  0.333333  0.666667  0.498286  1
  N  N20  1  0.666667  0.333333  0.001714  1
  N  N21  1  0.718671  0.718671  0.250000  1
  N  N22  1  0.000000  0.281329  0.250000  1
  N  N23  1  0.000000  0.722582  0.750000  1
