# generated using pymatgen
data_Ti8Nb2CuSn7
_symmetry_space_group_name_H-M   'P 1'
_cell_length_a   5.60808801
_cell_length_b   8.31593027
_cell_length_c   8.32463189
_cell_angle_alpha   119.96542742
_cell_angle_beta   90.03405362
_cell_angle_gamma   89.93182276
_symmetry_Int_Tables_number   1
_chemical_formula_structural   Ti8Nb2CuSn7
_chemical_formula_sum   'Ti8 Nb2 Cu1 Sn7'
_cell_volume   336.33511680
_cell_formula_units_Z   1
loop_
 _symmetry_equiv_pos_site_id
 _symmetry_equiv_pos_as_xyz
  1  'x, y, z'
loop_
 _atom_site_type_symbol
 _atom_site_label
 _atom_site_symmetry_multiplicity
 _atom_site_fract_x
 _atom_site_fract_y
 _atom_site_fract_z
 _atom_site_occupancy
  Ti  Ti0  1  0.999990  0.666671  0.333339  1
  Ti  Ti1  1  0.999990  0.333332  0.666661  1
  Ti  Ti2  1  0.733721  0.276161  0.000000  1
  Ti  Ti3  1  0.733642  0.723822  0.723838  1
  Ti  Ti4  1  0.733642  0.999984  0.276162  1
  Ti  Ti5  1  0.266249  0.723866  0.000000  1
  Ti  Ti6  1  0.266366  0.276201  0.276212  1
  Ti  Ti7  1  0.266366  0.999989  0.723788  1
  Nb  Nb8  1  0.499995  0.333360  0.666693  1
  Nb  Nb9  1  0.499995  0.666667  0.333307  1
  Cu  Cu10  1  0.500127  0.999919  0.000000  1
  Sn  Sn11  1  0.756876  0.616231  0.000000  1
  Sn  Sn12  1  0.756892  0.383728  0.383690  1
  Sn  Sn13  1  0.756892  0.000038  0.616310  1
  Sn  Sn14  1  0.243130  0.383724  0.000000  1
  Sn  Sn15  1  0.243088  0.616270  0.616281  1
  Sn  Sn16  1  0.243088  0.999988  0.383719  1
  Sn  Sn17  1  0.999955  0.000049  0.000000  1
