# generated using pymatgen
data_TbDyEr2Fe3Ru5
_symmetry_space_group_name_H-M   'P 1'
_cell_length_a   5.20965233
_cell_length_b   5.39456395
_cell_length_c   9.07816158
_cell_angle_alpha   72.71543751
_cell_angle_beta   91.92099800
_cell_angle_gamma   121.18123991
_symmetry_Int_Tables_number   1
_chemical_formula_structural   TbDyEr2Fe3Ru5
_chemical_formula_sum   'Tb1 Dy1 Er2 Fe3 Ru5'
_cell_volume   206.14335124
_cell_formula_units_Z   1
loop_
 _symmetry_equiv_pos_site_id
 _symmetry_equiv_pos_as_xyz
  1  'x, y, z'
loop_
 _atom_site_type_symbol
 _atom_site_label
 _atom_site_symmetry_multiplicity
 _atom_site_fract_x
 _atom_site_fract_y
 _atom_site_fract_z
 _atom_site_occupancy
  Tb  Tb0  1  0.873768  0.749429  0.374911  1
  Dy  Dy1  1  0.501352  0.000478  0.500397  1
  Er  Er2  1  0.375227  0.750647  0.873934  1
  Er  Er3  1  0.999773  0.999481  0.000812  1
  Fe  Fe4  1  0.687457  0.375018  0.937421  1
  Fe  Fe5  1  0.940200  0.377331  0.185538  1
  Fe  Fe6  1  0.434674  0.372609  0.689456  1
  Ru  Ru7  1  0.442408  0.377808  0.181159  1
  Ru  Ru8  1  0.932637  0.372200  0.693817  1
  Ru  Ru9  1  0.442408  0.883441  0.181159  1
  Ru  Ru10  1  0.932637  0.866618  0.693817  1
  Ru  Ru11  1  0.187457  0.374939  0.437578  1
