# generated using pymatgen
data_Tb3Sn3IrRuAu
_symmetry_space_group_name_H-M   'P 1'
_cell_length_a   7.68352700
_cell_length_b   7.68352712
_cell_length_c   3.88933700
_cell_angle_alpha   90.00000000
_cell_angle_beta   90.00000000
_cell_angle_gamma   119.99999518
_symmetry_Int_Tables_number   1
_chemical_formula_structural   Tb3Sn3IrRuAu
_chemical_formula_sum   'Tb3 Sn3 Ir1 Ru1 Au1'
_cell_volume   198.85086211
_cell_formula_units_Z   1
loop_
 _symmetry_equiv_pos_site_id
 _symmetry_equiv_pos_as_xyz
  1  'x, y, z'
loop_
 _atom_site_type_symbol
 _atom_site_label
 _atom_site_symmetry_multiplicity
 _atom_site_fract_x
 _atom_site_fract_y
 _atom_site_fract_z
 _atom_site_occupancy
  Tb  Tb0  1  0.604758  0.017936  0.000000  1
  Tb  Tb1  1  0.982064  0.586824  0.000000  1
  Tb  Tb2  1  0.413176  0.395242  0.000000  1
  Sn  Sn3  1  0.257693  0.002937  0.500000  1
  Sn  Sn4  1  0.997063  0.254756  0.500000  1
  Sn  Sn5  1  0.745244  0.742307  0.500000  1
  Ir  Ir6  1  0.666667  0.333333  0.500000  1
  Ru  Ru7  1  0.000000  0.000000  0.000000  1
  Au  Au8  1  0.333333  0.666667  0.500000  1
