# generated using pymatgen
data_Nd10AlSi4Hg
_symmetry_space_group_name_H-M   'P 1'
_cell_length_a   7.88985800
_cell_length_b   9.24685522
_cell_length_c   7.88985800
_cell_angle_alpha   115.25349821
_cell_angle_beta   90.00000000
_cell_angle_gamma   115.25349821
_symmetry_Int_Tables_number   1
_chemical_formula_structural   Nd10AlSi4Hg
_chemical_formula_sum   'Nd10 Al1 Si4 Hg1'
_cell_volume   459.04527765
_cell_formula_units_Z   1
loop_
 _symmetry_equiv_pos_site_id
 _symmetry_equiv_pos_as_xyz
  1  'x, y, z'
loop_
 _atom_site_type_symbol
 _atom_site_label
 _atom_site_symmetry_multiplicity
 _atom_site_fract_x
 _atom_site_fract_y
 _atom_site_fract_z
 _atom_site_occupancy
  Nd  Nd0  1  0.977367  0.954733  0.977367  1
  Nd  Nd1  1  0.522633  0.045267  0.522633  1
  Nd  Nd2  1  0.531807  0.722337  0.678620  1
  Nd  Nd3  1  0.190532  0.722337  0.043718  1
  Nd  Nd4  1  0.678620  0.722337  0.190532  1
  Nd  Nd5  1  0.043718  0.722337  0.531807  1
  Nd  Nd6  1  0.456282  0.277663  0.309468  1
  Nd  Nd7  1  0.821380  0.277663  0.968193  1
  Nd  Nd8  1  0.309468  0.277663  0.821380  1
  Nd  Nd9  1  0.968193  0.277663  0.456282  1
  Al  Al10  1  0.750000  0.500000  0.750000  1
  Si  Si11  1  0.884194  0.000000  0.615806  1
  Si  Si12  1  0.115806  0.000000  0.384194  1
  Si  Si13  1  0.615806  0.000000  0.115806  1
  Si  Si14  1  0.384194  0.000000  0.884194  1
  Hg  Hg15  1  0.250000  0.500000  0.250000  1
