# generated using pymatgen
data_Y5P12Pd2Ru17
_symmetry_space_group_name_H-M   'P 1'
_cell_length_a   12.65121800
_cell_length_b   12.56289642
_cell_length_c   3.98167600
_cell_angle_alpha   90.00000000
_cell_angle_beta   90.00000000
_cell_angle_gamma   120.23283067
_symmetry_Int_Tables_number   1
_chemical_formula_structural   Y5P12Pd2Ru17
_chemical_formula_sum   'Y5 P12 Pd2 Ru17'
_cell_volume   546.75776060
_cell_formula_units_Z   1
loop_
 _symmetry_equiv_pos_site_id
 _symmetry_equiv_pos_as_xyz
  1  'x, y, z'
loop_
 _atom_site_type_symbol
 _atom_site_label
 _atom_site_symmetry_multiplicity
 _atom_site_fract_x
 _atom_site_fract_y
 _atom_site_fract_z
 _atom_site_occupancy
  Y  Y0  1  0.000555  0.182267  0.500000  1
  Y  Y1  1  0.818288  0.817733  0.500000  1
  Y  Y2  1  0.183279  0.000000  0.500000  1
  Y  Y3  1  0.664093  0.327815  0.000000  1
  Y  Y4  1  0.336276  0.672185  0.000000  1
  P  P5  1  0.998277  0.812216  0.000000  1
  P  P6  1  0.186061  0.187784  0.000000  1
  P  P7  1  0.817619  0.000000  0.000000  1
  P  P8  1  0.692800  0.169788  0.500000  1
  P  P9  1  0.818565  0.517332  0.500000  1
  P  P10  1  0.477013  0.299853  0.500000  1
  P  P11  1  0.177161  0.700147  0.500000  1
  P  P12  1  0.523012  0.830212  0.500000  1
  P  P13  1  0.301233  0.482668  0.500000  1
  P  P14  1  0.000574  0.366543  0.000000  1
  P  P15  1  0.634031  0.633457  0.000000  1
  P  P16  1  0.374315  0.000000  0.000000  1
  Pd  Pd17  1  0.999428  0.552430  0.000000  1
  Pd  Pd18  1  0.446997  0.447570  0.000000  1
  Ru  Ru19  1  0.555588  0.000000  0.000000  1
  Ru  Ru20  1  0.997927  0.711740  0.500000  1
  Ru  Ru21  1  0.286187  0.288260  0.500000  1
  Ru  Ru22  1  0.717991  0.000000  0.500000  1
  Ru  Ru23  1  0.808511  0.184840  0.000000  1
  Ru  Ru24  1  0.812835  0.618387  0.000000  1
  Ru  Ru25  1  0.376167  0.191524  0.000000  1
  Ru  Ru26  1  0.184644  0.808476  0.000000  1
  Ru  Ru27  1  0.623672  0.815160  0.000000  1
  Ru  Ru28  1  0.194450  0.381613  0.000000  1
  Ru  Ru29  1  0.871623  0.365249  0.500000  1
  Ru  Ru30  1  0.629834  0.507246  0.500000  1
  Ru  Ru31  1  0.491897  0.124015  0.500000  1
  Ru  Ru32  1  0.367882  0.875985  0.500000  1
  Ru  Ru33  1  0.506374  0.634751  0.500000  1
  Ru  Ru34  1  0.122588  0.492754  0.500000  1
  Ru  Ru35  1  0.002254  0.000000  0.000000  1
