# generated using pymatgen
data_Nd2Er2TcB12Ru
_symmetry_space_group_name_H-M   'P 1'
_cell_length_a   3.71442600
_cell_length_b   9.20946995
_cell_length_c   11.66117102
_cell_angle_alpha   89.86510654
_cell_angle_beta   90.00000000
_cell_angle_gamma   90.00000000
_symmetry_Int_Tables_number   1
_chemical_formula_structural   Nd2Er2TcB12Ru
_chemical_formula_sum   'Nd4 Er4 Tc2 B24 Ru2'
_cell_volume   398.90300413
_cell_formula_units_Z   2
loop_
 _symmetry_equiv_pos_site_id
 _symmetry_equiv_pos_as_xyz
  1  'x, y, z'
loop_
 _atom_site_type_symbol
 _atom_site_label
 _atom_site_symmetry_multiplicity
 _atom_site_fract_x
 _atom_site_fract_y
 _atom_site_fract_z
 _atom_site_occupancy
  Nd  Nd0  1  0.000000  0.324270  0.415217  1
  Nd  Nd1  1  0.000000  0.675730  0.584783  1
  Nd  Nd2  1  0.000000  0.821615  0.086772  1
  Nd  Nd3  1  0.000000  0.178385  0.913228  1
  Er  Er4  1  0.000000  0.942053  0.370072  1
  Er  Er5  1  0.000000  0.057947  0.629928  1
  Er  Er6  1  0.000000  0.443549  0.130483  1
  Er  Er7  1  0.000000  0.556451  0.869517  1
  Tc  Tc8  1  0.000000  0.639948  0.318498  1
  Tc  Tc9  1  0.000000  0.360052  0.681502  1
  B  B10  1  0.500000  0.555140  0.430471  1
  B  B11  1  0.500000  0.444860  0.569529  1
  B  B12  1  0.500000  0.055992  0.069667  1
  B  B13  1  0.500000  0.944008  0.930333  1
  B  B14  1  0.500000  0.749971  0.416439  1
  B  B15  1  0.500000  0.250029  0.583561  1
  B  B16  1  0.500000  0.250117  0.083513  1
  B  B17  1  0.500000  0.749883  0.916487  1
  B  B18  1  0.500000  0.791044  0.266077  1
  B  B19  1  0.500000  0.208956  0.733923  1
  B  B20  1  0.500000  0.290244  0.233522  1
  B  B21  1  0.500000  0.709756  0.766478  1
  B  B22  1  0.500000  0.630012  0.185656  1
  B  B23  1  0.500000  0.369988  0.814344  1
  B  B24  1  0.500000  0.129621  0.313614  1
  B  B25  1  0.500000  0.870379  0.686386  1
  B  B26  1  0.500000  0.984867  0.213201  1
  B  B27  1  0.500000  0.015133  0.786799  1
  B  B28  1  0.500000  0.484447  0.286271  1
  B  B29  1  0.500000  0.515553  0.713729  1
  B  B30  1  0.500000  0.599003  0.026938  1
  B  B31  1  0.500000  0.400997  0.973062  1
  B  B32  1  0.500000  0.098521  0.472847  1
  B  B33  1  0.500000  0.901479  0.527153  1
  Ru  Ru34  1  0.000000  0.139276  0.180585  1
  Ru  Ru35  1  0.000000  0.860724  0.819415  1
