# generated using pymatgen
data_Tb4YbHo2PtI12
_symmetry_space_group_name_H-M   'P 1'
_cell_length_a   9.80411160
_cell_length_b   9.80024819
_cell_length_c   9.80763176
_cell_angle_alpha   106.98307817
_cell_angle_beta   107.00726750
_cell_angle_gamma   106.95015296
_symmetry_Int_Tables_number   1
_chemical_formula_structural   Tb4YbHo2PtI12
_chemical_formula_sum   'Tb4 Yb1 Ho2 Pt1 I12'
_cell_volume   785.21717454
_cell_formula_units_Z   1
loop_
 _symmetry_equiv_pos_site_id
 _symmetry_equiv_pos_as_xyz
  1  'x, y, z'
loop_
 _atom_site_type_symbol
 _atom_site_label
 _atom_site_symmetry_multiplicity
 _atom_site_fract_x
 _atom_site_fract_y
 _atom_site_fract_z
 _atom_site_occupancy
  Tb  Tb0  1  0.401435  0.473616  0.197025  1
  Tb  Tb1  1  0.196974  0.401519  0.473163  1
  Tb  Tb2  1  0.473428  0.196890  0.400889  1
  Tb  Tb3  1  0.599649  0.527541  0.803422  1
  Yb  Yb4  1  0.000026  0.000041  0.999962  1
  Ho  Ho5  1  0.800920  0.598791  0.527203  1
  Ho  Ho6  1  0.527522  0.801111  0.598332  1
  Pt  Pt7  1  0.500254  0.500224  0.500134  1
  I  I8  1  0.039508  0.346845  0.117210  1
  I  I9  1  0.117214  0.039514  0.346728  1
  I  I10  1  0.346765  0.117144  0.039463  1
  I  I11  1  0.960534  0.653147  0.881499  1
  I  I12  1  0.881624  0.958929  0.652606  1
  I  I13  1  0.652655  0.883049  0.959037  1
  I  I14  1  0.725331  0.574203  0.179874  1
  I  I15  1  0.178490  0.724805  0.573941  1
  I  I16  1  0.573680  0.177144  0.723964  1
  I  I17  1  0.275539  0.426095  0.821312  1
  I  I18  1  0.821734  0.277523  0.426718  1
  I  I19  1  0.426715  0.821868  0.277515  1
