# generated using pymatgen
data_NdSm2Pa3(Ni3Bi4)2
_symmetry_space_group_name_H-M   'P 1'
_cell_length_a   8.40676636
_cell_length_b   8.42118735
_cell_length_c   8.40676574
_cell_angle_alpha   109.61257761
_cell_angle_beta   109.38796711
_cell_angle_gamma   109.34372105
_symmetry_Int_Tables_number   1
_chemical_formula_structural   NdSm2Pa3(Ni3Bi4)2
_chemical_formula_sum   'Nd1 Sm2 Pa3 Ni6 Bi8'
_cell_volume   458.54154437
_cell_formula_units_Z   1
loop_
 _symmetry_equiv_pos_site_id
 _symmetry_equiv_pos_as_xyz
  1  'x, y, z'
loop_
 _atom_site_type_symbol
 _atom_site_label
 _atom_site_symmetry_multiplicity
 _atom_site_fract_x
 _atom_site_fract_y
 _atom_site_fract_z
 _atom_site_occupancy
  Nd  Nd0  1  0.627467  0.750000  0.377467  1
  Sm  Sm1  1  0.251445  0.126852  0.876772  1
  Sm  Sm2  1  0.749920  0.373148  0.624592  1
  Pa  Pa3  1  0.125509  0.878882  0.249912  1
  Pa  Pa4  1  0.371031  0.621118  0.746628  1
  Pa  Pa5  1  0.871667  0.250000  0.121667  1
  Ni  Ni6  1  0.643160  0.360796  0.237250  1
  Ni  Ni7  1  0.876454  0.139204  0.782365  1
  Ni  Ni8  1  0.367394  0.250000  0.617394  1
  Ni  Ni9  1  0.130282  0.750000  0.880282  1
  Ni  Ni10  1  0.231742  0.612180  0.370728  1
  Ni  Ni11  1  0.758549  0.887820  0.119561  1
  Bi  Bi12  1  0.337536  0.334568  0.332248  1
  Bi  Bi13  1  0.166974  0.503044  0.001546  1
  Bi  Bi14  1  0.997681  0.165432  0.502969  1
  Bi  Bi15  1  0.835885  0.832553  0.832944  1
  Bi  Bi16  1  0.498501  0.996956  0.163930  1
  Bi  Bi17  1  0.664257  0.503042  0.997200  1
  Bi  Bi18  1  0.494158  0.996958  0.661215  1
  Bi  Bi19  1  0.000391  0.667447  0.503332  1
