# generated using pymatgen
data_Er6Al24CoRu7
_symmetry_space_group_name_H-M   'P 1'
_cell_length_a   8.75898800
_cell_length_b   8.75898740
_cell_length_c   9.51637300
_cell_angle_alpha   90.00000000
_cell_angle_beta   90.00000000
_cell_angle_gamma   119.99999473
_symmetry_Int_Tables_number   1
_chemical_formula_structural   Er6Al24CoRu7
_chemical_formula_sum   'Er6 Al24 Co1 Ru7'
_cell_volume   632.28072659
_cell_formula_units_Z   1
loop_
 _symmetry_equiv_pos_site_id
 _symmetry_equiv_pos_as_xyz
  1  'x, y, z'
loop_
 _atom_site_type_symbol
 _atom_site_label
 _atom_site_symmetry_multiplicity
 _atom_site_fract_x
 _atom_site_fract_y
 _atom_site_fract_z
 _atom_site_occupancy
  Er  Er0  1  0.193820  0.387639  0.250044  1
  Er  Er1  1  0.806180  0.612361  0.749956  1
  Er  Er2  1  0.612361  0.806180  0.250044  1
  Er  Er3  1  0.387639  0.193820  0.749956  1
  Er  Er4  1  0.193820  0.806180  0.250044  1
  Er  Er5  1  0.806180  0.193820  0.749956  1
  Al  Al6  1  0.333333  0.666667  0.016015  1
  Al  Al7  1  0.666667  0.333333  0.983985  1
  Al  Al8  1  0.666667  0.333333  0.516969  1
  Al  Al9  1  0.333333  0.666667  0.483031  1
  Al  Al10  1  0.161848  0.323696  0.577894  1
  Al  Al11  1  0.838152  0.676304  0.422106  1
  Al  Al12  1  0.676304  0.838152  0.577894  1
  Al  Al13  1  0.839983  0.679967  0.076731  1
  Al  Al14  1  0.323696  0.161848  0.422106  1
  Al  Al15  1  0.160017  0.320033  0.923269  1
  Al  Al16  1  0.161848  0.838152  0.577894  1
  Al  Al17  1  0.320033  0.160017  0.076731  1
  Al  Al18  1  0.838152  0.161848  0.422106  1
  Al  Al19  1  0.679967  0.839983  0.923269  1
  Al  Al20  1  0.839983  0.160017  0.076731  1
  Al  Al21  1  0.160017  0.839983  0.923269  1
  Al  Al22  1  0.560850  0.121699  0.249581  1
  Al  Al23  1  0.439150  0.878301  0.750419  1
  Al  Al24  1  0.878301  0.439150  0.249581  1
  Al  Al25  1  0.121699  0.560850  0.750419  1
  Al  Al26  1  0.560850  0.439150  0.249581  1
  Al  Al27  1  0.439150  0.560850  0.750419  1
  Al  Al28  1  0.000000  0.000000  0.243777  1
  Al  Al29  1  0.000000  0.000000  0.756223  1
  Co  Co30  1  0.000000  0.000000  0.000000  1
  Ru  Ru31  1  0.500000  0.000000  0.000000  1
  Ru  Ru32  1  0.000000  0.500000  0.000000  1
  Ru  Ru33  1  0.500000  0.000000  0.500000  1
  Ru  Ru34  1  0.500000  0.500000  0.000000  1
  Ru  Ru35  1  0.000000  0.500000  0.500000  1
  Ru  Ru36  1  0.500000  0.500000  0.500000  1
  Ru  Ru37  1  0.000000  0.000000  0.500000  1
