# generated using pymatgen
data_Pr3Gd(BeSi3)2
_symmetry_space_group_name_H-M   'P 1'
_cell_length_a   8.12627571
_cell_length_b   7.93328033
_cell_length_c   5.87482100
_cell_angle_alpha   70.30497227
_cell_angle_beta   66.80064107
_cell_angle_gamma   42.89440681
_symmetry_Int_Tables_number   1
_chemical_formula_structural   Pr3Gd(BeSi3)2
_chemical_formula_sum   'Pr3 Gd1 Be2 Si6'
_cell_volume   236.23245055
_cell_formula_units_Z   1
loop_
 _symmetry_equiv_pos_site_id
 _symmetry_equiv_pos_as_xyz
  1  'x, y, z'
loop_
 _atom_site_type_symbol
 _atom_site_label
 _atom_site_symmetry_multiplicity
 _atom_site_fract_x
 _atom_site_fract_y
 _atom_site_fract_z
 _atom_site_occupancy
  Pr  Pr0  1  0.250000  0.250000  0.250001  1
  Pr  Pr1  1  0.245834  0.754166  0.245835  1
  Pr  Pr2  1  0.754166  0.245835  0.754167  1
  Gd  Gd3  1  0.750001  0.749999  0.750000  1
  Be  Be4  1  0.666517  0.666518  0.333483  1
  Be  Be5  1  0.333482  0.333483  0.666518  1
  Si  Si6  1  0.823351  0.350132  0.170990  1
  Si  Si7  1  0.827246  0.827246  0.172755  1
  Si  Si8  1  0.655528  0.170990  0.350132  1
  Si  Si9  1  0.350132  0.823351  0.655529  1
  Si  Si10  1  0.172754  0.172755  0.827247  1
  Si  Si11  1  0.170989  0.655529  0.823351  1
