# generated using pymatgen
data_SmErTh2(Al3Rh)6
_symmetry_space_group_name_H-M   'P 1'
_cell_length_a   7.62645509
_cell_length_b   7.63482717
_cell_length_c   9.51381000
_cell_angle_alpha   90.00000000
_cell_angle_beta   90.00000000
_cell_angle_gamma   119.43119727
_symmetry_Int_Tables_number   1
_chemical_formula_structural   SmErTh2(Al3Rh)6
_chemical_formula_sum   'Sm1 Er1 Th2 Al18 Rh6'
_cell_volume   482.46723323
_cell_formula_units_Z   1
loop_
 _symmetry_equiv_pos_site_id
 _symmetry_equiv_pos_as_xyz
  1  'x, y, z'
loop_
 _atom_site_type_symbol
 _atom_site_label
 _atom_site_symmetry_multiplicity
 _atom_site_fract_x
 _atom_site_fract_y
 _atom_site_fract_z
 _atom_site_occupancy
  Sm  Sm0  1  0.004625  0.328548  0.250000  1
  Er  Er1  1  0.327824  0.005656  0.250000  1
  Th  Th2  1  0.994936  0.671208  0.750000  1
  Th  Th3  1  0.671200  0.994404  0.750000  1
  Al  Al4  1  0.135420  0.133878  0.750000  1
  Al  Al5  1  0.873846  0.873933  0.250000  1
  Al  Al6  1  0.005912  0.335539  0.570710  1
  Al  Al7  1  0.000743  0.665858  0.418207  1
  Al  Al8  1  0.000743  0.665858  0.081793  1
  Al  Al9  1  0.335485  0.004930  0.931467  1
  Al  Al10  1  0.005912  0.335539  0.929290  1
  Al  Al11  1  0.662955  0.999709  0.081710  1
  Al  Al12  1  0.662955  0.999709  0.418290  1
  Al  Al13  1  0.335485  0.004930  0.568533  1
  Al  Al14  1  0.332782  0.332147  0.055893  1
  Al  Al15  1  0.663209  0.663021  0.958479  1
  Al  Al16  1  0.663209  0.663021  0.541521  1
  Al  Al17  1  0.332782  0.332147  0.444107  1
  Al  Al18  1  0.340705  0.543573  0.750000  1
  Al  Al19  1  0.657724  0.447415  0.250000  1
  Al  Al20  1  0.543802  0.338349  0.750000  1
  Al  Al21  1  0.447600  0.659953  0.250000  1
  Rh  Rh22  1  0.672828  0.328686  0.501477  1
  Rh  Rh23  1  0.328732  0.673204  0.501694  1
  Rh  Rh24  1  0.328732  0.673204  0.998306  1
  Rh  Rh25  1  0.672828  0.328686  0.998523  1
  Rh  Rh26  1  0.998513  0.998447  0.501804  1
  Rh  Rh27  1  0.998513  0.998447  0.998196  1
