# generated using pymatgen
data_Ni4Ge2Mo6CN
_symmetry_space_group_name_H-M   'P 1'
_cell_length_a   7.89642409
_cell_length_b   7.89642314
_cell_length_c   7.91382900
_cell_angle_alpha   59.92706066
_cell_angle_beta   59.92706463
_cell_angle_gamma   59.85407974
_symmetry_Int_Tables_number   1
_chemical_formula_structural   Ni4Ge2Mo6CN
_chemical_formula_sum   'Ni8 Ge4 Mo12 C2 N2'
_cell_volume   348.15505337
_cell_formula_units_Z   2
loop_
 _symmetry_equiv_pos_site_id
 _symmetry_equiv_pos_as_xyz
  1  'x, y, z'
loop_
 _atom_site_type_symbol
 _atom_site_label
 _atom_site_symmetry_multiplicity
 _atom_site_fract_x
 _atom_site_fract_y
 _atom_site_fract_z
 _atom_site_occupancy
  Ni  Ni0  1  0.916228  0.916228  0.251379  1
  Ni  Ni1  1  0.333772  0.333772  0.333834  1
  Ni  Ni2  1  0.250633  0.916632  0.916368  1
  Ni  Ni3  1  0.333368  0.999367  0.333632  1
  Ni  Ni4  1  0.999367  0.333368  0.333632  1
  Ni  Ni5  1  0.333772  0.333772  0.998621  1
  Ni  Ni6  1  0.916228  0.916228  0.916166  1
  Ni  Ni7  1  0.916632  0.250633  0.916368  1
  Ge  Ge8  1  0.125000  0.125000  0.125000  1
  Ge  Ge9  1  0.625000  0.125000  0.125000  1
  Ge  Ge10  1  0.125000  0.125000  0.625000  1
  Ge  Ge11  1  0.125000  0.625000  0.125000  1
  Mo  Mo12  1  0.691603  0.309461  0.309474  1
  Mo  Mo13  1  0.939435  0.939435  0.560565  1
  Mo  Mo14  1  0.691418  0.691418  0.308582  1
  Mo  Mo15  1  0.691603  0.309461  0.689461  1
  Mo  Mo16  1  0.309461  0.691603  0.309474  1
  Mo  Mo17  1  0.558397  0.940539  0.560539  1
  Mo  Mo18  1  0.558397  0.940539  0.940526  1
  Mo  Mo19  1  0.940539  0.558397  0.560539  1
  Mo  Mo20  1  0.940539  0.558397  0.940526  1
  Mo  Mo21  1  0.310565  0.310565  0.689435  1
  Mo  Mo22  1  0.558582  0.558582  0.941418  1
  Mo  Mo23  1  0.309461  0.691603  0.689461  1
  C  C24  1  0.625000  0.625000  0.625000  1
  C  C25  1  0.625000  0.625000  0.125000  1
  N  N26  1  0.125000  0.625000  0.625000  1
  N  N27  1  0.625000  0.125000  0.625000  1
