# generated using pymatgen
data_Nd3MgCd2Sn2Pt
_symmetry_space_group_name_H-M   'P 1'
_cell_length_a   7.51020700
_cell_length_b   7.56847311
_cell_length_c   4.68459600
_cell_angle_alpha   90.00000000
_cell_angle_beta   90.00000000
_cell_angle_gamma   119.74567286
_symmetry_Int_Tables_number   1
_chemical_formula_structural   Nd3MgCd2Sn2Pt
_chemical_formula_sum   'Nd3 Mg1 Cd2 Sn2 Pt1'
_cell_volume   231.19064480
_cell_formula_units_Z   1
loop_
 _symmetry_equiv_pos_site_id
 _symmetry_equiv_pos_as_xyz
  1  'x, y, z'
loop_
 _atom_site_type_symbol
 _atom_site_label
 _atom_site_symmetry_multiplicity
 _atom_site_fract_x
 _atom_site_fract_y
 _atom_site_fract_z
 _atom_site_occupancy
  Nd  Nd0  1  0.397209  0.398700  0.000000  1
  Nd  Nd1  1  0.607885  0.000000  0.000000  1
  Nd  Nd2  1  0.998510  0.601300  0.000000  1
  Mg  Mg3  1  0.222024  0.000000  0.500000  1
  Cd  Cd4  1  0.001295  0.235491  0.500000  1
  Cd  Cd5  1  0.765805  0.764509  0.500000  1
  Sn  Sn6  1  0.661393  0.328638  0.500000  1
  Sn  Sn7  1  0.332754  0.671362  0.500000  1
  Pt  Pt8  1  0.013126  0.000000  0.000000  1
