# generated using pymatgen
data_Pr3YLu4(ReB6)4
_symmetry_space_group_name_H-M   'P 1'
_cell_length_a   3.69298800
_cell_length_b   9.18507209
_cell_length_c   11.64007611
_cell_angle_alpha   90.01565108
_cell_angle_beta   90.00000000
_cell_angle_gamma   90.00000000
_symmetry_Int_Tables_number   1
_chemical_formula_structural   Pr3YLu4(ReB6)4
_chemical_formula_sum   'Pr3 Y1 Lu4 Re4 B24'
_cell_volume   394.83556884
_cell_formula_units_Z   1
loop_
 _symmetry_equiv_pos_site_id
 _symmetry_equiv_pos_as_xyz
  1  'x, y, z'
loop_
 _atom_site_type_symbol
 _atom_site_label
 _atom_site_symmetry_multiplicity
 _atom_site_fract_x
 _atom_site_fract_y
 _atom_site_fract_z
 _atom_site_occupancy
  Pr  Pr0  1  0.000000  0.677265  0.584859  1
  Pr  Pr1  1  0.000000  0.822560  0.085788  1
  Pr  Pr2  1  0.000000  0.177791  0.914784  1
  Y  Y3  1  0.000000  0.323377  0.414534  1
  Lu  Lu4  1  0.000000  0.943594  0.369971  1
  Lu  Lu5  1  0.000000  0.057015  0.629718  1
  Lu  Lu6  1  0.000000  0.443142  0.131198  1
  Lu  Lu7  1  0.000000  0.556407  0.868838  1
  Re  Re8  1  0.000000  0.638985  0.318797  1
  Re  Re9  1  0.000000  0.359431  0.679970  1
  Re  Re10  1  0.000000  0.141896  0.183493  1
  Re  Re11  1  0.000000  0.859287  0.818111  1
  B  B12  1  0.500000  0.553254  0.430092  1
  B  B13  1  0.500000  0.443410  0.567777  1
  B  B14  1  0.500000  0.056519  0.071395  1
  B  B15  1  0.500000  0.944196  0.929487  1
  B  B16  1  0.500000  0.751117  0.415081  1
  B  B17  1  0.500000  0.248120  0.581916  1
  B  B18  1  0.500000  0.252036  0.085926  1
  B  B19  1  0.500000  0.747985  0.915181  1
  B  B20  1  0.500000  0.792228  0.266246  1
  B  B21  1  0.500000  0.207534  0.732905  1
  B  B22  1  0.500000  0.293790  0.236492  1
  B  B23  1  0.500000  0.707234  0.765471  1
  B  B24  1  0.500000  0.628220  0.186144  1
  B  B25  1  0.500000  0.370632  0.813702  1
  B  B26  1  0.500000  0.130793  0.316799  1
  B  B27  1  0.500000  0.871201  0.685074  1
  B  B28  1  0.500000  0.984510  0.215118  1
  B  B29  1  0.500000  0.016545  0.785430  1
  B  B30  1  0.500000  0.481426  0.287278  1
  B  B31  1  0.500000  0.515758  0.713078  1
  B  B32  1  0.500000  0.594131  0.025939  1
  B  B33  1  0.500000  0.405526  0.974324  1
  B  B34  1  0.500000  0.097515  0.473406  1
  B  B35  1  0.500000  0.905568  0.525678  1
