# generated using pymatgen
data_Yb2Si6Pd20Pb
_symmetry_space_group_name_H-M   'P 1'
_cell_length_a   8.71259169
_cell_length_b   8.71259148
_cell_length_c   8.71132630
_cell_angle_alpha   59.98027826
_cell_angle_beta   59.98027877
_cell_angle_gamma   59.95756831
_symmetry_Int_Tables_number   1
_chemical_formula_structural   Yb2Si6Pd20Pb
_chemical_formula_sum   'Yb2 Si6 Pd20 Pb1'
_cell_volume   467.29926093
_cell_formula_units_Z   1
loop_
 _symmetry_equiv_pos_site_id
 _symmetry_equiv_pos_as_xyz
  1  'x, y, z'
loop_
 _atom_site_type_symbol
 _atom_site_label
 _atom_site_symmetry_multiplicity
 _atom_site_fract_x
 _atom_site_fract_y
 _atom_site_fract_z
 _atom_site_occupancy
  Yb  Yb0  1  0.750003  0.750003  0.750038  1
  Yb  Yb1  1  0.999989  0.999989  0.999993  1
  Si  Si2  1  0.730122  0.269975  0.269958  1
  Si  Si3  1  0.269888  0.730036  0.730029  1
  Si  Si4  1  0.269975  0.730122  0.269958  1
  Si  Si5  1  0.730036  0.269888  0.730029  1
  Si  Si6  1  0.269936  0.269936  0.730151  1
  Si  Si7  1  0.730068  0.730068  0.269847  1
  Pd  Pd8  1  0.381838  0.381838  0.381968  1
  Pd  Pd9  1  0.615469  0.615469  0.615613  1
  Pd  Pd10  1  0.381969  0.381969  0.854252  1
  Pd  Pd11  1  0.381951  0.854309  0.381837  1
  Pd  Pd12  1  0.615487  0.615487  0.153565  1
  Pd  Pd13  1  0.615479  0.153551  0.615444  1
  Pd  Pd14  1  0.854309  0.381951  0.381837  1
  Pd  Pd15  1  0.153551  0.615479  0.615444  1
  Pd  Pd16  1  0.345288  0.997186  0.997253  1
  Pd  Pd17  1  0.660041  0.997426  0.997385  1
  Pd  Pd18  1  0.997235  0.345158  0.660329  1
  Pd  Pd19  1  0.997372  0.660247  0.345053  1
  Pd  Pd20  1  0.997186  0.345288  0.997253  1
  Pd  Pd21  1  0.660247  0.997372  0.345053  1
  Pd  Pd22  1  0.997426  0.660041  0.997385  1
  Pd  Pd23  1  0.345158  0.997235  0.660329  1
  Pd  Pd24  1  0.997207  0.997207  0.345305  1
  Pd  Pd25  1  0.997324  0.997324  0.660167  1
  Pd  Pd26  1  0.660373  0.345092  0.997246  1
  Pd  Pd27  1  0.345092  0.660373  0.997246  1
  Pb  Pb28  1  0.249979  0.249979  0.250035  1
