# generated using pymatgen
data_Nd10B2Br15
_symmetry_space_group_name_H-M   'P 1'
_cell_length_a   9.41472777
_cell_length_b   10.22133549
_cell_length_c   11.05649443
_cell_angle_alpha   91.03063483
_cell_angle_beta   114.57721903
_cell_angle_gamma   110.88575600
_symmetry_Int_Tables_number   1
_chemical_formula_structural   Nd10B2Br15
_chemical_formula_sum   'Nd10 B2 Br15'
_cell_volume   886.52920579
_cell_formula_units_Z   1
loop_
 _symmetry_equiv_pos_site_id
 _symmetry_equiv_pos_as_xyz
  1  'x, y, z'
loop_
 _atom_site_type_symbol
 _atom_site_label
 _atom_site_symmetry_multiplicity
 _atom_site_fract_x
 _atom_site_fract_y
 _atom_site_fract_z
 _atom_site_occupancy
  Nd  Nd0  1  0.801970  0.409870  0.276825  1
  Nd  Nd1  1  0.198030  0.590130  0.723175  1
  Nd  Nd2  1  0.675949  0.745987  0.820807  1
  Nd  Nd3  1  0.324051  0.254013  0.179193  1
  Nd  Nd4  1  0.525822  0.703972  0.096279  1
  Nd  Nd5  1  0.474178  0.296028  0.903721  1
  Nd  Nd6  1  0.586235  0.039534  0.325457  1
  Nd  Nd7  1  0.413765  0.960466  0.674543  1
  Nd  Nd8  1  0.725765  0.075502  0.048827  1
  Nd  Nd9  1  0.274235  0.924498  0.951173  1
  B  B10  1  0.466926  0.818267  0.876028  1
  B  B11  1  0.533074  0.181733  0.123972  1
  Br  Br12  1  0.000000  0.000000  0.000000  1
  Br  Br13  1  0.637667  0.882837  0.584641  1
  Br  Br14  1  0.362333  0.117163  0.415359  1
  Br  Br15  1  0.883449  0.299240  0.527823  1
  Br  Br16  1  0.116551  0.700760  0.472177  1
  Br  Br17  1  0.290206  0.762061  0.179923  1
  Br  Br18  1  0.709794  0.237939  0.820077  1
  Br  Br19  1  0.055706  0.342496  0.226881  1
  Br  Br20  1  0.164747  0.057800  0.702969  1
  Br  Br21  1  0.835253  0.942200  0.297031  1
  Br  Br22  1  0.231224  0.410280  0.943552  1
  Br  Br23  1  0.768776  0.589720  0.056448  1
  Br  Br24  1  0.408598  0.463574  0.660122  1
  Br  Br25  1  0.591402  0.536426  0.339878  1
  Br  Br26  1  0.944294  0.657504  0.773119  1
