# generated using pymatgen
data_Y12Er4Cd4OsPt3
_symmetry_space_group_name_H-M   'P 1'
_cell_length_a   9.70896461
_cell_length_b   9.70896584
_cell_length_c   9.70896483
_cell_angle_alpha   59.60935543
_cell_angle_beta   59.60935719
_cell_angle_gamma   59.60935654
_symmetry_Int_Tables_number   1
_chemical_formula_structural   Y12Er4Cd4OsPt3
_chemical_formula_sum   'Y12 Er4 Cd4 Os1 Pt3'
_cell_volume   641.40268923
_cell_formula_units_Z   1
loop_
 _symmetry_equiv_pos_site_id
 _symmetry_equiv_pos_as_xyz
  1  'x, y, z'
loop_
 _atom_site_type_symbol
 _atom_site_label
 _atom_site_symmetry_multiplicity
 _atom_site_fract_x
 _atom_site_fract_y
 _atom_site_fract_z
 _atom_site_occupancy
  Y  Y0  1  0.814267  0.189435  0.189435  1
  Y  Y1  1  0.189573  0.809342  0.809342  1
  Y  Y2  1  0.189435  0.814267  0.189435  1
  Y  Y3  1  0.809342  0.189573  0.809342  1
  Y  Y4  1  0.189435  0.189435  0.814267  1
  Y  Y5  1  0.809342  0.809342  0.189573  1
  Y  Y6  1  0.935936  0.564825  0.564825  1
  Y  Y7  1  0.558514  0.937898  0.937898  1
  Y  Y8  1  0.564825  0.935936  0.564825  1
  Y  Y9  1  0.937898  0.558514  0.937898  1
  Y  Y10  1  0.564825  0.564825  0.935936  1
  Y  Y11  1  0.937898  0.937898  0.558514  1
  Er  Er12  1  0.351340  0.351340  0.351340  1
  Er  Er13  1  0.349456  0.349456  0.949042  1
  Er  Er14  1  0.349456  0.949042  0.349456  1
  Er  Er15  1  0.949042  0.349456  0.349456  1
  Cd  Cd16  1  0.580510  0.580510  0.580510  1
  Cd  Cd17  1  0.581071  0.581071  0.254847  1
  Cd  Cd18  1  0.581071  0.254847  0.581071  1
  Cd  Cd19  1  0.254847  0.581071  0.581071  1
  Os  Os20  1  0.143889  0.143889  0.143889  1
  Pt  Pt21  1  0.144228  0.144228  0.569575  1
  Pt  Pt22  1  0.144228  0.569575  0.144228  1
  Pt  Pt23  1  0.569575  0.144228  0.144228  1
