# generated using pymatgen
data_In4PdPt3O14
_symmetry_space_group_name_H-M   'P 1'
_cell_length_a   7.15549213
_cell_length_b   7.15549202
_cell_length_c   7.16468295
_cell_angle_alpha   60.04242440
_cell_angle_beta   60.04242109
_cell_angle_gamma   60.00000525
_symmetry_Int_Tables_number   1
_chemical_formula_structural   In4PdPt3O14
_chemical_formula_sum   'In4 Pd1 Pt3 O14'
_cell_volume   259.56084964
_cell_formula_units_Z   1
loop_
 _symmetry_equiv_pos_site_id
 _symmetry_equiv_pos_as_xyz
  1  'x, y, z'
loop_
 _atom_site_type_symbol
 _atom_site_label
 _atom_site_symmetry_multiplicity
 _atom_site_fract_x
 _atom_site_fract_y
 _atom_site_fract_z
 _atom_site_occupancy
  In  In0  1  0.125000  0.125000  0.125000  1
  In  In1  1  0.625000  0.125000  0.125000  1
  In  In2  1  0.125000  0.625000  0.125000  1
  In  In3  1  0.125000  0.125000  0.625000  1
  Pd  Pd4  1  0.625000  0.625000  0.125000  1
  Pt  Pt5  1  0.625000  0.125000  0.625000  1
  Pt  Pt6  1  0.125000  0.625000  0.625000  1
  Pt  Pt7  1  0.625000  0.625000  0.625000  1
  O  O8  1  0.250063  0.250063  0.249810  1
  O  O9  1  0.717061  0.281989  0.283889  1
  O  O10  1  0.717693  0.282450  0.717406  1
  O  O11  1  0.281989  0.717061  0.283889  1
  O  O12  1  0.717061  0.717061  0.283889  1
  O  O13  1  0.282450  0.282450  0.717406  1
  O  O14  1  0.967550  0.532307  0.532594  1
  O  O15  1  0.282450  0.717693  0.717406  1
  O  O16  1  0.967550  0.967550  0.532594  1
  O  O17  1  0.532307  0.967550  0.532594  1
  O  O18  1  0.532939  0.532939  0.966111  1
  O  O19  1  0.968011  0.532939  0.966111  1
  O  O20  1  0.532939  0.968011  0.966111  1
  O  O21  1  0.999937  0.999937  0.000190  1
