# generated using pymatgen
data_Sc2Ga7CoAg
_symmetry_space_group_name_H-M   'P 1'
_cell_length_a   4.14173300
_cell_length_b   4.15340700
_cell_length_c   10.83677000
_cell_angle_alpha   90.00000000
_cell_angle_beta   90.00000000
_cell_angle_gamma   90.00000000
_symmetry_Int_Tables_number   1
_chemical_formula_structural   Sc2Ga7CoAg
_chemical_formula_sum   'Sc2 Ga7 Co1 Ag1'
_cell_volume   186.41739929
_cell_formula_units_Z   1
loop_
 _symmetry_equiv_pos_site_id
 _symmetry_equiv_pos_as_xyz
  1  'x, y, z'
loop_
 _atom_site_type_symbol
 _atom_site_label
 _atom_site_symmetry_multiplicity
 _atom_site_fract_x
 _atom_site_fract_y
 _atom_site_fract_z
 _atom_site_occupancy
  Sc  Sc0  1  0.000000  0.000000  0.298786  1
  Sc  Sc1  1  0.000000  0.000000  0.701214  1
  Ga  Ga2  1  0.000000  0.500000  0.121003  1
  Ga  Ga3  1  0.000000  0.500000  0.878997  1
  Ga  Ga4  1  0.500000  0.000000  0.120921  1
  Ga  Ga5  1  0.500000  0.000000  0.879079  1
  Ga  Ga6  1  0.500000  0.500000  0.310663  1
  Ga  Ga7  1  0.500000  0.500000  0.689337  1
  Ga  Ga8  1  0.500000  0.000000  0.500000  1
  Co  Co9  1  0.000000  0.000000  0.000000  1
  Ag  Ag10  1  0.000000  0.500000  0.500000  1
