# generated using pymatgen
data_Tb3Pa(Al3Ir)6
_symmetry_space_group_name_H-M   'P 1'
_cell_length_a   7.58327394
_cell_length_b   7.57725867
_cell_length_c   9.43996800
_cell_angle_alpha   90.00000000
_cell_angle_beta   90.00000000
_cell_angle_gamma   119.58839682
_symmetry_Int_Tables_number   1
_chemical_formula_structural   Tb3Pa(Al3Ir)6
_chemical_formula_sum   'Tb3 Pa1 Al18 Ir6'
_cell_volume   471.68969115
_cell_formula_units_Z   1
loop_
 _symmetry_equiv_pos_site_id
 _symmetry_equiv_pos_as_xyz
  1  'x, y, z'
loop_
 _atom_site_type_symbol
 _atom_site_label
 _atom_site_symmetry_multiplicity
 _atom_site_fract_x
 _atom_site_fract_y
 _atom_site_fract_z
 _atom_site_occupancy
  Tb  Tb0  1  0.004974  0.329266  0.750000  1
  Tb  Tb1  1  0.672183  0.994840  0.250000  1
  Tb  Tb2  1  0.329421  0.004297  0.750000  1
  Pa  Pa3  1  0.996124  0.671524  0.250000  1
  Al  Al4  1  0.132094  0.130676  0.250000  1
  Al  Al5  1  0.872393  0.873825  0.750000  1
  Al  Al6  1  0.000986  0.332145  0.074873  1
  Al  Al7  1  0.998828  0.664677  0.921366  1
  Al  Al8  1  0.998828  0.664677  0.578634  1
  Al  Al9  1  0.338723  0.004166  0.424986  1
  Al  Al10  1  0.000986  0.332145  0.425127  1
  Al  Al11  1  0.665229  0.999866  0.575507  1
  Al  Al12  1  0.665229  0.999866  0.924493  1
  Al  Al13  1  0.338723  0.004166  0.075014  1
  Al  Al14  1  0.332642  0.332710  0.554379  1
  Al  Al15  1  0.662988  0.665695  0.448738  1
  Al  Al16  1  0.662988  0.665695  0.051262  1
  Al  Al17  1  0.332642  0.332710  0.945621  1
  Al  Al18  1  0.339146  0.546721  0.250000  1
  Al  Al19  1  0.659244  0.450019  0.750000  1
  Al  Al20  1  0.546879  0.342408  0.250000  1
  Al  Al21  1  0.450892  0.660651  0.750000  1
  Ir  Ir22  1  0.674152  0.330470  0.002415  1
  Ir  Ir23  1  0.325695  0.671903  0.002380  1
  Ir  Ir24  1  0.325695  0.671903  0.497620  1
  Ir  Ir25  1  0.674152  0.330470  0.497585  1
  Ir  Ir26  1  0.999082  0.996253  0.003560  1
  Ir  Ir27  1  0.999082  0.996253  0.496440  1
