# generated using pymatgen
data_Pr20IrOs3Pt8
_symmetry_space_group_name_H-M   'P 1'
_cell_length_a   11.48836900
_cell_length_b   11.48836900
_cell_length_c   6.62995900
_cell_angle_alpha   90.00000000
_cell_angle_beta   90.00000000
_cell_angle_gamma   90.00000000
_symmetry_Int_Tables_number   1
_chemical_formula_structural   Pr20IrOs3Pt8
_chemical_formula_sum   'Pr20 Ir1 Os3 Pt8'
_cell_volume   875.03937443
_cell_formula_units_Z   1
loop_
 _symmetry_equiv_pos_site_id
 _symmetry_equiv_pos_as_xyz
  1  'x, y, z'
loop_
 _atom_site_type_symbol
 _atom_site_label
 _atom_site_symmetry_multiplicity
 _atom_site_fract_x
 _atom_site_fract_y
 _atom_site_fract_z
 _atom_site_occupancy
  Pr  Pr0  1  0.297758  0.088012  0.373862  1
  Pr  Pr1  1  0.297883  0.912140  0.874005  1
  Pr  Pr2  1  0.702117  0.087860  0.874005  1
  Pr  Pr3  1  0.702242  0.911988  0.373862  1
  Pr  Pr4  1  0.587860  0.797883  0.874005  1
  Pr  Pr5  1  0.588012  0.202242  0.373862  1
  Pr  Pr6  1  0.411988  0.797758  0.373862  1
  Pr  Pr7  1  0.412140  0.202117  0.874005  1
  Pr  Pr8  1  0.203997  0.410900  0.627378  1
  Pr  Pr9  1  0.203820  0.588681  0.123521  1
  Pr  Pr10  1  0.796180  0.411319  0.123521  1
  Pr  Pr11  1  0.796003  0.589100  0.627378  1
  Pr  Pr12  1  0.911319  0.703820  0.123521  1
  Pr  Pr13  1  0.910900  0.296003  0.627378  1
  Pr  Pr14  1  0.089100  0.703997  0.627378  1
  Pr  Pr15  1  0.088681  0.296180  0.123521  1
  Pr  Pr16  1  0.000000  0.000000  0.499270  1
  Pr  Pr17  1  0.000000  0.000000  0.999185  1
  Pr  Pr18  1  0.500000  0.500000  0.999185  1
  Pr  Pr19  1  0.500000  0.500000  0.499270  1
  Ir  Ir20  1  0.000000  0.500000  0.384647  1
  Os  Os21  1  0.500000  0.000000  0.118809  1
  Os  Os22  1  0.500000  0.000000  0.618848  1
  Os  Os23  1  0.000000  0.500000  0.882891  1
  Pt  Pt24  1  0.847689  0.154013  0.250502  1
  Pt  Pt25  1  0.847308  0.846220  0.750205  1
  Pt  Pt26  1  0.152692  0.153780  0.750205  1
  Pt  Pt27  1  0.152311  0.845987  0.250502  1
  Pt  Pt28  1  0.653780  0.347308  0.750205  1
  Pt  Pt29  1  0.654013  0.652311  0.250502  1
  Pt  Pt30  1  0.345987  0.347689  0.250502  1
  Pt  Pt31  1  0.346220  0.652692  0.750205  1
