# generated using pymatgen
data_Eu3Er5(WO6)4
_symmetry_space_group_name_H-M   'P 1'
_cell_length_a   5.44348000
_cell_length_b   7.73681663
_cell_length_c   11.54202700
_cell_angle_alpha   75.65201644
_cell_angle_beta   90.00000000
_cell_angle_gamma   90.00000000
_symmetry_Int_Tables_number   1
_chemical_formula_structural   Eu3Er5(WO6)4
_chemical_formula_sum   'Eu3 Er5 W4 O24'
_cell_volume   470.93284196
_cell_formula_units_Z   1
loop_
 _symmetry_equiv_pos_site_id
 _symmetry_equiv_pos_as_xyz
  1  'x, y, z'
loop_
 _atom_site_type_symbol
 _atom_site_label
 _atom_site_symmetry_multiplicity
 _atom_site_fract_x
 _atom_site_fract_y
 _atom_site_fract_z
 _atom_site_occupancy
  Eu  Eu0  1  0.743424  0.000000  0.750000  1
  Eu  Eu1  1  0.682728  0.500000  0.750000  1
  Eu  Eu2  1  0.314913  0.500000  0.250000  1
  Er  Er3  1  0.258753  0.000000  0.250000  1
  Er  Er4  1  0.187377  0.796679  0.576295  1
  Er  Er5  1  0.813958  0.795715  0.079207  1
  Er  Er6  1  0.187377  0.203321  0.923705  1
  Er  Er7  1  0.813958  0.204285  0.420793  1
  W  W8  1  0.252788  0.722527  0.887347  1
  W  W9  1  0.746957  0.726977  0.384658  1
  W  W10  1  0.252788  0.277473  0.612653  1
  W  W11  1  0.746957  0.273023  0.115342  1
  O  O12  1  0.045578  0.938402  0.900198  1
  O  O13  1  0.529100  0.842823  0.934275  1
  O  O14  1  0.960216  0.942330  0.395243  1
  O  O15  1  0.452269  0.787267  0.729042  1
  O  O16  1  0.467839  0.848009  0.430504  1
  O  O17  1  0.988365  0.715908  0.770225  1
  O  O18  1  0.543519  0.793748  0.227229  1
  O  O19  1  0.857113  0.642240  0.545560  1
  O  O20  1  0.353224  0.488091  0.890341  1
  O  O21  1  0.013783  0.718857  0.268917  1
  O  O22  1  0.353224  0.511909  0.609659  1
  O  O23  1  0.857113  0.357760  0.954440  1
  O  O24  1  0.139630  0.635592  0.047184  1
  O  O25  1  0.648375  0.492274  0.388048  1
  O  O26  1  0.988365  0.284092  0.729775  1
  O  O27  1  0.648375  0.507726  0.111952  1
  O  O28  1  0.139630  0.364408  0.452816  1
  O  O29  1  0.452269  0.212733  0.770958  1
  O  O30  1  0.013783  0.281143  0.231083  1
  O  O31  1  0.529100  0.157177  0.565725  1
  O  O32  1  0.543519  0.206252  0.272771  1
  O  O33  1  0.045578  0.061598  0.599802  1
  O  O34  1  0.467839  0.151991  0.069496  1
  O  O35  1  0.960216  0.057670  0.104757  1
