# generated using pymatgen
data_Tb2HoMg3Sn2Pd
_symmetry_space_group_name_H-M   'P 1'
_cell_length_a   7.45438207
_cell_length_b   7.45438258
_cell_length_c   4.52655400
_cell_angle_alpha   90.00000000
_cell_angle_beta   90.00000000
_cell_angle_gamma   119.89602161
_symmetry_Int_Tables_number   1
_chemical_formula_structural   Tb2HoMg3Sn2Pd
_chemical_formula_sum   'Tb2 Ho1 Mg3 Sn2 Pd1'
_cell_volume   218.05986823
_cell_formula_units_Z   1
loop_
 _symmetry_equiv_pos_site_id
 _symmetry_equiv_pos_as_xyz
  1  'x, y, z'
loop_
 _atom_site_type_symbol
 _atom_site_label
 _atom_site_symmetry_multiplicity
 _atom_site_fract_x
 _atom_site_fract_y
 _atom_site_fract_z
 _atom_site_occupancy
  Tb  Tb0  1  0.595389  0.999908  0.000000  1
  Tb  Tb1  1  0.999908  0.595389  0.000000  1
  Ho  Ho2  1  0.404379  0.404379  0.000000  1
  Mg  Mg3  1  0.231911  0.000393  0.500000  1
  Mg  Mg4  1  0.000393  0.231911  0.500000  1
  Mg  Mg5  1  0.768046  0.768046  0.500000  1
  Sn  Sn6  1  0.333490  0.665932  0.500000  1
  Sn  Sn7  1  0.665932  0.333490  0.500000  1
  Pd  Pd8  1  0.000550  0.000550  0.000000  1
