# generated using pymatgen
data_Y6BCCl6
_symmetry_space_group_name_H-M   'P 1'
_cell_length_a   9.34085147
_cell_length_b   9.34085057
_cell_length_c   9.41805791
_cell_angle_alpha   109.46445381
_cell_angle_beta   109.46444746
_cell_angle_gamma   109.15031225
_symmetry_Int_Tables_number   1
_chemical_formula_structural   Y6BCCl6
_chemical_formula_sum   'Y12 B2 C2 Cl12'
_cell_volume   635.16827277
_cell_formula_units_Z   2
loop_
 _symmetry_equiv_pos_site_id
 _symmetry_equiv_pos_as_xyz
  1  'x, y, z'
loop_
 _atom_site_type_symbol
 _atom_site_label
 _atom_site_symmetry_multiplicity
 _atom_site_fract_x
 _atom_site_fract_y
 _atom_site_fract_z
 _atom_site_occupancy
  Y  Y0  1  0.467189  0.478888  0.235756  1
  Y  Y1  1  0.743132  0.231432  0.264244  1
  Y  Y2  1  0.744252  0.014737  0.479058  1
  Y  Y3  1  0.234806  0.464323  0.479058  1
  Y  Y4  1  0.268568  0.756868  0.235756  1
  Y  Y5  1  0.035677  0.265194  0.020942  1
  Y  Y6  1  0.021112  0.032811  0.264244  1
  Y  Y7  1  0.485263  0.755748  0.020942  1
  Y  Y8  1  0.480787  0.230787  0.461574  1
  Y  Y9  1  0.014579  0.485421  0.750000  1
  Y  Y10  1  0.269213  0.019213  0.038426  1
  Y  Y11  1  0.235421  0.264579  0.750000  1
  B  B12  1  0.999308  0.249308  0.498616  1
  B  B13  1  0.250692  0.500692  0.001384  1
  C  C14  1  0.249644  0.250356  0.250000  1
  C  C15  1  0.500356  0.999644  0.250000  1
  Cl  Cl16  1  0.252029  0.758695  0.746248  1
  Cl  Cl17  1  0.512447  0.505781  0.753752  1
  Cl  Cl18  1  0.988162  0.745995  0.994408  1
  Cl  Cl19  1  0.741305  0.247971  0.753752  1
  Cl  Cl20  1  0.994219  0.987553  0.746248  1
  Cl  Cl21  1  0.251586  0.993754  0.505592  1
  Cl  Cl22  1  0.754005  0.511838  0.505592  1
  Cl  Cl23  1  0.506246  0.248414  0.994408  1
  Cl  Cl24  1  0.755575  0.744425  0.250000  1
  Cl  Cl25  1  0.744223  0.994223  0.988445  1
  Cl  Cl26  1  0.994425  0.505575  0.250000  1
  Cl  Cl27  1  0.505777  0.755777  0.511555  1
