# generated using pymatgen
data_RbInSiP2
_symmetry_space_group_name_H-M   'P 1'
_cell_length_a   8.00589256
_cell_length_b   8.54407566
_cell_length_c   8.14091600
_cell_angle_alpha   86.00522716
_cell_angle_beta   77.15578893
_cell_angle_gamma   72.58901759
_symmetry_Int_Tables_number   1
_chemical_formula_structural   RbInSiP2
_chemical_formula_sum   'Rb4 In4 Si4 P8'
_cell_volume   518.05058269
_cell_formula_units_Z   4
loop_
 _symmetry_equiv_pos_site_id
 _symmetry_equiv_pos_as_xyz
  1  'x, y, z'
loop_
 _atom_site_type_symbol
 _atom_site_label
 _atom_site_symmetry_multiplicity
 _atom_site_fract_x
 _atom_site_fract_y
 _atom_site_fract_z
 _atom_site_occupancy
  Rb  Rb0  1  0.440926  0.754467  0.394115  1
  Rb  Rb1  1  0.559074  0.245533  0.605885  1
  Rb  Rb2  1  0.425101  0.790105  0.873828  1
  Rb  Rb3  1  0.574899  0.209895  0.126172  1
  In  In4  1  0.937511  0.884633  0.791626  1
  In  In5  1  0.062489  0.115367  0.208374  1
  In  In6  1  0.955805  0.828730  0.249691  1
  In  In7  1  0.044195  0.171270  0.750309  1
  Si  Si8  1  0.942188  0.577789  0.623176  1
  Si  Si9  1  0.057812  0.422211  0.376824  1
  Si  Si10  1  0.153378  0.465900  0.961529  1
  Si  Si11  1  0.846622  0.534100  0.038471  1
  P  P12  1  0.777180  0.827207  0.559585  1
  P  P13  1  0.222820  0.172793  0.440415  1
  P  P14  1  0.810078  0.401635  0.287962  1
  P  P15  1  0.189922  0.598365  0.712038  1
  P  P16  1  0.737042  0.807035  0.064741  1
  P  P17  1  0.262958  0.192965  0.935259  1
  P  P18  1  0.776998  0.443553  0.812708  1
  P  P19  1  0.223002  0.556447  0.187292  1
