# generated using pymatgen
data_Ti3Nb7Si6
_symmetry_space_group_name_H-M   'P 1'
_cell_length_a   7.55999069
_cell_length_b   7.54632504
_cell_length_c   7.55751905
_cell_angle_alpha   128.67744496
_cell_angle_beta   128.72715505
_cell_angle_gamma   75.44732858
_symmetry_Int_Tables_number   1
_chemical_formula_structural   Ti3Nb7Si6
_chemical_formula_sum   'Ti3 Nb7 Si6'
_cell_volume   255.58768878
_cell_formula_units_Z   1
loop_
 _symmetry_equiv_pos_site_id
 _symmetry_equiv_pos_as_xyz
  1  'x, y, z'
loop_
 _atom_site_type_symbol
 _atom_site_label
 _atom_site_symmetry_multiplicity
 _atom_site_fract_x
 _atom_site_fract_y
 _atom_site_fract_z
 _atom_site_occupancy
  Ti  Ti0  1  0.016012  0.185392  0.500000  1
  Ti  Ti1  1  0.501496  0.500287  0.000827  1
  Ti  Ti2  1  0.000670  0.999461  0.999173  1
  Nb  Nb3  1  0.518016  0.017789  0.832007  1
  Nb  Nb4  1  0.186009  0.685782  0.167993  1
  Nb  Nb5  1  0.481024  0.982428  0.166731  1
  Nb  Nb6  1  0.685904  0.517764  0.500000  1
  Nb  Nb7  1  0.983512  0.814007  0.500000  1
  Nb  Nb8  1  0.314669  0.481704  0.500000  1
  Nb  Nb9  1  0.814292  0.315697  0.833269  1
  Si  Si10  1  0.130238  0.627227  0.759523  1
  Si  Si11  1  0.631011  0.870508  0.500000  1
  Si  Si12  1  0.365913  0.130844  0.500000  1
  Si  Si13  1  0.870715  0.367704  0.240477  1
  Si  Si14  1  0.751681  0.753123  0.002842  1
  Si  Si15  1  0.248840  0.250281  0.997158  1
