# generated using pymatgen
data_Tb2HoAg3SnGe2
_symmetry_space_group_name_H-M   'P 1'
_cell_length_a   7.27087976
_cell_length_b   7.27087953
_cell_length_c   4.30671100
_cell_angle_alpha   90.00000000
_cell_angle_beta   90.00000000
_cell_angle_gamma   119.94369633
_symmetry_Int_Tables_number   1
_chemical_formula_structural   Tb2HoAg3SnGe2
_chemical_formula_sum   'Tb2 Ho1 Ag3 Sn1 Ge2'
_cell_volume   197.28605641
_cell_formula_units_Z   1
loop_
 _symmetry_equiv_pos_site_id
 _symmetry_equiv_pos_as_xyz
  1  'x, y, z'
loop_
 _atom_site_type_symbol
 _atom_site_label
 _atom_site_symmetry_multiplicity
 _atom_site_fract_x
 _atom_site_fract_y
 _atom_site_fract_z
 _atom_site_occupancy
  Tb  Tb0  1  0.568732  0.999732  0.000000  1
  Tb  Tb1  1  0.999732  0.568732  0.000000  1
  Ho  Ho2  1  0.430972  0.430972  0.000000  1
  Ag  Ag3  1  0.258794  0.000349  0.500000  1
  Ag  Ag4  1  0.000349  0.258794  0.500000  1
  Ag  Ag5  1  0.741001  0.741001  0.500000  1
  Sn  Sn6  1  0.000584  0.000584  0.000000  1
  Ge  Ge7  1  0.333773  0.666062  0.500000  1
  Ge  Ge8  1  0.666062  0.333773  0.500000  1
