# generated using pymatgen
data_Lu2AlZnPt2
_symmetry_space_group_name_H-M   'P 1'
_cell_length_a   4.29307000
_cell_length_b   6.71642125
_cell_length_c   7.89519696
_cell_angle_alpha   89.40918895
_cell_angle_beta   90.00000000
_cell_angle_gamma   90.00000000
_symmetry_Int_Tables_number   1
_chemical_formula_structural   Lu2AlZnPt2
_chemical_formula_sum   'Lu4 Al2 Zn2 Pt4'
_cell_volume   227.63853188
_cell_formula_units_Z   2
loop_
 _symmetry_equiv_pos_site_id
 _symmetry_equiv_pos_as_xyz
  1  'x, y, z'
loop_
 _atom_site_type_symbol
 _atom_site_label
 _atom_site_symmetry_multiplicity
 _atom_site_fract_x
 _atom_site_fract_y
 _atom_site_fract_z
 _atom_site_occupancy
  Lu  Lu0  1  0.250000  0.534112  0.177974  1
  Lu  Lu1  1  0.750000  0.465888  0.822026  1
  Lu  Lu2  1  0.750000  0.969372  0.684063  1
  Lu  Lu3  1  0.250000  0.030628  0.315937  1
  Al  Al4  1  0.250000  0.640186  0.557455  1
  Al  Al5  1  0.750000  0.359814  0.442545  1
  Zn  Zn6  1  0.750000  0.856695  0.061897  1
  Zn  Zn7  1  0.250000  0.143305  0.938103  1
  Pt  Pt8  1  0.250000  0.754416  0.868839  1
  Pt  Pt9  1  0.750000  0.245584  0.131161  1
  Pt  Pt10  1  0.750000  0.737160  0.386277  1
  Pt  Pt11  1  0.250000  0.262840  0.613723  1
