# generated using pymatgen
data_CsBS3
_symmetry_space_group_name_H-M   'P 1'
_cell_length_a   12.56498900
_cell_length_b   5.90312397
_cell_length_c   7.55277089
_cell_angle_alpha   75.68026366
_cell_angle_beta   90.00000000
_cell_angle_gamma   90.00000000
_symmetry_Int_Tables_number   1
_chemical_formula_structural   CsBS3
_chemical_formula_sum   'Cs4 B4 S12'
_cell_volume   542.80394513
_cell_formula_units_Z   4
loop_
 _symmetry_equiv_pos_site_id
 _symmetry_equiv_pos_as_xyz
  1  'x, y, z'
loop_
 _atom_site_type_symbol
 _atom_site_label
 _atom_site_symmetry_multiplicity
 _atom_site_fract_x
 _atom_site_fract_y
 _atom_site_fract_z
 _atom_site_occupancy
  Cs  Cs0  1  0.919501  0.297303  0.259901  1
  Cs  Cs1  1  0.419501  0.202697  0.740099  1
  Cs  Cs2  1  0.080499  0.702697  0.740099  1
  Cs  Cs3  1  0.580499  0.797303  0.259901  1
  B  B4  1  0.766270  0.309029  0.713576  1
  B  B5  1  0.266270  0.190971  0.286424  1
  B  B6  1  0.233730  0.690971  0.286424  1
  B  B7  1  0.733730  0.809029  0.713576  1
  S  S8  1  0.821143  0.830624  0.924708  1
  S  S9  1  0.321143  0.669376  0.075292  1
  S  S10  1  0.178857  0.169376  0.075292  1
  S  S11  1  0.678857  0.330624  0.924708  1
  S  S12  1  0.605331  0.650155  0.810346  1
  S  S13  1  0.105331  0.849845  0.189654  1
  S  S14  1  0.394669  0.349845  0.189654  1
  S  S15  1  0.894669  0.150155  0.810346  1
  S  S16  1  0.799716  0.614946  0.569813  1
  S  S17  1  0.299716  0.885054  0.430187  1
  S  S18  1  0.200284  0.385054  0.430187  1
  S  S19  1  0.700284  0.114946  0.569813  1
