# generated using pymatgen
data_LaPr5In6O18
_symmetry_space_group_name_H-M   'P 1'
_cell_length_a   6.59766300
_cell_length_b   6.59766519
_cell_length_c   12.57554700
_cell_angle_alpha   90.00000000
_cell_angle_beta   90.00000000
_cell_angle_gamma   119.99999405
_symmetry_Int_Tables_number   1
_chemical_formula_structural   LaPr5In6O18
_chemical_formula_sum   'La1 Pr5 In6 O18'
_cell_volume   474.06505545
_cell_formula_units_Z   1
loop_
 _symmetry_equiv_pos_site_id
 _symmetry_equiv_pos_as_xyz
  1  'x, y, z'
loop_
 _atom_site_type_symbol
 _atom_site_label
 _atom_site_symmetry_multiplicity
 _atom_site_fract_x
 _atom_site_fract_y
 _atom_site_fract_z
 _atom_site_occupancy
  La  La0  1  0.000000  0.000000  0.496760  1
  Pr  Pr1  1  0.666667  0.333333  0.960633  1
  Pr  Pr2  1  0.333333  0.666667  0.461206  1
  Pr  Pr3  1  0.666667  0.333333  0.461206  1
  Pr  Pr4  1  0.333333  0.666667  0.960633  1
  Pr  Pr5  1  0.000000  0.000000  0.998593  1
  In  In6  1  0.666512  0.666512  0.726384  1
  In  In7  1  0.000000  0.333488  0.726384  1
  In  In8  1  0.334368  0.334368  0.226970  1
  In  In9  1  0.000000  0.665632  0.226970  1
  In  In10  1  0.333488  0.000000  0.726384  1
  In  In11  1  0.665632  0.000000  0.226970  1
  O  O12  1  0.691717  0.691717  0.894527  1
  O  O13  1  0.000000  0.308283  0.894527  1
  O  O14  1  0.309895  0.309895  0.394622  1
  O  O15  1  0.000000  0.690105  0.394622  1
  O  O16  1  0.308283  0.000000  0.894527  1
  O  O17  1  0.690105  0.000000  0.394622  1
  O  O18  1  0.640085  0.640085  0.559773  1
  O  O19  1  0.000000  0.359915  0.559773  1
  O  O20  1  0.359207  0.359207  0.060382  1
  O  O21  1  0.000000  0.640793  0.060382  1
  O  O22  1  0.359915  0.000000  0.559773  1
  O  O23  1  0.640793  0.000000  0.060382  1
  O  O24  1  0.000000  0.000000  0.701879  1
  O  O25  1  0.000000  0.000000  0.200371  1
  O  O26  1  0.666667  0.333333  0.749475  1
  O  O27  1  0.333333  0.666667  0.251790  1
  O  O28  1  0.666667  0.333333  0.251790  1
  O  O29  1  0.333333  0.666667  0.749475  1
