# generated using pymatgen
data_Th4Al6ReTc
_symmetry_space_group_name_H-M   'P 1'
_cell_length_a   5.59898900
_cell_length_b   5.59898814
_cell_length_c   9.13411000
_cell_angle_alpha   90.00000000
_cell_angle_beta   90.00000000
_cell_angle_gamma   119.99999920
_symmetry_Int_Tables_number   1
_chemical_formula_structural   Th4Al6ReTc
_chemical_formula_sum   'Th4 Al6 Re1 Tc1'
_cell_volume   247.97964508
_cell_formula_units_Z   1
loop_
 _symmetry_equiv_pos_site_id
 _symmetry_equiv_pos_as_xyz
  1  'x, y, z'
loop_
 _atom_site_type_symbol
 _atom_site_label
 _atom_site_symmetry_multiplicity
 _atom_site_fract_x
 _atom_site_fract_y
 _atom_site_fract_z
 _atom_site_occupancy
  Th  Th0  1  0.666667  0.333334  0.049807  1
  Th  Th1  1  0.666667  0.333334  0.449279  1
  Th  Th2  1  0.333334  0.666668  0.550721  1
  Th  Th3  1  0.333334  0.666668  0.950193  1
  Al  Al4  1  0.161509  0.323019  0.250236  1
  Al  Al5  1  0.161510  0.838491  0.250236  1
  Al  Al6  1  0.676981  0.838491  0.250236  1
  Al  Al7  1  0.323020  0.161510  0.749764  1
  Al  Al8  1  0.838492  0.161510  0.749764  1
  Al  Al9  1  0.838490  0.676981  0.749764  1
  Re  Re10  1  0.000000  0.000000  0.500000  1
  Tc  Tc11  1  0.000000  0.000000  0.000000  1
