# generated using pymatgen
data_Y3Al9Si3Ru4
_symmetry_space_group_name_H-M   'P 1'
_cell_length_a   8.70381800
_cell_length_b   8.68019583
_cell_length_c   9.55937400
_cell_angle_alpha   90.00000000
_cell_angle_beta   90.00000000
_cell_angle_gamma   120.09007129
_symmetry_Int_Tables_number   1
_chemical_formula_structural   Y3Al9Si3Ru4
_chemical_formula_sum   'Y6 Al18 Si6 Ru8'
_cell_volume   624.89135963
_cell_formula_units_Z   2
loop_
 _symmetry_equiv_pos_site_id
 _symmetry_equiv_pos_as_xyz
  1  'x, y, z'
loop_
 _atom_site_type_symbol
 _atom_site_label
 _atom_site_symmetry_multiplicity
 _atom_site_fract_x
 _atom_site_fract_y
 _atom_site_fract_z
 _atom_site_occupancy
  Y  Y0  1  0.193058  0.386117  0.250000  1
  Y  Y1  1  0.806942  0.613883  0.750000  1
  Y  Y2  1  0.610964  0.808466  0.250000  1
  Y  Y3  1  0.389036  0.191534  0.750000  1
  Y  Y4  1  0.197500  0.808466  0.250000  1
  Y  Y5  1  0.802500  0.191534  0.750000  1
  Al  Al6  1  0.164869  0.329737  0.579915  1
  Al  Al7  1  0.835131  0.670263  0.420085  1
  Al  Al8  1  0.670189  0.834679  0.578392  1
  Al  Al9  1  0.835131  0.670263  0.079915  1
  Al  Al10  1  0.329811  0.165321  0.421608  1
  Al  Al11  1  0.164869  0.329737  0.920085  1
  Al  Al12  1  0.164490  0.834679  0.578392  1
  Al  Al13  1  0.329811  0.165321  0.078392  1
  Al  Al14  1  0.835510  0.165321  0.421608  1
  Al  Al15  1  0.670189  0.834679  0.921608  1
  Al  Al16  1  0.835510  0.165321  0.078392  1
  Al  Al17  1  0.164490  0.834679  0.921608  1
  Al  Al18  1  0.873473  0.433665  0.250000  1
  Al  Al19  1  0.126527  0.566335  0.750000  1
  Al  Al20  1  0.560192  0.433665  0.250000  1
  Al  Al21  1  0.439808  0.566335  0.750000  1
  Al  Al22  1  0.999427  0.998854  0.250000  1
  Al  Al23  1  0.000573  0.001146  0.750000  1
  Si  Si24  1  0.331977  0.663954  0.038825  1
  Si  Si25  1  0.668023  0.336046  0.961175  1
  Si  Si26  1  0.668023  0.336046  0.538825  1
  Si  Si27  1  0.331977  0.663954  0.461175  1
  Si  Si28  1  0.563113  0.126227  0.250000  1
  Si  Si29  1  0.436887  0.873773  0.750000  1
  Ru  Ru30  1  0.500000  0.000000  0.000000  1
  Ru  Ru31  1  0.000000  0.500000  0.000000  1
  Ru  Ru32  1  0.500000  0.000000  0.500000  1
  Ru  Ru33  1  0.500000  0.500000  0.000000  1
  Ru  Ru34  1  0.000000  0.500000  0.500000  1
  Ru  Ru35  1  0.500000  0.500000  0.500000  1
  Ru  Ru36  1  0.000000  0.000000  0.000000  1
  Ru  Ru37  1  0.000000  0.000000  0.500000  1
