# generated using pymatgen
data_Dy19Er(IrPt2)4
_symmetry_space_group_name_H-M   'P 1'
_cell_length_a   11.05442300
_cell_length_b   11.05442300
_cell_length_c   6.33761600
_cell_angle_alpha   90.00000000
_cell_angle_beta   90.00000000
_cell_angle_gamma   90.00000000
_symmetry_Int_Tables_number   1
_chemical_formula_structural   Dy19Er(IrPt2)4
_chemical_formula_sum   'Dy19 Er1 Ir4 Pt8'
_cell_volume   774.45837281
_cell_formula_units_Z   1
loop_
 _symmetry_equiv_pos_site_id
 _symmetry_equiv_pos_as_xyz
  1  'x, y, z'
loop_
 _atom_site_type_symbol
 _atom_site_label
 _atom_site_symmetry_multiplicity
 _atom_site_fract_x
 _atom_site_fract_y
 _atom_site_fract_z
 _atom_site_occupancy
  Dy  Dy0  1  0.294542  0.087669  0.375713  1
  Dy  Dy1  1  0.294621  0.912317  0.875594  1
  Dy  Dy2  1  0.705379  0.087683  0.875594  1
  Dy  Dy3  1  0.705458  0.912331  0.375713  1
  Dy  Dy4  1  0.587694  0.794671  0.875640  1
  Dy  Dy5  1  0.587702  0.205317  0.375611  1
  Dy  Dy6  1  0.412298  0.794683  0.375611  1
  Dy  Dy7  1  0.412306  0.205329  0.875640  1
  Dy  Dy8  1  0.205317  0.412298  0.624389  1
  Dy  Dy9  1  0.205329  0.587694  0.124360  1
  Dy  Dy10  1  0.794671  0.412306  0.124360  1
  Dy  Dy11  1  0.794683  0.587702  0.624389  1
  Dy  Dy12  1  0.912317  0.705379  0.124406  1
  Dy  Dy13  1  0.912331  0.294542  0.624287  1
  Dy  Dy14  1  0.087669  0.705458  0.624287  1
  Dy  Dy15  1  0.087683  0.294621  0.124406  1
  Dy  Dy16  1  0.000000  0.000000  0.000000  1
  Dy  Dy17  1  0.500000  0.500000  0.000000  1
  Dy  Dy18  1  0.500000  0.500000  0.500000  1
  Er  Er19  1  0.000000  0.000000  0.500000  1
  Ir  Ir20  1  0.500000  0.000000  0.121653  1
  Ir  Ir21  1  0.500000  0.000000  0.621592  1
  Ir  Ir22  1  0.000000  0.500000  0.878347  1
  Ir  Ir23  1  0.000000  0.500000  0.378408  1
  Pt  Pt24  1  0.846725  0.153309  0.250441  1
  Pt  Pt25  1  0.846691  0.846725  0.749559  1
  Pt  Pt26  1  0.153309  0.153275  0.749559  1
  Pt  Pt27  1  0.153275  0.846691  0.250441  1
  Pt  Pt28  1  0.653566  0.346434  0.749964  1
  Pt  Pt29  1  0.653566  0.653566  0.250036  1
  Pt  Pt30  1  0.346434  0.346434  0.250036  1
  Pt  Pt31  1  0.346434  0.653566  0.749964  1
