# generated using pymatgen
data_Er7Tm3Si5Pb
_symmetry_space_group_name_H-M   'P 1'
_cell_length_a   8.46330112
_cell_length_b   8.46260821
_cell_length_c   6.31500902
_cell_angle_alpha   90.00590132
_cell_angle_beta   89.99157912
_cell_angle_gamma   120.21889416
_symmetry_Int_Tables_number   1
_chemical_formula_structural   Er7Tm3Si5Pb
_chemical_formula_sum   'Er7 Tm3 Si5 Pb1'
_cell_volume   390.82871484
_cell_formula_units_Z   1
loop_
 _symmetry_equiv_pos_site_id
 _symmetry_equiv_pos_as_xyz
  1  'x, y, z'
loop_
 _atom_site_type_symbol
 _atom_site_label
 _atom_site_symmetry_multiplicity
 _atom_site_fract_x
 _atom_site_fract_y
 _atom_site_fract_z
 _atom_site_occupancy
  Er  Er0  1  0.675199  0.331249  0.503873  1
  Er  Er1  1  0.767300  0.767371  0.249841  1
  Er  Er2  1  0.239766  0.987485  0.249907  1
  Er  Er3  1  0.987620  0.239851  0.249803  1
  Er  Er4  1  0.239889  0.239950  0.750112  1
  Er  Er5  1  0.756177  0.998239  0.750128  1
  Er  Er6  1  0.998406  0.756303  0.750120  1
  Tm  Tm7  1  0.331200  0.675258  0.503810  1
  Tm  Tm8  1  0.331251  0.675270  0.996152  1
  Tm  Tm9  1  0.675254  0.331219  0.996178  1
  Si  Si10  1  0.603425  0.998043  0.249619  1
  Si  Si11  1  0.998671  0.603760  0.249603  1
  Si  Si12  1  0.605319  0.605628  0.750300  1
  Si  Si13  1  0.393759  0.001411  0.750325  1
  Si  Si14  1  0.002116  0.394144  0.750397  1
  Pb  Pb15  1  0.394648  0.394818  0.249833  1
