# generated using pymatgen
data_Zr4Ge(B7Ir6)2
_symmetry_space_group_name_H-M   'P 1'
_cell_length_a   3.48171727
_cell_length_b   7.77784302
_cell_length_c   13.46594888
_cell_angle_alpha   89.99455586
_cell_angle_beta   90.06704081
_cell_angle_gamma   90.07522605
_symmetry_Int_Tables_number   1
_chemical_formula_structural   Zr4Ge(B7Ir6)2
_chemical_formula_sum   'Zr4 Ge1 B14 Ir12'
_cell_volume   364.66070158
_cell_formula_units_Z   1
loop_
 _symmetry_equiv_pos_site_id
 _symmetry_equiv_pos_as_xyz
  1  'x, y, z'
loop_
 _atom_site_type_symbol
 _atom_site_label
 _atom_site_symmetry_multiplicity
 _atom_site_fract_x
 _atom_site_fract_y
 _atom_site_fract_z
 _atom_site_occupancy
  Zr  Zr0  1  0.251417  0.498449  0.835040  1
  Zr  Zr1  1  0.253199  0.001283  0.331624  1
  Zr  Zr2  1  0.746801  0.998717  0.668376  1
  Zr  Zr3  1  0.748583  0.501551  0.164960  1
  Ge  Ge4  1  0.500000  0.500000  0.500000  1
  B  B5  1  0.500000  0.000000  0.000000  1
  B  B6  1  0.000000  0.000000  0.000000  1
  B  B7  1  0.756122  0.326646  0.727537  1
  B  B8  1  0.754505  0.829463  0.220390  1
  B  B9  1  0.750982  0.752599  0.805043  1
  B  B10  1  0.754034  0.247435  0.299477  1
  B  B11  1  0.749864  0.423256  0.974420  1
  B  B12  1  0.761338  0.920209  0.473752  1
  B  B13  1  0.245495  0.170537  0.779610  1
  B  B14  1  0.243878  0.673354  0.272463  1
  B  B15  1  0.245966  0.752565  0.700523  1
  B  B16  1  0.249018  0.247401  0.194957  1
  B  B17  1  0.238662  0.079791  0.526248  1
  B  B18  1  0.250136  0.576744  0.025580  1
  Ir  Ir19  1  0.746526  0.594934  0.674041  1
  Ir  Ir20  1  0.750160  0.091180  0.163325  1
  Ir  Ir21  1  0.750913  0.703949  0.963807  1
  Ir  Ir22  1  0.741871  0.197563  0.460863  1
  Ir  Ir23  1  0.748036  0.201710  0.873832  1
  Ir  Ir24  1  0.745647  0.710225  0.364969  1
  Ir  Ir25  1  0.249840  0.908820  0.836675  1
  Ir  Ir26  1  0.253474  0.405066  0.325959  1
  Ir  Ir27  1  0.258129  0.802437  0.539137  1
  Ir  Ir28  1  0.249087  0.296051  0.036193  1
  Ir  Ir29  1  0.254353  0.289775  0.635031  1
  Ir  Ir30  1  0.251964  0.798290  0.126168  1
