# generated using pymatgen
data_Yb11Pr8TmPb16
_symmetry_space_group_name_H-M   'P 1'
_cell_length_a   8.06479140
_cell_length_b   8.61699665
_cell_length_c   16.21869800
_cell_angle_alpha   90.04814656
_cell_angle_beta   90.11197306
_cell_angle_gamma   89.97838927
_symmetry_Int_Tables_number   1
_chemical_formula_structural   Yb11Pr8TmPb16
_chemical_formula_sum   'Yb11 Pr8 Tm1 Pb16'
_cell_volume   1127.10411811
_cell_formula_units_Z   1
loop_
 _symmetry_equiv_pos_site_id
 _symmetry_equiv_pos_as_xyz
  1  'x, y, z'
loop_
 _atom_site_type_symbol
 _atom_site_label
 _atom_site_symmetry_multiplicity
 _atom_site_fract_x
 _atom_site_fract_y
 _atom_site_fract_z
 _atom_site_occupancy
  Yb  Yb0  1  0.165725  0.333707  0.877235  1
  Yb  Yb1  1  0.334485  0.833498  0.122876  1
  Yb  Yb2  1  0.834972  0.666260  0.377365  1
  Yb  Yb3  1  0.334055  0.833224  0.377077  1
  Yb  Yb4  1  0.834630  0.666494  0.122853  1
  Yb  Yb5  1  0.665118  0.166486  0.877108  1
  Yb  Yb6  1  0.165542  0.333250  0.622475  1
  Yb  Yb7  1  0.834998  0.495273  0.750040  1
  Yb  Yb8  1  0.334448  0.004367  0.750216  1
  Yb  Yb9  1  0.165206  0.504686  0.249919  1
  Yb  Yb10  1  0.665156  0.995608  0.250033  1
  Pr  Pr11  1  0.501001  0.684799  0.595346  1
  Pr  Pr12  1  0.001728  0.813994  0.905120  1
  Pr  Pr13  1  0.498748  0.313960  0.095480  1
  Pr  Pr14  1  0.999157  0.186419  0.404301  1
  Pr  Pr15  1  0.498424  0.314356  0.404540  1
  Pr  Pr16  1  0.998921  0.186144  0.095411  1
  Pr  Pr17  1  0.501225  0.685397  0.904700  1
  Pr  Pr18  1  0.001040  0.813797  0.594836  1
  Tm  Tm19  1  0.665476  0.167447  0.622979  1
  Pb  Pb20  1  0.679195  0.962810  0.460817  1
  Pb  Pb21  1  0.178216  0.538451  0.040793  1
  Pb  Pb22  1  0.322433  0.038329  0.959043  1
  Pb  Pb23  1  0.818730  0.459346  0.541533  1
  Pb  Pb24  1  0.325035  0.039550  0.541990  1
  Pb  Pb25  1  0.821899  0.461494  0.958917  1
  Pb  Pb26  1  0.677746  0.961588  0.040829  1
  Pb  Pb27  1  0.179018  0.538584  0.459222  1
  Pb  Pb28  1  0.468913  0.388631  0.749685  1
  Pb  Pb29  1  0.965235  0.110441  0.748171  1
  Pb  Pb30  1  0.532208  0.609045  0.250100  1
  Pb  Pb31  1  0.032217  0.891450  0.249930  1
  Pb  Pb32  1  0.702796  0.854749  0.748928  1
  Pb  Pb33  1  0.203228  0.646343  0.749550  1
  Pb  Pb34  1  0.296431  0.146268  0.250302  1
  Pb  Pb35  1  0.796647  0.353760  0.250279  1
