# generated using pymatgen
data_Dy2Ho6Cd2NiIr
_symmetry_space_group_name_H-M   'P 1'
_cell_length_a   9.55393903
_cell_length_b   9.55393954
_cell_length_c   9.61284900
_cell_angle_alpha   59.79582382
_cell_angle_beta   59.79582203
_cell_angle_gamma   59.61907654
_symmetry_Int_Tables_number   1
_chemical_formula_structural   Dy2Ho6Cd2NiIr
_chemical_formula_sum   'Dy4 Ho12 Cd4 Ni2 Ir2'
_cell_volume   616.73232987
_cell_formula_units_Z   2
loop_
 _symmetry_equiv_pos_site_id
 _symmetry_equiv_pos_as_xyz
  1  'x, y, z'
loop_
 _atom_site_type_symbol
 _atom_site_label
 _atom_site_symmetry_multiplicity
 _atom_site_fract_x
 _atom_site_fract_y
 _atom_site_fract_z
 _atom_site_occupancy
  Dy  Dy0  1  0.350893  0.350893  0.344396  1
  Dy  Dy1  1  0.350893  0.350893  0.953817  1
  Dy  Dy2  1  0.354236  0.950759  0.347501  1
  Dy  Dy3  1  0.950759  0.354236  0.347501  1
  Ho  Ho4  1  0.809416  0.187009  0.190470  1
  Ho  Ho5  1  0.187009  0.809416  0.813104  1
  Ho  Ho6  1  0.187009  0.809416  0.190470  1
  Ho  Ho7  1  0.809416  0.187009  0.813104  1
  Ho  Ho8  1  0.188954  0.188954  0.811046  1
  Ho  Ho9  1  0.811465  0.811465  0.188535  1
  Ho  Ho10  1  0.937324  0.561085  0.566407  1
  Ho  Ho11  1  0.561085  0.937324  0.935183  1
  Ho  Ho12  1  0.561085  0.937324  0.566407  1
  Ho  Ho13  1  0.937324  0.561085  0.935183  1
  Ho  Ho14  1  0.566172  0.566172  0.933828  1
  Ho  Ho15  1  0.939080  0.939080  0.560920  1
  Cd  Cd16  1  0.579651  0.579651  0.583700  1
  Cd  Cd17  1  0.579651  0.579651  0.256998  1
  Cd  Cd18  1  0.579848  0.255305  0.582423  1
  Cd  Cd19  1  0.255305  0.579848  0.582423  1
  Ni  Ni20  1  0.141880  0.575571  0.141274  1
  Ni  Ni21  1  0.575571  0.141880  0.141274  1
  Ir  Ir22  1  0.142986  0.142986  0.141410  1
  Ir  Ir23  1  0.142986  0.142986  0.572618  1
