# generated using pymatgen
data_La11In9(CoAu)2
_symmetry_space_group_name_H-M   'P 1'
_cell_length_a   3.77999000
_cell_length_b   13.80825295
_cell_length_c   13.91739519
_cell_angle_alpha   110.89475333
_cell_angle_beta   90.00000000
_cell_angle_gamma   90.00000000
_symmetry_Int_Tables_number   1
_chemical_formula_structural   La11In9(CoAu)2
_chemical_formula_sum   'La11 In9 Co2 Au2'
_cell_volume   678.64784092
_cell_formula_units_Z   1
loop_
 _symmetry_equiv_pos_site_id
 _symmetry_equiv_pos_as_xyz
  1  'x, y, z'
loop_
 _atom_site_type_symbol
 _atom_site_label
 _atom_site_symmetry_multiplicity
 _atom_site_fract_x
 _atom_site_fract_y
 _atom_site_fract_z
 _atom_site_occupancy
  La  La0  1  0.000000  0.931328  0.581654  1
  La  La1  1  0.000000  0.068672  0.418346  1
  La  La2  1  0.000000  0.579840  0.922708  1
  La  La3  1  0.000000  0.420160  0.077292  1
  La  La4  1  0.000000  0.158560  0.842056  1
  La  La5  1  0.000000  0.841440  0.157944  1
  La  La6  1  0.000000  0.385406  0.642964  1
  La  La7  1  0.000000  0.614594  0.357036  1
  La  La8  1  0.000000  0.679710  0.698829  1
  La  La9  1  0.000000  0.320290  0.301171  1
  La  La10  1  0.000000  0.000000  0.000000  1
  In  In11  1  0.500000  0.161425  0.636939  1
  In  In12  1  0.500000  0.838575  0.363061  1
  In  In13  1  0.500000  0.634062  0.158425  1
  In  In14  1  0.500000  0.365938  0.841575  1
  In  In15  1  0.500000  0.923357  0.782653  1
  In  In16  1  0.500000  0.076643  0.217347  1
  In  In17  1  0.500000  0.778996  0.921631  1
  In  In18  1  0.500000  0.221004  0.078369  1
  In  In19  1  0.500000  0.500000  0.500000  1
  Co  Co20  1  0.500000  0.551893  0.765186  1
  Co  Co21  1  0.500000  0.448107  0.234814  1
  Au  Au22  1  0.500000  0.742924  0.545469  1
  Au  Au23  1  0.500000  0.257076  0.454531  1
