# generated using pymatgen
data_Ta12Tc7B12Os5
_symmetry_space_group_name_H-M   'P 1'
_cell_length_a   3.15712200
_cell_length_b   9.06784493
_cell_length_c   15.71192603
_cell_angle_alpha   90.09649896
_cell_angle_beta   90.00000000
_cell_angle_gamma   90.00000000
_symmetry_Int_Tables_number   1
_chemical_formula_structural   Ta12Tc7B12Os5
_chemical_formula_sum   'Ta12 Tc7 B12 Os5'
_cell_volume   449.80497964
_cell_formula_units_Z   1
loop_
 _symmetry_equiv_pos_site_id
 _symmetry_equiv_pos_as_xyz
  1  'x, y, z'
loop_
 _atom_site_type_symbol
 _atom_site_label
 _atom_site_symmetry_multiplicity
 _atom_site_fract_x
 _atom_site_fract_y
 _atom_site_fract_z
 _atom_site_occupancy
  Ta  Ta0  1  0.000000  0.801899  0.493210  1
  Ta  Ta1  1  0.000000  0.199260  0.505349  1
  Ta  Ta2  1  0.000000  0.303466  0.006379  1
  Ta  Ta3  1  0.000000  0.696452  0.993682  1
  Ta  Ta4  1  0.000000  0.515813  0.594015  1
  Ta  Ta5  1  0.000000  0.485221  0.405445  1
  Ta  Ta6  1  0.000000  0.015479  0.905682  1
  Ta  Ta7  1  0.000000  0.984548  0.094581  1
  Ta  Ta8  1  0.000000  0.680632  0.205055  1
  Ta  Ta9  1  0.000000  0.319042  0.795170  1
  Ta  Ta10  1  0.000000  0.180443  0.294876  1
  Ta  Ta11  1  0.000000  0.816589  0.706831  1
  Tc  Tc12  1  0.500000  0.716958  0.357624  1
  Tc  Tc13  1  0.500000  0.282276  0.642063  1
  Tc  Tc14  1  0.500000  0.216510  0.142661  1
  Tc  Tc15  1  0.500000  0.783211  0.856909  1
  Tc  Tc16  1  0.500000  0.518836  0.095449  1
  Tc  Tc17  1  0.500000  0.481111  0.904078  1
  Tc  Tc18  1  0.500000  0.018915  0.405683  1
  B  B19  1  0.500000  0.605509  0.495573  1
  B  B20  1  0.500000  0.395846  0.504162  1
  B  B21  1  0.500000  0.105124  0.004584  1
  B  B22  1  0.500000  0.895002  0.995258  1
  B  B23  1  0.000000  0.610341  0.834070  1
  B  B24  1  0.000000  0.389203  0.165944  1
  B  B25  1  0.000000  0.112595  0.666875  1
  B  B26  1  0.000000  0.889666  0.334068  1
  B  B27  1  0.500000  0.715823  0.600664  1
  B  B28  1  0.500000  0.285086  0.398922  1
  B  B29  1  0.500000  0.215597  0.899208  1
  B  B30  1  0.500000  0.784104  0.100956  1
  Os  Os31  1  0.500000  0.980887  0.595549  1
  Os  Os32  1  0.500000  0.567932  0.732098  1
  Os  Os33  1  0.500000  0.431395  0.267578  1
  Os  Os34  1  0.500000  0.067666  0.766756  1
  Os  Os35  1  0.500000  0.931562  0.232994  1
