# generated using pymatgen
data_Tb3Al8ZnNi6
_symmetry_space_group_name_H-M   'P 1'
_cell_length_a   8.97811400
_cell_length_b   9.00536700
_cell_length_c   4.08475100
_cell_angle_alpha   90.00000000
_cell_angle_beta   90.00000000
_cell_angle_gamma   119.89994098
_symmetry_Int_Tables_number   1
_chemical_formula_structural   Tb3Al8ZnNi6
_chemical_formula_sum   'Tb3 Al8 Zn1 Ni6'
_cell_volume   286.29894746
_cell_formula_units_Z   1
loop_
 _symmetry_equiv_pos_site_id
 _symmetry_equiv_pos_as_xyz
  1  'x, y, z'
loop_
 _atom_site_type_symbol
 _atom_site_label
 _atom_site_symmetry_multiplicity
 _atom_site_fract_x
 _atom_site_fract_y
 _atom_site_fract_z
 _atom_site_occupancy
  Tb  Tb0  1  0.333584  0.669075  0.500000  1
  Tb  Tb1  1  0.664510  0.330925  0.500000  1
  Tb  Tb2  1  0.002843  0.000000  0.000000  1
  Al  Al3  1  0.497625  0.000000  0.000000  1
  Al  Al4  1  0.999006  0.498897  0.000000  1
  Al  Al5  1  0.500109  0.501103  0.000000  1
  Al  Al6  1  0.702573  0.000000  0.500000  1
  Al  Al7  1  0.999940  0.296687  0.500000  1
  Al  Al8  1  0.001539  0.704745  0.500000  1
  Al  Al9  1  0.703254  0.703313  0.500000  1
  Al  Al10  1  0.296794  0.295255  0.500000  1
  Zn  Zn11  1  0.297264  0.000000  0.500000  1
  Ni  Ni12  1  0.181854  0.363317  0.000000  1
  Ni  Ni13  1  0.818538  0.636683  0.000000  1
  Ni  Ni14  1  0.636325  0.818651  0.000000  1
  Ni  Ni15  1  0.366425  0.186283  0.000000  1
  Ni  Ni16  1  0.180141  0.813717  0.000000  1
  Ni  Ni17  1  0.817675  0.181349  0.000000  1
