# generated using pymatgen
data_Tm2Cr3O12
_symmetry_space_group_name_H-M   'P 1'
_cell_length_a   9.92590555
_cell_length_b   9.92566554
_cell_length_c   9.92563421
_cell_angle_alpha   58.16767431
_cell_angle_beta   58.16700871
_cell_angle_gamma   58.16797952
_symmetry_Int_Tables_number   1
_chemical_formula_structural   Tm2Cr3O12
_chemical_formula_sum   'Tm4 Cr6 O24'
_cell_volume   662.43055940
_cell_formula_units_Z   2
loop_
 _symmetry_equiv_pos_site_id
 _symmetry_equiv_pos_as_xyz
  1  'x, y, z'
loop_
 _atom_site_type_symbol
 _atom_site_label
 _atom_site_symmetry_multiplicity
 _atom_site_fract_x
 _atom_site_fract_y
 _atom_site_fract_z
 _atom_site_occupancy
  Tm  Tm0  1  0.642650  0.642672  0.642675  1
  Tm  Tm1  1  0.357318  0.357331  0.357329  1
  Tm  Tm2  1  0.142719  0.142665  0.142638  1
  Tm  Tm3  1  0.857314  0.857327  0.857362  1
  Cr  Cr4  1  0.750041  0.035826  0.464106  1
  Cr  Cr5  1  0.964287  0.535705  0.250024  1
  Cr  Cr6  1  0.535736  0.250000  0.964244  1
  Cr  Cr7  1  0.464174  0.749997  0.035841  1
  Cr  Cr8  1  0.035800  0.464201  0.749991  1
  Cr  Cr9  1  0.249959  0.964221  0.535805  1
  O  O10  1  0.918978  0.064352  0.293240  1
  O  O11  1  0.777751  0.003455  0.631436  1
  O  O12  1  0.996585  0.368457  0.222267  1
  O  O13  1  0.706877  0.080870  0.935626  1
  O  O14  1  0.581045  0.206745  0.435632  1
  O  O15  1  0.868455  0.496601  0.722245  1
  O  O16  1  0.503425  0.277757  0.131549  1
  O  O17  1  0.793169  0.564341  0.419119  1
  O  O18  1  0.935649  0.706835  0.080897  1
  O  O19  1  0.564370  0.419135  0.793108  1
  O  O20  1  0.368486  0.222233  0.996564  1
  O  O21  1  0.277730  0.131568  0.503426  1
  O  O22  1  0.722270  0.868573  0.496523  1
  O  O23  1  0.631603  0.777750  0.003420  1
  O  O24  1  0.435643  0.580859  0.206891  1
  O  O25  1  0.064343  0.293215  0.919049  1
  O  O26  1  0.206779  0.435663  0.580954  1
  O  O27  1  0.496592  0.722214  0.868400  1
  O  O28  1  0.131516  0.503412  0.277775  1
  O  O29  1  0.419110  0.793146  0.564372  1
  O  O30  1  0.293152  0.919089  0.064375  1
  O  O31  1  0.003423  0.631536  0.777757  1
  O  O32  1  0.222225  0.996593  0.368465  1
  O  O33  1  0.080827  0.935657  0.706894  1
