# generated using pymatgen
data_TmPa(TcB4)2
_symmetry_space_group_name_H-M   'P 1'
_cell_length_a   3.61974600
_cell_length_b   5.94951578
_cell_length_c   11.52111526
_cell_angle_alpha   90.20231908
_cell_angle_beta   90.00000000
_cell_angle_gamma   90.00000000
_symmetry_Int_Tables_number   1
_chemical_formula_structural   TmPa(TcB4)2
_chemical_formula_sum   'Tm2 Pa2 Tc4 B16'
_cell_volume   248.11414905
_cell_formula_units_Z   2
loop_
 _symmetry_equiv_pos_site_id
 _symmetry_equiv_pos_as_xyz
  1  'x, y, z'
loop_
 _atom_site_type_symbol
 _atom_site_label
 _atom_site_symmetry_multiplicity
 _atom_site_fract_x
 _atom_site_fract_y
 _atom_site_fract_z
 _atom_site_occupancy
  Tm  Tm0  1  0.500000  0.627376  0.852179  1
  Tm  Tm1  1  0.500000  0.372624  0.147821  1
  Pa  Pa2  1  0.500000  0.128254  0.651988  1
  Pa  Pa3  1  0.500000  0.871746  0.348012  1
  Tc  Tc4  1  0.500000  0.135856  0.909217  1
  Tc  Tc5  1  0.500000  0.864144  0.090783  1
  Tc  Tc6  1  0.500000  0.639627  0.593075  1
  Tc  Tc7  1  0.500000  0.360373  0.406925  1
  B  B8  1  0.000000  0.474753  0.692623  1
  B  B9  1  0.000000  0.525247  0.307377  1
  B  B10  1  0.000000  0.977687  0.809010  1
  B  B11  1  0.000000  0.022313  0.190990  1
  B  B12  1  0.000000  0.289181  0.814585  1
  B  B13  1  0.000000  0.710819  0.185415  1
  B  B14  1  0.000000  0.787987  0.686652  1
  B  B15  1  0.000000  0.212013  0.313348  1
  B  B16  1  0.000000  0.364267  0.968868  1
  B  B17  1  0.000000  0.635733  0.031132  1
  B  B18  1  0.000000  0.865115  0.531474  1
  B  B19  1  0.000000  0.134885  0.468526  1
  B  B20  1  0.000000  0.388159  0.546860  1
  B  B21  1  0.000000  0.611841  0.453140  1
  B  B22  1  0.000000  0.885860  0.953684  1
  B  B23  1  0.000000  0.114140  0.046316  1
