# generated using pymatgen
data_La2Lu3Sb4
_symmetry_space_group_name_H-M   'P 1'
_cell_length_a   8.08506800
_cell_length_b   8.15657500
_cell_length_c   15.34280700
_cell_angle_alpha   90.00000000
_cell_angle_beta   90.00000000
_cell_angle_gamma   90.00000000
_symmetry_Int_Tables_number   1
_chemical_formula_structural   La2Lu3Sb4
_chemical_formula_sum   'La8 Lu12 Sb16'
_cell_volume   1011.80386215
_cell_formula_units_Z   4
loop_
 _symmetry_equiv_pos_site_id
 _symmetry_equiv_pos_as_xyz
  1  'x, y, z'
loop_
 _atom_site_type_symbol
 _atom_site_label
 _atom_site_symmetry_multiplicity
 _atom_site_fract_x
 _atom_site_fract_y
 _atom_site_fract_z
 _atom_site_occupancy
  La  La0  1  0.023671  0.177038  0.095800  1
  La  La1  1  0.523671  0.322962  0.404200  1
  La  La2  1  0.476329  0.677038  0.904200  1
  La  La3  1  0.976329  0.822962  0.595800  1
  La  La4  1  0.976329  0.822962  0.904200  1
  La  La5  1  0.476329  0.677038  0.595800  1
  La  La6  1  0.523671  0.322962  0.095800  1
  La  La7  1  0.023671  0.177038  0.404200  1
  Lu  Lu8  1  0.854631  0.649781  0.123961  1
  Lu  Lu9  1  0.354631  0.850219  0.376039  1
  Lu  Lu10  1  0.645369  0.149781  0.876039  1
  Lu  Lu11  1  0.145369  0.350219  0.623961  1
  Lu  Lu12  1  0.145369  0.350219  0.876039  1
  Lu  Lu13  1  0.645369  0.149781  0.623961  1
  Lu  Lu14  1  0.354631  0.850219  0.123961  1
  Lu  Lu15  1  0.854631  0.649781  0.376039  1
  Lu  Lu16  1  0.692612  0.999229  0.250000  1
  Lu  Lu17  1  0.192612  0.500771  0.250000  1
  Lu  Lu18  1  0.807388  0.499229  0.750000  1
  Lu  Lu19  1  0.307388  0.000771  0.750000  1
  Sb  Sb20  1  0.051164  0.860714  0.250000  1
  Sb  Sb21  1  0.551164  0.639286  0.250000  1
  Sb  Sb22  1  0.448836  0.360714  0.750000  1
  Sb  Sb23  1  0.948836  0.139286  0.750000  1
  Sb  Sb24  1  0.836459  0.350492  0.250000  1
  Sb  Sb25  1  0.336459  0.149508  0.250000  1
  Sb  Sb26  1  0.663541  0.850492  0.750000  1
  Sb  Sb27  1  0.163541  0.649508  0.750000  1
  Sb  Sb28  1  0.799257  0.454501  0.952330  1
  Sb  Sb29  1  0.299257  0.045499  0.547670  1
  Sb  Sb30  1  0.700743  0.954501  0.047670  1
  Sb  Sb31  1  0.200743  0.545499  0.452330  1
  Sb  Sb32  1  0.200743  0.545499  0.047670  1
  Sb  Sb33  1  0.700743  0.954501  0.452330  1
  Sb  Sb34  1  0.299257  0.045499  0.952330  1
  Sb  Sb35  1  0.799257  0.454501  0.547670  1
