# generated using pymatgen
data_Rb12Na8Hf3TiSb12
_symmetry_space_group_name_H-M   'P 1'
_cell_length_a   11.60439769
_cell_length_b   11.60439693
_cell_length_c   16.83143949
_cell_angle_alpha   90.03035896
_cell_angle_beta   90.03036241
_cell_angle_gamma   142.95133254
_symmetry_Int_Tables_number   1
_chemical_formula_structural   Rb12Na8Hf3TiSb12
_chemical_formula_sum   'Rb12 Na8 Hf3 Ti1 Sb12'
_cell_volume   1365.58257201
_cell_formula_units_Z   1
loop_
 _symmetry_equiv_pos_site_id
 _symmetry_equiv_pos_as_xyz
  1  'x, y, z'
loop_
 _atom_site_type_symbol
 _atom_site_label
 _atom_site_symmetry_multiplicity
 _atom_site_fract_x
 _atom_site_fract_y
 _atom_site_fract_z
 _atom_site_occupancy
  Rb  Rb0  1  0.603055  0.942923  0.825808  1
  Rb  Rb1  1  0.277551  0.277405  0.320833  1
  Rb  Rb2  1  0.220607  0.220189  0.819461  1
  Rb  Rb3  1  0.722595  0.722449  0.679167  1
  Rb  Rb4  1  0.442607  0.105096  0.670827  1
  Rb  Rb5  1  0.894904  0.557393  0.329173  1
  Rb  Rb6  1  0.057077  0.396945  0.174192  1
  Rb  Rb7  1  0.395662  0.056400  0.175700  1
  Rb  Rb8  1  0.556926  0.894889  0.326812  1
  Rb  Rb9  1  0.105111  0.443074  0.673188  1
  Rb  Rb10  1  0.943600  0.604338  0.824300  1
  Rb  Rb11  1  0.779811  0.779393  0.180539  1
  Na  Na12  1  0.082071  0.917929  0.000000  1
  Na  Na13  1  0.580141  0.419859  0.500000  1
  Na  Na14  1  0.918414  0.081586  0.000000  1
  Na  Na15  1  0.753792  0.246208  0.000000  1
  Na  Na16  1  0.745927  0.254073  0.500000  1
  Na  Na17  1  0.245841  0.754159  0.000000  1
  Na  Na18  1  0.254279  0.745721  0.500000  1
  Na  Na19  1  0.419450  0.580550  0.500000  1
  Hf  Hf20  1  0.414939  0.585061  0.000000  1
  Hf  Hf21  1  0.915138  0.084862  0.500000  1
  Hf  Hf22  1  0.585341  0.414659  0.000000  1
  Ti  Ti23  1  0.085598  0.914402  0.500000  1
  Sb  Sb24  1  0.061109  0.375776  0.400452  1
  Sb  Sb25  1  0.874074  0.559547  0.100524  1
  Sb  Sb26  1  0.440453  0.125926  0.899476  1
  Sb  Sb27  1  0.624224  0.938891  0.599548  1
  Sb  Sb28  1  0.943213  0.633331  0.595784  1
  Sb  Sb29  1  0.125508  0.439894  0.900104  1
  Sb  Sb30  1  0.560106  0.874492  0.099896  1
  Sb  Sb31  1  0.366669  0.056787  0.404216  1
  Sb  Sb32  1  0.202356  0.198564  0.590637  1
  Sb  Sb33  1  0.706512  0.706098  0.906984  1
  Sb  Sb34  1  0.293902  0.293488  0.093016  1
  Sb  Sb35  1  0.801436  0.797644  0.409363  1
