# generated using pymatgen
data_Tb2Nd3(Sn5Rh2)2
_symmetry_space_group_name_H-M   'P 1'
_cell_length_a   14.18889700
_cell_length_b   14.18889700
_cell_length_c   4.58955300
_cell_angle_alpha   90.00000000
_cell_angle_beta   90.00000000
_cell_angle_gamma   90.00000000
_symmetry_Int_Tables_number   1
_chemical_formula_structural   Tb2Nd3(Sn5Rh2)2
_chemical_formula_sum   'Tb4 Nd6 Sn20 Rh8'
_cell_volume   923.99083099
_cell_formula_units_Z   2
loop_
 _symmetry_equiv_pos_site_id
 _symmetry_equiv_pos_as_xyz
  1  'x, y, z'
loop_
 _atom_site_type_symbol
 _atom_site_label
 _atom_site_symmetry_multiplicity
 _atom_site_fract_x
 _atom_site_fract_y
 _atom_site_fract_z
 _atom_site_occupancy
  Tb  Tb0  1  0.677283  0.177283  0.500000  1
  Tb  Tb1  1  0.322717  0.822717  0.500000  1
  Tb  Tb2  1  0.177283  0.322717  0.500000  1
  Tb  Tb3  1  0.822717  0.677283  0.500000  1
  Nd  Nd4  1  0.500000  0.500000  0.000000  1
  Nd  Nd5  1  0.000000  0.000000  0.000000  1
  Nd  Nd6  1  0.888458  0.388458  0.500000  1
  Nd  Nd7  1  0.111542  0.611542  0.500000  1
  Nd  Nd8  1  0.388458  0.111542  0.500000  1
  Nd  Nd9  1  0.611542  0.888458  0.500000  1
  Sn  Sn10  1  0.569946  0.069946  0.000000  1
  Sn  Sn11  1  0.430054  0.930054  0.000000  1
  Sn  Sn12  1  0.069946  0.430054  0.000000  1
  Sn  Sn13  1  0.930054  0.569946  0.000000  1
  Sn  Sn14  1  0.653661  0.698858  0.000000  1
  Sn  Sn15  1  0.346339  0.301142  0.000000  1
  Sn  Sn16  1  0.153661  0.801142  0.000000  1
  Sn  Sn17  1  0.846339  0.198858  0.000000  1
  Sn  Sn18  1  0.301142  0.653661  0.000000  1
  Sn  Sn19  1  0.698858  0.346339  0.000000  1
  Sn  Sn20  1  0.198858  0.153661  0.000000  1
  Sn  Sn21  1  0.801142  0.846339  0.000000  1
  Sn  Sn22  1  0.663932  0.506088  0.500000  1
  Sn  Sn23  1  0.336068  0.493912  0.500000  1
  Sn  Sn24  1  0.163932  0.993912  0.500000  1
  Sn  Sn25  1  0.836068  0.006088  0.500000  1
  Sn  Sn26  1  0.493912  0.663932  0.500000  1
  Sn  Sn27  1  0.506088  0.336068  0.500000  1
  Sn  Sn28  1  0.006088  0.163932  0.500000  1
  Sn  Sn29  1  0.993912  0.836068  0.500000  1
  Rh  Rh30  1  0.747011  0.530189  0.000000  1
  Rh  Rh31  1  0.252989  0.469811  0.000000  1
  Rh  Rh32  1  0.247011  0.969811  0.000000  1
  Rh  Rh33  1  0.752989  0.030189  0.000000  1
  Rh  Rh34  1  0.469811  0.747011  0.000000  1
  Rh  Rh35  1  0.530189  0.252989  0.000000  1
  Rh  Rh36  1  0.030189  0.247011  0.000000  1
  Rh  Rh37  1  0.969811  0.752989  0.000000  1
