# generated using pymatgen
data_Na3Ga5I16
_symmetry_space_group_name_H-M   'P 1'
_cell_length_a   8.45679600
_cell_length_b   8.53649778
_cell_length_c   15.21746347
_cell_angle_alpha   90.13090277
_cell_angle_beta   90.00000000
_cell_angle_gamma   90.00000000
_symmetry_Int_Tables_number   1
_chemical_formula_structural   Na3Ga5I16
_chemical_formula_sum   'Na3 Ga5 I16'
_cell_volume   1098.56743434
_cell_formula_units_Z   1
loop_
 _symmetry_equiv_pos_site_id
 _symmetry_equiv_pos_as_xyz
  1  'x, y, z'
loop_
 _atom_site_type_symbol
 _atom_site_label
 _atom_site_symmetry_multiplicity
 _atom_site_fract_x
 _atom_site_fract_y
 _atom_site_fract_z
 _atom_site_occupancy
  Na  Na0  1  0.750000  0.944140  0.349942  1
  Na  Na1  1  0.750000  0.554574  0.848431  1
  Na  Na2  1  0.250000  0.053388  0.650784  1
  Ga  Ga3  1  0.250000  0.303051  0.894253  1
  Ga  Ga4  1  0.750000  0.805120  0.602100  1
  Ga  Ga5  1  0.750000  0.701600  0.102622  1
  Ga  Ga6  1  0.250000  0.192041  0.400745  1
  Ga  Ga7  1  0.250000  0.440401  0.151415  1
  I  I8  1  0.250000  0.125009  0.030895  1
  I  I9  1  0.750000  0.629313  0.464697  1
  I  I10  1  0.750000  0.870917  0.962826  1
  I  I11  1  0.250000  0.369546  0.537419  1
  I  I12  1  0.250000  0.902304  0.450527  1
  I  I13  1  0.750000  0.410457  0.054133  1
  I  I14  1  0.750000  0.094664  0.552431  1
  I  I15  1  0.250000  0.592244  0.945101  1
  I  I16  1  0.994192  0.763698  0.200645  1
  I  I17  1  0.004398  0.250988  0.302683  1
  I  I18  1  0.496095  0.244987  0.796667  1
  I  I19  1  0.505307  0.745943  0.700844  1
  I  I20  1  0.003905  0.244987  0.796667  1
  I  I21  1  0.994693  0.745943  0.700844  1
  I  I22  1  0.505808  0.763698  0.200645  1
  I  I23  1  0.495602  0.250988  0.302683  1
