# generated using pymatgen
data_La16Dy4Sn15Bi
_symmetry_space_group_name_H-M   'P 1'
_cell_length_a   8.42574395
_cell_length_b   8.50113036
_cell_length_c   16.25603400
_cell_angle_alpha   89.98540837
_cell_angle_beta   90.12778051
_cell_angle_gamma   89.91179548
_symmetry_Int_Tables_number   1
_chemical_formula_structural   La16Dy4Sn15Bi
_chemical_formula_sum   'La16 Dy4 Sn15 Bi1'
_cell_volume   1164.38854138
_cell_formula_units_Z   1
loop_
 _symmetry_equiv_pos_site_id
 _symmetry_equiv_pos_as_xyz
  1  'x, y, z'
loop_
 _atom_site_type_symbol
 _atom_site_label
 _atom_site_symmetry_multiplicity
 _atom_site_fract_x
 _atom_site_fract_y
 _atom_site_fract_z
 _atom_site_occupancy
  La  La0  1  0.971699  0.819544  0.899534  1
  La  La1  1  0.466853  0.682549  0.601390  1
  La  La2  1  0.528442  0.319164  0.100465  1
  La  La3  1  0.030156  0.179280  0.398589  1
  La  La4  1  0.971918  0.822137  0.601035  1
  La  La5  1  0.471312  0.680761  0.899586  1
  La  La6  1  0.526175  0.317637  0.397915  1
  La  La7  1  0.028234  0.181221  0.100238  1
  La  La8  1  0.880819  0.662162  0.381071  1
  La  La9  1  0.378901  0.840784  0.117761  1
  La  La10  1  0.619379  0.156086  0.618561  1
  La  La11  1  0.121490  0.341024  0.882056  1
  La  La12  1  0.125022  0.339375  0.617978  1
  La  La13  1  0.621514  0.159118  0.881962  1
  La  La14  1  0.379144  0.840188  0.382124  1
  La  La15  1  0.878921  0.658918  0.117861  1
  Dy  Dy16  1  0.286630  0.002518  0.750859  1
  Dy  Dy17  1  0.787178  0.497255  0.753978  1
  Dy  Dy18  1  0.212745  0.503201  0.249426  1
  Dy  Dy19  1  0.712692  0.997403  0.249266  1
  Sn  Sn20  1  0.281234  0.029776  0.953152  1
  Sn  Sn21  1  0.719586  0.971512  0.453365  1
  Sn  Sn22  1  0.219062  0.529770  0.046612  1
  Sn  Sn23  1  0.220451  0.528821  0.453114  1
  Sn  Sn24  1  0.718839  0.970401  0.046724  1
  Sn  Sn25  1  0.280913  0.028670  0.547018  1
  Sn  Sn26  1  0.781185  0.470348  0.953236  1
  Sn  Sn27  1  0.166963  0.645639  0.749788  1
  Sn  Sn28  1  0.667124  0.853414  0.749758  1
  Sn  Sn29  1  0.332206  0.145170  0.249752  1
  Sn  Sn30  1  0.831982  0.354950  0.250111  1
  Sn  Sn31  1  0.924819  0.118962  0.749471  1
  Sn  Sn32  1  0.424515  0.381699  0.749493  1
  Sn  Sn33  1  0.576439  0.617989  0.250216  1
  Sn  Sn34  1  0.075595  0.881964  0.249665  1
  Bi  Bi35  1  0.779860  0.470590  0.546870  1
