# generated using pymatgen
data_Tm9LuBi6
_symmetry_space_group_name_H-M   'P 1'
_cell_length_a   8.16754700
_cell_length_b   9.44296800
_cell_length_c   11.87396103
_cell_angle_alpha   89.99601461
_cell_angle_beta   90.00000000
_cell_angle_gamma   90.00000000
_symmetry_Int_Tables_number   1
_chemical_formula_structural   Tm9LuBi6
_chemical_formula_sum   'Tm18 Lu2 Bi12'
_cell_volume   915.78975041
_cell_formula_units_Z   2
loop_
 _symmetry_equiv_pos_site_id
 _symmetry_equiv_pos_as_xyz
  1  'x, y, z'
loop_
 _atom_site_type_symbol
 _atom_site_label
 _atom_site_symmetry_multiplicity
 _atom_site_fract_x
 _atom_site_fract_y
 _atom_site_fract_z
 _atom_site_occupancy
  Tm  Tm0  1  0.352722  0.750059  0.216987  1
  Tm  Tm1  1  0.852722  0.749941  0.283013  1
  Tm  Tm2  1  0.647045  0.249896  0.783022  1
  Tm  Tm3  1  0.147045  0.250104  0.716978  1
  Tm  Tm4  1  0.308521  0.065758  0.941390  1
  Tm  Tm5  1  0.808521  0.434242  0.558610  1
  Tm  Tm6  1  0.308095  0.434449  0.941163  1
  Tm  Tm7  1  0.808095  0.065551  0.558837  1
  Tm  Tm8  1  0.691708  0.934562  0.058702  1
  Tm  Tm9  1  0.191708  0.565438  0.441298  1
  Tm  Tm10  1  0.476831  0.249851  0.488770  1
  Tm  Tm11  1  0.976831  0.250149  0.011230  1
  Tm  Tm12  1  0.522643  0.750173  0.511068  1
  Tm  Tm13  1  0.022643  0.749827  0.988932  1
  Tm  Tm14  1  0.313035  0.250004  0.217363  1
  Tm  Tm15  1  0.813035  0.249996  0.282637  1
  Tm  Tm16  1  0.686863  0.749842  0.782722  1
  Tm  Tm17  1  0.186863  0.750158  0.717278  1
  Lu  Lu18  1  0.691840  0.567096  0.058894  1
  Lu  Lu19  1  0.191840  0.932904  0.441106  1
  Bi  Bi20  1  0.404192  0.749720  0.957140  1
  Bi  Bi21  1  0.904192  0.750280  0.542860  1
  Bi  Bi22  1  0.596172  0.251662  0.043223  1
  Bi  Bi23  1  0.096172  0.248338  0.456777  1
  Bi  Bi24  1  0.565456  0.996028  0.325193  1
  Bi  Bi25  1  0.065456  0.503972  0.174807  1
  Bi  Bi26  1  0.434546  0.496051  0.674763  1
  Bi  Bi27  1  0.934546  0.003949  0.825237  1
  Bi  Bi28  1  0.434643  0.004011  0.674744  1
  Bi  Bi29  1  0.934643  0.495989  0.825256  1
  Bi  Bi30  1  0.565690  0.504032  0.325265  1
  Bi  Bi31  1  0.065690  0.995968  0.174735  1
