# generated using pymatgen
data_Tm5LuRh2
_symmetry_space_group_name_H-M   'P 1'
_cell_length_a   7.09156220
_cell_length_b   9.19964700
_cell_length_c   6.25059917
_cell_angle_alpha   90.00000000
_cell_angle_beta   90.02686790
_cell_angle_gamma   90.00000000
_symmetry_Int_Tables_number   1
_chemical_formula_structural   Tm5LuRh2
_chemical_formula_sum   'Tm10 Lu2 Rh4'
_cell_volume   407.78822551
_cell_formula_units_Z   2
loop_
 _symmetry_equiv_pos_site_id
 _symmetry_equiv_pos_as_xyz
  1  'x, y, z'
loop_
 _atom_site_type_symbol
 _atom_site_label
 _atom_site_symmetry_multiplicity
 _atom_site_fract_x
 _atom_site_fract_y
 _atom_site_fract_z
 _atom_site_occupancy
  Tm  Tm0  1  0.466202  0.250000  0.130911  1
  Tm  Tm1  1  0.679300  0.562617  0.327326  1
  Tm  Tm2  1  0.679300  0.937383  0.327326  1
  Tm  Tm3  1  0.967019  0.250000  0.369407  1
  Tm  Tm4  1  0.033890  0.750000  0.628833  1
  Tm  Tm5  1  0.320284  0.062193  0.672980  1
  Tm  Tm6  1  0.320284  0.437807  0.672980  1
  Tm  Tm7  1  0.821170  0.062412  0.827646  1
  Tm  Tm8  1  0.821170  0.437588  0.827646  1
  Tm  Tm9  1  0.532708  0.750000  0.871415  1
  Lu  Lu10  1  0.179102  0.563697  0.172542  1
  Lu  Lu11  1  0.179102  0.936303  0.172542  1
  Rh  Rh12  1  0.885710  0.750000  0.049608  1
  Rh  Rh13  1  0.383812  0.750000  0.447808  1
  Rh  Rh14  1  0.615356  0.250000  0.550890  1
  Rh  Rh15  1  0.115592  0.250000  0.950152  1
