# generated using pymatgen
data_K11LiCr4O16
_symmetry_space_group_name_H-M   'P 1'
_cell_length_a   8.04282614
_cell_length_b   8.04335867
_cell_length_c   10.48494591
_cell_angle_alpha   112.66840332
_cell_angle_beta   112.66475336
_cell_angle_gamma   89.94028494
_symmetry_Int_Tables_number   1
_chemical_formula_structural   K11LiCr4O16
_chemical_formula_sum   'K11 Li1 Cr4 O16'
_cell_volume   568.82681724
_cell_formula_units_Z   1
loop_
 _symmetry_equiv_pos_site_id
 _symmetry_equiv_pos_as_xyz
  1  'x, y, z'
loop_
 _atom_site_type_symbol
 _atom_site_label
 _atom_site_symmetry_multiplicity
 _atom_site_fract_x
 _atom_site_fract_y
 _atom_site_fract_z
 _atom_site_occupancy
  K  K0  1  0.289551  0.289562  0.578924  1
  K  K1  1  0.498397  0.998680  0.999911  1
  K  K2  1  0.248876  0.750376  0.499413  1
  K  K3  1  0.920468  0.920566  0.239371  1
  K  K4  1  0.077983  0.680235  0.758809  1
  K  K5  1  0.710725  0.711044  0.421148  1
  K  K6  1  0.998774  0.497804  0.000119  1
  K  K7  1  0.680438  0.077991  0.758621  1
  K  K8  1  0.320711  0.320760  0.242210  1
  K  K9  1  0.750215  0.249303  0.499726  1
  K  K10  1  0.500678  0.500786  0.000352  1
  Li  Li11  1  0.000164  0.000336  0.999655  1
  Cr  Cr12  1  0.868084  0.382094  0.250414  1
  Cr  Cr13  1  0.132709  0.132326  0.750247  1
  Cr  Cr14  1  0.618304  0.618397  0.749841  1
  Cr  Cr15  1  0.381791  0.868007  0.250077  1
  O  O16  1  0.424200  0.006616  0.436921  1
  O  O17  1  0.796203  0.797379  0.886491  1
  O  O18  1  0.645683  0.332514  0.225909  1
  O  O19  1  0.331978  0.645738  0.225839  1
  O  O20  1  0.006432  0.423993  0.437144  1
  O  O21  1  0.579003  0.891738  0.223952  1
  O  O22  1  0.357507  0.114780  0.778858  1
  O  O23  1  0.207168  0.921074  0.119153  1
  O  O24  1  0.573735  0.573190  0.563258  1
  O  O25  1  0.073521  0.073305  0.871724  1
  O  O26  1  0.669411  0.419496  0.772393  1
  O  O27  1  0.989242  0.988711  0.564043  1
  O  O28  1  0.891025  0.579049  0.223789  1
  O  O29  1  0.922478  0.207822  0.120087  1
  O  O30  1  0.115189  0.357160  0.779183  1
  O  O31  1  0.419358  0.669166  0.772418  1
