# generated using pymatgen
data_Ta6Ti3Si6W
_symmetry_space_group_name_H-M   'P 1'
_cell_length_a   7.51374231
_cell_length_b   7.51374201
_cell_length_c   7.52627019
_cell_angle_alpha   129.01706155
_cell_angle_beta   129.02129582
_cell_angle_gamma   74.85513250
_symmetry_Int_Tables_number   1
_chemical_formula_structural   Ta6Ti3Si6W
_chemical_formula_sum   'Ta6 Ti3 Si6 W1'
_cell_volume   249.97746412
_cell_formula_units_Z   1
loop_
 _symmetry_equiv_pos_site_id
 _symmetry_equiv_pos_as_xyz
  1  'x, y, z'
loop_
 _atom_site_type_symbol
 _atom_site_label
 _atom_site_symmetry_multiplicity
 _atom_site_fract_x
 _atom_site_fract_y
 _atom_site_fract_z
 _atom_site_occupancy
  Ta  Ta0  1  0.514213  0.013410  0.827618  1
  Ta  Ta1  1  0.185792  0.686595  0.172382  1
  Ta  Ta2  1  0.986626  0.816673  0.501587  1
  Ta  Ta3  1  0.315088  0.485041  0.498413  1
  Ta  Ta4  1  0.484884  0.985448  0.170606  1
  Ta  Ta5  1  0.814842  0.314278  0.829394  1
  Ti  Ti6  1  0.013264  0.184028  0.498007  1
  Ti  Ti7  1  0.686020  0.515256  0.501993  1
  Ti  Ti8  1  0.500927  0.500927  0.000000  1
  Si  Si9  1  0.750818  0.750818  0.000000  1
  Si  Si10  1  0.253368  0.253368  0.000000  1
  Si  Si11  1  0.367402  0.134590  0.504356  1
  Si  Si12  1  0.630234  0.863046  0.495644  1
  Si  Si13  1  0.865888  0.370303  0.240549  1
  Si  Si14  1  0.129753  0.625338  0.759451  1
  W  W15  1  0.000880  0.000880  0.000000  1
