# generated using pymatgen
data_Yb6BiIrO12
_symmetry_space_group_name_H-M   'P 1'
_cell_length_a   6.58825478
_cell_length_b   6.58825573
_cell_length_c   6.58825500
_cell_angle_alpha   93.06083412
_cell_angle_beta   93.06083457
_cell_angle_gamma   93.06083789
_symmetry_Int_Tables_number   1
_chemical_formula_structural   Yb6BiIrO12
_chemical_formula_sum   'Yb6 Bi1 Ir1 O12'
_cell_volume   284.69456948
_cell_formula_units_Z   1
loop_
 _symmetry_equiv_pos_site_id
 _symmetry_equiv_pos_as_xyz
  1  'x, y, z'
loop_
 _atom_site_type_symbol
 _atom_site_label
 _atom_site_symmetry_multiplicity
 _atom_site_fract_x
 _atom_site_fract_y
 _atom_site_fract_z
 _atom_site_occupancy
  Yb  Yb0  1  0.929431  0.429474  0.742104  1
  Yb  Yb1  1  0.742104  0.929431  0.429474  1
  Yb  Yb2  1  0.570526  0.257896  0.070569  1
  Yb  Yb3  1  0.257896  0.070569  0.570526  1
  Yb  Yb4  1  0.070569  0.570526  0.257896  1
  Yb  Yb5  1  0.429474  0.742104  0.929431  1
  Bi  Bi6  1  0.000000  0.000000  0.000000  1
  Ir  Ir7  1  0.500000  0.500000  0.500000  1
  O  O8  1  0.307752  0.067840  0.923000  1
  O  O9  1  0.067840  0.923000  0.307752  1
  O  O10  1  0.923000  0.307752  0.067840  1
  O  O11  1  0.692248  0.932160  0.077000  1
  O  O12  1  0.932160  0.077000  0.692248  1
  O  O13  1  0.077000  0.692248  0.932160  1
  O  O14  1  0.219268  0.420905  0.544990  1
  O  O15  1  0.420905  0.544990  0.219268  1
  O  O16  1  0.455010  0.780732  0.579095  1
  O  O17  1  0.579095  0.455010  0.780732  1
  O  O18  1  0.780732  0.579095  0.455010  1
  O  O19  1  0.544990  0.219268  0.420905  1
