# generated using pymatgen
data_Dy2Al16RePt8
_symmetry_space_group_name_H-M   'P 1'
_cell_length_a   11.13925576
_cell_length_b   11.13925554
_cell_length_c   11.13925671
_cell_angle_alpha   158.42863312
_cell_angle_beta   116.93811926
_cell_angle_gamma   67.48109681
_symmetry_Int_Tables_number   1
_chemical_formula_structural   Dy2Al16RePt8
_chemical_formula_sum   'Dy2 Al16 Re1 Pt8'
_cell_volume   449.93252934
_cell_formula_units_Z   1
loop_
 _symmetry_equiv_pos_site_id
 _symmetry_equiv_pos_as_xyz
  1  'x, y, z'
loop_
 _atom_site_type_symbol
 _atom_site_label
 _atom_site_symmetry_multiplicity
 _atom_site_fract_x
 _atom_site_fract_y
 _atom_site_fract_z
 _atom_site_occupancy
  Dy  Dy0  1  0.231290  0.231228  0.000063  1
  Dy  Dy1  1  0.768835  0.768772  0.000063  1
  Al  Al2  1  0.273525  0.391178  0.882347  1
  Al  Al3  1  0.088461  0.923415  0.165045  1
  Al  Al4  1  0.505823  0.200685  0.305140  1
  Al  Al5  1  0.241630  0.076585  0.165045  1
  Al  Al6  1  0.907627  0.415599  0.492028  1
  Al  Al7  1  0.725413  0.599988  0.125425  1
  Al  Al8  1  0.900523  0.209219  0.691304  1
  Al  Al9  1  0.482086  0.790781  0.691304  1
  Al  Al10  1  0.388743  0.000000  0.388743  1
  Al  Al11  1  0.628886  0.000000  0.628886  1
  Al  Al12  1  0.491169  0.608822  0.882347  1
  Al  Al13  1  0.104455  0.799315  0.305140  1
  Al  Al14  1  0.909424  0.087509  0.821915  1
  Al  Al15  1  0.734406  0.912491  0.821915  1
  Al  Al16  1  0.525437  0.400012  0.125425  1
  Al  Al17  1  0.076429  0.584401  0.492028  1
  Re  Re18  1  0.785419  0.500000  0.285419  1
  Pt  Pt19  1  0.022646  0.343075  0.679571  1
  Pt  Pt20  1  0.629021  0.126138  0.502883  1
  Pt  Pt21  1  0.252020  0.500000  0.752020  1
  Pt  Pt22  1  0.376745  0.873862  0.502883  1
  Pt  Pt23  1  0.984460  0.000000  0.984460  1
  Pt  Pt24  1  0.648540  0.334026  0.314515  1
  Pt  Pt25  1  0.336497  0.656925  0.679571  1
  Pt  Pt26  1  0.980489  0.665974  0.314515  1
