# generated using pymatgen
data_YLu3PaPd15
_symmetry_space_group_name_H-M   'P 1'
_cell_length_a   4.07694800
_cell_length_b   4.07694800
_cell_length_c   20.33637400
_cell_angle_alpha   90.00000000
_cell_angle_beta   90.00000000
_cell_angle_gamma   90.00000000
_symmetry_Int_Tables_number   1
_chemical_formula_structural   YLu3PaPd15
_chemical_formula_sum   'Y1 Lu3 Pa1 Pd15'
_cell_volume   338.02114202
_cell_formula_units_Z   1
loop_
 _symmetry_equiv_pos_site_id
 _symmetry_equiv_pos_as_xyz
  1  'x, y, z'
loop_
 _atom_site_type_symbol
 _atom_site_label
 _atom_site_symmetry_multiplicity
 _atom_site_fract_x
 _atom_site_fract_y
 _atom_site_fract_z
 _atom_site_occupancy
  Y  Y0  1  0.000000  0.000000  0.795501  1
  Lu  Lu1  1  0.000000  0.000000  0.204759  1
  Lu  Lu2  1  0.000000  0.000000  0.400414  1
  Lu  Lu3  1  0.000000  0.000000  0.599317  1
  Pa  Pa4  1  0.000000  0.000000  0.000537  1
  Pd  Pd5  1  0.500000  0.500000  0.000143  1
  Pd  Pd6  1  0.500000  0.500000  0.198419  1
  Pd  Pd7  1  0.500000  0.500000  0.399496  1
  Pd  Pd8  1  0.500000  0.500000  0.600583  1
  Pd  Pd9  1  0.500000  0.500000  0.801419  1
  Pd  Pd10  1  0.500000  0.000000  0.098167  1
  Pd  Pd11  1  0.500000  0.000000  0.299192  1
  Pd  Pd12  1  0.500000  0.000000  0.500323  1
  Pd  Pd13  1  0.500000  0.000000  0.699224  1
  Pd  Pd14  1  0.500000  0.000000  0.902801  1
  Pd  Pd15  1  0.000000  0.500000  0.098167  1
  Pd  Pd16  1  0.000000  0.500000  0.299192  1
  Pd  Pd17  1  0.000000  0.500000  0.500323  1
  Pd  Pd18  1  0.000000  0.500000  0.699224  1
  Pd  Pd19  1  0.000000  0.500000  0.902801  1
