# generated using pymatgen
data_Dy5Y2Ho(WO6)4
_symmetry_space_group_name_H-M   'P 1'
_cell_length_a   5.40110211
_cell_length_b   7.71033633
_cell_length_c   11.48630008
_cell_angle_alpha   75.52953685
_cell_angle_beta   90.00064382
_cell_angle_gamma   89.97811994
_symmetry_Int_Tables_number   1
_chemical_formula_structural   Dy5Y2Ho(WO6)4
_chemical_formula_sum   'Dy5 Y2 Ho1 W4 O24'
_cell_volume   463.16449992
_cell_formula_units_Z   1
loop_
 _symmetry_equiv_pos_site_id
 _symmetry_equiv_pos_as_xyz
  1  'x, y, z'
loop_
 _atom_site_type_symbol
 _atom_site_label
 _atom_site_symmetry_multiplicity
 _atom_site_fract_x
 _atom_site_fract_y
 _atom_site_fract_z
 _atom_site_occupancy
  Dy  Dy0  1  0.738756  0.999829  0.749652  1
  Dy  Dy1  1  0.261172  0.999889  0.250273  1
  Dy  Dy2  1  0.813441  0.795525  0.077667  1
  Dy  Dy3  1  0.186490  0.204471  0.922357  1
  Dy  Dy4  1  0.813767  0.204297  0.422461  1
  Y  Y5  1  0.683753  0.500240  0.749714  1
  Y  Y6  1  0.316074  0.500079  0.250090  1
  Ho  Ho7  1  0.186371  0.795188  0.577856  1
  W  W8  1  0.254196  0.723395  0.885215  1
  W  W9  1  0.745526  0.723397  0.385779  1
  W  W10  1  0.254415  0.276792  0.614542  1
  W  W11  1  0.745606  0.276716  0.114562  1
  O  O12  1  0.041478  0.939321  0.895268  1
  O  O13  1  0.529795  0.849037  0.930319  1
  O  O14  1  0.958465  0.939148  0.395683  1
  O  O15  1  0.457971  0.789862  0.727302  1
  O  O16  1  0.469410  0.848504  0.431454  1
  O  O17  1  0.982196  0.710132  0.771074  1
  O  O18  1  0.541152  0.789816  0.228175  1
  O  O19  1  0.851821  0.635692  0.548009  1
  O  O20  1  0.362003  0.490283  0.886432  1
  O  O21  1  0.017694  0.709984  0.271640  1
  O  O22  1  0.360942  0.510297  0.613435  1
  O  O23  1  0.850544  0.364795  0.952167  1
  O  O24  1  0.149428  0.635356  0.047645  1
  O  O25  1  0.638340  0.490296  0.386806  1
  O  O26  1  0.981766  0.289725  0.728207  1
  O  O27  1  0.638028  0.509864  0.113517  1
  O  O28  1  0.149368  0.364634  0.452223  1
  O  O29  1  0.458919  0.210637  0.771979  1
  O  O30  1  0.017966  0.290036  0.228408  1
  O  O31  1  0.530228  0.151262  0.569287  1
  O  O32  1  0.541233  0.210360  0.272127  1
  O  O33  1  0.042943  0.059778  0.604634  1
  O  O34  1  0.470364  0.150736  0.069333  1
  O  O35  1  0.958379  0.060628  0.104710  1
