# generated using pymatgen
data_Tb8Y4GaCo4Hg
_symmetry_space_group_name_H-M   'P 1'
_cell_length_a   8.33297149
_cell_length_b   8.33297162
_cell_length_c   8.33297126
_cell_angle_alpha   112.08085595
_cell_angle_beta   109.48164712
_cell_angle_gamma   106.89271114
_symmetry_Int_Tables_number   1
_chemical_formula_structural   Tb8Y4GaCo4Hg
_chemical_formula_sum   'Tb8 Y4 Ga1 Co4 Hg1'
_cell_volume   444.51530723
_cell_formula_units_Z   1
loop_
 _symmetry_equiv_pos_site_id
 _symmetry_equiv_pos_as_xyz
  1  'x, y, z'
loop_
 _atom_site_type_symbol
 _atom_site_label
 _atom_site_symmetry_multiplicity
 _atom_site_fract_x
 _atom_site_fract_y
 _atom_site_fract_z
 _atom_site_occupancy
  Tb  Tb0  1  0.674767  0.861021  0.186254  1
  Tb  Tb1  1  0.325233  0.511487  0.186254  1
  Tb  Tb2  1  0.325233  0.138979  0.813746  1
  Tb  Tb3  1  0.674767  0.488513  0.813746  1
  Tb  Tb4  1  0.180558  0.218762  0.399321  1
  Tb  Tb5  1  0.819442  0.218762  0.038203  1
  Tb  Tb6  1  0.180558  0.781238  0.961797  1
  Tb  Tb7  1  0.819442  0.781238  0.600679  1
  Y  Y8  1  0.038358  0.735499  0.302858  1
  Y  Y9  1  0.961642  0.264501  0.697142  1
  Y  Y10  1  0.567359  0.264501  0.302858  1
  Y  Y11  1  0.432641  0.735499  0.697142  1
  Ga  Ga12  1  0.000000  0.500000  0.500000  1
  Co  Co13  1  0.658181  0.500000  0.158181  1
  Co  Co14  1  0.341819  0.500000  0.841819  1
  Co  Co15  1  0.887383  0.887383  0.000000  1
  Co  Co16  1  0.112617  0.112617  0.000000  1
  Hg  Hg17  1  0.500000  0.000000  0.500000  1
