# generated using pymatgen
data_Er3V(Ni4P3)2
_symmetry_space_group_name_H-M   'P 1'
_cell_length_a   3.71873700
_cell_length_b   10.58322100
_cell_length_c   12.23538600
_cell_angle_alpha   90.00000000
_cell_angle_beta   90.00000000
_cell_angle_gamma   90.00000000
_symmetry_Int_Tables_number   1
_chemical_formula_structural   Er3V(Ni4P3)2
_chemical_formula_sum   'Er6 V2 Ni16 P12'
_cell_volume   481.53848829
_cell_formula_units_Z   2
loop_
 _symmetry_equiv_pos_site_id
 _symmetry_equiv_pos_as_xyz
  1  'x, y, z'
loop_
 _atom_site_type_symbol
 _atom_site_label
 _atom_site_symmetry_multiplicity
 _atom_site_fract_x
 _atom_site_fract_y
 _atom_site_fract_z
 _atom_site_occupancy
  Er  Er0  1  0.750000  0.250000  0.477441  1
  Er  Er1  1  0.250000  0.750000  0.522559  1
  Er  Er2  1  0.250000  0.932284  0.793886  1
  Er  Er3  1  0.250000  0.567716  0.793886  1
  Er  Er4  1  0.750000  0.067716  0.206114  1
  Er  Er5  1  0.750000  0.432284  0.206114  1
  V  V6  1  0.250000  0.250000  0.848282  1
  V  V7  1  0.750000  0.750000  0.151718  1
  Ni  Ni8  1  0.250000  0.250000  0.299995  1
  Ni  Ni9  1  0.750000  0.750000  0.700005  1
  Ni  Ni10  1  0.750000  0.250000  0.016212  1
  Ni  Ni11  1  0.250000  0.750000  0.983788  1
  Ni  Ni12  1  0.250000  0.416560  0.011019  1
  Ni  Ni13  1  0.250000  0.083440  0.011019  1
  Ni  Ni14  1  0.750000  0.583440  0.988981  1
  Ni  Ni15  1  0.750000  0.916560  0.988981  1
  Ni  Ni16  1  0.250000  0.447732  0.572117  1
  Ni  Ni17  1  0.250000  0.052268  0.572117  1
  Ni  Ni18  1  0.750000  0.552268  0.427883  1
  Ni  Ni19  1  0.750000  0.947732  0.427883  1
  Ni  Ni20  1  0.250000  0.870992  0.289646  1
  Ni  Ni21  1  0.250000  0.629008  0.289646  1
  Ni  Ni22  1  0.750000  0.129008  0.710354  1
  Ni  Ni23  1  0.750000  0.370992  0.710354  1
  P  P24  1  0.250000  0.250000  0.122919  1
  P  P25  1  0.750000  0.750000  0.877081  1
  P  P26  1  0.250000  0.250000  0.654461  1
  P  P27  1  0.750000  0.750000  0.345539  1
  P  P28  1  0.250000  0.435047  0.385669  1
  P  P29  1  0.250000  0.064953  0.385669  1
  P  P30  1  0.750000  0.564953  0.614331  1
  P  P31  1  0.750000  0.935047  0.614331  1
  P  P32  1  0.250000  0.903770  0.107576  1
  P  P33  1  0.250000  0.596230  0.107576  1
  P  P34  1  0.750000  0.096230  0.892424  1
  P  P35  1  0.750000  0.403770  0.892424  1
