# generated using pymatgen
data_Tb7Er3Tl6(InPd2)2
_symmetry_space_group_name_H-M   'P 1'
_cell_length_a   3.64412300
_cell_length_b   8.22866070
_cell_length_c   18.38532906
_cell_angle_alpha   89.90317614
_cell_angle_beta   90.00000000
_cell_angle_gamma   90.00000000
_symmetry_Int_Tables_number   1
_chemical_formula_structural   Tb7Er3Tl6(InPd2)2
_chemical_formula_sum   'Tb7 Er3 Tl6 In2 Pd4'
_cell_volume   551.30631774
_cell_formula_units_Z   1
loop_
 _symmetry_equiv_pos_site_id
 _symmetry_equiv_pos_as_xyz
  1  'x, y, z'
loop_
 _atom_site_type_symbol
 _atom_site_label
 _atom_site_symmetry_multiplicity
 _atom_site_fract_x
 _atom_site_fract_y
 _atom_site_fract_z
 _atom_site_occupancy
  Tb  Tb0  1  0.000000  0.500222  0.500236  1
  Tb  Tb1  1  0.000000  0.999666  0.999568  1
  Tb  Tb2  1  0.000000  0.738679  0.282051  1
  Tb  Tb3  1  0.000000  0.261493  0.717882  1
  Tb  Tb4  1  0.000000  0.761889  0.782017  1
  Tb  Tb5  1  0.000000  0.238735  0.218464  1
  Tb  Tb6  1  0.000000  0.617609  0.084387  1
  Er  Er7  1  0.000000  0.382476  0.914314  1
  Er  Er8  1  0.000000  0.884084  0.585791  1
  Er  Er9  1  0.000000  0.115974  0.414559  1
  Tl  Tl10  1  0.500000  0.706350  0.933289  1
  Tl  Tl11  1  0.500000  0.291527  0.065753  1
  Tl  Tl12  1  0.500000  0.796013  0.435339  1
  Tl  Tl13  1  0.500000  0.203978  0.564620  1
  Tl  Tl14  1  0.500000  0.586125  0.650140  1
  Tl  Tl15  1  0.500000  0.414049  0.350490  1
  In  In16  1  0.500000  0.916884  0.151346  1
  In  In17  1  0.500000  0.085541  0.848740  1
  Pd  Pd18  1  0.500000  0.526269  0.196122  1
  Pd  Pd19  1  0.500000  0.472289  0.804739  1
  Pd  Pd20  1  0.500000  0.976556  0.696183  1
  Pd  Pd21  1  0.500000  0.023593  0.303968  1
