# generated using pymatgen
data_Hf2Ta3Re
_symmetry_space_group_name_H-M   'P 1'
_cell_length_a   5.49401836
_cell_length_b   5.41716208
_cell_length_c   8.94888900
_cell_angle_alpha   90.00000000
_cell_angle_beta   90.00000000
_cell_angle_gamma   119.53831347
_symmetry_Int_Tables_number   1
_chemical_formula_structural   Hf2Ta3Re
_chemical_formula_sum   'Hf4 Ta6 Re2'
_cell_volume   231.71993531
_cell_formula_units_Z   2
loop_
 _symmetry_equiv_pos_site_id
 _symmetry_equiv_pos_as_xyz
  1  'x, y, z'
loop_
 _atom_site_type_symbol
 _atom_site_label
 _atom_site_symmetry_multiplicity
 _atom_site_fract_x
 _atom_site_fract_y
 _atom_site_fract_z
 _atom_site_occupancy
  Hf  Hf0  1  0.332176  0.665536  0.062678  1
  Hf  Hf1  1  0.667824  0.333359  0.562678  1
  Hf  Hf2  1  0.667824  0.333359  0.937322  1
  Hf  Hf3  1  0.332176  0.665536  0.437322  1
  Ta  Ta4  1  0.000000  0.008405  0.000000  1
  Ta  Ta5  1  0.000000  0.008405  0.500000  1
  Ta  Ta6  1  0.830525  0.657694  0.250000  1
  Ta  Ta7  1  0.169475  0.827168  0.750000  1
  Ta  Ta8  1  0.655854  0.825312  0.750000  1
  Ta  Ta9  1  0.344146  0.169459  0.250000  1
  Re  Re10  1  0.831286  0.168527  0.250000  1
  Re  Re11  1  0.168714  0.337240  0.750000  1
