# generated using pymatgen
data_Tb4TmRu3
_symmetry_space_group_name_H-M   'P 1'
_cell_length_a   10.83403500
_cell_length_b   10.83403500
_cell_length_c   6.35817000
_cell_angle_alpha   90.00000000
_cell_angle_beta   90.00000000
_cell_angle_gamma   90.00000000
_symmetry_Int_Tables_number   1
_chemical_formula_structural   Tb4TmRu3
_chemical_formula_sum   'Tb16 Tm4 Ru12'
_cell_volume   746.29856081
_cell_formula_units_Z   4
loop_
 _symmetry_equiv_pos_site_id
 _symmetry_equiv_pos_as_xyz
  1  'x, y, z'
loop_
 _atom_site_type_symbol
 _atom_site_label
 _atom_site_symmetry_multiplicity
 _atom_site_fract_x
 _atom_site_fract_y
 _atom_site_fract_z
 _atom_site_occupancy
  Tb  Tb0  1  0.290946  0.087023  0.377169  1
  Tb  Tb1  1  0.290946  0.912977  0.877169  1
  Tb  Tb2  1  0.709054  0.087023  0.877169  1
  Tb  Tb3  1  0.709054  0.912977  0.377169  1
  Tb  Tb4  1  0.587023  0.790946  0.877169  1
  Tb  Tb5  1  0.587023  0.209054  0.377169  1
  Tb  Tb6  1  0.412977  0.790946  0.377169  1
  Tb  Tb7  1  0.412977  0.209054  0.877169  1
  Tb  Tb8  1  0.209054  0.412977  0.622831  1
  Tb  Tb9  1  0.209054  0.587023  0.122831  1
  Tb  Tb10  1  0.790946  0.412977  0.122831  1
  Tb  Tb11  1  0.790946  0.587023  0.622831  1
  Tb  Tb12  1  0.912977  0.709054  0.122831  1
  Tb  Tb13  1  0.912977  0.290946  0.622831  1
  Tb  Tb14  1  0.087023  0.709054  0.622831  1
  Tb  Tb15  1  0.087023  0.290946  0.122831  1
  Tm  Tm16  1  0.000000  0.000000  0.500000  1
  Tm  Tm17  1  0.000000  0.000000  0.000000  1
  Tm  Tm18  1  0.500000  0.500000  0.000000  1
  Tm  Tm19  1  0.500000  0.500000  0.500000  1
  Ru  Ru20  1  0.848068  0.151932  0.250000  1
  Ru  Ru21  1  0.848068  0.848068  0.750000  1
  Ru  Ru22  1  0.151932  0.151932  0.750000  1
  Ru  Ru23  1  0.151932  0.848068  0.250000  1
  Ru  Ru24  1  0.651932  0.348068  0.750000  1
  Ru  Ru25  1  0.651932  0.651932  0.250000  1
  Ru  Ru26  1  0.348068  0.348068  0.250000  1
  Ru  Ru27  1  0.348068  0.651932  0.750000  1
  Ru  Ru28  1  0.500000  0.000000  0.122085  1
  Ru  Ru29  1  0.500000  0.000000  0.622085  1
  Ru  Ru30  1  0.000000  0.500000  0.877915  1
  Ru  Ru31  1  0.000000  0.500000  0.377915  1
