# generated using pymatgen
data_Sc9Cd5Ni4
_symmetry_space_group_name_H-M   'P 1'
_cell_length_a   10.22588100
_cell_length_b   10.22588100
_cell_length_c   3.39035800
_cell_angle_alpha   90.00000000
_cell_angle_beta   90.00000000
_cell_angle_gamma   90.00000000
_symmetry_Int_Tables_number   1
_chemical_formula_structural   Sc9Cd5Ni4
_chemical_formula_sum   'Sc9 Cd5 Ni4'
_cell_volume   354.52513272
_cell_formula_units_Z   1
loop_
 _symmetry_equiv_pos_site_id
 _symmetry_equiv_pos_as_xyz
  1  'x, y, z'
loop_
 _atom_site_type_symbol
 _atom_site_label
 _atom_site_symmetry_multiplicity
 _atom_site_fract_x
 _atom_site_fract_y
 _atom_site_fract_z
 _atom_site_occupancy
  Sc  Sc0  1  0.324505  0.324505  0.500000  1
  Sc  Sc1  1  0.675495  0.675495  0.500000  1
  Sc  Sc2  1  0.324505  0.675495  0.500000  1
  Sc  Sc3  1  0.675495  0.324505  0.500000  1
  Sc  Sc4  1  0.000000  0.281123  0.500000  1
  Sc  Sc5  1  0.000000  0.718877  0.500000  1
  Sc  Sc6  1  0.281123  0.000000  0.500000  1
  Sc  Sc7  1  0.718877  0.000000  0.500000  1
  Sc  Sc8  1  0.000000  0.000000  0.000000  1
  Cd  Cd9  1  0.500000  0.146703  0.000000  1
  Cd  Cd10  1  0.500000  0.853297  0.000000  1
  Cd  Cd11  1  0.146703  0.500000  0.000000  1
  Cd  Cd12  1  0.853297  0.500000  0.000000  1
  Cd  Cd13  1  0.500000  0.500000  0.000000  1
  Ni  Ni14  1  0.189753  0.189753  0.000000  1
  Ni  Ni15  1  0.810247  0.810247  0.000000  1
  Ni  Ni16  1  0.189753  0.810247  0.000000  1
  Ni  Ni17  1  0.810247  0.189753  0.000000  1
