# generated using pymatgen
data_Sm8As(Pd7Pt)3
_symmetry_space_group_name_H-M   'P 1'
_cell_length_a   8.45294600
_cell_length_b   8.44955100
_cell_length_c   8.45283500
_cell_angle_alpha   90.00000000
_cell_angle_beta   90.00000000
_cell_angle_gamma   90.00000000
_symmetry_Int_Tables_number   1
_chemical_formula_structural   Sm8As(Pd7Pt)3
_chemical_formula_sum   'Sm8 As1 Pd21 Pt3'
_cell_volume   603.73189177
_cell_formula_units_Z   1
loop_
 _symmetry_equiv_pos_site_id
 _symmetry_equiv_pos_as_xyz
  1  'x, y, z'
loop_
 _atom_site_type_symbol
 _atom_site_label
 _atom_site_symmetry_multiplicity
 _atom_site_fract_x
 _atom_site_fract_y
 _atom_site_fract_z
 _atom_site_occupancy
  Sm  Sm0  1  0.253023  0.253275  0.251903  1
  Sm  Sm1  1  0.746051  0.745324  0.746387  1
  Sm  Sm2  1  0.746051  0.745324  0.253613  1
  Sm  Sm3  1  0.746051  0.254676  0.746387  1
  Sm  Sm4  1  0.253023  0.253275  0.748097  1
  Sm  Sm5  1  0.253023  0.746725  0.251903  1
  Sm  Sm6  1  0.253023  0.746725  0.748097  1
  Sm  Sm7  1  0.746051  0.254676  0.253613  1
  As  As8  1  0.008011  0.000000  0.000000  1
  Pd  Pd9  1  0.999998  0.259869  0.500000  1
  Pd  Pd10  1  0.501086  0.258374  0.000000  1
  Pd  Pd11  1  0.999998  0.740131  0.500000  1
  Pd  Pd12  1  0.501086  0.741626  0.000000  1
  Pd  Pd13  1  0.500862  0.000000  0.258770  1
  Pd  Pd14  1  0.259923  0.000000  0.500000  1
  Pd  Pd15  1  0.500862  0.000000  0.741230  1
  Pd  Pd16  1  0.737874  0.000000  0.500000  1
  Pd  Pd17  1  0.000008  0.500000  0.260059  1
  Pd  Pd18  1  0.000008  0.500000  0.739941  1
  Pd  Pd19  1  0.253150  0.500000  0.500000  1
  Pd  Pd20  1  0.746489  0.500000  0.500000  1
  Pd  Pd21  1  0.499383  0.252353  0.500000  1
  Pd  Pd22  1  0.499383  0.747647  0.500000  1
  Pd  Pd23  1  0.499424  0.500000  0.252306  1
  Pd  Pd24  1  0.499424  0.500000  0.747694  1
  Pd  Pd25  1  0.716675  0.000000  0.000000  1
  Pd  Pd26  1  0.997402  0.290384  0.000000  1
  Pd  Pd27  1  0.997402  0.709616  0.000000  1
  Pd  Pd28  1  0.997402  0.000000  0.290939  1
  Pd  Pd29  1  0.997402  0.000000  0.709061  1
  Pt  Pt30  1  0.259120  0.500000  0.000000  1
  Pt  Pt31  1  0.738237  0.500000  0.000000  1
  Pt  Pt32  1  0.293097  0.000000  0.000000  1
