# generated using pymatgen
data_Th8Cu(Si4Rh)3
_symmetry_space_group_name_H-M   'P 1'
_cell_length_a   8.23400300
_cell_length_b   8.23400295
_cell_length_c   8.44712200
_cell_angle_alpha   90.00000000
_cell_angle_beta   90.00000000
_cell_angle_gamma   119.99999620
_symmetry_Int_Tables_number   1
_chemical_formula_structural   Th8Cu(Si4Rh)3
_chemical_formula_sum   'Th8 Cu1 Si12 Rh3'
_cell_volume   495.97690476
_cell_formula_units_Z   1
loop_
 _symmetry_equiv_pos_site_id
 _symmetry_equiv_pos_as_xyz
  1  'x, y, z'
loop_
 _atom_site_type_symbol
 _atom_site_label
 _atom_site_symmetry_multiplicity
 _atom_site_fract_x
 _atom_site_fract_y
 _atom_site_fract_z
 _atom_site_occupancy
  Th  Th0  1  0.000000  0.000000  0.251181  1
  Th  Th1  1  0.000000  0.000000  0.748653  1
  Th  Th2  1  0.502117  0.497883  0.249156  1
  Th  Th3  1  0.502117  0.004236  0.249156  1
  Th  Th4  1  0.995764  0.497883  0.249156  1
  Th  Th5  1  0.501546  0.498454  0.750804  1
  Th  Th6  1  0.501546  0.003092  0.750804  1
  Th  Th7  1  0.996908  0.498454  0.750804  1
  Cu  Cu8  1  0.333333  0.666667  0.499474  1
  Si  Si9  1  0.169828  0.830172  0.499379  1
  Si  Si10  1  0.169828  0.339659  0.499379  1
  Si  Si11  1  0.660341  0.830172  0.499379  1
  Si  Si12  1  0.834018  0.165982  0.500394  1
  Si  Si13  1  0.834018  0.668037  0.500394  1
  Si  Si14  1  0.331963  0.165982  0.500394  1
  Si  Si15  1  0.834303  0.165697  0.999623  1
  Si  Si16  1  0.834303  0.668605  0.999623  1
  Si  Si17  1  0.331395  0.165697  0.999623  1
  Si  Si18  1  0.166616  0.833384  0.000247  1
  Si  Si19  1  0.166616  0.333234  0.000247  1
  Si  Si20  1  0.666766  0.833384  0.000247  1
  Rh  Rh21  1  0.666667  0.333333  0.501095  1
  Rh  Rh22  1  0.666667  0.333333  0.998757  1
  Rh  Rh23  1  0.333333  0.666667  0.002025  1
