# generated using pymatgen
data_Hf18TiRe7Pt2
_symmetry_space_group_name_H-M   'P 1'
_cell_length_a   8.68942800
_cell_length_b   8.68942629
_cell_length_c   8.51161400
_cell_angle_alpha   90.00000000
_cell_angle_beta   90.00000000
_cell_angle_gamma   119.99999888
_symmetry_Int_Tables_number   1
_chemical_formula_structural   Hf18TiRe7Pt2
_chemical_formula_sum   'Hf18 Ti1 Re7 Pt2'
_cell_volume   556.57647977
_cell_formula_units_Z   1
loop_
 _symmetry_equiv_pos_site_id
 _symmetry_equiv_pos_as_xyz
  1  'x, y, z'
loop_
 _atom_site_type_symbol
 _atom_site_label
 _atom_site_symmetry_multiplicity
 _atom_site_fract_x
 _atom_site_fract_y
 _atom_site_fract_z
 _atom_site_occupancy
  Hf  Hf0  1  0.194918  0.805082  0.448833  1
  Hf  Hf1  1  0.194918  0.389837  0.448833  1
  Hf  Hf2  1  0.610163  0.805082  0.448833  1
  Hf  Hf3  1  0.805082  0.194918  0.551167  1
  Hf  Hf4  1  0.805082  0.610163  0.551167  1
  Hf  Hf5  1  0.389837  0.194918  0.551167  1
  Hf  Hf6  1  0.805766  0.194234  0.947219  1
  Hf  Hf7  1  0.805766  0.611533  0.947219  1
  Hf  Hf8  1  0.388467  0.194234  0.947219  1
  Hf  Hf9  1  0.194234  0.805766  0.052781  1
  Hf  Hf10  1  0.194234  0.388467  0.052781  1
  Hf  Hf11  1  0.611533  0.805766  0.052781  1
  Hf  Hf12  1  0.541600  0.458400  0.248700  1
  Hf  Hf13  1  0.541600  0.083198  0.248700  1
  Hf  Hf14  1  0.916802  0.458400  0.248700  1
  Hf  Hf15  1  0.458400  0.541600  0.751300  1
  Hf  Hf16  1  0.458400  0.916802  0.751300  1
  Hf  Hf17  1  0.083198  0.541600  0.751300  1
  Ti  Ti18  1  0.000000  0.000000  0.500000  1
  Re  Re19  1  0.888548  0.111452  0.251142  1
  Re  Re20  1  0.888548  0.777097  0.251142  1
  Re  Re21  1  0.222903  0.111452  0.251142  1
  Re  Re22  1  0.111452  0.888548  0.748858  1
  Re  Re23  1  0.111452  0.222903  0.748858  1
  Re  Re24  1  0.777097  0.888548  0.748858  1
  Re  Re25  1  0.000000  0.000000  0.000000  1
  Pt  Pt26  1  0.333333  0.666667  0.249002  1
  Pt  Pt27  1  0.666667  0.333333  0.750998  1
