# generated using pymatgen
data_CaYbTh2(Ga3Rh)6
_symmetry_space_group_name_H-M   'P 1'
_cell_length_a   7.64400537
_cell_length_b   7.65004908
_cell_length_c   9.56474600
_cell_angle_alpha   90.00000000
_cell_angle_beta   90.00000000
_cell_angle_gamma   119.29979767
_symmetry_Int_Tables_number   1
_chemical_formula_structural   CaYbTh2(Ga3Rh)6
_chemical_formula_sum   'Ca1 Yb1 Th2 Ga18 Rh6'
_cell_volume   487.76483932
_cell_formula_units_Z   1
loop_
 _symmetry_equiv_pos_site_id
 _symmetry_equiv_pos_as_xyz
  1  'x, y, z'
loop_
 _atom_site_type_symbol
 _atom_site_label
 _atom_site_symmetry_multiplicity
 _atom_site_fract_x
 _atom_site_fract_y
 _atom_site_fract_z
 _atom_site_occupancy
  Ca  Ca0  1  0.998081  0.671312  0.250000  1
  Yb  Yb1  1  0.327612  0.000785  0.750000  1
  Th  Th2  1  0.000068  0.329621  0.750000  1
  Th  Th3  1  0.669069  0.997288  0.250000  1
  Ga  Ga4  1  0.129136  0.124959  0.250000  1
  Ga  Ga5  1  0.874385  0.871011  0.750000  1
  Ga  Ga6  1  0.008867  0.343380  0.082199  1
  Ga  Ga7  1  0.002098  0.671840  0.921778  1
  Ga  Ga8  1  0.002098  0.671840  0.578222  1
  Ga  Ga9  1  0.329461  0.000921  0.427674  1
  Ga  Ga10  1  0.008867  0.343380  0.417801  1
  Ga  Ga11  1  0.655653  0.993236  0.584549  1
  Ga  Ga12  1  0.655653  0.993236  0.915451  1
  Ga  Ga13  1  0.329461  0.000921  0.072326  1
  Ga  Ga14  1  0.336111  0.329524  0.562950  1
  Ga  Ga15  1  0.669371  0.662839  0.444144  1
  Ga  Ga16  1  0.669371  0.662839  0.055856  1
  Ga  Ga17  1  0.336111  0.329524  0.937050  1
  Ga  Ga18  1  0.339159  0.545361  0.250000  1
  Ga  Ga19  1  0.657545  0.451661  0.750000  1
  Ga  Ga20  1  0.546155  0.337851  0.250000  1
  Ga  Ga21  1  0.452882  0.662542  0.750000  1
  Rh  Rh22  1  0.673788  0.327015  0.999406  1
  Rh  Rh23  1  0.331504  0.670537  0.000070  1
  Rh  Rh24  1  0.331504  0.670537  0.499930  1
  Rh  Rh25  1  0.673788  0.327015  0.500594  1
  Rh  Rh26  1  0.996101  0.004511  0.999205  1
  Rh  Rh27  1  0.996101  0.004511  0.500795  1
