# generated using pymatgen
data_Hf2Mn2CrSi
_symmetry_space_group_name_H-M   'P 1'
_cell_length_a   4.95777508
_cell_length_b   4.95777519
_cell_length_c   8.10055300
_cell_angle_alpha   90.00000000
_cell_angle_beta   90.00000000
_cell_angle_gamma   120.00414262
_symmetry_Int_Tables_number   1
_chemical_formula_structural   Hf2Mn2CrSi
_chemical_formula_sum   'Hf4 Mn4 Cr2 Si2'
_cell_volume   172.42523199
_cell_formula_units_Z   2
loop_
 _symmetry_equiv_pos_site_id
 _symmetry_equiv_pos_as_xyz
  1  'x, y, z'
loop_
 _atom_site_type_symbol
 _atom_site_label
 _atom_site_symmetry_multiplicity
 _atom_site_fract_x
 _atom_site_fract_y
 _atom_site_fract_z
 _atom_site_occupancy
  Hf  Hf0  1  0.333320  0.666680  0.432739  1
  Hf  Hf1  1  0.666506  0.333494  0.563245  1
  Hf  Hf2  1  0.666506  0.333494  0.936755  1
  Hf  Hf3  1  0.333320  0.666680  0.067261  1
  Mn  Mn4  1  0.826554  0.173446  0.250000  1
  Mn  Mn5  1  0.825930  0.652855  0.250000  1
  Mn  Mn6  1  0.347145  0.174070  0.250000  1
  Mn  Mn7  1  0.172295  0.827705  0.750000  1
  Cr  Cr8  1  0.173094  0.346404  0.750000  1
  Cr  Cr9  1  0.653596  0.826906  0.750000  1
  Si  Si10  1  0.000868  0.999132  0.497561  1
  Si  Si11  1  0.000868  0.999132  0.002439  1
