# generated using pymatgen
data_Ca5As12Rh19
_symmetry_space_group_name_H-M   'P 1'
_cell_length_a   13.20266600
_cell_length_b   13.20266623
_cell_length_c   4.00405200
_cell_angle_alpha   90.00000000
_cell_angle_beta   90.00000000
_cell_angle_gamma   119.99999441
_symmetry_Int_Tables_number   1
_chemical_formula_structural   Ca5As12Rh19
_chemical_formula_sum   'Ca5 As12 Rh19'
_cell_volume   604.44062525
_cell_formula_units_Z   1
loop_
 _symmetry_equiv_pos_site_id
 _symmetry_equiv_pos_as_xyz
  1  'x, y, z'
loop_
 _atom_site_type_symbol
 _atom_site_label
 _atom_site_symmetry_multiplicity
 _atom_site_fract_x
 _atom_site_fract_y
 _atom_site_fract_z
 _atom_site_occupancy
  Ca  Ca0  1  0.000000  0.183341  0.500000  1
  Ca  Ca1  1  0.816659  0.816659  0.500000  1
  Ca  Ca2  1  0.183341  0.000000  0.500000  1
  Ca  Ca3  1  0.666667  0.333333  0.000000  1
  Ca  Ca4  1  0.333333  0.666667  0.000000  1
  As  As5  1  0.483535  0.317538  0.500000  1
  As  As6  1  0.820352  0.000000  0.000000  1
  As  As7  1  0.179648  0.179648  0.000000  1
  As  As8  1  0.000000  0.820352  0.000000  1
  As  As9  1  0.366198  0.000000  0.000000  1
  As  As10  1  0.682462  0.165997  0.500000  1
  As  As11  1  0.834003  0.516465  0.500000  1
  As  As12  1  0.516465  0.834003  0.500000  1
  As  As13  1  0.165997  0.682462  0.500000  1
  As  As14  1  0.317538  0.483535  0.500000  1
  As  As15  1  0.000000  0.366198  0.000000  1
  As  As16  1  0.633802  0.633802  0.000000  1
  Rh  Rh17  1  0.804272  0.179935  0.000000  1
  Rh  Rh18  1  0.375663  0.195728  0.000000  1
  Rh  Rh19  1  0.644441  0.515474  0.500000  1
  Rh  Rh20  1  0.871033  0.355559  0.500000  1
  Rh  Rh21  1  0.355559  0.871033  0.500000  1
  Rh  Rh22  1  0.515474  0.644441  0.500000  1
  Rh  Rh23  1  0.128967  0.484526  0.500000  1
  Rh  Rh24  1  0.820065  0.624337  0.000000  1
  Rh  Rh25  1  0.624337  0.820065  0.000000  1
  Rh  Rh26  1  0.179935  0.804272  0.000000  1
  Rh  Rh27  1  0.195728  0.375663  0.000000  1
  Rh  Rh28  1  0.000000  0.714541  0.500000  1
  Rh  Rh29  1  0.285459  0.285459  0.500000  1
  Rh  Rh30  1  0.714541  0.000000  0.500000  1
  Rh  Rh31  1  0.000000  0.550909  0.000000  1
  Rh  Rh32  1  0.449091  0.449091  0.000000  1
  Rh  Rh33  1  0.550909  0.000000  0.000000  1
  Rh  Rh34  1  0.000000  0.000000  0.000000  1
  Rh  Rh35  1  0.484526  0.128967  0.500000  1
