# generated using pymatgen
data_Dy3LuAl18ZnRh5
_symmetry_space_group_name_H-M   'P 1'
_cell_length_a   7.57929208
_cell_length_b   7.58118088
_cell_length_c   9.44132899
_cell_angle_alpha   89.95528766
_cell_angle_beta   90.03539945
_cell_angle_gamma   119.43679472
_symmetry_Int_Tables_number   1
_chemical_formula_structural   Dy3LuAl18ZnRh5
_chemical_formula_sum   'Dy3 Lu1 Al18 Zn1 Rh5'
_cell_volume   472.46100300
_cell_formula_units_Z   1
loop_
 _symmetry_equiv_pos_site_id
 _symmetry_equiv_pos_as_xyz
  1  'x, y, z'
loop_
 _atom_site_type_symbol
 _atom_site_label
 _atom_site_symmetry_multiplicity
 _atom_site_fract_x
 _atom_site_fract_y
 _atom_site_fract_z
 _atom_site_occupancy
  Dy  Dy0  1  0.995202  0.676513  0.249063  1
  Dy  Dy1  1  0.004813  0.323343  0.751042  1
  Dy  Dy2  1  0.676057  0.995167  0.249030  1
  Lu  Lu3  1  0.323387  0.004694  0.750300  1
  Al  Al4  1  0.136067  0.135867  0.256936  1
  Al  Al5  1  0.865003  0.864518  0.743320  1
  Al  Al6  1  0.002088  0.345184  0.079800  1
  Al  Al7  1  0.998906  0.656085  0.919318  1
  Al  Al8  1  0.001838  0.664778  0.574045  1
  Al  Al9  1  0.336193  0.999156  0.427766  1
  Al  Al10  1  0.999126  0.336070  0.426967  1
  Al  Al11  1  0.663005  0.000796  0.573900  1
  Al  Al12  1  0.653851  0.998069  0.919123  1
  Al  Al13  1  0.344786  0.002032  0.078909  1
  Al  Al14  1  0.332743  0.331944  0.551759  1
  Al  Al15  1  0.667406  0.667358  0.449324  1
  Al  Al16  1  0.658351  0.658295  0.056650  1
  Al  Al17  1  0.341467  0.340567  0.942272  1
  Al  Al18  1  0.339423  0.552386  0.251539  1
  Al  Al19  1  0.659716  0.446513  0.748475  1
  Al  Al20  1  0.552368  0.339350  0.251517  1
  Al  Al21  1  0.447428  0.661227  0.748457  1
  Zn  Zn22  1  0.000012  0.000116  0.000004  1
  Rh  Rh23  1  0.671730  0.327802  0.999533  1
  Rh  Rh24  1  0.328241  0.672180  0.999482  1
  Rh  Rh25  1  0.328331  0.671535  0.500334  1
  Rh  Rh26  1  0.671584  0.328259  0.500540  1
  Rh  Rh27  1  0.000877  0.000196  0.500596  1
