# generated using pymatgen
data_LiCe5(HfSb5)2
_symmetry_space_group_name_H-M   'P 1'
_cell_length_a   9.28459100
_cell_length_b   9.39213366
_cell_length_c   6.30317500
_cell_angle_alpha   90.00000000
_cell_angle_beta   90.00000000
_cell_angle_gamma   119.62193429
_symmetry_Int_Tables_number   1
_chemical_formula_structural   LiCe5(HfSb5)2
_chemical_formula_sum   'Li1 Ce5 Hf2 Sb10'
_cell_volume   477.81410917
_cell_formula_units_Z   1
loop_
 _symmetry_equiv_pos_site_id
 _symmetry_equiv_pos_as_xyz
  1  'x, y, z'
loop_
 _atom_site_type_symbol
 _atom_site_label
 _atom_site_symmetry_multiplicity
 _atom_site_fract_x
 _atom_site_fract_y
 _atom_site_fract_z
 _atom_site_occupancy
  Li  Li0  1  0.629335  0.000000  0.250000  1
  Ce  Ce1  1  0.394982  0.000000  0.750000  1
  Ce  Ce2  1  0.000858  0.617603  0.250000  1
  Ce  Ce3  1  0.993442  0.377881  0.750000  1
  Ce  Ce4  1  0.383255  0.382397  0.250000  1
  Ce  Ce5  1  0.615561  0.622119  0.750000  1
  Hf  Hf6  1  0.997697  0.000000  0.003836  1
  Hf  Hf7  1  0.997697  0.000000  0.496164  1
  Sb  Sb8  1  0.269622  0.000000  0.250000  1
  Sb  Sb9  1  0.735776  0.000000  0.750000  1
  Sb  Sb10  1  0.990904  0.261379  0.250000  1
  Sb  Sb11  1  0.003142  0.737679  0.750000  1
  Sb  Sb12  1  0.729525  0.738621  0.250000  1
  Sb  Sb13  1  0.265463  0.262321  0.750000  1
  Sb  Sb14  1  0.330073  0.663777  0.002116  1
  Sb  Sb15  1  0.666296  0.336223  0.002116  1
  Sb  Sb16  1  0.666296  0.336223  0.497884  1
  Sb  Sb17  1  0.330073  0.663777  0.497884  1
