# generated using pymatgen
data_Ho4Si4IrRh
_symmetry_space_group_name_H-M   'P 1'
_cell_length_a   5.68512263
_cell_length_b   5.68512416
_cell_length_c   10.02998754
_cell_angle_alpha   63.44757763
_cell_angle_beta   63.44757104
_cell_angle_gamma   43.33910282
_symmetry_Int_Tables_number   1
_chemical_formula_structural   Ho4Si4IrRh
_chemical_formula_sum   'Ho4 Si4 Ir1 Rh1'
_cell_volume   195.05724892
_cell_formula_units_Z   1
loop_
 _symmetry_equiv_pos_site_id
 _symmetry_equiv_pos_as_xyz
  1  'x, y, z'
loop_
 _atom_site_type_symbol
 _atom_site_label
 _atom_site_symmetry_multiplicity
 _atom_site_fract_x
 _atom_site_fract_y
 _atom_site_fract_z
 _atom_site_occupancy
  Ho  Ho0  1  0.004521  0.004521  0.322859  1
  Ho  Ho1  1  0.996457  0.996457  0.675813  1
  Ho  Ho2  1  0.814688  0.814688  0.108607  1
  Ho  Ho3  1  0.183971  0.183971  0.890758  1
  Si  Si4  1  0.640422  0.640422  0.435378  1
  Si  Si5  1  0.360107  0.360107  0.565798  1
  Si  Si6  1  0.509955  0.509955  0.120980  1
  Si  Si7  1  0.488197  0.488197  0.877552  1
  Ir  Ir8  1  0.726741  0.726741  0.628393  1
  Rh  Rh9  1  0.274942  0.274942  0.373862  1
