# generated using pymatgen
data_Tb16Cd3Ni3HgOs
_symmetry_space_group_name_H-M   'P 1'
_cell_length_a   9.64183890
_cell_length_b   9.64183886
_cell_length_c   9.64183916
_cell_angle_alpha   59.57741365
_cell_angle_beta   59.57742108
_cell_angle_gamma   59.57741446
_symmetry_Int_Tables_number   1
_chemical_formula_structural   Tb16Cd3Ni3HgOs
_chemical_formula_sum   'Tb16 Cd3 Ni3 Hg1 Os1'
_cell_volume   627.72952479
_cell_formula_units_Z   1
loop_
 _symmetry_equiv_pos_site_id
 _symmetry_equiv_pos_as_xyz
  1  'x, y, z'
loop_
 _atom_site_type_symbol
 _atom_site_label
 _atom_site_symmetry_multiplicity
 _atom_site_fract_x
 _atom_site_fract_y
 _atom_site_fract_z
 _atom_site_occupancy
  Tb  Tb0  1  0.347708  0.347708  0.347708  1
  Tb  Tb1  1  0.351125  0.351125  0.953526  1
  Tb  Tb2  1  0.351125  0.953526  0.351125  1
  Tb  Tb3  1  0.953526  0.351125  0.351125  1
  Tb  Tb4  1  0.810359  0.188147  0.188147  1
  Tb  Tb5  1  0.186574  0.810229  0.810229  1
  Tb  Tb6  1  0.188147  0.810359  0.188147  1
  Tb  Tb7  1  0.810229  0.186574  0.810229  1
  Tb  Tb8  1  0.188147  0.188147  0.810359  1
  Tb  Tb9  1  0.810229  0.810229  0.186574  1
  Tb  Tb10  1  0.935593  0.565070  0.565070  1
  Tb  Tb11  1  0.556628  0.938418  0.938418  1
  Tb  Tb12  1  0.565070  0.935593  0.565070  1
  Tb  Tb13  1  0.938418  0.556628  0.938418  1
  Tb  Tb14  1  0.565070  0.565070  0.935593  1
  Tb  Tb15  1  0.938418  0.938418  0.556628  1
  Cd  Cd16  1  0.579917  0.579917  0.256352  1
  Cd  Cd17  1  0.579917  0.256352  0.579917  1
  Cd  Cd18  1  0.256352  0.579917  0.579917  1
  Ni  Ni19  1  0.142580  0.142580  0.575272  1
  Ni  Ni20  1  0.142580  0.575272  0.142580  1
  Ni  Ni21  1  0.575272  0.142580  0.142580  1
  Hg  Hg22  1  0.583775  0.583775  0.583775  1
  Os  Os23  1  0.143242  0.143242  0.143242  1
