# generated using pymatgen
data_Pr4HoTm3(ReB6)4
_symmetry_space_group_name_H-M   'P 1'
_cell_length_a   3.72579400
_cell_length_b   9.24138700
_cell_length_c   11.72250601
_cell_angle_alpha   90.00346490
_cell_angle_beta   90.00000000
_cell_angle_gamma   90.00000000
_symmetry_Int_Tables_number   1
_chemical_formula_structural   Pr4HoTm3(ReB6)4
_chemical_formula_sum   'Pr4 Ho1 Tm3 Re4 B24'
_cell_volume   403.62351463
_cell_formula_units_Z   1
loop_
 _symmetry_equiv_pos_site_id
 _symmetry_equiv_pos_as_xyz
  1  'x, y, z'
loop_
 _atom_site_type_symbol
 _atom_site_label
 _atom_site_symmetry_multiplicity
 _atom_site_fract_x
 _atom_site_fract_y
 _atom_site_fract_z
 _atom_site_occupancy
  Pr  Pr0  1  0.000000  0.322388  0.414648  1
  Pr  Pr1  1  0.000000  0.677385  0.585408  1
  Pr  Pr2  1  0.000000  0.822391  0.085220  1
  Pr  Pr3  1  0.000000  0.177665  0.914588  1
  Ho  Ho4  1  0.000000  0.942842  0.369606  1
  Tm  Tm5  1  0.000000  0.057461  0.631441  1
  Tm  Tm6  1  0.000000  0.442747  0.130474  1
  Tm  Tm7  1  0.000000  0.557323  0.869171  1
  Re  Re8  1  0.000000  0.639227  0.318136  1
  Re  Re9  1  0.000000  0.360161  0.681873  1
  Re  Re10  1  0.000000  0.140525  0.181326  1
  Re  Re11  1  0.000000  0.860327  0.818608  1
  B  B12  1  0.500000  0.555164  0.429307  1
  B  B13  1  0.500000  0.444097  0.570680  1
  B  B14  1  0.500000  0.055853  0.070337  1
  B  B15  1  0.500000  0.944288  0.929422  1
  B  B16  1  0.500000  0.749498  0.414549  1
  B  B17  1  0.500000  0.249270  0.585402  1
  B  B18  1  0.500000  0.250866  0.084956  1
  B  B19  1  0.500000  0.749305  0.914764  1
  B  B20  1  0.500000  0.791008  0.265475  1
  B  B21  1  0.500000  0.208374  0.734434  1
  B  B22  1  0.500000  0.292112  0.234044  1
  B  B23  1  0.500000  0.708246  0.765743  1
  B  B24  1  0.500000  0.628567  0.185500  1
  B  B25  1  0.500000  0.371225  0.814221  1
  B  B26  1  0.500000  0.129499  0.313649  1
  B  B27  1  0.500000  0.871134  0.685968  1
  B  B28  1  0.500000  0.984344  0.213378  1
  B  B29  1  0.500000  0.016096  0.786297  1
  B  B30  1  0.500000  0.483510  0.285871  1
  B  B31  1  0.500000  0.516173  0.713874  1
  B  B32  1  0.500000  0.594617  0.025807  1
  B  B33  1  0.500000  0.405465  0.973898  1
  B  B34  1  0.500000  0.095352  0.474959  1
  B  B35  1  0.500000  0.905494  0.526968  1
