# generated using pymatgen
data_TbTh2In3CuPtRh
_symmetry_space_group_name_H-M   'P 1'
_cell_length_a   7.72715700
_cell_length_b   7.73369171
_cell_length_c   3.96104000
_cell_angle_alpha   90.00000000
_cell_angle_beta   90.00000000
_cell_angle_gamma   120.27689387
_symmetry_Int_Tables_number   1
_chemical_formula_structural   TbTh2In3CuPtRh
_chemical_formula_sum   'Tb1 Th2 In3 Cu1 Pt1 Rh1'
_cell_volume   204.42213656
_cell_formula_units_Z   1
loop_
 _symmetry_equiv_pos_site_id
 _symmetry_equiv_pos_as_xyz
  1  'x, y, z'
loop_
 _atom_site_type_symbol
 _atom_site_label
 _atom_site_symmetry_multiplicity
 _atom_site_fract_x
 _atom_site_fract_y
 _atom_site_fract_z
 _atom_site_occupancy
  Tb  Tb0  1  0.588241  0.999701  0.500000  1
  Th  Th1  1  0.990371  0.578030  0.500000  1
  Th  Th2  1  0.419255  0.415292  0.500000  1
  In  In3  1  0.755033  0.762884  0.000000  1
  In  In4  1  0.986982  0.235822  0.000000  1
  In  In5  1  0.259131  0.001219  0.000000  1
  Cu  Cu6  1  0.008596  0.000914  0.500000  1
  Pt  Pt7  1  0.323694  0.655905  0.000000  1
  Rh  Rh8  1  0.668696  0.350233  0.000000  1
