# generated using pymatgen
data_ZnFe(OsO3)4
_symmetry_space_group_name_H-M   'P 1'
_cell_length_a   6.52871893
_cell_length_b   6.50983405
_cell_length_c   10.45761679
_cell_angle_alpha   71.92833445
_cell_angle_beta   71.84431608
_cell_angle_gamma   90.03723897
_symmetry_Int_Tables_number   1
_chemical_formula_structural   ZnFe(OsO3)4
_chemical_formula_sum   'Zn2 Fe2 Os8 O24'
_cell_volume   399.15964558
_cell_formula_units_Z   2
loop_
 _symmetry_equiv_pos_site_id
 _symmetry_equiv_pos_as_xyz
  1  'x, y, z'
loop_
 _atom_site_type_symbol
 _atom_site_label
 _atom_site_symmetry_multiplicity
 _atom_site_fract_x
 _atom_site_fract_y
 _atom_site_fract_z
 _atom_site_occupancy
  Zn  Zn0  1  0.500003  0.500011  0.999982  1
  Zn  Zn1  1  0.000006  0.000022  0.999973  1
  Fe  Fe2  1  0.250062  0.749993  0.499918  1
  Fe  Fe3  1  0.750006  0.249995  0.500017  1
  Os  Os4  1  0.415023  0.915132  0.169932  1
  Os  Os5  1  0.915033  0.415172  0.169888  1
  Os  Os6  1  0.084996  0.584860  0.830063  1
  Os  Os7  1  0.584931  0.084819  0.830163  1
  Os  Os8  1  0.165491  0.165291  0.668882  1
  Os  Os9  1  0.665519  0.665263  0.668854  1
  Os  Os10  1  0.334457  0.334700  0.331199  1
  Os  Os11  1  0.834487  0.834705  0.331141  1
  O  O12  1  0.564789  0.749713  0.499904  1
  O  O13  1  0.064571  0.249705  0.499927  1
  O  O14  1  0.935270  0.750329  0.500003  1
  O  O15  1  0.435446  0.250318  0.500029  1
  O  O16  1  0.500323  0.185295  0.000032  1
  O  O17  1  0.000282  0.685300  0.000119  1
  O  O18  1  0.499727  0.814762  0.999859  1
  O  O19  1  0.999683  0.314686  0.999946  1
  O  O20  1  0.701749  0.908910  0.181671  1
  O  O21  1  0.201637  0.408911  0.181677  1
  O  O22  1  0.116537  0.909142  0.181653  1
  O  O23  1  0.616629  0.409140  0.181665  1
  O  O24  1  0.798248  0.591069  0.818354  1
  O  O25  1  0.298355  0.091105  0.818309  1
  O  O26  1  0.383452  0.590843  0.818365  1
  O  O27  1  0.883368  0.090876  0.818328  1
  O  O28  1  0.166212  0.865364  0.667996  1
  O  O29  1  0.666103  0.365293  0.668219  1
  O  O30  1  0.165973  0.466677  0.667738  1
  O  O31  1  0.665864  0.966528  0.667965  1
  O  O32  1  0.333796  0.634668  0.331982  1
  O  O33  1  0.833851  0.134593  0.331872  1
  O  O34  1  0.334036  0.033313  0.332240  1
  O  O35  1  0.834089  0.533497  0.332136  1
