# generated using pymatgen
data_RbIn(GaBr4)2
_symmetry_space_group_name_H-M   'P 1'
_cell_length_a   7.81417500
_cell_length_b   9.38911391
_cell_length_c   13.45349573
_cell_angle_alpha   75.94556787
_cell_angle_beta   90.00000000
_cell_angle_gamma   90.00000000
_symmetry_Int_Tables_number   1
_chemical_formula_structural   RbIn(GaBr4)2
_chemical_formula_sum   'Rb2 In2 Ga4 Br16'
_cell_volume   957.51134212
_cell_formula_units_Z   2
loop_
 _symmetry_equiv_pos_site_id
 _symmetry_equiv_pos_as_xyz
  1  'x, y, z'
loop_
 _atom_site_type_symbol
 _atom_site_label
 _atom_site_symmetry_multiplicity
 _atom_site_fract_x
 _atom_site_fract_y
 _atom_site_fract_z
 _atom_site_occupancy
  Rb  Rb0  1  0.854988  0.000000  0.250000  1
  Rb  Rb1  1  0.145012  0.000000  0.750000  1
  In  In2  1  0.416767  0.500000  0.250000  1
  In  In3  1  0.583233  0.500000  0.750000  1
  Ga  Ga4  1  0.713685  0.217318  0.547007  1
  Ga  Ga5  1  0.713685  0.782682  0.952993  1
  Ga  Ga6  1  0.286315  0.782682  0.452993  1
  Ga  Ga7  1  0.286315  0.217318  0.047007  1
  Br  Br8  1  0.086564  0.657432  0.372710  1
  Br  Br9  1  0.086564  0.342568  0.127290  1
  Br  Br10  1  0.913436  0.342568  0.627290  1
  Br  Br11  1  0.913436  0.657432  0.872710  1
  Br  Br12  1  0.436208  0.715556  0.909123  1
  Br  Br13  1  0.436208  0.284444  0.590877  1
  Br  Br14  1  0.563792  0.284444  0.090877  1
  Br  Br15  1  0.563792  0.715556  0.409123  1
  Br  Br16  1  0.746293  0.300289  0.365796  1
  Br  Br17  1  0.746293  0.699711  0.134204  1
  Br  Br18  1  0.253707  0.699711  0.634204  1
  Br  Br19  1  0.253707  0.300289  0.865796  1
  Br  Br20  1  0.242260  0.037438  0.403974  1
  Br  Br21  1  0.242260  0.962562  0.096026  1
  Br  Br22  1  0.757740  0.962562  0.596026  1
  Br  Br23  1  0.757740  0.037438  0.903974  1
