# generated using pymatgen
data_SmDyHo2(CrB4)4
_symmetry_space_group_name_H-M   'P 1'
_cell_length_a   3.45561800
_cell_length_b   5.94642930
_cell_length_c   11.49306467
_cell_angle_alpha   89.90057923
_cell_angle_beta   90.00000000
_cell_angle_gamma   90.00000000
_symmetry_Int_Tables_number   1
_chemical_formula_structural   SmDyHo2(CrB4)4
_chemical_formula_sum   'Sm1 Dy1 Ho2 Cr4 B16'
_cell_volume   236.16589662
_cell_formula_units_Z   1
loop_
 _symmetry_equiv_pos_site_id
 _symmetry_equiv_pos_as_xyz
  1  'x, y, z'
loop_
 _atom_site_type_symbol
 _atom_site_label
 _atom_site_symmetry_multiplicity
 _atom_site_fract_x
 _atom_site_fract_y
 _atom_site_fract_z
 _atom_site_occupancy
  Sm  Sm0  1  0.000000  0.375428  0.651281  1
  Dy  Dy1  1  0.000000  0.624309  0.348598  1
  Ho  Ho2  1  0.000000  0.124313  0.150733  1
  Ho  Ho3  1  0.000000  0.875843  0.849924  1
  Cr  Cr4  1  0.000000  0.625122  0.081538  1
  Cr  Cr5  1  0.000000  0.376541  0.920274  1
  Cr  Cr6  1  0.000000  0.123613  0.417694  1
  Cr  Cr7  1  0.000000  0.875049  0.580212  1
  B  B8  1  0.500000  0.781638  0.184136  1
  B  B9  1  0.500000  0.218067  0.817682  1
  B  B10  1  0.500000  0.280928  0.314793  1
  B  B11  1  0.500000  0.721030  0.684659  1
  B  B12  1  0.500000  0.863234  0.032868  1
  B  B13  1  0.500000  0.137117  0.968516  1
  B  B14  1  0.500000  0.361543  0.465868  1
  B  B15  1  0.500000  0.638194  0.531329  1
  B  B16  1  0.500000  0.886397  0.452170  1
  B  B17  1  0.500000  0.110945  0.545398  1
  B  B18  1  0.500000  0.386778  0.047297  1
  B  B19  1  0.500000  0.614183  0.954099  1
  B  B20  1  0.500000  0.975114  0.307663  1
  B  B21  1  0.500000  0.023178  0.691462  1
  B  B22  1  0.500000  0.474903  0.191390  1
  B  B23  1  0.500000  0.526534  0.810414  1
