# generated using pymatgen
data_Li2Pr2SnBi
_symmetry_space_group_name_H-M   'P 1'
_cell_length_a   9.69067660
_cell_length_b   9.69067627
_cell_length_c   7.70441730
_cell_angle_alpha   90.09220040
_cell_angle_beta   89.90779971
_cell_angle_gamma   120.09658531
_symmetry_Int_Tables_number   1
_chemical_formula_structural   Li2Pr2SnBi
_chemical_formula_sum   'Li8 Pr8 Sn4 Bi4'
_cell_volume   625.97121491
_cell_formula_units_Z   4
loop_
 _symmetry_equiv_pos_site_id
 _symmetry_equiv_pos_as_xyz
  1  'x, y, z'
loop_
 _atom_site_type_symbol
 _atom_site_label
 _atom_site_symmetry_multiplicity
 _atom_site_fract_x
 _atom_site_fract_y
 _atom_site_fract_z
 _atom_site_occupancy
  Li  Li0  1  0.832463  0.167537  0.720195  1
  Li  Li1  1  0.828854  0.663351  0.717546  1
  Li  Li2  1  0.336649  0.171146  0.717546  1
  Li  Li3  1  0.168982  0.831018  0.216077  1
  Li  Li4  1  0.169656  0.338180  0.213097  1
  Li  Li5  1  0.661820  0.830344  0.213097  1
  Li  Li6  1  0.666356  0.333644  0.333635  1
  Li  Li7  1  0.334978  0.665022  0.829526  1
  Pr  Pr8  1  0.484968  0.515032  0.509257  1
  Pr  Pr9  1  0.490776  0.973895  0.508290  1
  Pr  Pr10  1  0.026105  0.509224  0.508290  1
  Pr  Pr11  1  0.509519  0.490481  0.001633  1
  Pr  Pr12  1  0.514212  0.021986  0.002949  1
  Pr  Pr13  1  0.978014  0.485788  0.002949  1
  Pr  Pr14  1  0.997232  0.002768  0.502959  1
  Pr  Pr15  1  0.997458  0.002542  0.994264  1
  Sn  Sn16  1  0.166283  0.332982  0.767193  1
  Sn  Sn17  1  0.667018  0.833717  0.767193  1
  Sn  Sn18  1  0.667309  0.332691  0.735792  1
  Sn  Sn19  1  0.333285  0.666715  0.236012  1
  Bi  Bi20  1  0.833634  0.166366  0.264660  1
  Bi  Bi21  1  0.834136  0.666635  0.265066  1
  Bi  Bi22  1  0.333365  0.165864  0.265066  1
  Bi  Bi23  1  0.166927  0.833073  0.765715  1
