# generated using pymatgen
data_Nd3SiBr3
_symmetry_space_group_name_H-M   'P 1'
_cell_length_a   10.43035944
_cell_length_b   10.43035866
_cell_length_c   10.43035900
_cell_angle_alpha   109.47122517
_cell_angle_beta   109.47122367
_cell_angle_gamma   109.47121635
_symmetry_Int_Tables_number   1
_chemical_formula_structural   Nd3SiBr3
_chemical_formula_sum   'Nd12 Si4 Br12'
_cell_volume   873.52605919
_cell_formula_units_Z   4
loop_
 _symmetry_equiv_pos_site_id
 _symmetry_equiv_pos_as_xyz
  1  'x, y, z'
loop_
 _atom_site_type_symbol
 _atom_site_label
 _atom_site_symmetry_multiplicity
 _atom_site_fract_x
 _atom_site_fract_y
 _atom_site_fract_z
 _atom_site_occupancy
  Nd  Nd0  1  0.476531  0.488266  0.238266  1
  Nd  Nd1  1  0.750000  0.238266  0.261734  1
  Nd  Nd2  1  0.750000  0.011734  0.488266  1
  Nd  Nd3  1  0.238266  0.476531  0.488266  1
  Nd  Nd4  1  0.261734  0.750000  0.238266  1
  Nd  Nd5  1  0.023469  0.261734  0.011734  1
  Nd  Nd6  1  0.011734  0.023469  0.261734  1
  Nd  Nd7  1  0.488266  0.750000  0.011734  1
  Nd  Nd8  1  0.488266  0.238266  0.476531  1
  Nd  Nd9  1  0.011734  0.488266  0.750000  1
  Nd  Nd10  1  0.261734  0.011734  0.023469  1
  Nd  Nd11  1  0.238266  0.261734  0.750000  1
  Si  Si12  1  0.250000  0.250000  0.250000  1
  Si  Si13  1  0.500000  0.000000  0.250000  1
  Si  Si14  1  0.000000  0.250000  0.500000  1
  Si  Si15  1  0.250000  0.500000  0.000000  1
  Br  Br16  1  0.250000  0.754499  0.745501  1
  Br  Br17  1  0.508999  0.504499  0.754499  1
  Br  Br18  1  0.991001  0.745501  0.995501  1
  Br  Br19  1  0.745501  0.250000  0.754499  1
  Br  Br20  1  0.995501  0.991001  0.745501  1
  Br  Br21  1  0.250000  0.995501  0.504499  1
  Br  Br22  1  0.754499  0.508999  0.504499  1
  Br  Br23  1  0.504499  0.250000  0.995501  1
  Br  Br24  1  0.754499  0.745501  0.250000  1
  Br  Br25  1  0.745501  0.995501  0.991001  1
  Br  Br26  1  0.995501  0.504499  0.250000  1
  Br  Br27  1  0.504499  0.754499  0.508999  1
