# generated using pymatgen
data_LaPr15(DyIr3)4
_symmetry_space_group_name_H-M   'P 1'
_cell_length_a   11.26572563
_cell_length_b   11.27202967
_cell_length_c   6.58293717
_cell_angle_alpha   89.99293917
_cell_angle_beta   89.93193514
_cell_angle_gamma   89.93803909
_symmetry_Int_Tables_number   1
_chemical_formula_structural   LaPr15(DyIr3)4
_chemical_formula_sum   'La1 Pr15 Dy4 Ir12'
_cell_volume   835.95026553
_cell_formula_units_Z   1
loop_
 _symmetry_equiv_pos_site_id
 _symmetry_equiv_pos_as_xyz
  1  'x, y, z'
loop_
 _atom_site_type_symbol
 _atom_site_label
 _atom_site_symmetry_multiplicity
 _atom_site_fract_x
 _atom_site_fract_y
 _atom_site_fract_z
 _atom_site_occupancy
  La  La0  1  0.289119  0.088128  0.384191  1
  Pr  Pr1  1  0.289111  0.911480  0.883063  1
  Pr  Pr2  1  0.710777  0.088032  0.883237  1
  Pr  Pr3  1  0.710998  0.911971  0.383174  1
  Pr  Pr4  1  0.587902  0.789155  0.883122  1
  Pr  Pr5  1  0.588615  0.211156  0.383024  1
  Pr  Pr6  1  0.412132  0.788558  0.382965  1
  Pr  Pr7  1  0.412427  0.211183  0.883195  1
  Pr  Pr8  1  0.210788  0.412371  0.617237  1
  Pr  Pr9  1  0.210865  0.587933  0.116794  1
  Pr  Pr10  1  0.789136  0.412061  0.116811  1
  Pr  Pr11  1  0.789151  0.587905  0.616795  1
  Pr  Pr12  1  0.912003  0.710859  0.116920  1
  Pr  Pr13  1  0.911847  0.289170  0.616594  1
  Pr  Pr14  1  0.087972  0.710824  0.617024  1
  Pr  Pr15  1  0.087696  0.289448  0.116402  1
  Dy  Dy16  1  0.999480  0.999710  0.500233  1
  Dy  Dy17  1  0.999829  0.000043  0.999766  1
  Dy  Dy18  1  0.500006  0.499955  0.000085  1
  Dy  Dy19  1  0.500176  0.500016  0.500141  1
  Ir  Ir20  1  0.852009  0.147932  0.249915  1
  Ir  Ir21  1  0.851990  0.852097  0.750044  1
  Ir  Ir22  1  0.148653  0.147740  0.748830  1
  Ir  Ir23  1  0.148004  0.851972  0.249885  1
  Ir  Ir24  1  0.648001  0.352117  0.750052  1
  Ir  Ir25  1  0.647886  0.648085  0.249879  1
  Ir  Ir26  1  0.352005  0.351933  0.250188  1
  Ir  Ir27  1  0.352086  0.647967  0.750021  1
  Ir  Ir28  1  0.499437  0.000235  0.119478  1
  Ir  Ir29  1  0.499863  0.999988  0.618577  1
  Ir  Ir30  1  0.000076  0.499880  0.881252  1
  Ir  Ir31  1  0.999958  0.500096  0.381107  1
