# generated using pymatgen
data_Dy7Sc(AlRu)8
_symmetry_space_group_name_H-M   'P 1'
_cell_length_a   4.06255300
_cell_length_b   6.97290372
_cell_length_c   15.97334287
_cell_angle_alpha   90.38839466
_cell_angle_beta   90.00000000
_cell_angle_gamma   90.00000000
_symmetry_Int_Tables_number   1
_chemical_formula_structural   Dy7Sc(AlRu)8
_chemical_formula_sum   'Dy7 Sc1 Al8 Ru8'
_cell_volume   452.47912088
_cell_formula_units_Z   1
loop_
 _symmetry_equiv_pos_site_id
 _symmetry_equiv_pos_as_xyz
  1  'x, y, z'
loop_
 _atom_site_type_symbol
 _atom_site_label
 _atom_site_symmetry_multiplicity
 _atom_site_fract_x
 _atom_site_fract_y
 _atom_site_fract_z
 _atom_site_occupancy
  Dy  Dy0  1  0.750000  0.964037  0.219373  1
  Dy  Dy1  1  0.250000  0.163057  0.564957  1
  Dy  Dy2  1  0.750000  0.841835  0.437676  1
  Dy  Dy3  1  0.750000  0.464239  0.280872  1
  Dy  Dy4  1  0.750000  0.339421  0.062321  1
  Dy  Dy5  1  0.250000  0.657219  0.934586  1
  Dy  Dy6  1  0.250000  0.035788  0.778986  1
  Sc  Sc7  1  0.250000  0.541101  0.715535  1
  Al  Al8  1  0.750000  0.504348  0.568653  1
  Al  Al9  1  0.750000  0.365778  0.846802  1
  Al  Al10  1  0.750000  0.995971  0.932523  1
  Al  Al11  1  0.750000  0.864492  0.652495  1
  Al  Al12  1  0.250000  0.500931  0.435288  1
  Al  Al13  1  0.250000  0.997448  0.065217  1
  Al  Al14  1  0.250000  0.633770  0.150862  1
  Al  Al15  1  0.250000  0.134971  0.349445  1
  Ru  Ru16  1  0.750000  0.731398  0.809270  1
  Ru  Ru17  1  0.250000  0.230704  0.936324  1
  Ru  Ru18  1  0.750000  0.266027  0.437707  1
  Ru  Ru19  1  0.250000  0.752945  0.312599  1
  Ru  Ru20  1  0.750000  0.763467  0.063098  1
  Ru  Ru21  1  0.750000  0.261764  0.691064  1
  Ru  Ru22  1  0.250000  0.253753  0.187916  1
  Ru  Ru23  1  0.250000  0.735534  0.566433  1
