# generated using pymatgen
data_LiNd4Zn(CoO6)2
_symmetry_space_group_name_H-M   'P 1'
_cell_length_a   5.42435994
_cell_length_b   5.56783616
_cell_length_c   7.67332294
_cell_angle_alpha   89.94201024
_cell_angle_beta   90.21939252
_cell_angle_gamma   89.95276928
_symmetry_Int_Tables_number   1
_chemical_formula_structural   LiNd4Zn(CoO6)2
_chemical_formula_sum   'Li1 Nd4 Zn1 Co2 O12'
_cell_volume   231.74739889
_cell_formula_units_Z   1
loop_
 _symmetry_equiv_pos_site_id
 _symmetry_equiv_pos_as_xyz
  1  'x, y, z'
loop_
 _atom_site_type_symbol
 _atom_site_label
 _atom_site_symmetry_multiplicity
 _atom_site_fract_x
 _atom_site_fract_y
 _atom_site_fract_z
 _atom_site_occupancy
  Li  Li0  1  0.500000  0.000000  0.500000  1
  Nd  Nd1  1  0.012822  0.946443  0.742425  1
  Nd  Nd2  1  0.486152  0.445480  0.741880  1
  Nd  Nd3  1  0.513848  0.554520  0.258120  1
  Nd  Nd4  1  0.987178  0.053557  0.257575  1
  Zn  Zn5  1  0.000000  0.500000  0.000000  1
  Co  Co6  1  0.000000  0.500000  0.500000  1
  Co  Co7  1  0.500000  0.000000  0.000000  1
  O  O8  1  0.724879  0.300636  0.461894  1
  O  O9  1  0.779176  0.802010  0.047034  1
  O  O10  1  0.198235  0.224106  0.540895  1
  O  O11  1  0.302536  0.719551  0.950560  1
  O  O12  1  0.275121  0.699364  0.538106  1
  O  O13  1  0.220824  0.197990  0.952966  1
  O  O14  1  0.801765  0.775894  0.459105  1
  O  O15  1  0.697464  0.280449  0.049440  1
  O  O16  1  0.084529  0.480644  0.257141  1
  O  O17  1  0.421591  0.982625  0.229962  1
  O  O18  1  0.578409  0.017375  0.770038  1
  O  O19  1  0.915471  0.519356  0.742859  1
