# generated using pymatgen
data_Tm12InFe3Pt
_symmetry_space_group_name_H-M   'P 1'
_cell_length_a   8.13042135
_cell_length_b   8.13042093
_cell_length_c   8.13042058
_cell_angle_alpha   107.44275755
_cell_angle_beta   110.77818896
_cell_angle_gamma   110.21208727
_symmetry_Int_Tables_number   1
_chemical_formula_structural   Tm12InFe3Pt
_chemical_formula_sum   'Tm12 In1 Fe3 Pt1'
_cell_volume   413.33246368
_cell_formula_units_Z   1
loop_
 _symmetry_equiv_pos_site_id
 _symmetry_equiv_pos_as_xyz
  1  'x, y, z'
loop_
 _atom_site_type_symbol
 _atom_site_label
 _atom_site_symmetry_multiplicity
 _atom_site_fract_x
 _atom_site_fract_y
 _atom_site_fract_z
 _atom_site_occupancy
  Tm  Tm0  1  0.187838  0.408517  0.220679  1
  Tm  Tm1  1  0.812162  0.591483  0.779321  1
  Tm  Tm2  1  0.187838  0.967160  0.779321  1
  Tm  Tm3  1  0.923068  0.191302  0.731765  1
  Tm  Tm4  1  0.812162  0.032840  0.220679  1
  Tm  Tm5  1  0.076932  0.808698  0.268235  1
  Tm  Tm6  1  0.459537  0.191302  0.268235  1
  Tm  Tm7  1  0.540463  0.808698  0.731765  1
  Tm  Tm8  1  0.310206  0.307331  0.617538  1
  Tm  Tm9  1  0.689794  0.692669  0.382462  1
  Tm  Tm10  1  0.689794  0.307331  0.997125  1
  Tm  Tm11  1  0.310206  0.692669  0.002875  1
  In  In12  1  0.000000  0.500000  0.500000  1
  Fe  Fe13  1  0.381380  0.381380  0.000000  1
  Fe  Fe14  1  0.618620  0.618620  0.000000  1
  Fe  Fe15  1  0.000000  0.000000  0.000000  1
  Pt  Pt16  1  0.500000  0.000000  0.500000  1
