# generated using pymatgen
data_HoU3(InIr2)2
_symmetry_space_group_name_H-M   'P 1'
_cell_length_a   7.69666917
_cell_length_b   7.69666917
_cell_length_c   3.54736900
_cell_angle_alpha   90.00000000
_cell_angle_beta   90.00000000
_cell_angle_gamma   88.19843689
_symmetry_Int_Tables_number   1
_chemical_formula_structural   HoU3(InIr2)2
_chemical_formula_sum   'Ho1 U3 In2 Ir4'
_cell_volume   210.03771344
_cell_formula_units_Z   1
loop_
 _symmetry_equiv_pos_site_id
 _symmetry_equiv_pos_as_xyz
  1  'x, y, z'
loop_
 _atom_site_type_symbol
 _atom_site_label
 _atom_site_symmetry_multiplicity
 _atom_site_fract_x
 _atom_site_fract_y
 _atom_site_fract_z
 _atom_site_occupancy
  Ho  Ho0  1  0.668522  0.168522  0.500000  1
  U  U1  1  0.333884  0.833884  0.500000  1
  U  U2  1  0.166458  0.330444  0.500000  1
  U  U3  1  0.830444  0.666458  0.500000  1
  In  In4  1  0.501333  0.491619  0.000000  1
  In  In5  1  0.991619  0.001333  0.000000  1
  Ir  Ir6  1  0.144702  0.644702  0.000000  1
  Ir  Ir7  1  0.885481  0.385481  0.000000  1
  Ir  Ir8  1  0.628299  0.849257  0.000000  1
  Ir  Ir9  1  0.349257  0.128299  0.000000  1
