# generated using pymatgen
data_Er4Si4Ir3Os
_symmetry_space_group_name_H-M   'P 1'
_cell_length_a   4.24164900
_cell_length_b   6.82453895
_cell_length_c   7.36433902
_cell_angle_alpha   90.06028225
_cell_angle_beta   90.00000000
_cell_angle_gamma   90.00000000
_symmetry_Int_Tables_number   1
_chemical_formula_structural   Er4Si4Ir3Os
_chemical_formula_sum   'Er4 Si4 Ir3 Os1'
_cell_volume   213.17760397
_cell_formula_units_Z   1
loop_
 _symmetry_equiv_pos_site_id
 _symmetry_equiv_pos_as_xyz
  1  'x, y, z'
loop_
 _atom_site_type_symbol
 _atom_site_label
 _atom_site_symmetry_multiplicity
 _atom_site_fract_x
 _atom_site_fract_y
 _atom_site_fract_z
 _atom_site_occupancy
  Er  Er0  1  0.750000  0.501741  0.812431  1
  Er  Er1  1  0.250000  0.997619  0.313568  1
  Er  Er2  1  0.750000  0.001722  0.686550  1
  Er  Er3  1  0.250000  0.501557  0.186728  1
  Si  Si4  1  0.250000  0.702486  0.616307  1
  Si  Si5  1  0.250000  0.199648  0.890008  1
  Si  Si6  1  0.750000  0.298098  0.387704  1
  Si  Si7  1  0.750000  0.797878  0.105432  1
  Ir  Ir8  1  0.250000  0.341431  0.564943  1
  Ir  Ir9  1  0.750000  0.657527  0.434890  1
  Ir  Ir10  1  0.750000  0.158268  0.065770  1
  Os  Os11  1  0.250000  0.842024  0.935669  1
