# generated using pymatgen
data_Li5Ga5Ag8
_symmetry_space_group_name_H-M   'P 1'
_cell_length_a   4.54280100
_cell_length_b   4.54280392
_cell_length_c   16.37876800
_cell_angle_alpha   90.00000000
_cell_angle_beta   90.00000000
_cell_angle_gamma   120.00001514
_symmetry_Int_Tables_number   1
_chemical_formula_structural   Li5Ga5Ag8
_chemical_formula_sum   'Li5 Ga5 Ag8'
_cell_volume   292.72478888
_cell_formula_units_Z   1
loop_
 _symmetry_equiv_pos_site_id
 _symmetry_equiv_pos_as_xyz
  1  'x, y, z'
loop_
 _atom_site_type_symbol
 _atom_site_label
 _atom_site_symmetry_multiplicity
 _atom_site_fract_x
 _atom_site_fract_y
 _atom_site_fract_z
 _atom_site_occupancy
  Li  Li0  1  0.000000  0.000000  0.500000  1
  Li  Li1  1  0.333333  0.666667  0.281848  1
  Li  Li2  1  0.666667  0.333333  0.718152  1
  Li  Li3  1  0.333333  0.666667  0.109749  1
  Li  Li4  1  0.666667  0.333333  0.890251  1
  Ga  Ga5  1  0.000000  0.000000  0.000000  1
  Ga  Ga6  1  0.333333  0.666667  0.778652  1
  Ga  Ga7  1  0.666667  0.333333  0.221348  1
  Ga  Ga8  1  0.333333  0.666667  0.613247  1
  Ga  Ga9  1  0.666667  0.333333  0.386753  1
  Ag  Ag10  1  0.000000  0.000000  0.664722  1
  Ag  Ag11  1  0.000000  0.000000  0.335278  1
  Ag  Ag12  1  0.000000  0.000000  0.835957  1
  Ag  Ag13  1  0.000000  0.000000  0.164043  1
  Ag  Ag14  1  0.333333  0.666667  0.943411  1
  Ag  Ag15  1  0.666667  0.333333  0.056589  1
  Ag  Ag16  1  0.333333  0.666667  0.445762  1
  Ag  Ag17  1  0.666667  0.333333  0.554238  1
