# generated using pymatgen
data_Tm12Os3Rh
_symmetry_space_group_name_H-M   'P 1'
_cell_length_a   7.30350938
_cell_length_b   8.94324500
_cell_length_c   6.25876300
_cell_angle_alpha   90.00000000
_cell_angle_beta   89.90788601
_cell_angle_gamma   90.00000000
_symmetry_Int_Tables_number   1
_chemical_formula_structural   Tm12Os3Rh
_chemical_formula_sum   'Tm12 Os3 Rh1'
_cell_volume   408.80355642
_cell_formula_units_Z   1
loop_
 _symmetry_equiv_pos_site_id
 _symmetry_equiv_pos_as_xyz
  1  'x, y, z'
loop_
 _atom_site_type_symbol
 _atom_site_label
 _atom_site_symmetry_multiplicity
 _atom_site_fract_x
 _atom_site_fract_y
 _atom_site_fract_z
 _atom_site_occupancy
  Tm  Tm0  1  0.038819  0.250000  0.629283  1
  Tm  Tm1  1  0.961155  0.750000  0.371965  1
  Tm  Tm2  1  0.461924  0.750000  0.129688  1
  Tm  Tm3  1  0.539822  0.250000  0.870106  1
  Tm  Tm4  1  0.172853  0.060514  0.165589  1
  Tm  Tm5  1  0.824684  0.937227  0.830947  1
  Tm  Tm6  1  0.323427  0.933777  0.671855  1
  Tm  Tm7  1  0.824684  0.562773  0.830947  1
  Tm  Tm8  1  0.678107  0.061213  0.331639  1
  Tm  Tm9  1  0.172853  0.439486  0.165589  1
  Tm  Tm10  1  0.678107  0.438787  0.331639  1
  Tm  Tm11  1  0.323427  0.566223  0.671855  1
  Os  Os12  1  0.615933  0.750000  0.537802  1
  Os  Os13  1  0.116796  0.750000  0.963205  1
  Os  Os14  1  0.883358  0.250000  0.038407  1
  Rh  Rh15  1  0.384050  0.250000  0.459484  1
