# generated using pymatgen
data_NaCe4(NCl)4
_symmetry_space_group_name_H-M   'P 1'
_cell_length_a   3.93992400
_cell_length_b   6.78806735
_cell_length_c   10.66980351
_cell_angle_alpha   77.36308049
_cell_angle_beta   90.00000000
_cell_angle_gamma   90.00000000
_symmetry_Int_Tables_number   1
_chemical_formula_structural   NaCe4(NCl)4
_chemical_formula_sum   'Na1 Ce4 N4 Cl4'
_cell_volume   278.44571490
_cell_formula_units_Z   1
loop_
 _symmetry_equiv_pos_site_id
 _symmetry_equiv_pos_as_xyz
  1  'x, y, z'
loop_
 _atom_site_type_symbol
 _atom_site_label
 _atom_site_symmetry_multiplicity
 _atom_site_fract_x
 _atom_site_fract_y
 _atom_site_fract_z
 _atom_site_occupancy
  Na  Na0  1  0.000000  0.000000  0.000000  1
  Ce  Ce1  1  0.500000  0.711524  0.364167  1
  Ce  Ce2  1  0.000000  0.214858  0.365778  1
  Ce  Ce3  1  0.500000  0.288476  0.635833  1
  Ce  Ce4  1  0.000000  0.785142  0.634222  1
  N  N5  1  0.500000  0.639982  0.584439  1
  N  N6  1  0.000000  0.137108  0.584133  1
  N  N7  1  0.500000  0.360018  0.415561  1
  N  N8  1  0.000000  0.862892  0.415867  1
  Cl  Cl9  1  0.000000  0.384273  0.821973  1
  Cl  Cl10  1  0.500000  0.895499  0.831307  1
  Cl  Cl11  1  0.000000  0.615727  0.178027  1
  Cl  Cl12  1  0.500000  0.104501  0.168693  1
