# generated using pymatgen
data_Lu12ZnInCo4
_symmetry_space_group_name_H-M   'P 1'
_cell_length_a   8.12574527
_cell_length_b   8.12574443
_cell_length_c   8.12574521
_cell_angle_alpha   111.44703941
_cell_angle_beta   110.59342462
_cell_angle_gamma   106.41692021
_symmetry_Int_Tables_number   1
_chemical_formula_structural   Lu12ZnInCo4
_chemical_formula_sum   'Lu12 Zn1 In1 Co4'
_cell_volume   412.11824431
_cell_formula_units_Z   1
loop_
 _symmetry_equiv_pos_site_id
 _symmetry_equiv_pos_as_xyz
  1  'x, y, z'
loop_
 _atom_site_type_symbol
 _atom_site_label
 _atom_site_symmetry_multiplicity
 _atom_site_fract_x
 _atom_site_fract_y
 _atom_site_fract_z
 _atom_site_occupancy
  Lu  Lu0  1  0.431533  0.227869  0.203664  1
  Lu  Lu1  1  0.568467  0.772131  0.796336  1
  Lu  Lu2  1  0.024205  0.227869  0.796336  1
  Lu  Lu3  1  0.975795  0.772131  0.203664  1
  Lu  Lu4  1  0.184417  0.284462  0.468879  1
  Lu  Lu5  1  0.815583  0.715538  0.531121  1
  Lu  Lu6  1  0.184417  0.715538  0.899956  1
  Lu  Lu7  1  0.815583  0.284462  0.100044  1
  Lu  Lu8  1  0.315831  0.619173  0.303340  1
  Lu  Lu9  1  0.684169  0.380827  0.696660  1
  Lu  Lu10  1  0.315831  0.012491  0.696660  1
  Lu  Lu11  1  0.684169  0.987509  0.303340  1
  Zn  Zn12  1  0.000000  0.000000  0.000000  1
  In  In13  1  0.500000  0.500000  0.000000  1
  Co  Co14  1  0.373130  0.000000  0.373130  1
  Co  Co15  1  0.626870  0.000000  0.626870  1
  Co  Co16  1  0.114274  0.614274  0.500000  1
  Co  Co17  1  0.885726  0.385726  0.500000  1
