# generated using pymatgen
data_Tb3PaAl16(GaIr3)2
_symmetry_space_group_name_H-M   'P 1'
_cell_length_a   7.56828608
_cell_length_b   7.55860918
_cell_length_c   9.46904500
_cell_angle_alpha   90.00000000
_cell_angle_beta   90.00000000
_cell_angle_gamma   119.41706399
_symmetry_Int_Tables_number   1
_chemical_formula_structural   Tb3PaAl16(GaIr3)2
_chemical_formula_sum   'Tb3 Pa1 Al16 Ga2 Ir6'
_cell_volume   471.84293513
_cell_formula_units_Z   1
loop_
 _symmetry_equiv_pos_site_id
 _symmetry_equiv_pos_as_xyz
  1  'x, y, z'
loop_
 _atom_site_type_symbol
 _atom_site_label
 _atom_site_symmetry_multiplicity
 _atom_site_fract_x
 _atom_site_fract_y
 _atom_site_fract_z
 _atom_site_occupancy
  Tb  Tb0  1  0.005325  0.326284  0.750000  1
  Tb  Tb1  1  0.675534  0.993947  0.250000  1
  Tb  Tb2  1  0.326298  0.004761  0.750000  1
  Pa  Pa3  1  0.994905  0.675581  0.250000  1
  Al  Al4  1  0.001363  0.333941  0.074545  1
  Al  Al5  1  0.998371  0.663517  0.922244  1
  Al  Al6  1  0.998371  0.663517  0.577756  1
  Al  Al7  1  0.339659  0.003989  0.425529  1
  Al  Al8  1  0.001363  0.333941  0.425455  1
  Al  Al9  1  0.664168  0.999241  0.574979  1
  Al  Al10  1  0.664168  0.999241  0.925021  1
  Al  Al11  1  0.339659  0.003989  0.074471  1
  Al  Al12  1  0.333082  0.333127  0.556193  1
  Al  Al13  1  0.662273  0.664826  0.447702  1
  Al  Al14  1  0.662273  0.664826  0.052298  1
  Al  Al15  1  0.333082  0.333127  0.943807  1
  Al  Al16  1  0.337682  0.548231  0.250000  1
  Al  Al17  1  0.660352  0.448929  0.750000  1
  Al  Al18  1  0.548280  0.340589  0.250000  1
  Al  Al19  1  0.449956  0.661946  0.750000  1
  Ga  Ga20  1  0.138908  0.137928  0.250000  1
  Ga  Ga21  1  0.866875  0.868363  0.750000  1
  Ir  Ir22  1  0.673422  0.330207  0.002110  1
  Ir  Ir23  1  0.326395  0.671643  0.002033  1
  Ir  Ir24  1  0.326395  0.671643  0.497967  1
  Ir  Ir25  1  0.673422  0.330207  0.497890  1
  Ir  Ir26  1  0.999211  0.996228  0.003909  1
  Ir  Ir27  1  0.999211  0.996228  0.496091  1
