# generated using pymatgen
data_Al3NiPt3Rh
_symmetry_space_group_name_H-M   'P 1'
_cell_length_a   5.33388529
_cell_length_b   5.32435698
_cell_length_c   3.98529400
_cell_angle_alpha   90.00000000
_cell_angle_beta   90.00000000
_cell_angle_gamma   98.12279202
_symmetry_Int_Tables_number   1
_chemical_formula_structural   Al3NiPt3Rh
_chemical_formula_sum   'Al3 Ni1 Pt3 Rh1'
_cell_volume   112.04491527
_cell_formula_units_Z   1
loop_
 _symmetry_equiv_pos_site_id
 _symmetry_equiv_pos_as_xyz
  1  'x, y, z'
loop_
 _atom_site_type_symbol
 _atom_site_label
 _atom_site_symmetry_multiplicity
 _atom_site_fract_x
 _atom_site_fract_y
 _atom_site_fract_z
 _atom_site_occupancy
  Al  Al0  1  0.721934  0.287255  0.500000  1
  Al  Al1  1  0.278066  0.712745  0.500000  1
  Al  Al2  1  0.000000  0.000000  0.000000  1
  Ni  Ni3  1  0.500000  0.500000  0.000000  1
  Pt  Pt4  1  0.775961  0.775960  0.500000  1
  Pt  Pt5  1  0.224039  0.224040  0.500000  1
  Pt  Pt6  1  0.500000  0.000000  0.000000  1
  Rh  Rh7  1  0.000000  0.500000  0.000000  1
