# generated using pymatgen
data_Yb12HoTm7Si16
_symmetry_space_group_name_H-M   'P 1'
_cell_length_a   7.35965310
_cell_length_b   7.77406306
_cell_length_c   15.02067710
_cell_angle_alpha   89.99915571
_cell_angle_beta   90.01335880
_cell_angle_gamma   90.01360686
_symmetry_Int_Tables_number   1
_chemical_formula_structural   Yb12HoTm7Si16
_chemical_formula_sum   'Yb12 Ho1 Tm7 Si16'
_cell_volume   859.39908963
_cell_formula_units_Z   1
loop_
 _symmetry_equiv_pos_site_id
 _symmetry_equiv_pos_as_xyz
  1  'x, y, z'
loop_
 _atom_site_type_symbol
 _atom_site_label
 _atom_site_symmetry_multiplicity
 _atom_site_fract_x
 _atom_site_fract_y
 _atom_site_fract_z
 _atom_site_occupancy
  Yb  Yb0  1  0.972674  0.816416  0.403696  1
  Yb  Yb1  1  0.472749  0.683548  0.096318  1
  Yb  Yb2  1  0.527306  0.316441  0.596318  1
  Yb  Yb3  1  0.027271  0.183590  0.903662  1
  Yb  Yb4  1  0.027318  0.183564  0.596318  1
  Yb  Yb5  1  0.527350  0.316454  0.903655  1
  Yb  Yb6  1  0.472687  0.683565  0.403691  1
  Yb  Yb7  1  0.972622  0.816390  0.096304  1
  Yb  Yb8  1  0.352510  0.019636  0.749998  1
  Yb  Yb9  1  0.852502  0.480350  0.750007  1
  Yb  Yb10  1  0.147464  0.519728  0.250036  1
  Yb  Yb11  1  0.647574  0.980311  0.250026  1
  Ho  Ho12  1  0.314280  0.176670  0.121124  1
  Tm  Tm13  1  0.814334  0.323489  0.378877  1
  Tm  Tm14  1  0.185686  0.676542  0.878856  1
  Tm  Tm15  1  0.685684  0.823462  0.621145  1
  Tm  Tm16  1  0.314292  0.176502  0.378909  1
  Tm  Tm17  1  0.814310  0.323556  0.121116  1
  Tm  Tm18  1  0.185684  0.676539  0.621142  1
  Tm  Tm19  1  0.685723  0.823444  0.878830  1
  Si  Si20  1  0.857082  0.533829  0.538418  1
  Si  Si21  1  0.357197  0.965975  0.961427  1
  Si  Si22  1  0.642901  0.033818  0.461575  1
  Si  Si23  1  0.142621  0.466375  0.038305  1
  Si  Si24  1  0.142927  0.466158  0.461578  1
  Si  Si25  1  0.643191  0.033678  0.038326  1
  Si  Si26  1  0.357076  0.966175  0.538422  1
  Si  Si27  1  0.857064  0.533889  0.961573  1
  Si  Si28  1  0.977875  0.880129  0.749997  1
  Si  Si29  1  0.477870  0.619862  0.749995  1
  Si  Si30  1  0.522362  0.380361  0.250073  1
  Si  Si31  1  0.021932  0.119767  0.250131  1
  Si  Si32  1  0.249131  0.396157  0.749996  1
  Si  Si33  1  0.749130  0.103834  0.749997  1
  Si  Si34  1  0.250738  0.895957  0.250132  1
  Si  Si35  1  0.750883  0.603836  0.250027  1
