# generated using pymatgen
data_NaLa6NiBr12
_symmetry_space_group_name_H-M   'P 1'
_cell_length_a   9.56681078
_cell_length_b   9.80389169
_cell_length_c   9.74495829
_cell_angle_alpha   107.56933686
_cell_angle_beta   107.19656277
_cell_angle_gamma   107.21585165
_symmetry_Int_Tables_number   1
_chemical_formula_structural   NaLa6NiBr12
_chemical_formula_sum   'Na1 La6 Ni1 Br12'
_cell_volume   754.28093184
_cell_formula_units_Z   1
loop_
 _symmetry_equiv_pos_site_id
 _symmetry_equiv_pos_as_xyz
  1  'x, y, z'
loop_
 _atom_site_type_symbol
 _atom_site_label
 _atom_site_symmetry_multiplicity
 _atom_site_fract_x
 _atom_site_fract_y
 _atom_site_fract_z
 _atom_site_occupancy
  Na  Na0  1  0.500000  0.500000  0.500000  1
  La  La1  1  0.310205  0.109418  0.029706  1
  La  La2  1  0.030794  0.325786  0.117559  1
  La  La3  1  0.118315  0.032719  0.326190  1
  La  La4  1  0.881684  0.967281  0.673810  1
  La  La5  1  0.969206  0.674214  0.882440  1
  La  La6  1  0.689795  0.890582  0.970293  1
  Ni  Ni7  1  0.000000  0.000000  0.000000  1
  Br  Br8  1  0.680385  0.214223  0.070219  1
  Br  Br9  1  0.374400  0.454814  0.160057  1
  Br  Br10  1  0.071241  0.686032  0.214070  1
  Br  Br11  1  0.782450  0.928304  0.314902  1
  Br  Br12  1  0.460455  0.161885  0.372775  1
  Br  Br13  1  0.156651  0.371311  0.455189  1
  Br  Br14  1  0.843350  0.628689  0.544812  1
  Br  Br15  1  0.539545  0.838116  0.627225  1
  Br  Br16  1  0.217549  0.071696  0.685098  1
  Br  Br17  1  0.928759  0.313968  0.785929  1
  Br  Br18  1  0.625601  0.545187  0.839943  1
  Br  Br19  1  0.319615  0.785776  0.929781  1
