# generated using pymatgen
data_Lu12Si12Os3Ru
_symmetry_space_group_name_H-M   'P 1'
_cell_length_a   4.12651300
_cell_length_b   10.57144424
_cell_length_c   12.09048606
_cell_angle_alpha   90.01784487
_cell_angle_beta   90.00000000
_cell_angle_gamma   90.00000000
_symmetry_Int_Tables_number   1
_chemical_formula_structural   Lu12Si12Os3Ru
_chemical_formula_sum   'Lu12 Si12 Os3 Ru1'
_cell_volume   527.42569109
_cell_formula_units_Z   1
loop_
 _symmetry_equiv_pos_site_id
 _symmetry_equiv_pos_as_xyz
  1  'x, y, z'
loop_
 _atom_site_type_symbol
 _atom_site_label
 _atom_site_symmetry_multiplicity
 _atom_site_fract_x
 _atom_site_fract_y
 _atom_site_fract_z
 _atom_site_occupancy
  Lu  Lu0  1  0.250000  0.879639  0.020032  1
  Lu  Lu1  1  0.250000  0.620529  0.519495  1
  Lu  Lu2  1  0.750000  0.120822  0.980571  1
  Lu  Lu3  1  0.750000  0.379672  0.480512  1
  Lu  Lu4  1  0.250000  0.921114  0.604633  1
  Lu  Lu5  1  0.250000  0.578919  0.105699  1
  Lu  Lu6  1  0.750000  0.079173  0.394365  1
  Lu  Lu7  1  0.750000  0.420941  0.894584  1
  Lu  Lu8  1  0.250000  0.661067  0.799600  1
  Lu  Lu9  1  0.250000  0.839828  0.299337  1
  Lu  Lu10  1  0.750000  0.339330  0.200606  1
  Lu  Lu11  1  0.750000  0.160223  0.700310  1
  Si  Si12  1  0.250000  0.013324  0.821755  1
  Si  Si13  1  0.250000  0.487182  0.321484  1
  Si  Si14  1  0.750000  0.987359  0.178318  1
  Si  Si15  1  0.750000  0.512709  0.678696  1
  Si  Si16  1  0.250000  0.249356  0.841732  1
  Si  Si17  1  0.250000  0.250905  0.342298  1
  Si  Si18  1  0.750000  0.750375  0.158345  1
  Si  Si19  1  0.750000  0.749422  0.657333  1
  Si  Si20  1  0.250000  0.199574  0.544577  1
  Si  Si21  1  0.250000  0.300803  0.044606  1
  Si  Si22  1  0.750000  0.800284  0.454943  1
  Si  Si23  1  0.750000  0.698083  0.956490  1
  Os  Os24  1  0.250000  0.390346  0.679550  1
  Os  Os25  1  0.250000  0.109697  0.180173  1
  Os  Os26  1  0.750000  0.609688  0.320244  1
  Ru  Ru27  1  0.750000  0.889634  0.819711  1
