# generated using pymatgen
data_Li3La8Si12Pd
_symmetry_space_group_name_H-M   'P 1'
_cell_length_a   8.35354600
_cell_length_b   8.35354646
_cell_length_c   8.75801200
_cell_angle_alpha   90.00000000
_cell_angle_beta   90.00000000
_cell_angle_gamma   120.00000610
_symmetry_Int_Tables_number   1
_chemical_formula_structural   Li3La8Si12Pd
_chemical_formula_sum   'Li3 La8 Si12 Pd1'
_cell_volume   529.27075996
_cell_formula_units_Z   1
loop_
 _symmetry_equiv_pos_site_id
 _symmetry_equiv_pos_as_xyz
  1  'x, y, z'
loop_
 _atom_site_type_symbol
 _atom_site_label
 _atom_site_symmetry_multiplicity
 _atom_site_fract_x
 _atom_site_fract_y
 _atom_site_fract_z
 _atom_site_occupancy
  Li  Li0  1  0.666667  0.333333  0.995041  1
  Li  Li1  1  0.333333  0.666667  0.005541  1
  Li  Li2  1  0.333333  0.666667  0.494984  1
  La  La3  1  0.499509  0.500491  0.749379  1
  La  La4  1  0.501650  0.498350  0.250510  1
  La  La5  1  0.000984  0.500491  0.749379  1
  La  La6  1  0.996701  0.498350  0.250510  1
  La  La7  1  0.499509  0.999016  0.749379  1
  La  La8  1  0.501650  0.003299  0.250510  1
  La  La9  1  0.000000  0.000000  0.750620  1
  La  La10  1  0.000000  0.000000  0.249703  1
  Si  Si11  1  0.835096  0.164904  0.000340  1
  Si  Si12  1  0.164932  0.835068  0.999722  1
  Si  Si13  1  0.329809  0.164904  0.000340  1
  Si  Si14  1  0.163860  0.836140  0.500546  1
  Si  Si15  1  0.670135  0.835068  0.999722  1
  Si  Si16  1  0.834554  0.165446  0.499634  1
  Si  Si17  1  0.835096  0.670191  0.000340  1
  Si  Si18  1  0.672281  0.836140  0.500546  1
  Si  Si19  1  0.164932  0.329865  0.999722  1
  Si  Si20  1  0.330892  0.165446  0.499634  1
  Si  Si21  1  0.163860  0.327719  0.500546  1
  Si  Si22  1  0.834554  0.669108  0.499634  1
  Pd  Pd23  1  0.666667  0.333333  0.503712  1
