# generated using pymatgen
data_Tb16TlIn5Co2
_symmetry_space_group_name_H-M   'P 1'
_cell_length_a   10.43314100
_cell_length_b   10.43757798
_cell_length_c   7.05877825
_cell_angle_alpha   90.01721069
_cell_angle_beta   90.00000000
_cell_angle_gamma   119.98592941
_symmetry_Int_Tables_number   1
_chemical_formula_structural   Tb16TlIn5Co2
_chemical_formula_sum   'Tb16 Tl1 In5 Co2'
_cell_volume   665.78884259
_cell_formula_units_Z   1
loop_
 _symmetry_equiv_pos_site_id
 _symmetry_equiv_pos_as_xyz
  1  'x, y, z'
loop_
 _atom_site_type_symbol
 _atom_site_label
 _atom_site_symmetry_multiplicity
 _atom_site_fract_x
 _atom_site_fract_y
 _atom_site_fract_z
 _atom_site_occupancy
  Tb  Tb0  1  0.536000  0.071999  0.790878  1
  Tb  Tb1  1  0.927701  0.463922  0.790493  1
  Tb  Tb2  1  0.536222  0.463922  0.790493  1
  Tb  Tb3  1  0.463683  0.927365  0.291547  1
  Tb  Tb4  1  0.073474  0.535983  0.292589  1
  Tb  Tb5  1  0.462509  0.535983  0.292589  1
  Tb  Tb6  1  0.822122  0.644244  0.495991  1
  Tb  Tb7  1  0.355794  0.177614  0.497804  1
  Tb  Tb8  1  0.821819  0.177614  0.497804  1
  Tb  Tb9  1  0.177819  0.355637  0.998252  1
  Tb  Tb10  1  0.644716  0.822028  0.998640  1
  Tb  Tb11  1  0.177313  0.822028  0.998640  1
  Tb  Tb12  1  0.666452  0.332903  0.182007  1
  Tb  Tb13  1  0.333422  0.666846  0.682757  1
  Tb  Tb14  1  0.000618  0.001236  0.778840  1
  Tb  Tb15  1  0.000718  0.001437  0.280243  1
  Tl  Tl16  1  0.836789  0.673578  0.041314  1
  In  In17  1  0.325877  0.162875  0.039474  1
  In  In18  1  0.836997  0.162875  0.039474  1
  In  In19  1  0.162790  0.325578  0.540741  1
  In  In20  1  0.674227  0.837064  0.540732  1
  In  In21  1  0.162839  0.837064  0.540732  1
  Co  Co22  1  0.666774  0.333547  0.566660  1
  Co  Co23  1  0.333327  0.666656  0.067211  1
