# generated using pymatgen
data_Er3Al3GePdPt
_symmetry_space_group_name_H-M   'P 1'
_cell_length_a   7.02013200
_cell_length_b   7.02013180
_cell_length_c   4.15134600
_cell_angle_alpha   90.00000000
_cell_angle_beta   90.00000000
_cell_angle_gamma   119.99999150
_symmetry_Int_Tables_number   1
_chemical_formula_structural   Er3Al3GePdPt
_chemical_formula_sum   'Er3 Al3 Ge1 Pd1 Pt1'
_cell_volume   177.17814280
_cell_formula_units_Z   1
loop_
 _symmetry_equiv_pos_site_id
 _symmetry_equiv_pos_as_xyz
  1  'x, y, z'
loop_
 _atom_site_type_symbol
 _atom_site_label
 _atom_site_symmetry_multiplicity
 _atom_site_fract_x
 _atom_site_fract_y
 _atom_site_fract_z
 _atom_site_occupancy
  Er  Er0  1  0.420829  0.004527  0.500000  1
  Er  Er1  1  0.995473  0.416302  0.500000  1
  Er  Er2  1  0.583698  0.579171  0.500000  1
  Al  Al3  1  0.768933  0.015141  0.000000  1
  Al  Al4  1  0.984859  0.753793  0.000000  1
  Al  Al5  1  0.246207  0.231067  0.000000  1
  Ge  Ge6  1  0.333333  0.666667  0.000000  1
  Pd  Pd7  1  0.000000  0.000000  0.500000  1
  Pt  Pt8  1  0.666667  0.333333  0.000000  1
