# generated using pymatgen
data_Sr2MnRhF10
_symmetry_space_group_name_H-M   'P 1'
_cell_length_a   5.81505355
_cell_length_b   5.84695249
_cell_length_c   8.16956741
_cell_angle_alpha   69.03747920
_cell_angle_beta   70.44348563
_cell_angle_gamma   70.75568224
_symmetry_Int_Tables_number   1
_chemical_formula_structural   Sr2MnRhF10
_chemical_formula_sum   'Sr2 Mn1 Rh1 F10'
_cell_volume   237.36879104
_cell_formula_units_Z   1
loop_
 _symmetry_equiv_pos_site_id
 _symmetry_equiv_pos_as_xyz
  1  'x, y, z'
loop_
 _atom_site_type_symbol
 _atom_site_label
 _atom_site_symmetry_multiplicity
 _atom_site_fract_x
 _atom_site_fract_y
 _atom_site_fract_z
 _atom_site_occupancy
  Sr  Sr0  1  0.547566  0.455907  0.251693  1
  Sr  Sr1  1  0.452434  0.544093  0.748307  1
  Mn  Mn2  1  0.000000  0.000000  0.000000  1
  Rh  Rh3  1  0.000000  0.000000  0.500000  1
  F  F4  1  0.076900  0.922196  0.741565  1
  F  F5  1  0.923100  0.077804  0.258435  1
  F  F6  1  0.201393  0.228951  0.894031  1
  F  F7  1  0.753975  0.784380  0.615524  1
  F  F8  1  0.713492  0.302452  0.531003  1
  F  F9  1  0.709560  0.274015  0.973462  1
  F  F10  1  0.286508  0.697548  0.468997  1
  F  F11  1  0.290440  0.725985  0.026538  1
  F  F12  1  0.246025  0.215620  0.384476  1
  F  F13  1  0.798607  0.771049  0.105969  1
