# generated using pymatgen
data_Er4Co4P12Ir7Rh9
_symmetry_space_group_name_H-M   'P 1'
_cell_length_a   3.87645700
_cell_length_b   10.75026481
_cell_length_c   12.39687793
_cell_angle_alpha   90.04438675
_cell_angle_beta   90.00000000
_cell_angle_gamma   90.00000000
_symmetry_Int_Tables_number   1
_chemical_formula_structural   Er4Co4P12Ir7Rh9
_chemical_formula_sum   'Er4 Co4 P12 Ir7 Rh9'
_cell_volume   516.61418598
_cell_formula_units_Z   1
loop_
 _symmetry_equiv_pos_site_id
 _symmetry_equiv_pos_as_xyz
  1  'x, y, z'
loop_
 _atom_site_type_symbol
 _atom_site_label
 _atom_site_symmetry_multiplicity
 _atom_site_fract_x
 _atom_site_fract_y
 _atom_site_fract_z
 _atom_site_occupancy
  Er  Er0  1  0.250000  0.583874  0.708831  1
  Er  Er1  1  0.250000  0.916425  0.208309  1
  Er  Er2  1  0.750000  0.415574  0.291327  1
  Er  Er3  1  0.750000  0.084417  0.791503  1
  Co  Co4  1  0.250000  0.461574  0.933902  1
  Co  Co5  1  0.250000  0.037540  0.433830  1
  Co  Co6  1  0.750000  0.538399  0.066301  1
  Co  Co7  1  0.750000  0.961785  0.566209  1
  P  P8  1  0.250000  0.424713  0.106134  1
  P  P9  1  0.250000  0.074537  0.605777  1
  P  P10  1  0.750000  0.574655  0.894197  1
  P  P11  1  0.750000  0.925783  0.393795  1
  P  P12  1  0.250000  0.269372  0.872755  1
  P  P13  1  0.250000  0.229756  0.371647  1
  P  P14  1  0.750000  0.730175  0.127881  1
  P  P15  1  0.750000  0.769695  0.627738  1
  P  P16  1  0.250000  0.597251  0.387751  1
  P  P17  1  0.250000  0.902690  0.887705  1
  P  P18  1  0.750000  0.402927  0.612190  1
  P  P19  1  0.750000  0.098207  0.112471  1
  Ir  Ir20  1  0.250000  0.268784  0.680151  1
  Ir  Ir21  1  0.750000  0.768698  0.819747  1
  Ir  Ir22  1  0.750000  0.730799  0.320333  1
  Ir  Ir23  1  0.250000  0.887052  0.699235  1
  Ir  Ir24  1  0.250000  0.613265  0.199107  1
  Ir  Ir25  1  0.750000  0.114455  0.301438  1
  Ir  Ir26  1  0.750000  0.387042  0.800567  1
  Rh  Rh27  1  0.250000  0.716367  0.982466  1
  Rh  Rh28  1  0.250000  0.783891  0.482346  1
  Rh  Rh29  1  0.750000  0.285300  0.016981  1
  Rh  Rh30  1  0.750000  0.216315  0.517938  1
  Rh  Rh31  1  0.250000  0.407443  0.479007  1
  Rh  Rh32  1  0.250000  0.091593  0.979133  1
  Rh  Rh33  1  0.750000  0.592136  0.520902  1
  Rh  Rh34  1  0.750000  0.907392  0.021310  1
  Rh  Rh35  1  0.250000  0.230116  0.179088  1
