# generated using pymatgen
data_Hg3Sb2(TeCl4)2
_symmetry_space_group_name_H-M   'P 1'
_cell_length_a   9.74848652
_cell_length_b   9.74848732
_cell_length_c   13.86742333
_cell_angle_alpha   78.17467651
_cell_angle_beta   78.17467531
_cell_angle_gamma   47.72765882
_symmetry_Int_Tables_number   1
_chemical_formula_structural   Hg3Sb2(TeCl4)2
_chemical_formula_sum   'Hg6 Sb4 Te4 Cl16'
_cell_volume   950.36144036
_cell_formula_units_Z   2
loop_
 _symmetry_equiv_pos_site_id
 _symmetry_equiv_pos_as_xyz
  1  'x, y, z'
loop_
 _atom_site_type_symbol
 _atom_site_label
 _atom_site_symmetry_multiplicity
 _atom_site_fract_x
 _atom_site_fract_y
 _atom_site_fract_z
 _atom_site_occupancy
  Hg  Hg0  1  0.500000  0.000000  0.000000  1
  Hg  Hg1  1  0.000000  0.500000  0.500000  1
  Hg  Hg2  1  0.261931  0.231047  0.743264  1
  Hg  Hg3  1  0.768953  0.738069  0.756736  1
  Hg  Hg4  1  0.738069  0.768953  0.256736  1
  Hg  Hg5  1  0.231047  0.261931  0.243264  1
  Sb  Sb6  1  0.177024  0.726649  0.945930  1
  Sb  Sb7  1  0.273351  0.822976  0.554070  1
  Sb  Sb8  1  0.822976  0.273351  0.054070  1
  Sb  Sb9  1  0.726649  0.177024  0.445930  1
  Te  Te10  1  0.585741  0.082615  0.809458  1
  Te  Te11  1  0.917385  0.414259  0.690542  1
  Te  Te12  1  0.414259  0.917385  0.190542  1
  Te  Te13  1  0.082615  0.585741  0.309458  1
  Cl  Cl14  1  0.396201  0.393965  0.034182  1
  Cl  Cl15  1  0.606035  0.603799  0.465818  1
  Cl  Cl16  1  0.603799  0.606035  0.965818  1
  Cl  Cl17  1  0.393965  0.396201  0.534182  1
  Cl  Cl18  1  0.163358  0.622958  0.793772  1
  Cl  Cl19  1  0.377042  0.836642  0.706228  1
  Cl  Cl20  1  0.836642  0.377042  0.206228  1
  Cl  Cl21  1  0.622958  0.163358  0.293772  1
  Cl  Cl22  1  0.926691  0.730623  0.025882  1
  Cl  Cl23  1  0.269377  0.073309  0.474118  1
  Cl  Cl24  1  0.073309  0.269377  0.974118  1
  Cl  Cl25  1  0.730623  0.926691  0.525882  1
  Cl  Cl26  1  0.105488  0.894494  0.111655  1
  Cl  Cl27  1  0.105506  0.894512  0.388345  1
  Cl  Cl28  1  0.894512  0.105506  0.888345  1
  Cl  Cl29  1  0.894494  0.105488  0.611655  1
