# generated using pymatgen
data_SrAc3(GePd2)4
_symmetry_space_group_name_H-M   'P 1'
_cell_length_a   6.02398272
_cell_length_b   7.09601300
_cell_length_c   7.86259800
_cell_angle_alpha   90.00000000
_cell_angle_beta   90.02806779
_cell_angle_gamma   90.00000000
_symmetry_Int_Tables_number   1
_chemical_formula_structural   SrAc3(GePd2)4
_chemical_formula_sum   'Sr1 Ac3 Ge4 Pd8'
_cell_volume   336.09661580
_cell_formula_units_Z   1
loop_
 _symmetry_equiv_pos_site_id
 _symmetry_equiv_pos_as_xyz
  1  'x, y, z'
loop_
 _atom_site_type_symbol
 _atom_site_label
 _atom_site_symmetry_multiplicity
 _atom_site_fract_x
 _atom_site_fract_y
 _atom_site_fract_z
 _atom_site_occupancy
  Sr  Sr0  1  0.852310  0.250000  0.472120  1
  Ac  Ac1  1  0.344793  0.750000  0.028617  1
  Ac  Ac2  1  0.150128  0.750000  0.529504  1
  Ac  Ac3  1  0.653708  0.250000  0.969611  1
  Ge  Ge4  1  0.652444  0.750000  0.374261  1
  Ge  Ge5  1  0.845360  0.750000  0.873577  1
  Ge  Ge6  1  0.350733  0.250000  0.623631  1
  Ge  Ge7  1  0.152145  0.250000  0.132276  1
  Pd  Pd8  1  0.910822  0.553490  0.174291  1
  Pd  Pd9  1  0.585796  0.946731  0.674245  1
  Pd  Pd10  1  0.088090  0.053409  0.823072  1
  Pd  Pd11  1  0.414481  0.447849  0.326595  1
  Pd  Pd12  1  0.088090  0.446591  0.823072  1
  Pd  Pd13  1  0.414481  0.052151  0.326595  1
  Pd  Pd14  1  0.910822  0.946510  0.174291  1
  Pd  Pd15  1  0.585796  0.553269  0.674245  1
