# generated using pymatgen
data_Tb2DySc17Bi12
_symmetry_space_group_name_H-M   'P 1'
_cell_length_a   7.87461528
_cell_length_b   9.05553100
_cell_length_c   11.53061601
_cell_angle_alpha   90.00000000
_cell_angle_beta   90.01331278
_cell_angle_gamma   90.00000000
_symmetry_Int_Tables_number   1
_chemical_formula_structural   Tb2DySc17Bi12
_chemical_formula_sum   'Tb2 Dy1 Sc17 Bi12'
_cell_volume   822.23463148
_cell_formula_units_Z   1
loop_
 _symmetry_equiv_pos_site_id
 _symmetry_equiv_pos_as_xyz
  1  'x, y, z'
loop_
 _atom_site_type_symbol
 _atom_site_label
 _atom_site_symmetry_multiplicity
 _atom_site_fract_x
 _atom_site_fract_y
 _atom_site_fract_z
 _atom_site_occupancy
  Tb  Tb0  1  0.684397  0.750000  0.781028  1
  Tb  Tb1  1  0.183602  0.750000  0.718724  1
  Dy  Dy2  1  0.815817  0.250000  0.281218  1
  Sc  Sc3  1  0.348712  0.750000  0.220537  1
  Sc  Sc4  1  0.850971  0.750000  0.278249  1
  Sc  Sc5  1  0.650349  0.250000  0.781603  1
  Sc  Sc6  1  0.151163  0.250000  0.719914  1
  Sc  Sc7  1  0.694794  0.566566  0.061852  1
  Sc  Sc8  1  0.192548  0.933019  0.437509  1
  Sc  Sc9  1  0.306358  0.067120  0.939400  1
  Sc  Sc10  1  0.807358  0.432071  0.561404  1
  Sc  Sc11  1  0.306358  0.432880  0.939400  1
  Sc  Sc12  1  0.807358  0.067929  0.561404  1
  Sc  Sc13  1  0.694794  0.933434  0.061852  1
  Sc  Sc14  1  0.192548  0.566981  0.437509  1
  Sc  Sc15  1  0.480643  0.250000  0.487345  1
  Sc  Sc16  1  0.980826  0.250000  0.012269  1
  Sc  Sc17  1  0.517727  0.750000  0.509731  1
  Sc  Sc18  1  0.019837  0.750000  0.990647  1
  Sc  Sc19  1  0.313993  0.250000  0.217508  1
  Bi  Bi20  1  0.402888  0.750000  0.967333  1
  Bi  Bi21  1  0.900932  0.750000  0.532153  1
  Bi  Bi22  1  0.592297  0.250000  0.037709  1
  Bi  Bi23  1  0.099662  0.250000  0.464869  1
  Bi  Bi24  1  0.560387  0.992487  0.326065  1
  Bi  Bi25  1  0.069488  0.506157  0.172718  1
  Bi  Bi26  1  0.436326  0.489419  0.671411  1
  Bi  Bi27  1  0.935834  0.010713  0.829222  1
  Bi  Bi28  1  0.436326  0.010581  0.671411  1
  Bi  Bi29  1  0.935834  0.489287  0.829222  1
  Bi  Bi30  1  0.560387  0.507513  0.326065  1
  Bi  Bi31  1  0.069488  0.993843  0.172718  1
