# generated using pymatgen
data_Yb8Ru3N8
_symmetry_space_group_name_H-M   'P 1'
_cell_length_a   9.22001500
_cell_length_b   9.22001478
_cell_length_c   7.12959795
_cell_angle_alpha   75.60973514
_cell_angle_beta   75.60973524
_cell_angle_gamma   30.92435200
_symmetry_Int_Tables_number   1
_chemical_formula_structural   Yb8Ru3N8
_chemical_formula_sum   'Yb8 Ru3 N8'
_cell_volume   300.93395818
_cell_formula_units_Z   1
loop_
 _symmetry_equiv_pos_site_id
 _symmetry_equiv_pos_as_xyz
  1  'x, y, z'
loop_
 _atom_site_type_symbol
 _atom_site_label
 _atom_site_symmetry_multiplicity
 _atom_site_fract_x
 _atom_site_fract_y
 _atom_site_fract_z
 _atom_site_occupancy
  Yb  Yb0  1  0.974689  0.974689  0.252749  1
  Yb  Yb1  1  0.025311  0.025311  0.747251  1
  Yb  Yb2  1  0.666488  0.666488  0.527640  1
  Yb  Yb3  1  0.333512  0.333512  0.472360  1
  Yb  Yb4  1  0.597069  0.597069  0.036667  1
  Yb  Yb5  1  0.402931  0.402931  0.963333  1
  Yb  Yb6  1  0.198181  0.198181  0.196616  1
  Yb  Yb7  1  0.801819  0.801819  0.803384  1
  Ru  Ru8  1  0.500000  0.500000  0.500000  1
  Ru  Ru9  1  0.812416  0.812416  0.205469  1
  Ru  Ru10  1  0.187584  0.187584  0.794531  1
  N  N11  1  0.904975  0.904975  0.995804  1
  N  N12  1  0.095025  0.095025  0.004196  1
  N  N13  1  0.825519  0.825519  0.455109  1
  N  N14  1  0.174481  0.174481  0.544891  1
  N  N15  1  0.711833  0.711833  0.169029  1
  N  N16  1  0.288167  0.288167  0.830971  1
  N  N17  1  0.470921  0.470921  0.270439  1
  N  N18  1  0.529079  0.529079  0.729561  1
