# generated using pymatgen
data_Pr4Sm6B2Cl15
_symmetry_space_group_name_H-M   'P 1'
_cell_length_a   9.07344289
_cell_length_b   9.85308934
_cell_length_c   10.58706484
_cell_angle_alpha   90.70061544
_cell_angle_beta   114.45637196
_cell_angle_gamma   111.38939773
_symmetry_Int_Tables_number   1
_chemical_formula_structural   Pr4Sm6B2Cl15
_chemical_formula_sum   'Pr4 Sm6 B2 Cl15'
_cell_volume   787.21879731
_cell_formula_units_Z   1
loop_
 _symmetry_equiv_pos_site_id
 _symmetry_equiv_pos_as_xyz
  1  'x, y, z'
loop_
 _atom_site_type_symbol
 _atom_site_label
 _atom_site_symmetry_multiplicity
 _atom_site_fract_x
 _atom_site_fract_y
 _atom_site_fract_z
 _atom_site_occupancy
  Pr  Pr0  1  0.813106  0.420129  0.281629  1
  Pr  Pr1  1  0.186894  0.579871  0.718371  1
  Pr  Pr2  1  0.680910  0.744373  0.815614  1
  Pr  Pr3  1  0.319090  0.255627  0.184386  1
  Sm  Sm4  1  0.526234  0.702157  0.100069  1
  Sm  Sm5  1  0.473766  0.297843  0.899931  1
  Sm  Sm6  1  0.590146  0.038741  0.331495  1
  Sm  Sm7  1  0.409854  0.961259  0.668505  1
  Sm  Sm8  1  0.730863  0.077251  0.048501  1
  Sm  Sm9  1  0.269137  0.922749  0.951499  1
  B  B10  1  0.465979  0.819282  0.876558  1
  B  B11  1  0.534021  0.180718  0.123442  1
  Cl  Cl12  1  0.000000  0.000000  0.000000  1
  Cl  Cl13  1  0.630668  0.888569  0.582471  1
  Cl  Cl14  1  0.369332  0.111431  0.417529  1
  Cl  Cl15  1  0.877453  0.291430  0.523972  1
  Cl  Cl16  1  0.122547  0.708570  0.476028  1
  Cl  Cl17  1  0.301295  0.767890  0.180920  1
  Cl  Cl18  1  0.698705  0.232110  0.819080  1
  Cl  Cl19  1  0.051441  0.340478  0.223924  1
  Cl  Cl20  1  0.175788  0.058681  0.708748  1
  Cl  Cl21  1  0.824212  0.941319  0.291252  1
  Cl  Cl22  1  0.245276  0.413197  0.948146  1
  Cl  Cl23  1  0.754724  0.586803  0.051854  1
  Cl  Cl24  1  0.406709  0.461736  0.662300  1
  Cl  Cl25  1  0.593291  0.538264  0.337700  1
  Cl  Cl26  1  0.948559  0.659522  0.776076  1
