# generated using pymatgen
data_EuFe3Sb12Pd
_symmetry_space_group_name_H-M   'P 1'
_cell_length_a   8.01070122
_cell_length_b   8.01070157
_cell_length_c   8.01070200
_cell_angle_alpha   109.51651849
_cell_angle_beta   109.51652691
_cell_angle_gamma   109.51651845
_symmetry_Int_Tables_number   1
_chemical_formula_structural   EuFe3Sb12Pd
_chemical_formula_sum   'Eu1 Fe3 Sb12 Pd1'
_cell_volume   395.05651135
_cell_formula_units_Z   1
loop_
 _symmetry_equiv_pos_site_id
 _symmetry_equiv_pos_as_xyz
  1  'x, y, z'
loop_
 _atom_site_type_symbol
 _atom_site_label
 _atom_site_symmetry_multiplicity
 _atom_site_fract_x
 _atom_site_fract_y
 _atom_site_fract_z
 _atom_site_occupancy
  Eu  Eu0  1  0.000000  0.000000  0.000000  1
  Fe  Fe1  1  0.000000  0.000000  0.500000  1
  Fe  Fe2  1  0.000000  0.500000  0.000000  1
  Fe  Fe3  1  0.500000  0.000000  0.000000  1
  Sb  Sb4  1  0.331958  0.169436  0.836449  1
  Sb  Sb5  1  0.146874  0.330711  0.497859  1
  Sb  Sb6  1  0.668042  0.830564  0.163551  1
  Sb  Sb7  1  0.330711  0.497859  0.146874  1
  Sb  Sb8  1  0.669289  0.502141  0.853126  1
  Sb  Sb9  1  0.502141  0.853126  0.669289  1
  Sb  Sb10  1  0.853126  0.669289  0.502141  1
  Sb  Sb11  1  0.836449  0.331958  0.169436  1
  Sb  Sb12  1  0.169436  0.836449  0.331958  1
  Sb  Sb13  1  0.497859  0.146874  0.330711  1
  Sb  Sb14  1  0.830564  0.163551  0.668042  1
  Sb  Sb15  1  0.163551  0.668042  0.830564  1
  Pd  Pd16  1  0.500000  0.500000  0.500000  1
