# generated using pymatgen
data_Li7Eu3SnBi6
_symmetry_space_group_name_H-M   'P 1'
_cell_length_a   9.10908029
_cell_length_b   9.10907964
_cell_length_c   12.89945792
_cell_angle_alpha   54.95493585
_cell_angle_beta   54.95493700
_cell_angle_gamma   31.07613172
_symmetry_Int_Tables_number   1
_chemical_formula_structural   Li7Eu3SnBi6
_chemical_formula_sum   'Li7 Eu3 Sn1 Bi6'
_cell_volume   443.63395282
_cell_formula_units_Z   1
loop_
 _symmetry_equiv_pos_site_id
 _symmetry_equiv_pos_as_xyz
  1  'x, y, z'
loop_
 _atom_site_type_symbol
 _atom_site_label
 _atom_site_symmetry_multiplicity
 _atom_site_fract_x
 _atom_site_fract_y
 _atom_site_fract_z
 _atom_site_occupancy
  Li  Li0  1  0.056446  0.056446  0.677829  1
  Li  Li1  1  0.948150  0.948150  0.319861  1
  Li  Li2  1  0.237622  0.237622  0.910404  1
  Li  Li3  1  0.763706  0.763706  0.085997  1
  Li  Li4  1  0.414736  0.414736  0.655784  1
  Li  Li5  1  0.585541  0.585541  0.341213  1
  Li  Li6  1  0.002192  0.002192  0.497536  1
  Eu  Eu7  1  0.740787  0.740787  0.659223  1
  Eu  Eu8  1  0.429190  0.429190  0.920646  1
  Eu  Eu9  1  0.564744  0.564744  0.088634  1
  Sn  Sn10  1  0.253542  0.253542  0.353591  1
  Bi  Bi11  1  0.097076  0.097076  0.864015  1
  Bi  Bi12  1  0.903941  0.903941  0.134094  1
  Bi  Bi13  1  0.155798  0.155798  0.181969  1
  Bi  Bi14  1  0.849034  0.849034  0.809942  1
  Bi  Bi15  1  0.382559  0.382559  0.460703  1
  Bi  Bi16  1  0.614934  0.614934  0.538561  1
