# generated using pymatgen
data_HoHf3Si4Mo
_symmetry_space_group_name_H-M   'P 1'
_cell_length_a   7.04237600
_cell_length_b   7.04237600
_cell_length_c   12.86321500
_cell_angle_alpha   90.00000000
_cell_angle_beta   90.00000000
_cell_angle_gamma   90.00000000
_symmetry_Int_Tables_number   1
_chemical_formula_structural   HoHf3Si4Mo
_chemical_formula_sum   'Ho4 Hf12 Si16 Mo4'
_cell_volume   637.95191619
_cell_formula_units_Z   4
loop_
 _symmetry_equiv_pos_site_id
 _symmetry_equiv_pos_as_xyz
  1  'x, y, z'
loop_
 _atom_site_type_symbol
 _atom_site_label
 _atom_site_symmetry_multiplicity
 _atom_site_fract_x
 _atom_site_fract_y
 _atom_site_fract_z
 _atom_site_occupancy
  Ho  Ho0  1  0.495357  0.156717  0.532372  1
  Ho  Ho1  1  0.504643  0.843283  0.032372  1
  Ho  Ho2  1  0.656717  0.004643  0.282372  1
  Ho  Ho3  1  0.343283  0.995357  0.782372  1
  Hf  Hf4  1  0.846779  0.499269  0.968681  1
  Hf  Hf5  1  0.153221  0.500731  0.468681  1
  Hf  Hf6  1  0.999269  0.653221  0.718681  1
  Hf  Hf7  1  0.000731  0.346779  0.218681  1
  Hf  Hf8  1  0.493431  0.356096  0.125070  1
  Hf  Hf9  1  0.506569  0.643904  0.625070  1
  Hf  Hf10  1  0.856096  0.006569  0.875070  1
  Hf  Hf11  1  0.143904  0.993431  0.375070  1
  Hf  Hf12  1  0.645531  0.502834  0.374654  1
  Hf  Hf13  1  0.354469  0.497166  0.874654  1
  Hf  Hf14  1  0.002834  0.854469  0.124654  1
  Hf  Hf15  1  0.997166  0.145531  0.624654  1
  Si  Si16  1  0.803157  0.151014  0.070144  1
  Si  Si17  1  0.196843  0.848986  0.570144  1
  Si  Si18  1  0.651014  0.696843  0.820144  1
  Si  Si19  1  0.348986  0.303157  0.320144  1
  Si  Si20  1  0.863785  0.210099  0.429178  1
  Si  Si21  1  0.136215  0.789901  0.929178  1
  Si  Si22  1  0.710099  0.636215  0.179178  1
  Si  Si23  1  0.289901  0.363785  0.679178  1
  Si  Si24  1  0.552967  0.205950  0.933416  1
  Si  Si25  1  0.447033  0.794050  0.433416  1
  Si  Si26  1  0.705950  0.947033  0.683416  1
  Si  Si27  1  0.294050  0.052967  0.183416  1
  Si  Si28  1  0.805363  0.454590  0.566386  1
  Si  Si29  1  0.194637  0.545410  0.066386  1
  Si  Si30  1  0.954590  0.694637  0.316386  1
  Si  Si31  1  0.045410  0.305363  0.816386  1
  Mo  Mo32  1  0.679960  0.329742  0.750100  1
  Mo  Mo33  1  0.320040  0.670258  0.250100  1
  Mo  Mo34  1  0.829742  0.820040  0.500100  1
  Mo  Mo35  1  0.170258  0.179960  0.000100  1
