# generated using pymatgen
data_Tm3Sc9Tc3Sn2
_symmetry_space_group_name_H-M   'P 1'
_cell_length_a   8.04887428
_cell_length_b   8.04887458
_cell_length_c   8.00266500
_cell_angle_alpha   109.37026541
_cell_angle_beta   109.37026617
_cell_angle_gamma   109.90521820
_symmetry_Int_Tables_number   1
_chemical_formula_structural   Tm3Sc9Tc3Sn2
_chemical_formula_sum   'Tm3 Sc9 Tc3 Sn2'
_cell_volume   397.94529816
_cell_formula_units_Z   1
loop_
 _symmetry_equiv_pos_site_id
 _symmetry_equiv_pos_as_xyz
  1  'x, y, z'
loop_
 _atom_site_type_symbol
 _atom_site_label
 _atom_site_symmetry_multiplicity
 _atom_site_fract_x
 _atom_site_fract_y
 _atom_site_fract_z
 _atom_site_occupancy
  Tm  Tm0  1  0.689083  0.689083  0.378164  1
  Tm  Tm1  1  0.689581  0.309474  0.999055  1
  Tm  Tm2  1  0.309474  0.689581  0.999055  1
  Sc  Sc3  1  0.186282  0.423467  0.241421  1
  Sc  Sc4  1  0.809487  0.571348  0.757212  1
  Sc  Sc5  1  0.185864  0.947725  0.757212  1
  Sc  Sc6  1  0.947725  0.185864  0.757212  1
  Sc  Sc7  1  0.817954  0.055138  0.241421  1
  Sc  Sc8  1  0.055138  0.817954  0.241421  1
  Sc  Sc9  1  0.423467  0.186282  0.241421  1
  Sc  Sc10  1  0.571348  0.809487  0.757212  1
  Sc  Sc11  1  0.314874  0.314874  0.629749  1
  Tc  Tc12  1  0.339058  0.339058  0.997055  1
  Tc  Tc13  1  0.657997  0.657997  0.997055  1
  Tc  Tc14  1  0.998920  0.998920  0.997840  1
  Sn  Sn15  1  0.003879  0.499867  0.503745  1
  Sn  Sn16  1  0.499867  0.003879  0.503745  1
