# generated using pymatgen
data_Li4CaSm3Si8
_symmetry_space_group_name_H-M   'P 1'
_cell_length_a   3.83126000
_cell_length_b   7.77882183
_cell_length_c   10.41194114
_cell_angle_alpha   89.77540964
_cell_angle_beta   90.00000000
_cell_angle_gamma   90.00000000
_symmetry_Int_Tables_number   1
_chemical_formula_structural   Li4CaSm3Si8
_chemical_formula_sum   'Li4 Ca1 Sm3 Si8'
_cell_volume   310.30145914
_cell_formula_units_Z   1
loop_
 _symmetry_equiv_pos_site_id
 _symmetry_equiv_pos_as_xyz
  1  'x, y, z'
loop_
 _atom_site_type_symbol
 _atom_site_label
 _atom_site_symmetry_multiplicity
 _atom_site_fract_x
 _atom_site_fract_y
 _atom_site_fract_z
 _atom_site_occupancy
  Li  Li0  1  0.250000  0.997399  0.391669  1
  Li  Li1  1  0.750000  0.007403  0.609742  1
  Li  Li2  1  0.250000  0.491853  0.111583  1
  Li  Li3  1  0.750000  0.506150  0.890842  1
  Ca  Ca4  1  0.750000  0.364045  0.365091  1
  Sm  Sm5  1  0.250000  0.132370  0.863915  1
  Sm  Sm6  1  0.750000  0.866433  0.133727  1
  Sm  Sm7  1  0.250000  0.633222  0.634625  1
  Si  Si8  1  0.750000  0.267345  0.066264  1
  Si  Si9  1  0.250000  0.729336  0.931578  1
  Si  Si10  1  0.750000  0.774039  0.431790  1
  Si  Si11  1  0.250000  0.232934  0.570260  1
  Si  Si12  1  0.750000  0.835047  0.819917  1
  Si  Si13  1  0.250000  0.159736  0.174586  1
  Si  Si14  1  0.750000  0.336445  0.681332  1
  Si  Si15  1  0.250000  0.666242  0.323079  1
