# generated using pymatgen
data_BaLa(Sn2Pt)2
_symmetry_space_group_name_H-M   'P 1'
_cell_length_a   4.82989520
_cell_length_b   9.71422900
_cell_length_c   9.37623985
_cell_angle_alpha   90.00000000
_cell_angle_beta   105.20475993
_cell_angle_gamma   90.00000000
_symmetry_Int_Tables_number   1
_chemical_formula_structural   BaLa(Sn2Pt)2
_chemical_formula_sum   'Ba2 La2 Sn8 Pt4'
_cell_volume   424.52149509
_cell_formula_units_Z   2
loop_
 _symmetry_equiv_pos_site_id
 _symmetry_equiv_pos_as_xyz
  1  'x, y, z'
loop_
 _atom_site_type_symbol
 _atom_site_label
 _atom_site_symmetry_multiplicity
 _atom_site_fract_x
 _atom_site_fract_y
 _atom_site_fract_z
 _atom_site_occupancy
  Ba  Ba0  1  0.000008  0.000009  0.000005  1
  Ba  Ba1  1  0.000008  0.499991  0.000005  1
  La  La2  1  0.205115  0.750000  0.406550  1
  La  La3  1  0.794875  0.250000  0.593476  1
  Sn  Sn4  1  0.574251  0.750000  0.152494  1
  Sn  Sn5  1  0.587120  0.250000  0.179767  1
  Sn  Sn6  1  0.198231  0.093635  0.395567  1
  Sn  Sn7  1  0.198231  0.406365  0.395567  1
  Sn  Sn8  1  0.801754  0.593645  0.604420  1
  Sn  Sn9  1  0.801754  0.906356  0.604420  1
  Sn  Sn10  1  0.412914  0.750000  0.820238  1
  Sn  Sn11  1  0.425712  0.250000  0.847502  1
  Pt  Pt12  1  0.654411  0.505913  0.308698  1
  Pt  Pt13  1  0.654411  0.994087  0.308698  1
  Pt  Pt14  1  0.345602  0.005915  0.691297  1
  Pt  Pt15  1  0.345602  0.494085  0.691297  1
