# generated using pymatgen
data_TbNd7Sc12Si15P
_symmetry_space_group_name_H-M   'P 1'
_cell_length_a   7.21468143
_cell_length_b   7.49199278
_cell_length_c   14.17575156
_cell_angle_alpha   89.94815900
_cell_angle_beta   90.01370526
_cell_angle_gamma   90.25998034
_symmetry_Int_Tables_number   1
_chemical_formula_structural   TbNd7Sc12Si15P
_chemical_formula_sum   'Tb1 Nd7 Sc12 Si15 P1'
_cell_volume   766.22433701
_cell_formula_units_Z   1
loop_
 _symmetry_equiv_pos_site_id
 _symmetry_equiv_pos_as_xyz
  1  'x, y, z'
loop_
 _atom_site_type_symbol
 _atom_site_label
 _atom_site_symmetry_multiplicity
 _atom_site_fract_x
 _atom_site_fract_y
 _atom_site_fract_z
 _atom_site_occupancy
  Tb  Tb0  1  0.490600  0.673479  0.597618  1
  Nd  Nd1  1  0.010367  0.172538  0.097484  1
  Nd  Nd2  1  0.991797  0.830049  0.898652  1
  Nd  Nd3  1  0.490556  0.671013  0.903919  1
  Nd  Nd4  1  0.991606  0.829943  0.600476  1
  Nd  Nd5  1  0.511591  0.327661  0.096861  1
  Nd  Nd6  1  0.011189  0.172490  0.403424  1
  Nd  Nd7  1  0.511425  0.327221  0.404019  1
  Sc  Sc8  1  0.159739  0.500445  0.749475  1
  Sc  Sc9  1  0.838862  0.500068  0.250035  1
  Sc  Sc10  1  0.339964  0.999398  0.250323  1
  Sc  Sc11  1  0.661077  0.001066  0.749292  1
  Sc  Sc12  1  0.326476  0.171820  0.628025  1
  Sc  Sc13  1  0.668092  0.823389  0.375603  1
  Sc  Sc14  1  0.168954  0.676074  0.375779  1
  Sc  Sc15  1  0.668853  0.824702  0.124892  1
  Sc  Sc16  1  0.831659  0.324763  0.626312  1
  Sc  Sc17  1  0.326383  0.171057  0.871071  1
  Sc  Sc18  1  0.831648  0.324462  0.872637  1
  Sc  Sc19  1  0.167995  0.676700  0.124680  1
  Si  Si20  1  0.964592  0.876266  0.250362  1
  Si  Si21  1  0.464194  0.622458  0.250196  1
  Si  Si22  1  0.532084  0.377830  0.748787  1
  Si  Si23  1  0.302690  0.865852  0.748615  1
  Si  Si24  1  0.711615  0.118367  0.250270  1
  Si  Si25  1  0.212420  0.381855  0.250238  1
  Si  Si26  1  0.786435  0.621770  0.748477  1
  Si  Si27  1  0.156238  0.464104  0.541556  1
  Si  Si28  1  0.845993  0.538204  0.462046  1
  Si  Si29  1  0.346334  0.960854  0.462353  1
  Si  Si30  1  0.847330  0.538101  0.038329  1
  Si  Si31  1  0.652928  0.034850  0.541777  1
  Si  Si32  1  0.151924  0.462041  0.959084  1
  Si  Si33  1  0.654236  0.038180  0.958957  1
  Si  Si34  1  0.345485  0.963948  0.038754  1
  P  P35  1  0.026671  0.136981  0.749624  1
