# generated using pymatgen
data_BaCa7(Sb2O5)4
_symmetry_space_group_name_H-M   'P 1'
_cell_length_a   5.91931900
_cell_length_b   7.44971246
_cell_length_c   14.40879315
_cell_angle_alpha   89.83978764
_cell_angle_beta   90.00000000
_cell_angle_gamma   90.00000000
_symmetry_Int_Tables_number   1
_chemical_formula_structural   BaCa7(Sb2O5)4
_chemical_formula_sum   'Ba1 Ca7 Sb8 O20'
_cell_volume   635.38530262
_cell_formula_units_Z   1
loop_
 _symmetry_equiv_pos_site_id
 _symmetry_equiv_pos_as_xyz
  1  'x, y, z'
loop_
 _atom_site_type_symbol
 _atom_site_label
 _atom_site_symmetry_multiplicity
 _atom_site_fract_x
 _atom_site_fract_y
 _atom_site_fract_z
 _atom_site_occupancy
  Ba  Ba0  1  0.750000  0.374877  0.928972  1
  Ca  Ca1  1  0.250000  0.631846  0.067432  1
  Ca  Ca2  1  0.750000  0.624352  0.445745  1
  Ca  Ca3  1  0.750000  0.876606  0.952673  1
  Ca  Ca4  1  0.250000  0.873716  0.561645  1
  Ca  Ca5  1  0.250000  0.117216  0.055647  1
  Ca  Ca6  1  0.750000  0.126364  0.435065  1
  Ca  Ca7  1  0.250000  0.375981  0.550429  1
  Sb  Sb8  1  0.250000  0.631468  0.823445  1
  Sb  Sb9  1  0.750000  0.628078  0.677939  1
  Sb  Sb10  1  0.250000  0.880760  0.323839  1
  Sb  Sb11  1  0.750000  0.871895  0.187153  1
  Sb  Sb12  1  0.250000  0.116950  0.817015  1
  Sb  Sb13  1  0.750000  0.117833  0.672092  1
  Sb  Sb14  1  0.250000  0.372693  0.318292  1
  Sb  Sb15  1  0.750000  0.379559  0.180581  1
  O  O16  1  0.250000  0.628708  0.270419  1
  O  O17  1  0.018217  0.657616  0.918754  1
  O  O18  1  0.481783  0.657616  0.918754  1
  O  O19  1  0.508704  0.620174  0.584482  1
  O  O20  1  0.991296  0.620174  0.584482  1
  O  O21  1  0.491530  0.868859  0.417382  1
  O  O22  1  0.250000  0.871776  0.757583  1
  O  O23  1  0.509770  0.880699  0.092794  1
  O  O24  1  0.008470  0.868859  0.417382  1
  O  O25  1  0.990230  0.880699  0.092794  1
  O  O26  1  0.750000  0.127613  0.234709  1
  O  O27  1  0.508110  0.130287  0.579186  1
  O  O28  1  0.991890  0.130287  0.579186  1
  O  O29  1  0.018474  0.093867  0.912965  1
  O  O30  1  0.481526  0.093867  0.912965  1
  O  O31  1  0.750000  0.370913  0.723341  1
  O  O32  1  0.009097  0.381251  0.412707  1
  O  O33  1  0.490903  0.381251  0.412707  1
  O  O34  1  0.500908  0.367642  0.089723  1
  O  O35  1  0.999092  0.367642  0.089723  1
