# generated using pymatgen
data_Dy4Ga5Ru3
_symmetry_space_group_name_H-M   'P 1'
_cell_length_a   5.39126946
_cell_length_b   5.41620760
_cell_length_c   8.81385700
_cell_angle_alpha   90.00000000
_cell_angle_beta   90.00000000
_cell_angle_gamma   120.15118023
_symmetry_Int_Tables_number   1
_chemical_formula_structural   Dy4Ga5Ru3
_chemical_formula_sum   'Dy4 Ga5 Ru3'
_cell_volume   222.54577537
_cell_formula_units_Z   1
loop_
 _symmetry_equiv_pos_site_id
 _symmetry_equiv_pos_as_xyz
  1  'x, y, z'
loop_
 _atom_site_type_symbol
 _atom_site_label
 _atom_site_symmetry_multiplicity
 _atom_site_fract_x
 _atom_site_fract_y
 _atom_site_fract_z
 _atom_site_occupancy
  Dy  Dy0  1  0.660330  0.330183  0.552390  1
  Dy  Dy1  1  0.339978  0.670138  0.441587  1
  Dy  Dy2  1  0.339978  0.670138  0.058413  1
  Dy  Dy3  1  0.660330  0.330183  0.947610  1
  Ga  Ga4  1  0.163693  0.329640  0.750000  1
  Ga  Ga5  1  0.163415  0.833698  0.750000  1
  Ga  Ga6  1  0.669724  0.834897  0.750000  1
  Ga  Ga7  1  0.835104  0.669890  0.250000  1
  Ga  Ga8  1  0.835371  0.165354  0.250000  1
  Ru  Ru9  1  0.992683  0.996359  0.501759  1
  Ru  Ru10  1  0.992683  0.996359  0.998241  1
  Ru  Ru11  1  0.346711  0.173160  0.250000  1
