# generated using pymatgen
data_Np3UN4
_symmetry_space_group_name_H-M   'P 1'
_cell_length_a   6.89040762
_cell_length_b   9.10410055
_cell_length_c   5.95037176
_cell_angle_alpha   29.22657177
_cell_angle_beta   54.62049731
_cell_angle_gamma   40.81302578
_symmetry_Int_Tables_number   1
_chemical_formula_structural   Np3UN4
_chemical_formula_sum   'Np3 U1 N4'
_cell_volume   115.17017624
_cell_formula_units_Z   1
loop_
 _symmetry_equiv_pos_site_id
 _symmetry_equiv_pos_as_xyz
  1  'x, y, z'
loop_
 _atom_site_type_symbol
 _atom_site_label
 _atom_site_symmetry_multiplicity
 _atom_site_fract_x
 _atom_site_fract_y
 _atom_site_fract_z
 _atom_site_occupancy
  Np  Np0  1  0.250000  0.500000  0.000000  1
  Np  Np1  1  0.750000  0.500000  0.000000  1
  Np  Np2  1  0.500000  0.000000  0.000000  1
  U  U3  1  0.000000  0.000000  0.000000  1
  N  N4  1  0.500000  0.500000  0.500000  1
  N  N5  1  0.247584  0.000000  0.504830  1
  N  N6  1  0.000000  0.500000  0.500000  1
  N  N7  1  0.752416  0.000000  0.495170  1
