# generated using pymatgen
data_Tb5Ce2Sm(ReB6)4
_symmetry_space_group_name_H-M   'P 1'
_cell_length_a   3.72879800
_cell_length_b   9.23619447
_cell_length_c   11.62456410
_cell_angle_alpha   90.14991954
_cell_angle_beta   90.00000000
_cell_angle_gamma   90.00000000
_symmetry_Int_Tables_number   1
_chemical_formula_structural   Tb5Ce2Sm(ReB6)4
_chemical_formula_sum   'Tb5 Ce2 Sm1 Re4 B24'
_cell_volume   400.34749491
_cell_formula_units_Z   1
loop_
 _symmetry_equiv_pos_site_id
 _symmetry_equiv_pos_as_xyz
  1  'x, y, z'
loop_
 _atom_site_type_symbol
 _atom_site_label
 _atom_site_symmetry_multiplicity
 _atom_site_fract_x
 _atom_site_fract_y
 _atom_site_fract_z
 _atom_site_occupancy
  Tb  Tb0  1  0.000000  0.175431  0.914191  1
  Tb  Tb1  1  0.000000  0.943722  0.370739  1
  Tb  Tb2  1  0.000000  0.056457  0.629328  1
  Tb  Tb3  1  0.000000  0.442944  0.128933  1
  Tb  Tb4  1  0.000000  0.556655  0.870862  1
  Ce  Ce5  1  0.000000  0.322863  0.413683  1
  Ce  Ce6  1  0.000000  0.677174  0.586406  1
  Sm  Sm7  1  0.000000  0.824349  0.085837  1
  Re  Re8  1  0.000000  0.637216  0.322868  1
  Re  Re9  1  0.000000  0.362392  0.677628  1
  Re  Re10  1  0.000000  0.140192  0.180159  1
  Re  Re11  1  0.000000  0.860544  0.819461  1
  B  B12  1  0.500000  0.554100  0.431766  1
  B  B13  1  0.500000  0.445797  0.568443  1
  B  B14  1  0.500000  0.054622  0.067227  1
  B  B15  1  0.500000  0.946650  0.932063  1
  B  B16  1  0.500000  0.748329  0.417935  1
  B  B17  1  0.500000  0.251645  0.582387  1
  B  B18  1  0.500000  0.248223  0.081053  1
  B  B19  1  0.500000  0.751960  0.917814  1
  B  B20  1  0.500000  0.791056  0.266538  1
  B  B21  1  0.500000  0.208441  0.734253  1
  B  B22  1  0.500000  0.291094  0.233430  1
  B  B23  1  0.500000  0.708949  0.766299  1
  B  B24  1  0.500000  0.630979  0.186555  1
  B  B25  1  0.500000  0.368211  0.814071  1
  B  B26  1  0.500000  0.132064  0.313278  1
  B  B27  1  0.500000  0.868238  0.686763  1
  B  B28  1  0.500000  0.984785  0.212096  1
  B  B29  1  0.500000  0.016499  0.788134  1
  B  B30  1  0.500000  0.484141  0.287391  1
  B  B31  1  0.500000  0.515554  0.712702  1
  B  B32  1  0.500000  0.601438  0.028419  1
  B  B33  1  0.500000  0.397241  0.971191  1
  B  B34  1  0.500000  0.105078  0.470772  1
  B  B35  1  0.500000  0.894968  0.529323  1
