# generated using pymatgen
data_Y4PI6
_symmetry_space_group_name_H-M   'P 1'
_cell_length_a   4.14612800
_cell_length_b   13.94106200
_cell_length_c   14.55235400
_cell_angle_alpha   90.00000000
_cell_angle_beta   90.00000000
_cell_angle_gamma   90.00000000
_symmetry_Int_Tables_number   1
_chemical_formula_structural   Y4PI6
_chemical_formula_sum   'Y8 P2 I12'
_cell_volume   841.14683480
_cell_formula_units_Z   2
loop_
 _symmetry_equiv_pos_site_id
 _symmetry_equiv_pos_as_xyz
  1  'x, y, z'
loop_
 _atom_site_type_symbol
 _atom_site_label
 _atom_site_symmetry_multiplicity
 _atom_site_fract_x
 _atom_site_fract_y
 _atom_site_fract_z
 _atom_site_occupancy
  Y  Y0  1  0.000000  0.101907  0.078713  1
  Y  Y1  1  0.000000  0.898093  0.921287  1
  Y  Y2  1  0.000000  0.601907  0.421287  1
  Y  Y3  1  0.000000  0.398093  0.578713  1
  Y  Y4  1  0.500000  0.121514  0.855819  1
  Y  Y5  1  0.500000  0.878486  0.144181  1
  Y  Y6  1  0.500000  0.621514  0.644181  1
  Y  Y7  1  0.500000  0.378486  0.355819  1
  P  P8  1  0.500000  0.000000  0.000000  1
  P  P9  1  0.500000  0.500000  0.500000  1
  I  I10  1  0.500000  0.262327  0.678169  1
  I  I11  1  0.500000  0.737673  0.321831  1
  I  I12  1  0.500000  0.762327  0.821831  1
  I  I13  1  0.500000  0.237673  0.178169  1
  I  I14  1  0.000000  0.264438  0.931097  1
  I  I15  1  0.000000  0.735562  0.068903  1
  I  I16  1  0.000000  0.486367  0.238064  1
  I  I17  1  0.000000  0.513633  0.761936  1
  I  I18  1  0.000000  0.986367  0.261936  1
  I  I19  1  0.000000  0.013633  0.738064  1
  I  I20  1  0.000000  0.235562  0.431097  1
  I  I21  1  0.000000  0.764438  0.568903  1
