# generated using pymatgen
data_Rb16ZrSnBi8
_symmetry_space_group_name_H-M   'P 1'
_cell_length_a   12.34964006
_cell_length_b   12.34963038
_cell_length_c   12.32991300
_cell_angle_alpha   60.05266830
_cell_angle_beta   60.05282413
_cell_angle_gamma   60.05776950
_symmetry_Int_Tables_number   1
_chemical_formula_structural   Rb16ZrSnBi8
_chemical_formula_sum   'Rb16 Zr1 Sn1 Bi8'
_cell_volume   1331.33887180
_cell_formula_units_Z   1
loop_
 _symmetry_equiv_pos_site_id
 _symmetry_equiv_pos_as_xyz
  1  'x, y, z'
loop_
 _atom_site_type_symbol
 _atom_site_label
 _atom_site_symmetry_multiplicity
 _atom_site_fract_x
 _atom_site_fract_y
 _atom_site_fract_z
 _atom_site_occupancy
  Rb  Rb0  1  0.622915  0.131380  0.622854  1
  Rb  Rb1  1  0.622907  0.622909  0.131335  1
  Rb  Rb2  1  0.131381  0.622916  0.622850  1
  Rb  Rb3  1  0.622909  0.622909  0.622848  1
  Rb  Rb4  1  0.022040  0.022038  0.477960  1
  Rb  Rb5  1  0.777192  0.222731  0.222706  1
  Rb  Rb6  1  0.222729  0.777194  0.777372  1
  Rb  Rb7  1  0.777307  0.777310  0.222691  1
  Rb  Rb8  1  0.777191  0.222732  0.777370  1
  Rb  Rb9  1  0.222731  0.777193  0.222705  1
  Rb  Rb10  1  0.477884  0.022157  0.477678  1
  Rb  Rb11  1  0.477884  0.022158  0.022279  1
  Rb  Rb12  1  0.022159  0.477884  0.477678  1
  Rb  Rb13  1  0.022158  0.477881  0.022283  1
  Rb  Rb14  1  0.222688  0.222690  0.777311  1
  Rb  Rb15  1  0.477639  0.477637  0.022361  1
  Zr  Zr16  1  0.750096  0.750096  0.749906  1
  Sn  Sn17  1  0.500067  0.500065  0.499932  1
  Bi  Bi18  1  0.398199  0.804986  0.398408  1
  Bi  Bi19  1  0.848818  0.848817  0.453599  1
  Bi  Bi20  1  0.453704  0.848917  0.848690  1
  Bi  Bi21  1  0.848818  0.848818  0.848764  1
  Bi  Bi22  1  0.804985  0.398200  0.398407  1
  Bi  Bi23  1  0.398341  0.398340  0.398261  1
  Bi  Bi24  1  0.398340  0.398341  0.805059  1
  Bi  Bi25  1  0.848916  0.453702  0.848694  1
