# generated using pymatgen
data_Tm2Pa(ZnPt)3
_symmetry_space_group_name_H-M   'P 1'
_cell_length_a   7.35717900
_cell_length_b   7.28393197
_cell_length_c   3.79838800
_cell_angle_alpha   90.00000000
_cell_angle_beta   90.00000000
_cell_angle_gamma   120.33321480
_symmetry_Int_Tables_number   1
_chemical_formula_structural   Tm2Pa(ZnPt)3
_chemical_formula_sum   'Tm2 Pa1 Zn3 Pt3'
_cell_volume   175.68679407
_cell_formula_units_Z   1
loop_
 _symmetry_equiv_pos_site_id
 _symmetry_equiv_pos_as_xyz
  1  'x, y, z'
loop_
 _atom_site_type_symbol
 _atom_site_label
 _atom_site_symmetry_multiplicity
 _atom_site_fract_x
 _atom_site_fract_y
 _atom_site_fract_z
 _atom_site_occupancy
  Tm  Tm0  1  0.402166  0.399280  0.000000  1
  Tm  Tm1  1  0.002886  0.600721  0.000000  1
  Pa  Pa2  1  0.592856  0.000000  0.000000  1
  Zn  Zn3  1  0.244339  0.000000  0.500000  1
  Zn  Zn4  1  0.008866  0.263517  0.500000  1
  Zn  Zn5  1  0.745350  0.736484  0.500000  1
  Pt  Pt6  1  0.992586  0.000000  0.000000  1
  Pt  Pt7  1  0.665400  0.319851  0.500000  1
  Pt  Pt8  1  0.345550  0.680149  0.500000  1
