# generated using pymatgen
data_Na8Hf3TeBr24
_symmetry_space_group_name_H-M   'P 1'
_cell_length_a   7.17417700
_cell_length_b   7.17417715
_cell_length_c   26.66783500
_cell_angle_alpha   90.00000000
_cell_angle_beta   90.00000000
_cell_angle_gamma   119.99999468
_symmetry_Int_Tables_number   1
_chemical_formula_structural   Na8Hf3TeBr24
_chemical_formula_sum   'Na8 Hf3 Te1 Br24'
_cell_volume   1188.67354807
_cell_formula_units_Z   1
loop_
 _symmetry_equiv_pos_site_id
 _symmetry_equiv_pos_as_xyz
  1  'x, y, z'
loop_
 _atom_site_type_symbol
 _atom_site_label
 _atom_site_symmetry_multiplicity
 _atom_site_fract_x
 _atom_site_fract_y
 _atom_site_fract_z
 _atom_site_occupancy
  Na  Na0  1  0.000000  0.000000  0.250216  1
  Na  Na1  1  0.000000  0.000000  0.749784  1
  Na  Na2  1  0.333333  0.666667  0.000363  1
  Na  Na3  1  0.333333  0.666667  0.499582  1
  Na  Na4  1  0.333333  0.666667  0.250088  1
  Na  Na5  1  0.666667  0.333333  0.749912  1
  Na  Na6  1  0.666667  0.333333  0.999637  1
  Na  Na7  1  0.666667  0.333333  0.500418  1
  Hf  Hf8  1  0.000000  0.000000  0.500000  1
  Hf  Hf9  1  0.333333  0.666667  0.749765  1
  Hf  Hf10  1  0.666667  0.333333  0.250235  1
  Te  Te11  1  0.000000  0.000000  0.000000  1
  Br  Br12  1  0.369713  0.035847  0.307990  1
  Br  Br13  1  0.333530  0.963802  0.807555  1
  Br  Br14  1  0.999617  0.310350  0.059957  1
  Br  Br15  1  0.000750  0.297469  0.557789  1
  Br  Br16  1  0.964153  0.333866  0.307990  1
  Br  Br17  1  0.036198  0.369727  0.807555  1
  Br  Br18  1  0.369727  0.333530  0.192445  1
  Br  Br19  1  0.333866  0.369713  0.692010  1
  Br  Br20  1  0.297469  0.296720  0.442211  1
  Br  Br21  1  0.310350  0.310733  0.940043  1
  Br  Br22  1  0.703280  0.000750  0.442211  1
  Br  Br23  1  0.310733  0.000383  0.059957  1
  Br  Br24  1  0.296720  0.999250  0.557789  1
  Br  Br25  1  0.689650  0.689267  0.059957  1
  Br  Br26  1  0.702531  0.703280  0.557789  1
  Br  Br27  1  0.666134  0.630287  0.307990  1
  Br  Br28  1  0.630273  0.666470  0.807555  1
  Br  Br29  1  0.963802  0.630273  0.192445  1
  Br  Br30  1  0.035847  0.666134  0.692010  1
  Br  Br31  1  0.999250  0.702531  0.442211  1
  Br  Br32  1  0.000383  0.689650  0.940043  1
  Br  Br33  1  0.689267  0.999617  0.940043  1
  Br  Br34  1  0.666470  0.036198  0.192445  1
  Br  Br35  1  0.630287  0.964153  0.692010  1
