# generated using pymatgen
data_Tm8HgPb3Au8
_symmetry_space_group_name_H-M   'P 1'
_cell_length_a   8.08083500
_cell_length_b   8.08083500
_cell_length_c   7.19539400
_cell_angle_alpha   90.00000000
_cell_angle_beta   90.00000000
_cell_angle_gamma   90.00000000
_symmetry_Int_Tables_number   1
_chemical_formula_structural   Tm8HgPb3Au8
_chemical_formula_sum   'Tm8 Hg1 Pb3 Au8'
_cell_volume   469.85846763
_cell_formula_units_Z   1
loop_
 _symmetry_equiv_pos_site_id
 _symmetry_equiv_pos_as_xyz
  1  'x, y, z'
loop_
 _atom_site_type_symbol
 _atom_site_label
 _atom_site_symmetry_multiplicity
 _atom_site_fract_x
 _atom_site_fract_y
 _atom_site_fract_z
 _atom_site_occupancy
  Tm  Tm0  1  0.685306  0.324873  0.496988  1
  Tm  Tm1  1  0.314694  0.675127  0.496988  1
  Tm  Tm2  1  0.175127  0.185306  0.003012  1
  Tm  Tm3  1  0.824873  0.814694  0.003012  1
  Tm  Tm4  1  0.848870  0.838606  0.496917  1
  Tm  Tm5  1  0.151130  0.161394  0.496917  1
  Tm  Tm6  1  0.338606  0.651130  0.003083  1
  Tm  Tm7  1  0.661394  0.348870  0.003083  1
  Hg  Hg8  1  0.000000  0.500000  0.250000  1
  Pb  Pb9  1  0.500000  0.000000  0.250000  1
  Pb  Pb10  1  0.000000  0.500000  0.750000  1
  Pb  Pb11  1  0.500000  0.000000  0.750000  1
  Au  Au12  1  0.873481  0.128766  0.225731  1
  Au  Au13  1  0.126519  0.871234  0.225731  1
  Au  Au14  1  0.374614  0.371627  0.725462  1
  Au  Au15  1  0.625386  0.628373  0.725462  1
  Au  Au16  1  0.128373  0.874614  0.774538  1
  Au  Au17  1  0.871627  0.125386  0.774538  1
  Au  Au18  1  0.628766  0.626519  0.274269  1
  Au  Au19  1  0.371234  0.373481  0.274269  1
