# generated using pymatgen
data_La4TmCo2
_symmetry_space_group_name_H-M   'P 1'
_cell_length_a   9.10788628
_cell_length_b   9.10788689
_cell_length_c   6.94115314
_cell_angle_alpha   86.02982326
_cell_angle_beta   86.02982076
_cell_angle_gamma   42.21241285
_symmetry_Int_Tables_number   1
_chemical_formula_structural   La4TmCo2
_chemical_formula_sum   'La8 Tm2 Co4'
_cell_volume   385.79793440
_cell_formula_units_Z   2
loop_
 _symmetry_equiv_pos_site_id
 _symmetry_equiv_pos_as_xyz
  1  'x, y, z'
loop_
 _atom_site_type_symbol
 _atom_site_label
 _atom_site_symmetry_multiplicity
 _atom_site_fract_x
 _atom_site_fract_y
 _atom_site_fract_z
 _atom_site_occupancy
  La  La0  1  0.019680  0.795862  0.899388  1
  La  La1  1  0.204138  0.980320  0.600612  1
  La  La2  1  0.980320  0.204138  0.100612  1
  La  La3  1  0.795862  0.019680  0.399388  1
  La  La4  1  0.365101  0.218870  0.832774  1
  La  La5  1  0.781130  0.634899  0.667226  1
  La  La6  1  0.634899  0.781130  0.167226  1
  La  La7  1  0.218870  0.365101  0.332774  1
  Tm  Tm8  1  0.567040  0.432960  0.750000  1
  Tm  Tm9  1  0.432960  0.567040  0.250000  1
  Co  Co10  1  0.189992  0.603891  0.576721  1
  Co  Co11  1  0.396109  0.810008  0.923279  1
  Co  Co12  1  0.810008  0.396109  0.423279  1
  Co  Co13  1  0.603891  0.189992  0.076721  1
