# generated using pymatgen
data_Ca4Cd2N
_symmetry_space_group_name_H-M   'P 1'
_cell_length_a   4.95431177
_cell_length_b   4.95431282
_cell_length_c   15.02975597
_cell_angle_alpha   99.48658554
_cell_angle_beta   99.48658966
_cell_angle_gamma   89.99999967
_symmetry_Int_Tables_number   1
_chemical_formula_structural   Ca4Cd2N
_chemical_formula_sum   'Ca8 Cd4 N2'
_cell_volume   358.74734767
_cell_formula_units_Z   2
loop_
 _symmetry_equiv_pos_site_id
 _symmetry_equiv_pos_as_xyz
  1  'x, y, z'
loop_
 _atom_site_type_symbol
 _atom_site_label
 _atom_site_symmetry_multiplicity
 _atom_site_fract_x
 _atom_site_fract_y
 _atom_site_fract_z
 _atom_site_occupancy
  Ca  Ca0  1  0.044339  0.794339  0.088678  1
  Ca  Ca1  1  0.124186  0.374186  0.248370  1
  Ca  Ca2  1  0.625815  0.875815  0.251630  1
  Ca  Ca3  1  0.205661  0.955661  0.411322  1
  Ca  Ca4  1  0.794338  0.044338  0.588678  1
  Ca  Ca5  1  0.374186  0.124186  0.748370  1
  Ca  Ca6  1  0.875814  0.625814  0.751630  1
  Ca  Ca7  1  0.955662  0.205662  0.911322  1
  Cd  Cd8  1  0.534516  0.284516  0.069032  1
  Cd  Cd9  1  0.715484  0.465484  0.430968  1
  Cd  Cd10  1  0.284515  0.534515  0.569032  1
  Cd  Cd11  1  0.465485  0.715485  0.930968  1
  N  N12  1  0.125000  0.875000  0.250000  1
  N  N13  1  0.875000  0.125000  0.750000  1
