# generated using pymatgen
data_Y5Er2Sc3(Si3H)2
_symmetry_space_group_name_H-M   'P 1'
_cell_length_a   8.32404215
_cell_length_b   8.32371700
_cell_length_c   6.01340000
_cell_angle_alpha   90.00050670
_cell_angle_beta   89.99651456
_cell_angle_gamma   119.94125750
_symmetry_Int_Tables_number   1
_chemical_formula_structural   Y5Er2Sc3(Si3H)2
_chemical_formula_sum   'Y5 Er2 Sc3 Si6 H2'
_cell_volume   361.04311526
_cell_formula_units_Z   1
loop_
 _symmetry_equiv_pos_site_id
 _symmetry_equiv_pos_as_xyz
  1  'x, y, z'
loop_
 _atom_site_type_symbol
 _atom_site_label
 _atom_site_symmetry_multiplicity
 _atom_site_fract_x
 _atom_site_fract_y
 _atom_site_fract_z
 _atom_site_occupancy
  Y  Y0  1  0.252501  0.999702  0.751663  1
  Y  Y1  1  0.000376  0.252820  0.751657  1
  Y  Y2  1  0.252716  0.253061  0.248310  1
  Y  Y3  1  0.747156  0.999437  0.248333  1
  Y  Y4  1  0.000107  0.747493  0.248328  1
  Er  Er5  1  0.666705  0.333556  0.500170  1
  Er  Er6  1  0.746245  0.746605  0.751855  1
  Sc  Sc7  1  0.666759  0.333598  0.999906  1
  Sc  Sc8  1  0.333570  0.666764  0.999908  1
  Sc  Sc9  1  0.333594  0.666754  0.500078  1
  Si  Si10  1  0.392059  0.395798  0.755493  1
  Si  Si11  1  0.605539  0.995515  0.755388  1
  Si  Si12  1  0.002969  0.609203  0.755477  1
  Si  Si13  1  0.605332  0.609030  0.244353  1
  Si  Si14  1  0.391157  0.996261  0.244553  1
  Si  Si15  1  0.003705  0.394893  0.244530  1
  H  H16  1  0.999758  0.999764  0.500398  1
  H  H17  1  0.999752  0.999747  0.999601  1
