# generated using pymatgen
data_Cs2BiP2S7
_symmetry_space_group_name_H-M   'P 1'
_cell_length_a   9.73940490
_cell_length_b   9.73940567
_cell_length_c   9.48101866
_cell_angle_alpha   74.10876792
_cell_angle_beta   74.10876646
_cell_angle_gamma   70.92322157
_symmetry_Int_Tables_number   1
_chemical_formula_structural   Cs2BiP2S7
_chemical_formula_sum   'Cs4 Bi2 P4 S14'
_cell_volume   800.47614431
_cell_formula_units_Z   2
loop_
 _symmetry_equiv_pos_site_id
 _symmetry_equiv_pos_as_xyz
  1  'x, y, z'
loop_
 _atom_site_type_symbol
 _atom_site_label
 _atom_site_symmetry_multiplicity
 _atom_site_fract_x
 _atom_site_fract_y
 _atom_site_fract_z
 _atom_site_occupancy
  Cs  Cs0  1  0.606654  0.054302  0.167194  1
  Cs  Cs1  1  0.945698  0.393346  0.832806  1
  Cs  Cs2  1  0.393346  0.945698  0.832806  1
  Cs  Cs3  1  0.054302  0.606654  0.167194  1
  Bi  Bi4  1  0.683367  0.316633  0.500000  1
  Bi  Bi5  1  0.316633  0.683367  0.500000  1
  P  P6  1  0.946825  0.946825  0.441628  1
  P  P7  1  0.053175  0.053175  0.558372  1
  P  P8  1  0.392248  0.392248  0.814446  1
  P  P9  1  0.607752  0.607752  0.185554  1
  S  S10  1  0.686160  0.382482  0.191329  1
  S  S11  1  0.617518  0.313840  0.808671  1
  S  S12  1  0.313840  0.617518  0.808671  1
  S  S13  1  0.382482  0.686160  0.191329  1
  S  S14  1  0.000782  0.000782  0.220753  1
  S  S15  1  0.999218  0.999218  0.779247  1
  S  S16  1  0.722086  0.015123  0.531939  1
  S  S17  1  0.984877  0.277914  0.468061  1
  S  S18  1  0.277914  0.984877  0.468061  1
  S  S19  1  0.015123  0.722086  0.531939  1
  S  S20  1  0.279735  0.279735  0.992854  1
  S  S21  1  0.720265  0.720265  0.007146  1
  S  S22  1  0.362030  0.362030  0.612764  1
  S  S23  1  0.637970  0.637970  0.387236  1
