# generated using pymatgen
data_LaYbAl20Ir3Os
_symmetry_space_group_name_H-M   'P 1'
_cell_length_a   6.89340521
_cell_length_b   6.90198761
_cell_length_c   9.18351640
_cell_angle_alpha   89.89484707
_cell_angle_beta   89.88012174
_cell_angle_gamma   97.20132134
_symmetry_Int_Tables_number   1
_chemical_formula_structural   LaYbAl20Ir3Os
_chemical_formula_sum   'La1 Yb1 Al20 Ir3 Os1'
_cell_volume   433.48661057
_cell_formula_units_Z   1
loop_
 _symmetry_equiv_pos_site_id
 _symmetry_equiv_pos_as_xyz
  1  'x, y, z'
loop_
 _atom_site_type_symbol
 _atom_site_label
 _atom_site_symmetry_multiplicity
 _atom_site_fract_x
 _atom_site_fract_y
 _atom_site_fract_z
 _atom_site_occupancy
  La  La0  1  0.625754  0.376036  0.750025  1
  Yb  Yb1  1  0.370860  0.627099  0.250340  1
  Al  Al2  1  0.274955  0.016057  0.750159  1
  Al  Al3  1  0.018537  0.279599  0.252392  1
  Al  Al4  1  0.722880  0.981580  0.249886  1
  Al  Al5  1  0.984137  0.722825  0.747412  1
  Al  Al6  1  0.879610  0.121253  0.951306  1
  Al  Al7  1  0.122331  0.876828  0.050933  1
  Al  Al8  1  0.880160  0.122730  0.547191  1
  Al  Al9  1  0.121863  0.875162  0.450337  1
  Al  Al10  1  0.646198  0.910911  0.749709  1
  Al  Al11  1  0.917311  0.646862  0.250756  1
  Al  Al12  1  0.352002  0.082581  0.250219  1
  Al  Al13  1  0.089381  0.354534  0.749296  1
  Al  Al14  1  0.341637  0.658857  0.897146  1
  Al  Al15  1  0.657158  0.341983  0.106119  1
  Al  Al16  1  0.340897  0.657562  0.601021  1
  Al  Al17  1  0.658492  0.343215  0.395491  1
  Al  Al18  1  0.722995  0.724315  0.002543  1
  Al  Al19  1  0.723082  0.723318  0.498474  1
  Al  Al20  1  0.275165  0.277458  0.002834  1
  Al  Al21  1  0.275516  0.278857  0.496226  1
  Ir  Ir22  1  0.500200  0.000461  0.000353  1
  Ir  Ir23  1  0.999469  0.499782  0.000629  1
  Ir  Ir24  1  0.500193  0.000530  0.499465  1
  Os  Os25  1  0.999217  0.499605  0.499737  1
