# generated using pymatgen
data_La2Mg3Zn3SiGe2
_symmetry_space_group_name_H-M   'P 1'
_cell_length_a   7.97977300
_cell_length_b   7.98624532
_cell_length_c   4.17700300
_cell_angle_alpha   90.00000000
_cell_angle_beta   90.00000000
_cell_angle_gamma   119.97319057
_symmetry_Int_Tables_number   1
_chemical_formula_structural   La2Mg3Zn3SiGe2
_chemical_formula_sum   'La2 Mg3 Zn3 Si1 Ge2'
_cell_volume   230.59286410
_cell_formula_units_Z   1
loop_
 _symmetry_equiv_pos_site_id
 _symmetry_equiv_pos_as_xyz
  1  'x, y, z'
loop_
 _atom_site_type_symbol
 _atom_site_label
 _atom_site_symmetry_multiplicity
 _atom_site_fract_x
 _atom_site_fract_y
 _atom_site_fract_z
 _atom_site_occupancy
  La  La0  1  0.665024  0.331322  0.000000  1
  La  La1  1  0.333701  0.668678  0.000000  1
  Mg  Mg2  1  0.717476  0.000000  0.500000  1
  Mg  Mg3  1  0.001258  0.720867  0.500000  1
  Mg  Mg4  1  0.280390  0.279133  0.500000  1
  Zn  Zn5  1  0.194409  0.000000  0.000000  1
  Zn  Zn6  1  0.809773  0.809597  0.000000  1
  Zn  Zn7  1  0.000176  0.190403  0.000000  1
  Si  Si8  1  0.381281  0.000000  0.500000  1
  Ge  Ge9  1  0.616445  0.616377  0.500000  1
  Ge  Ge10  1  0.000068  0.383623  0.500000  1
