# generated using pymatgen
data_CaTbY2Er2(Si3Ru)8
_symmetry_space_group_name_H-M   'P 1'
_cell_length_a   10.12805151
_cell_length_b   10.12804992
_cell_length_c   8.13601305
_cell_angle_alpha   89.90086875
_cell_angle_beta   90.09913944
_cell_angle_gamma   132.63716133
_symmetry_Int_Tables_number   1
_chemical_formula_structural   CaTbY2Er2(Si3Ru)8
_chemical_formula_sum   'Ca1 Tb1 Y2 Er2 Si24 Ru8'
_cell_volume   613.95778477
_cell_formula_units_Z   1
loop_
 _symmetry_equiv_pos_site_id
 _symmetry_equiv_pos_as_xyz
  1  'x, y, z'
loop_
 _atom_site_type_symbol
 _atom_site_label
 _atom_site_symmetry_multiplicity
 _atom_site_fract_x
 _atom_site_fract_y
 _atom_site_fract_z
 _atom_site_occupancy
  Ca  Ca0  1  0.498284  0.998284  0.250000  1
  Tb  Tb1  1  0.001510  0.501510  0.750000  1
  Y  Y2  1  0.502465  0.002465  0.750000  1
  Y  Y3  1  0.997381  0.497381  0.250000  1
  Er  Er4  1  0.499753  0.499641  0.499462  1
  Er  Er5  1  0.999641  0.999753  0.000538  1
  Si  Si6  1  0.388328  0.155320  0.002524  1
  Si  Si7  1  0.655320  0.888328  0.497476  1
  Si  Si8  1  0.111940  0.344690  0.505180  1
  Si  Si9  1  0.844690  0.611940  0.994820  1
  Si  Si10  1  0.612101  0.845482  0.993567  1
  Si  Si11  1  0.345482  0.112101  0.506433  1
  Si  Si12  1  0.887969  0.655679  0.494952  1
  Si  Si13  1  0.155679  0.387969  0.005048  1
  Si  Si14  1  0.613953  0.379979  0.228278  1
  Si  Si15  1  0.879979  0.113953  0.271722  1
  Si  Si16  1  0.888533  0.121672  0.727840  1
  Si  Si17  1  0.621672  0.388533  0.772160  1
  Si  Si18  1  0.388414  0.621485  0.771467  1
  Si  Si19  1  0.121485  0.888414  0.728533  1
  Si  Si20  1  0.704820  0.294009  0.001011  1
  Si  Si21  1  0.794009  0.204820  0.498989  1
  Si  Si22  1  0.295444  0.705947  0.000125  1
  Si  Si23  1  0.205947  0.795444  0.499875  1
  Si  Si24  1  0.166347  0.167531  0.332914  1
  Si  Si25  1  0.667531  0.666347  0.167086  1
  Si  Si26  1  0.332800  0.331450  0.832984  1
  Si  Si27  1  0.831450  0.832800  0.667016  1
  Si  Si28  1  0.376461  0.610064  0.228362  1
  Si  Si29  1  0.110064  0.876461  0.271638  1
  Ru  Ru30  1  0.625819  0.626451  0.872989  1
  Ru  Ru31  1  0.126451  0.125819  0.627011  1
  Ru  Ru32  1  0.873038  0.873399  0.372811  1
  Ru  Ru33  1  0.373399  0.373038  0.127189  1
  Ru  Ru34  1  0.330049  0.668505  0.500689  1
  Ru  Ru35  1  0.168505  0.830049  0.999311  1
  Ru  Ru36  1  0.670540  0.332748  0.501890  1
  Ru  Ru37  1  0.832748  0.170540  0.998110  1
