# generated using pymatgen
data_GdErGa2NiIr
_symmetry_space_group_name_H-M   'P 1'
_cell_length_a   4.26253700
_cell_length_b   6.80787600
_cell_length_c   7.73468600
_cell_angle_alpha   90.00000000
_cell_angle_beta   90.00000000
_cell_angle_gamma   90.00000000
_symmetry_Int_Tables_number   1
_chemical_formula_structural   GdErGa2NiIr
_chemical_formula_sum   'Gd2 Er2 Ga4 Ni2 Ir2'
_cell_volume   224.45148664
_cell_formula_units_Z   2
loop_
 _symmetry_equiv_pos_site_id
 _symmetry_equiv_pos_as_xyz
  1  'x, y, z'
loop_
 _atom_site_type_symbol
 _atom_site_label
 _atom_site_symmetry_multiplicity
 _atom_site_fract_x
 _atom_site_fract_y
 _atom_site_fract_z
 _atom_site_occupancy
  Gd  Gd0  1  0.750000  0.027340  0.683604  1
  Gd  Gd1  1  0.750000  0.527340  0.816396  1
  Er  Er2  1  0.250000  0.974557  0.310175  1
  Er  Er3  1  0.250000  0.474557  0.189825  1
  Ga  Ga4  1  0.250000  0.348327  0.571407  1
  Ga  Ga5  1  0.250000  0.848327  0.928593  1
  Ga  Ga6  1  0.750000  0.656123  0.441541  1
  Ga  Ga7  1  0.750000  0.156123  0.058459  1
  Ni  Ni8  1  0.250000  0.225444  0.882917  1
  Ni  Ni9  1  0.250000  0.725444  0.617083  1
  Ir  Ir10  1  0.750000  0.768209  0.118167  1
  Ir  Ir11  1  0.750000  0.268209  0.381833  1
