# generated using pymatgen
data_LaPrAs7Pd12
_symmetry_space_group_name_H-M   'P 1'
_cell_length_a   10.10595400
_cell_length_b   10.10595459
_cell_length_c   4.20390300
_cell_angle_alpha   90.00000000
_cell_angle_beta   90.00000000
_cell_angle_gamma   120.00000461
_symmetry_Int_Tables_number   1
_chemical_formula_structural   LaPrAs7Pd12
_chemical_formula_sum   'La1 Pr1 As7 Pd12'
_cell_volume   371.82446166
_cell_formula_units_Z   1
loop_
 _symmetry_equiv_pos_site_id
 _symmetry_equiv_pos_as_xyz
  1  'x, y, z'
loop_
 _atom_site_type_symbol
 _atom_site_label
 _atom_site_symmetry_multiplicity
 _atom_site_fract_x
 _atom_site_fract_y
 _atom_site_fract_z
 _atom_site_occupancy
  La  La0  1  0.666667  0.333333  0.246008  1
  Pr  Pr1  1  0.000000  0.000000  0.751677  1
  As  As2  1  0.333333  0.666667  0.482181  1
  As  As3  1  0.741131  0.781447  0.252070  1
  As  As4  1  0.040317  0.258869  0.252070  1
  As  As5  1  0.218553  0.959683  0.252070  1
  As  As6  1  0.925855  0.553469  0.744738  1
  As  As7  1  0.627614  0.074145  0.744738  1
  As  As8  1  0.446531  0.372386  0.744738  1
  Pd  Pd9  1  0.769871  0.044959  0.249932  1
  Pd  Pd10  1  0.275088  0.230129  0.249932  1
  Pd  Pd11  1  0.955041  0.724912  0.249932  1
  Pd  Pd12  1  0.898989  0.288124  0.746310  1
  Pd  Pd13  1  0.389134  0.101011  0.746310  1
  Pd  Pd14  1  0.711876  0.610866  0.746310  1
  Pd  Pd15  1  0.475533  0.553830  0.226821  1
  Pd  Pd16  1  0.078297  0.524467  0.226821  1
  Pd  Pd17  1  0.446170  0.921703  0.226821  1
  Pd  Pd18  1  0.193835  0.775938  0.770681  1
  Pd  Pd19  1  0.582103  0.806165  0.770681  1
  Pd  Pd20  1  0.224062  0.417897  0.770681  1
