# generated using pymatgen
data_Nd4Co15Ni2(P4Ru)3
_symmetry_space_group_name_H-M   'P 1'
_cell_length_a   3.72867200
_cell_length_b   10.50106739
_cell_length_c   11.88407775
_cell_angle_alpha   90.06689756
_cell_angle_beta   90.00000000
_cell_angle_gamma   90.00000000
_symmetry_Int_Tables_number   1
_chemical_formula_structural   Nd4Co15Ni2(P4Ru)3
_chemical_formula_sum   'Nd4 Co15 Ni2 P12 Ru3'
_cell_volume   465.32117437
_cell_formula_units_Z   1
loop_
 _symmetry_equiv_pos_site_id
 _symmetry_equiv_pos_as_xyz
  1  'x, y, z'
loop_
 _atom_site_type_symbol
 _atom_site_label
 _atom_site_symmetry_multiplicity
 _atom_site_fract_x
 _atom_site_fract_y
 _atom_site_fract_z
 _atom_site_occupancy
  Nd  Nd0  1  0.250000  0.583252  0.701070  1
  Nd  Nd1  1  0.250000  0.913995  0.203468  1
  Nd  Nd2  1  0.750000  0.412961  0.295750  1
  Nd  Nd3  1  0.750000  0.085832  0.796656  1
  Co  Co4  1  0.250000  0.092076  0.990596  1
  Co  Co5  1  0.750000  0.593046  0.507429  1
  Co  Co6  1  0.750000  0.907594  0.008788  1
  Co  Co7  1  0.250000  0.218784  0.174142  1
  Co  Co8  1  0.250000  0.280164  0.676812  1
  Co  Co9  1  0.750000  0.779597  0.824137  1
  Co  Co10  1  0.750000  0.721367  0.324366  1
  Co  Co11  1  0.250000  0.886259  0.700771  1
  Co  Co12  1  0.250000  0.613109  0.201988  1
  Co  Co13  1  0.750000  0.116586  0.301847  1
  Co  Co14  1  0.750000  0.386407  0.799664  1
  Co  Co15  1  0.250000  0.466298  0.931962  1
  Co  Co16  1  0.250000  0.034384  0.432673  1
  Co  Co17  1  0.750000  0.534383  0.068720  1
  Co  Co18  1  0.750000  0.967586  0.568176  1
  Ni  Ni19  1  0.750000  0.212078  0.511503  1
  Ni  Ni20  1  0.250000  0.407524  0.488263  1
  P  P21  1  0.250000  0.418874  0.109832  1
  P  P22  1  0.250000  0.083124  0.609617  1
  P  P23  1  0.750000  0.580539  0.889770  1
  P  P24  1  0.750000  0.920483  0.390111  1
  P  P25  1  0.250000  0.276375  0.866637  1
  P  P26  1  0.250000  0.222812  0.365954  1
  P  P27  1  0.750000  0.723933  0.133395  1
  P  P28  1  0.750000  0.776544  0.632988  1
  P  P29  1  0.250000  0.601095  0.391612  1
  P  P30  1  0.250000  0.901118  0.891591  1
  P  P31  1  0.750000  0.393350  0.608237  1
  P  P32  1  0.750000  0.099324  0.108853  1
  Ru  Ru33  1  0.250000  0.715305  0.992107  1
  Ru  Ru34  1  0.250000  0.788268  0.491399  1
  Ru  Ru35  1  0.750000  0.285577  0.009113  1
