# generated using pymatgen
data_La4Dy5LuRu4
_symmetry_space_group_name_H-M   'P 1'
_cell_length_a   6.47837403
_cell_length_b   7.28149506
_cell_length_c   8.74537480
_cell_angle_alpha   96.60142205
_cell_angle_beta   111.73958084
_cell_angle_gamma   90.00000299
_symmetry_Int_Tables_number   1
_chemical_formula_structural   La4Dy5LuRu4
_chemical_formula_sum   'La4 Dy5 Lu1 Ru4'
_cell_volume   380.25178728
_cell_formula_units_Z   1
loop_
 _symmetry_equiv_pos_site_id
 _symmetry_equiv_pos_as_xyz
  1  'x, y, z'
loop_
 _atom_site_type_symbol
 _atom_site_label
 _atom_site_symmetry_multiplicity
 _atom_site_fract_x
 _atom_site_fract_y
 _atom_site_fract_z
 _atom_site_occupancy
  La  La0  1  0.520939  0.087105  0.803600  1
  La  La1  1  0.479321  0.911976  0.196006  1
  La  La2  1  0.717339  0.412895  0.196400  1
  La  La3  1  0.283316  0.588024  0.803994  1
  Dy  Dy4  1  0.299627  0.313146  0.430327  1
  Dy  Dy5  1  0.700464  0.687373  0.570519  1
  Dy  Dy6  1  0.869302  0.186854  0.569673  1
  Dy  Dy7  1  0.129943  0.812627  0.429481  1
  Dy  Dy8  1  0.075540  0.250000  0.000000  1
  Lu  Lu9  1  0.925091  0.750000  0.000000  1
  Ru  Ru10  1  0.321939  0.581745  0.224714  1
  Ru  Ru11  1  0.677705  0.419705  0.775456  1
  Ru  Ru12  1  0.097227  0.918255  0.775286  1
  Ru  Ru13  1  0.902248  0.080295  0.224544  1
