# generated using pymatgen
data_TbNdSc2(NiAs2)2
_symmetry_space_group_name_H-M   'P 1'
_cell_length_a   4.12118600
_cell_length_b   4.12118583
_cell_length_c   13.40474800
_cell_angle_alpha   90.00000000
_cell_angle_beta   90.00000000
_cell_angle_gamma   120.00001739
_symmetry_Int_Tables_number   1
_chemical_formula_structural   TbNdSc2(NiAs2)2
_chemical_formula_sum   'Tb1 Nd1 Sc2 Ni2 As4'
_cell_volume   197.16672541
_cell_formula_units_Z   1
loop_
 _symmetry_equiv_pos_site_id
 _symmetry_equiv_pos_as_xyz
  1  'x, y, z'
loop_
 _atom_site_type_symbol
 _atom_site_label
 _atom_site_symmetry_multiplicity
 _atom_site_fract_x
 _atom_site_fract_y
 _atom_site_fract_z
 _atom_site_occupancy
  Tb  Tb0  1  0.333333  0.666667  0.849263  1
  Nd  Nd1  1  0.666667  0.333333  0.349581  1
  Sc  Sc2  1  0.666667  0.333333  0.619822  1
  Sc  Sc3  1  0.333333  0.666667  0.112977  1
  Ni  Ni4  1  0.000000  0.000000  0.018107  1
  Ni  Ni5  1  0.000000  0.000000  0.526701  1
  As  As6  1  0.666667  0.333333  0.978291  1
  As  As7  1  0.333333  0.666667  0.486732  1
  As  As8  1  0.000000  0.000000  0.717525  1
  As  As9  1  0.000000  0.000000  0.209661  1
