# generated using pymatgen
data_Dy4AlB4Ir9
_symmetry_space_group_name_H-M   'P 1'
_cell_length_a   10.78772625
_cell_length_b   10.78772612
_cell_length_c   10.78772638
_cell_angle_alpha   29.68095159
_cell_angle_beta   29.68095389
_cell_angle_gamma   29.68095455
_symmetry_Int_Tables_number   1
_chemical_formula_structural   Dy4AlB4Ir9
_chemical_formula_sum   'Dy4 Al1 B4 Ir9'
_cell_volume   272.53397601
_cell_formula_units_Z   1
loop_
 _symmetry_equiv_pos_site_id
 _symmetry_equiv_pos_as_xyz
  1  'x, y, z'
loop_
 _atom_site_type_symbol
 _atom_site_label
 _atom_site_symmetry_multiplicity
 _atom_site_fract_x
 _atom_site_fract_y
 _atom_site_fract_z
 _atom_site_occupancy
  Dy  Dy0  1  0.150425  0.150425  0.150425  1
  Dy  Dy1  1  0.950057  0.950057  0.950057  1
  Dy  Dy2  1  0.849575  0.849575  0.849575  1
  Dy  Dy3  1  0.049943  0.049943  0.049943  1
  Al  Al4  1  0.500000  0.500000  0.500000  1
  B  B5  1  0.615641  0.615641  0.615641  1
  B  B6  1  0.717685  0.717685  0.717685  1
  B  B7  1  0.384359  0.384359  0.384359  1
  B  B8  1  0.282315  0.282315  0.282315  1
  Ir  Ir9  1  0.401683  0.901846  0.401683  1
  Ir  Ir10  1  0.901846  0.401683  0.401683  1
  Ir  Ir11  1  0.500000  0.500000  0.000000  1
  Ir  Ir12  1  0.500000  0.000000  0.500000  1
  Ir  Ir13  1  0.000000  0.500000  0.500000  1
  Ir  Ir14  1  0.598317  0.098154  0.598317  1
  Ir  Ir15  1  0.598317  0.598317  0.098154  1
  Ir  Ir16  1  0.098154  0.598317  0.598317  1
  Ir  Ir17  1  0.401683  0.401683  0.901846  1
