# generated using pymatgen
data_ZrTi5CBr12
_symmetry_space_group_name_H-M   'P 1'
_cell_length_a   8.75549787
_cell_length_b   8.36582057
_cell_length_c   8.78181637
_cell_angle_alpha   106.97637228
_cell_angle_beta   107.19923724
_cell_angle_gamma   106.04323513
_symmetry_Int_Tables_number   1
_chemical_formula_structural   ZrTi5CBr12
_chemical_formula_sum   'Zr1 Ti5 C1 Br12'
_cell_volume   539.40926831
_cell_formula_units_Z   1
loop_
 _symmetry_equiv_pos_site_id
 _symmetry_equiv_pos_as_xyz
  1  'x, y, z'
loop_
 _atom_site_type_symbol
 _atom_site_label
 _atom_site_symmetry_multiplicity
 _atom_site_fract_x
 _atom_site_fract_y
 _atom_site_fract_z
 _atom_site_occupancy
  Zr  Zr0  1  0.031088  0.295415  0.094462  1
  Ti  Ti1  1  0.971383  0.732049  0.911436  1
  Ti  Ti2  1  0.256845  0.082524  0.026679  1
  Ti  Ti3  1  0.083527  0.024236  0.256010  1
  Ti  Ti4  1  0.916601  0.974803  0.743859  1
  Ti  Ti5  1  0.744588  0.915253  0.973373  1
  C  C6  1  0.000970  0.005482  0.001622  1
  Br  Br7  1  0.923484  0.298025  0.772269  1
  Br  Br8  1  0.699410  0.215430  0.072181  1
  Br  Br9  1  0.410995  0.124307  0.343879  1
  Br  Br10  1  0.865887  0.645035  0.582925  1
  Br  Br11  1  0.210185  0.071219  0.715989  1
  Br  Br12  1  0.653578  0.572911  0.863492  1
  Br  Br13  1  0.363913  0.430001  0.137803  1
  Br  Br14  1  0.790296  0.923186  0.283454  1
  Br  Br15  1  0.138999  0.355552  0.432120  1
  Br  Br16  1  0.587673  0.870110  0.656498  1
  Br  Br17  1  0.282175  0.774980  0.925741  1
  Br  Br18  1  0.068402  0.689483  0.206210  1
