# generated using pymatgen
data_Tb6Ho7Th3(CdOs)4
_symmetry_space_group_name_H-M   'P 1'
_cell_length_a   9.68425972
_cell_length_b   9.72520147
_cell_length_c   9.72843536
_cell_angle_alpha   60.01041635
_cell_angle_beta   59.94568737
_cell_angle_gamma   59.85933249
_symmetry_Int_Tables_number   1
_chemical_formula_structural   Tb6Ho7Th3(CdOs)4
_chemical_formula_sum   'Tb6 Ho7 Th3 Cd4 Os4'
_cell_volume   646.97140135
_cell_formula_units_Z   1
loop_
 _symmetry_equiv_pos_site_id
 _symmetry_equiv_pos_as_xyz
  1  'x, y, z'
loop_
 _atom_site_type_symbol
 _atom_site_label
 _atom_site_symmetry_multiplicity
 _atom_site_fract_x
 _atom_site_fract_y
 _atom_site_fract_z
 _atom_site_occupancy
  Tb  Tb0  1  0.191291  0.809765  0.809267  1
  Tb  Tb1  1  0.812161  0.188026  0.188334  1
  Tb  Tb2  1  0.812798  0.187735  0.811733  1
  Tb  Tb3  1  0.191777  0.808815  0.190595  1
  Tb  Tb4  1  0.812162  0.811476  0.188345  1
  Tb  Tb5  1  0.191287  0.189675  0.809278  1
  Ho  Ho6  1  0.202689  0.598947  0.599434  1
  Ho  Ho7  1  0.061441  0.439408  0.438971  1
  Ho  Ho8  1  0.436400  0.062606  0.062291  1
  Ho  Ho9  1  0.436533  0.062439  0.438593  1
  Ho  Ho10  1  0.061293  0.439429  0.059838  1
  Ho  Ho11  1  0.436415  0.438692  0.062293  1
  Ho  Ho12  1  0.061443  0.060171  0.438964  1
  Th  Th13  1  0.595778  0.597287  0.597365  1
  Th  Th14  1  0.596869  0.597427  0.208291  1
  Th  Th15  1  0.595771  0.209584  0.597360  1
  Cd  Cd16  1  0.832424  0.830279  0.829501  1
  Cd  Cd17  1  0.831970  0.830432  0.507168  1
  Cd  Cd18  1  0.832417  0.507793  0.829508  1
  Cd  Cd19  1  0.506189  0.831563  0.830693  1
  Os  Os20  1  0.391403  0.390517  0.391807  1
  Os  Os21  1  0.392521  0.390541  0.826418  1
  Os  Os22  1  0.391391  0.826269  0.391813  1
  Os  Os23  1  0.825579  0.391129  0.392145  1
