# generated using pymatgen
data_LiTm3Co7NiP6
_symmetry_space_group_name_H-M   'P 1'
_cell_length_a   3.70028300
_cell_length_b   10.50256400
_cell_length_c   12.12346400
_cell_angle_alpha   90.00000000
_cell_angle_beta   90.00000000
_cell_angle_gamma   90.00000000
_symmetry_Int_Tables_number   1
_chemical_formula_structural   LiTm3Co7NiP6
_chemical_formula_sum   'Li2 Tm6 Co14 Ni2 P12'
_cell_volume   471.14762295
_cell_formula_units_Z   2
loop_
 _symmetry_equiv_pos_site_id
 _symmetry_equiv_pos_as_xyz
  1  'x, y, z'
loop_
 _atom_site_type_symbol
 _atom_site_label
 _atom_site_symmetry_multiplicity
 _atom_site_fract_x
 _atom_site_fract_y
 _atom_site_fract_z
 _atom_site_occupancy
  Li  Li0  1  0.500000  0.500000  0.153392  1
  Li  Li1  1  0.000000  0.000000  0.846608  1
  Tm  Tm2  1  0.000000  0.500000  0.520520  1
  Tm  Tm3  1  0.500000  0.000000  0.479480  1
  Tm  Tm4  1  0.500000  0.817745  0.205341  1
  Tm  Tm5  1  0.500000  0.182255  0.205341  1
  Tm  Tm6  1  0.000000  0.682255  0.794659  1
  Tm  Tm7  1  0.000000  0.317745  0.794659  1
  Co  Co8  1  0.000000  0.500000  0.986573  1
  Co  Co9  1  0.500000  0.000000  0.013427  1
  Co  Co10  1  0.500000  0.332760  0.996478  1
  Co  Co11  1  0.500000  0.667240  0.996478  1
  Co  Co12  1  0.000000  0.167240  0.003522  1
  Co  Co13  1  0.000000  0.832760  0.003522  1
  Co  Co14  1  0.500000  0.297780  0.431489  1
  Co  Co15  1  0.500000  0.702220  0.431489  1
  Co  Co16  1  0.000000  0.202220  0.568511  1
  Co  Co17  1  0.000000  0.797780  0.568511  1
  Co  Co18  1  0.500000  0.877085  0.707833  1
  Co  Co19  1  0.500000  0.122915  0.707833  1
  Co  Co20  1  0.000000  0.622915  0.292167  1
  Co  Co21  1  0.000000  0.377085  0.292167  1
  Ni  Ni22  1  0.500000  0.500000  0.703191  1
  Ni  Ni23  1  0.000000  0.000000  0.296809  1
  P  P24  1  0.500000  0.500000  0.884507  1
  P  P25  1  0.000000  0.000000  0.115493  1
  P  P26  1  0.500000  0.500000  0.346442  1
  P  P27  1  0.000000  0.000000  0.653558  1
  P  P28  1  0.500000  0.310041  0.615450  1
  P  P29  1  0.500000  0.689959  0.615450  1
  P  P30  1  0.000000  0.189959  0.384550  1
  P  P31  1  0.000000  0.810041  0.384550  1
  P  P32  1  0.500000  0.843272  0.892704  1
  P  P33  1  0.500000  0.156728  0.892704  1
  P  P34  1  0.000000  0.656728  0.107296  1
  P  P35  1  0.000000  0.343272  0.107296  1
