# generated using pymatgen
data_Ti12Co6Re5Os
_symmetry_space_group_name_H-M   'P 1'
_cell_length_a   4.30820900
_cell_length_b   6.11157100
_cell_length_c   12.94395300
_cell_angle_alpha   89.99998177
_cell_angle_beta   90.00080178
_cell_angle_gamma   89.99986788
_symmetry_Int_Tables_number   1
_chemical_formula_structural   Ti12Co6Re5Os
_chemical_formula_sum   'Ti12 Co6 Re5 Os1'
_cell_volume   340.81331409
_cell_formula_units_Z   1
loop_
 _symmetry_equiv_pos_site_id
 _symmetry_equiv_pos_as_xyz
  1  'x, y, z'
loop_
 _atom_site_type_symbol
 _atom_site_label
 _atom_site_symmetry_multiplicity
 _atom_site_fract_x
 _atom_site_fract_y
 _atom_site_fract_z
 _atom_site_occupancy
  Ti  Ti0  1  0.499999  0.248766  0.000000  1
  Ti  Ti1  1  0.499999  0.751234  0.000000  1
  Ti  Ti2  1  0.999853  0.250430  0.166991  1
  Ti  Ti3  1  0.999853  0.749569  0.166991  1
  Ti  Ti4  1  0.499837  0.249487  0.333411  1
  Ti  Ti5  1  0.499837  0.750514  0.333411  1
  Ti  Ti6  1  0.000000  0.250578  0.500000  1
  Ti  Ti7  1  0.000000  0.749422  0.500000  1
  Ti  Ti8  1  0.500164  0.249487  0.666589  1
  Ti  Ti9  1  0.500164  0.750514  0.666589  1
  Ti  Ti10  1  0.000147  0.250430  0.833009  1
  Ti  Ti11  1  0.000147  0.749569  0.833009  1
  Co  Co12  1  0.000000  0.000000  0.000000  1
  Co  Co13  1  0.499803  0.500000  0.166053  1
  Co  Co14  1  0.999809  0.000000  0.333093  1
  Co  Co15  1  0.499999  0.500000  0.500000  1
  Co  Co16  1  0.000192  0.000000  0.666907  1
  Co  Co17  1  0.500198  0.500000  0.833947  1
  Re  Re18  1  0.499859  0.000000  0.166199  1
  Re  Re19  1  0.999837  0.500000  0.332950  1
  Re  Re20  1  0.499999  0.000000  0.500000  1
  Re  Re21  1  0.000163  0.500000  0.667050  1
  Re  Re22  1  0.500143  0.000000  0.833801  1
  Os  Os23  1  0.000000  0.500000  0.000000  1
