# generated using pymatgen
data_Mg4Al7GaIr4
_symmetry_space_group_name_H-M   'P 1'
_cell_length_a   5.15243677
_cell_length_b   7.40851517
_cell_length_c   7.19624600
_cell_angle_alpha   89.87423327
_cell_angle_beta   90.22512766
_cell_angle_gamma   90.67035736
_symmetry_Int_Tables_number   1
_chemical_formula_structural   Mg4Al7GaIr4
_chemical_formula_sum   'Mg4 Al7 Ga1 Ir4'
_cell_volume   274.67287026
_cell_formula_units_Z   1
loop_
 _symmetry_equiv_pos_site_id
 _symmetry_equiv_pos_as_xyz
  1  'x, y, z'
loop_
 _atom_site_type_symbol
 _atom_site_label
 _atom_site_symmetry_multiplicity
 _atom_site_fract_x
 _atom_site_fract_y
 _atom_site_fract_z
 _atom_site_occupancy
  Mg  Mg0  1  0.395458  0.247273  0.023934  1
  Mg  Mg1  1  0.898229  0.749968  0.476314  1
  Mg  Mg2  1  0.101964  0.249744  0.526011  1
  Mg  Mg3  1  0.602722  0.751838  0.974738  1
  Al  Al4  1  0.895642  0.055032  0.166499  1
  Al  Al5  1  0.892893  0.445706  0.165300  1
  Al  Al6  1  0.396563  0.555344  0.333750  1
  Al  Al7  1  0.396434  0.944836  0.334508  1
  Al  Al8  1  0.605294  0.054139  0.664156  1
  Al  Al9  1  0.604673  0.444536  0.665448  1
  Al  Al10  1  0.106383  0.555010  0.837339  1
  Ga  Ga11  1  0.105950  0.948107  0.830081  1
  Ir  Ir12  1  0.110296  0.749766  0.131259  1
  Ir  Ir13  1  0.609415  0.250583  0.370395  1
  Ir  Ir14  1  0.391576  0.746571  0.629032  1
  Ir  Ir15  1  0.886506  0.251548  0.871238  1
