# generated using pymatgen
data_CaDy2MnVC6
_symmetry_space_group_name_H-M   'P 1'
_cell_length_a   8.18119027
_cell_length_b   8.17259028
_cell_length_c   4.99769100
_cell_angle_alpha   90.00000000
_cell_angle_beta   90.00000000
_cell_angle_gamma   120.21830314
_symmetry_Int_Tables_number   1
_chemical_formula_structural   CaDy2MnVC6
_chemical_formula_sum   'Ca2 Dy4 Mn2 V2 C12'
_cell_volume   288.74647856
_cell_formula_units_Z   2
loop_
 _symmetry_equiv_pos_site_id
 _symmetry_equiv_pos_as_xyz
  1  'x, y, z'
loop_
 _atom_site_type_symbol
 _atom_site_label
 _atom_site_symmetry_multiplicity
 _atom_site_fract_x
 _atom_site_fract_y
 _atom_site_fract_z
 _atom_site_occupancy
  Ca  Ca0  1  0.608162  0.679130  0.750000  1
  Ca  Ca1  1  0.926707  0.608732  0.250000  1
  Dy  Dy2  1  0.683762  0.065101  0.250000  1
  Dy  Dy3  1  0.313790  0.935047  0.750000  1
  Dy  Dy4  1  0.064912  0.383580  0.750000  1
  Dy  Dy5  1  0.381264  0.318065  0.250000  1
  Mn  Mn6  1  0.666040  0.329175  0.750000  1
  Mn  Mn7  1  0.335705  0.668934  0.250000  1
  V  V8  1  0.999084  0.998373  0.500215  1
  V  V9  1  0.999084  0.998373  0.999785  1
  C  C10  1  0.957330  0.764450  0.750000  1
  C  C11  1  0.197765  0.963369  0.250000  1
  C  C12  1  0.768773  0.813963  0.250000  1
  C  C13  1  0.234028  0.196462  0.750000  1
  C  C14  1  0.812356  0.042277  0.750000  1
  C  C15  1  0.039480  0.234246  0.250000  1
  C  C16  1  0.859804  0.572408  0.750000  1
  C  C17  1  0.288801  0.861848  0.250000  1
  C  C18  1  0.577093  0.715613  0.250000  1
  C  C19  1  0.427888  0.285831  0.750000  1
  C  C20  1  0.143531  0.428052  0.250000  1
  C  C21  1  0.714643  0.136971  0.750000  1
