# generated using pymatgen
data_Gd6OsO12
_symmetry_space_group_name_H-M   'P 1'
_cell_length_a   6.57732063
_cell_length_b   6.57732093
_cell_length_c   6.57731986
_cell_angle_alpha   98.65577497
_cell_angle_beta   98.65577604
_cell_angle_gamma   98.65578344
_symmetry_Int_Tables_number   1
_chemical_formula_structural   Gd6OsO12
_chemical_formula_sum   'Gd6 Os1 O12'
_cell_volume   273.69870768
_cell_formula_units_Z   1
loop_
 _symmetry_equiv_pos_site_id
 _symmetry_equiv_pos_as_xyz
  1  'x, y, z'
loop_
 _atom_site_type_symbol
 _atom_site_label
 _atom_site_symmetry_multiplicity
 _atom_site_fract_x
 _atom_site_fract_y
 _atom_site_fract_z
 _atom_site_occupancy
  Gd  Gd0  1  0.856709  0.389897  0.688644  1
  Gd  Gd1  1  0.610103  0.311356  0.143291  1
  Gd  Gd2  1  0.311356  0.143291  0.610103  1
  Gd  Gd3  1  0.688644  0.856709  0.389897  1
  Gd  Gd4  1  0.389897  0.688644  0.856709  1
  Gd  Gd5  1  0.143291  0.610103  0.311356  1
  Os  Os6  1  0.000000  0.000000  0.000000  1
  O  O7  1  0.928166  0.033844  0.706860  1
  O  O8  1  0.966156  0.293140  0.071834  1
  O  O9  1  0.591353  0.177193  0.434961  1
  O  O10  1  0.822807  0.565039  0.408647  1
  O  O11  1  0.293140  0.071834  0.966156  1
  O  O12  1  0.565039  0.408647  0.822807  1
  O  O13  1  0.434961  0.591353  0.177193  1
  O  O14  1  0.706860  0.928166  0.033844  1
  O  O15  1  0.177193  0.434961  0.591353  1
  O  O16  1  0.408647  0.822807  0.565039  1
  O  O17  1  0.033844  0.706860  0.928166  1
  O  O18  1  0.071834  0.966156  0.293140  1
