# generated using pymatgen
data_Tb6DyCo6AgSn22
_symmetry_space_group_name_H-M   'P 1'
_cell_length_a   9.68737310
_cell_length_b   9.68963470
_cell_length_c   9.98146902
_cell_angle_alpha   89.99999947
_cell_angle_beta   89.99362166
_cell_angle_gamma   120.00772189
_symmetry_Int_Tables_number   1
_chemical_formula_structural   Tb6DyCo6AgSn22
_chemical_formula_sum   'Tb6 Dy1 Co6 Ag1 Sn22'
_cell_volume   811.34343059
_cell_formula_units_Z   1
loop_
 _symmetry_equiv_pos_site_id
 _symmetry_equiv_pos_as_xyz
  1  'x, y, z'
loop_
 _atom_site_type_symbol
 _atom_site_label
 _atom_site_symmetry_multiplicity
 _atom_site_fract_x
 _atom_site_fract_y
 _atom_site_fract_z
 _atom_site_occupancy
  Tb  Tb0  1  0.999941  0.999970  0.999970  1
  Tb  Tb1  1  0.478779  0.521274  0.306355  1
  Tb  Tb2  1  0.521205  0.478704  0.693671  1
  Tb  Tb3  1  0.478779  0.957506  0.306355  1
  Tb  Tb4  1  0.521205  0.042500  0.693671  1
  Tb  Tb5  1  0.042611  0.521306  0.306310  1
  Dy  Dy6  1  0.957824  0.478911  0.693821  1
  Co  Co7  1  0.831874  0.168058  0.196209  1
  Co  Co8  1  0.167964  0.831686  0.803705  1
  Co  Co9  1  0.831874  0.663815  0.196209  1
  Co  Co10  1  0.167964  0.336279  0.803705  1
  Co  Co11  1  0.336115  0.168057  0.196157  1
  Co  Co12  1  0.664015  0.832008  0.803766  1
  Ag  Ag13  1  0.999986  0.999993  0.500017  1
  Sn  Sn14  1  0.346168  0.000008  0.999997  1
  Sn  Sn15  1  0.653796  0.999975  0.999993  1
  Sn  Sn16  1  0.999961  0.346280  0.999957  1
  Sn  Sn17  1  0.999961  0.653681  0.999957  1
  Sn  Sn18  1  0.653796  0.653820  0.999993  1
  Sn  Sn19  1  0.346168  0.346160  0.999997  1
  Sn  Sn20  1  0.333198  0.666599  0.816677  1
  Sn  Sn21  1  0.666657  0.333328  0.183240  1
  Sn  Sn22  1  0.783560  0.216691  0.453122  1
  Sn  Sn23  1  0.216294  0.783192  0.547211  1
  Sn  Sn24  1  0.783560  0.566871  0.453122  1
  Sn  Sn25  1  0.216294  0.433101  0.547211  1
  Sn  Sn26  1  0.433001  0.216501  0.452960  1
  Sn  Sn27  1  0.566907  0.783453  0.547082  1
  Sn  Sn28  1  0.333323  0.666662  0.117723  1
  Sn  Sn29  1  0.667350  0.333674  0.881879  1
  Sn  Sn30  1  0.113853  0.886114  0.276074  1
  Sn  Sn31  1  0.886117  0.114167  0.723909  1
  Sn  Sn32  1  0.113853  0.227741  0.276074  1
  Sn  Sn33  1  0.886117  0.771949  0.723909  1
  Sn  Sn34  1  0.772202  0.886101  0.276143  1
  Sn  Sn35  1  0.227726  0.113863  0.723849  1
