# generated using pymatgen
data_Nd8Dy12Si15P
_symmetry_space_group_name_H-M   'P 1'
_cell_length_a   7.55486103
_cell_length_b   7.76914317
_cell_length_c   14.77780378
_cell_angle_alpha   90.07375897
_cell_angle_beta   87.96497616
_cell_angle_gamma   90.31598478
_symmetry_Int_Tables_number   1
_chemical_formula_structural   Nd8Dy12Si15P
_chemical_formula_sum   'Nd8 Dy12 Si15 P1'
_cell_volume   866.81944206
_cell_formula_units_Z   1
loop_
 _symmetry_equiv_pos_site_id
 _symmetry_equiv_pos_as_xyz
  1  'x, y, z'
loop_
 _atom_site_type_symbol
 _atom_site_label
 _atom_site_symmetry_multiplicity
 _atom_site_fract_x
 _atom_site_fract_y
 _atom_site_fract_z
 _atom_site_occupancy
  Nd  Nd0  1  0.984750  0.815990  0.096176  1
  Nd  Nd1  1  0.473504  0.680443  0.399531  1
  Nd  Nd2  1  0.509210  0.323733  0.902412  1
  Nd  Nd3  1  0.026139  0.182327  0.600405  1
  Nd  Nd4  1  0.014858  0.185447  0.904253  1
  Nd  Nd5  1  0.525917  0.318926  0.600380  1
  Nd  Nd6  1  0.491922  0.679919  0.098663  1
  Nd  Nd7  1  0.973140  0.817196  0.399722  1
  Dy  Dy8  1  0.658685  0.991759  0.246590  1
  Dy  Dy9  1  0.159742  0.507147  0.245360  1
  Dy  Dy10  1  0.840071  0.491682  0.753490  1
  Dy  Dy11  1  0.341811  0.008785  0.753190  1
  Dy  Dy12  1  0.666404  0.824478  0.876204  1
  Dy  Dy13  1  0.178035  0.678953  0.622813  1
  Dy  Dy14  1  0.837725  0.333125  0.115179  1
  Dy  Dy15  1  0.319244  0.176252  0.377184  1
  Dy  Dy16  1  0.334591  0.171715  0.125296  1
  Dy  Dy17  1  0.822155  0.320661  0.377835  1
  Dy  Dy18  1  0.158997  0.670526  0.882880  1
  Dy  Dy19  1  0.680156  0.822946  0.623160  1
  Si  Si20  1  0.776527  0.620220  0.249961  1
  Si  Si21  1  0.273348  0.874441  0.250802  1
  Si  Si22  1  0.725601  0.124359  0.749856  1
  Si  Si23  1  0.223594  0.379435  0.750362  1
  Si  Si24  1  0.029381  0.110765  0.250009  1
  Si  Si25  1  0.538044  0.386011  0.251895  1
  Si  Si26  1  0.462525  0.613570  0.748972  1
  Si  Si27  1  0.969553  0.890166  0.750426  1
  Si  Si28  1  0.358507  0.970454  0.541614  1
  Si  Si29  1  0.661612  0.036126  0.038324  1
  Si  Si30  1  0.142686  0.469555  0.458950  1
  Si  Si31  1  0.192305  0.462495  0.044033  1
  Si  Si32  1  0.641368  0.028840  0.458551  1
  Si  Si33  1  0.338945  0.965550  0.960365  1
  Si  Si34  1  0.857856  0.529401  0.541855  1
  P  P35  1  0.811092  0.536601  0.953303  1
