# generated using pymatgen
data_Ca6IrRh
_symmetry_space_group_name_H-M   'P 1'
_cell_length_a   6.43866300
_cell_length_b   7.75905400
_cell_length_c   9.38626500
_cell_angle_alpha   90.00000000
_cell_angle_beta   90.00000000
_cell_angle_gamma   90.00000000
_symmetry_Int_Tables_number   1
_chemical_formula_structural   Ca6IrRh
_chemical_formula_sum   'Ca12 Ir2 Rh2'
_cell_volume   468.91840648
_cell_formula_units_Z   2
loop_
 _symmetry_equiv_pos_site_id
 _symmetry_equiv_pos_as_xyz
  1  'x, y, z'
loop_
 _atom_site_type_symbol
 _atom_site_label
 _atom_site_symmetry_multiplicity
 _atom_site_fract_x
 _atom_site_fract_y
 _atom_site_fract_z
 _atom_site_occupancy
  Ca  Ca0  1  0.337927  0.667366  0.068516  1
  Ca  Ca1  1  0.162073  0.167366  0.431484  1
  Ca  Ca2  1  0.657747  0.333830  0.562714  1
  Ca  Ca3  1  0.842253  0.833830  0.937286  1
  Ca  Ca4  1  0.657747  0.333830  0.937286  1
  Ca  Ca5  1  0.842253  0.833830  0.562714  1
  Ca  Ca6  1  0.337927  0.667366  0.431484  1
  Ca  Ca7  1  0.162073  0.167366  0.068516  1
  Ca  Ca8  1  0.859627  0.542831  0.250000  1
  Ca  Ca9  1  0.640373  0.042831  0.250000  1
  Ca  Ca10  1  0.138384  0.455820  0.750000  1
  Ca  Ca11  1  0.361616  0.955820  0.750000  1
  Ir  Ir12  1  0.043777  0.876032  0.250000  1
  Ir  Ir13  1  0.456223  0.376032  0.250000  1
  Rh  Rh14  1  0.954968  0.122922  0.750000  1
  Rh  Rh15  1  0.545032  0.622922  0.750000  1
