# generated using pymatgen
data_Sc6Sn6Ir2RuPt3
_symmetry_space_group_name_H-M   'P 1'
_cell_length_a   7.55004900
_cell_length_b   7.55004905
_cell_length_c   7.09346600
_cell_angle_alpha   90.00000000
_cell_angle_beta   90.00000000
_cell_angle_gamma   120.00000417
_symmetry_Int_Tables_number   1
_chemical_formula_structural   Sc6Sn6Ir2RuPt3
_chemical_formula_sum   'Sc6 Sn6 Ir2 Ru1 Pt3'
_cell_volume   350.17783073
_cell_formula_units_Z   1
loop_
 _symmetry_equiv_pos_site_id
 _symmetry_equiv_pos_as_xyz
  1  'x, y, z'
loop_
 _atom_site_type_symbol
 _atom_site_label
 _atom_site_symmetry_multiplicity
 _atom_site_fract_x
 _atom_site_fract_y
 _atom_site_fract_z
 _atom_site_occupancy
  Sc  Sc0  1  0.397937  0.010325  0.247043  1
  Sc  Sc1  1  0.612388  0.602063  0.247043  1
  Sc  Sc2  1  0.989675  0.387612  0.247043  1
  Sc  Sc3  1  0.395441  0.004797  0.752351  1
  Sc  Sc4  1  0.609356  0.604559  0.752351  1
  Sc  Sc5  1  0.995203  0.390644  0.752351  1
  Sn  Sn6  1  0.280565  0.281199  0.998245  1
  Sn  Sn7  1  0.000634  0.719435  0.998245  1
  Sn  Sn8  1  0.003767  0.738421  0.501419  1
  Sn  Sn9  1  0.734654  0.996233  0.501419  1
  Sn  Sn10  1  0.261579  0.265346  0.501419  1
  Sn  Sn11  1  0.718801  0.999366  0.998245  1
  Ir  Ir12  1  0.000000  0.000000  0.229370  1
  Ir  Ir13  1  0.666667  0.333333  0.998451  1
  Ru  Ru14  1  0.000000  0.000000  0.772062  1
  Pt  Pt15  1  0.333333  0.666667  0.492255  1
  Pt  Pt16  1  0.333333  0.666667  0.008433  1
  Pt  Pt17  1  0.666667  0.333333  0.502256  1
