# generated using pymatgen
data_Pr2Gd3Dy(RuO7)2
_symmetry_space_group_name_H-M   'P 1'
_cell_length_a   6.51059879
_cell_length_b   6.51153821
_cell_length_c   7.58364300
_cell_angle_alpha   90.00000000
_cell_angle_beta   90.00000000
_cell_angle_gamma   110.46180267
_symmetry_Int_Tables_number   1
_chemical_formula_structural   Pr2Gd3Dy(RuO7)2
_chemical_formula_sum   'Pr2 Gd3 Dy1 Ru2 O14'
_cell_volume   301.21609482
_cell_formula_units_Z   1
loop_
 _symmetry_equiv_pos_site_id
 _symmetry_equiv_pos_as_xyz
  1  'x, y, z'
loop_
 _atom_site_type_symbol
 _atom_site_label
 _atom_site_symmetry_multiplicity
 _atom_site_fract_x
 _atom_site_fract_y
 _atom_site_fract_z
 _atom_site_occupancy
  Pr  Pr0  1  0.000575  0.999857  0.499186  1
  Pr  Pr1  1  0.000575  0.999857  0.000814  1
  Gd  Gd2  1  0.480864  0.927937  0.750000  1
  Gd  Gd3  1  0.520127  0.071779  0.250000  1
  Gd  Gd4  1  0.927635  0.480299  0.750000  1
  Dy  Dy5  1  0.070133  0.518010  0.250000  1
  Ru  Ru6  1  0.499915  0.500376  0.499288  1
  Ru  Ru7  1  0.499915  0.500376  0.000712  1
  O  O8  1  0.584081  0.583156  0.750000  1
  O  O9  1  0.412350  0.417855  0.250000  1
  O  O10  1  0.839849  0.115279  0.750000  1
  O  O11  1  0.161971  0.880728  0.250000  1
  O  O12  1  0.114561  0.838248  0.750000  1
  O  O13  1  0.886336  0.162818  0.250000  1
  O  O14  1  0.437890  0.183408  0.964189  1
  O  O15  1  0.563428  0.817628  0.463946  1
  O  O16  1  0.182915  0.441901  0.966510  1
  O  O17  1  0.816322  0.558775  0.461583  1
  O  O18  1  0.437890  0.183408  0.535811  1
  O  O19  1  0.563428  0.817628  0.036054  1
  O  O20  1  0.816322  0.558775  0.038417  1
  O  O21  1  0.182915  0.441901  0.533490  1
