# generated using pymatgen
data_Ca9Ho(Sn3H)2
_symmetry_space_group_name_H-M   'P 1'
_cell_length_a   9.41456757
_cell_length_b   9.41456708
_cell_length_c   9.42921909
_cell_angle_alpha   128.60100813
_cell_angle_beta   128.60100522
_cell_angle_gamma   75.67247158
_symmetry_Int_Tables_number   1
_chemical_formula_structural   Ca9Ho(Sn3H)2
_chemical_formula_sum   'Ca9 Ho1 Sn6 H2'
_cell_volume   496.49689598
_cell_formula_units_Z   1
loop_
 _symmetry_equiv_pos_site_id
 _symmetry_equiv_pos_as_xyz
  1  'x, y, z'
loop_
 _atom_site_type_symbol
 _atom_site_label
 _atom_site_symmetry_multiplicity
 _atom_site_fract_x
 _atom_site_fract_y
 _atom_site_fract_z
 _atom_site_occupancy
  Ca  Ca0  1  0.499226  0.502098  0.001304  1
  Ca  Ca1  1  0.002098  0.999226  0.001304  1
  Ca  Ca2  1  0.185321  0.685321  0.173867  1
  Ca  Ca3  1  0.008307  0.186197  0.499002  1
  Ca  Ca4  1  0.686197  0.508307  0.499002  1
  Ca  Ca5  1  0.490523  0.990523  0.179979  1
  Ca  Ca6  1  0.812422  0.312422  0.822231  1
  Ca  Ca7  1  0.988402  0.811953  0.498705  1
  Ca  Ca8  1  0.311953  0.488402  0.498705  1
  Ho  Ho9  1  0.513094  0.013094  0.822002  1
  Sn  Sn10  1  0.255210  0.243798  0.994244  1
  Sn  Sn11  1  0.743798  0.755210  0.994244  1
  Sn  Sn12  1  0.867313  0.367313  0.237258  1
  Sn  Sn13  1  0.125508  0.625508  0.751474  1
  Sn  Sn14  1  0.371461  0.127307  0.505651  1
  Sn  Sn15  1  0.627307  0.871461  0.505651  1
  H  H16  1  0.261686  0.761686  0.513359  1
  H  H17  1  0.750174  0.250174  0.502019  1
