# generated using pymatgen
data_Be15VRh16
_symmetry_space_group_name_H-M   'P 1'
_cell_length_a   8.41303719
_cell_length_b   8.41300439
_cell_length_c   8.41302426
_cell_angle_alpha   140.82486364
_cell_angle_beta   96.45176252
_cell_angle_gamma   96.45415334
_symmetry_Int_Tables_number   1
_chemical_formula_structural   Be15VRh16
_chemical_formula_sum   'Be15 V1 Rh16'
_cell_volume   354.38441726
_cell_formula_units_Z   1
loop_
 _symmetry_equiv_pos_site_id
 _symmetry_equiv_pos_as_xyz
  1  'x, y, z'
loop_
 _atom_site_type_symbol
 _atom_site_label
 _atom_site_symmetry_multiplicity
 _atom_site_fract_x
 _atom_site_fract_y
 _atom_site_fract_z
 _atom_site_occupancy
  Be  Be0  1  0.124765  0.249821  0.874941  1
  Be  Be1  1  0.380665  0.250372  0.130317  1
  Be  Be2  1  0.870159  0.250340  0.619785  1
  Be  Be3  1  0.624147  0.249183  0.374967  1
  Be  Be4  1  0.380543  0.505346  0.875193  1
  Be  Be5  1  0.632649  0.503769  0.128878  1
  Be  Be6  1  0.124449  0.503792  0.620684  1
  Be  Be7  1  0.875436  0.500179  0.375261  1
  Be  Be8  1  0.869882  0.994755  0.875123  1
  Be  Be9  1  0.124614  0.995341  0.129247  1
  Be  Be10  1  0.615726  0.995244  0.620491  1
  Be  Be11  1  0.375987  0.000827  0.375162  1
  Be  Be12  1  0.624895  0.750150  0.874738  1
  Be  Be13  1  0.875441  0.750585  0.124862  1
  Be  Be14  1  0.376166  0.750671  0.625489  1
  V  V15  1  0.124327  0.749501  0.374824  1
  Rh  Rh16  1  0.125197  0.366159  0.245402  1
  Rh  Rh17  1  0.125196  0.879812  0.759046  1
  Rh  Rh18  1  0.870626  0.365992  0.990908  1
  Rh  Rh19  1  0.374104  0.874438  0.999313  1
  Rh  Rh20  1  0.870622  0.879707  0.504620  1
  Rh  Rh21  1  0.374104  0.374807  0.499685  1
  Rh  Rh22  1  0.625230  0.874523  0.250289  1
  Rh  Rh23  1  0.625236  0.374936  0.750711  1
  Rh  Rh24  1  0.875621  0.125477  0.250377  1
  Rh  Rh25  1  0.875620  0.625223  0.750128  1
  Rh  Rh26  1  0.625251  0.125759  0.000082  1
  Rh  Rh27  1  0.125188  0.620343  0.991365  1
  Rh  Rh28  1  0.625262  0.625177  0.499503  1
  Rh  Rh29  1  0.125190  0.133807  0.504827  1
  Rh  Rh30  1  0.378854  0.620318  0.245223  1
  Rh  Rh31  1  0.378847  0.133645  0.758553  1
