# generated using pymatgen
data_Y2MnBe2Rh5
_symmetry_space_group_name_H-M   'P 1'
_cell_length_a   9.62787900
_cell_length_b   9.62787900
_cell_length_c   3.25408000
_cell_angle_alpha   90.00000000
_cell_angle_beta   90.00000000
_cell_angle_gamma   90.00000000
_symmetry_Int_Tables_number   1
_chemical_formula_structural   Y2MnBe2Rh5
_chemical_formula_sum   'Y4 Mn2 Be4 Rh10'
_cell_volume   301.64037553
_cell_formula_units_Z   2
loop_
 _symmetry_equiv_pos_site_id
 _symmetry_equiv_pos_as_xyz
  1  'x, y, z'
loop_
 _atom_site_type_symbol
 _atom_site_label
 _atom_site_symmetry_multiplicity
 _atom_site_fract_x
 _atom_site_fract_y
 _atom_site_fract_z
 _atom_site_occupancy
  Y  Y0  1  0.823564  0.323564  0.000000  1
  Y  Y1  1  0.323564  0.176436  0.000000  1
  Y  Y2  1  0.676436  0.823564  0.000000  1
  Y  Y3  1  0.176436  0.676436  0.000000  1
  Mn  Mn4  1  0.000000  0.000000  0.000000  1
  Mn  Mn5  1  0.500000  0.500000  0.000000  1
  Be  Be6  1  0.622432  0.122432  0.000000  1
  Be  Be7  1  0.122432  0.377568  0.000000  1
  Be  Be8  1  0.877568  0.622432  0.000000  1
  Be  Be9  1  0.377568  0.877568  0.000000  1
  Rh  Rh10  1  0.068031  0.212587  0.500000  1
  Rh  Rh11  1  0.212587  0.931969  0.500000  1
  Rh  Rh12  1  0.787413  0.068031  0.500000  1
  Rh  Rh13  1  0.931969  0.787413  0.500000  1
  Rh  Rh14  1  0.431969  0.712587  0.500000  1
  Rh  Rh15  1  0.568031  0.287413  0.500000  1
  Rh  Rh16  1  0.712587  0.568031  0.500000  1
  Rh  Rh17  1  0.287413  0.431969  0.500000  1
  Rh  Rh18  1  0.500000  0.000000  0.500000  1
  Rh  Rh19  1  0.000000  0.500000  0.500000  1
