# generated using pymatgen
data_CaYb5(ErBi3)2
_symmetry_space_group_name_H-M   'P 1'
_cell_length_a   8.15934702
_cell_length_b   8.34724506
_cell_length_c   8.34797253
_cell_angle_alpha   109.93083282
_cell_angle_beta   109.01475129
_cell_angle_gamma   109.01179266
_symmetry_Int_Tables_number   1
_chemical_formula_structural   CaYb5(ErBi3)2
_chemical_formula_sum   'Ca1 Yb5 Er2 Bi6'
_cell_volume   440.10005293
_cell_formula_units_Z   1
loop_
 _symmetry_equiv_pos_site_id
 _symmetry_equiv_pos_as_xyz
  1  'x, y, z'
loop_
 _atom_site_type_symbol
 _atom_site_label
 _atom_site_symmetry_multiplicity
 _atom_site_fract_x
 _atom_site_fract_y
 _atom_site_fract_z
 _atom_site_occupancy
  Ca  Ca0  1  0.500857  0.999172  0.646686  1
  Yb  Yb1  1  0.354164  0.352349  0.353299  1
  Yb  Yb2  1  0.501742  0.000893  0.147642  1
  Yb  Yb3  1  0.001568  0.647517  0.500853  1
  Yb  Yb4  1  0.854214  0.853185  0.852410  1
  Yb  Yb5  1  0.000791  0.146674  0.499058  1
  Er  Er6  1  0.141882  0.500082  0.000054  1
  Er  Er7  1  0.641998  0.500177  0.000138  1
  Bi  Bi8  1  0.376892  0.622505  0.756814  1
  Bi  Bi9  1  0.877142  0.256931  0.122899  1
  Bi  Bi10  1  0.620228  0.743058  0.365738  1
  Bi  Bi11  1  0.119951  0.865794  0.242918  1
  Bi  Bi12  1  0.254189  0.134170  0.877381  1
  Bi  Bi13  1  0.754381  0.377493  0.634112  1
