# generated using pymatgen
data_Ta3TiS6
_symmetry_space_group_name_H-M   'P 1'
_cell_length_a   5.75997800
_cell_length_b   5.75997776
_cell_length_c   12.60600800
_cell_angle_alpha   90.00000000
_cell_angle_beta   90.00000000
_cell_angle_gamma   120.00000136
_symmetry_Int_Tables_number   1
_chemical_formula_structural   Ta3TiS6
_chemical_formula_sum   'Ta6 Ti2 S12'
_cell_volume   362.20115896
_cell_formula_units_Z   2
loop_
 _symmetry_equiv_pos_site_id
 _symmetry_equiv_pos_as_xyz
  1  'x, y, z'
loop_
 _atom_site_type_symbol
 _atom_site_label
 _atom_site_symmetry_multiplicity
 _atom_site_fract_x
 _atom_site_fract_y
 _atom_site_fract_z
 _atom_site_occupancy
  Ta  Ta0  1  0.000000  0.000000  0.000000  1
  Ta  Ta1  1  0.666667  0.333333  0.001792  1
  Ta  Ta2  1  0.333333  0.666667  0.501792  1
  Ta  Ta3  1  0.000000  0.000000  0.500000  1
  Ta  Ta4  1  0.333333  0.666667  0.998208  1
  Ta  Ta5  1  0.666667  0.333333  0.498208  1
  Ti  Ti6  1  0.666667  0.333333  0.750000  1
  Ti  Ti7  1  0.333333  0.666667  0.250000  1
  S  S8  1  0.666773  0.667915  0.125928  1
  S  S9  1  0.333227  0.332085  0.625928  1
  S  S10  1  0.667915  0.666773  0.874072  1
  S  S11  1  0.333227  0.001142  0.874072  1
  S  S12  1  0.998858  0.666773  0.625928  1
  S  S13  1  0.998858  0.332085  0.874072  1
  S  S14  1  0.001142  0.667915  0.374072  1
  S  S15  1  0.332085  0.333227  0.374072  1
  S  S16  1  0.666773  0.998858  0.374072  1
  S  S17  1  0.001142  0.333227  0.125928  1
  S  S18  1  0.667915  0.001142  0.625928  1
  S  S19  1  0.332085  0.998858  0.125928  1
