# generated using pymatgen
data_Y17Tm3(Cd3Pt)2
_symmetry_space_group_name_H-M   'P 1'
_cell_length_a   9.73079365
_cell_length_b   9.73079255
_cell_length_c   9.77576825
_cell_angle_alpha   90.08086701
_cell_angle_beta   89.91913072
_cell_angle_gamma   119.97526590
_symmetry_Int_Tables_number   1
_chemical_formula_structural   Y17Tm3(Cd3Pt)2
_chemical_formula_sum   'Y17 Tm3 Cd6 Pt2'
_cell_volume   801.83612277
_cell_formula_units_Z   1
loop_
 _symmetry_equiv_pos_site_id
 _symmetry_equiv_pos_as_xyz
  1  'x, y, z'
loop_
 _atom_site_type_symbol
 _atom_site_label
 _atom_site_symmetry_multiplicity
 _atom_site_fract_x
 _atom_site_fract_y
 _atom_site_fract_z
 _atom_site_occupancy
  Y  Y0  1  0.207033  0.414853  0.940722  1
  Y  Y1  1  0.585147  0.792967  0.940722  1
  Y  Y2  1  0.793008  0.206992  0.059298  1
  Y  Y3  1  0.793439  0.585889  0.059193  1
  Y  Y4  1  0.414111  0.206561  0.059193  1
  Y  Y5  1  0.792808  0.207192  0.440798  1
  Y  Y6  1  0.792900  0.585841  0.440813  1
  Y  Y7  1  0.414159  0.207100  0.440813  1
  Y  Y8  1  0.207046  0.792954  0.559825  1
  Y  Y9  1  0.207170  0.414002  0.559140  1
  Y  Y10  1  0.585998  0.792830  0.559140  1
  Y  Y11  1  0.542583  0.457417  0.750088  1
  Y  Y12  1  0.542000  0.084549  0.750386  1
  Y  Y13  1  0.915451  0.458000  0.750386  1
  Y  Y14  1  0.457545  0.542455  0.250123  1
  Y  Y15  1  0.457076  0.914720  0.249241  1
  Y  Y16  1  0.085280  0.542924  0.249241  1
  Tm  Tm17  1  0.207814  0.792186  0.939871  1
  Tm  Tm18  1  0.000470  0.999530  0.999998  1
  Tm  Tm19  1  0.999902  0.000098  0.499692  1
  Cd  Cd20  1  0.884929  0.115071  0.750099  1
  Cd  Cd21  1  0.885078  0.769893  0.750073  1
  Cd  Cd22  1  0.230107  0.114922  0.750073  1
  Cd  Cd23  1  0.115156  0.884844  0.249755  1
  Cd  Cd24  1  0.115066  0.230131  0.250078  1
  Cd  Cd25  1  0.769869  0.884934  0.250078  1
  Pt  Pt26  1  0.332202  0.667798  0.751412  1
  Pt  Pt27  1  0.666655  0.333345  0.249749  1
