# generated using pymatgen
data_Er4Ga16CoIr2
_symmetry_space_group_name_H-M   'P 1'
_cell_length_a   6.07683700
_cell_length_b   6.11129200
_cell_length_c   11.12416400
_cell_angle_alpha   90.00000000
_cell_angle_beta   90.00000000
_cell_angle_gamma   90.00000000
_symmetry_Int_Tables_number   1
_chemical_formula_structural   Er4Ga16CoIr2
_chemical_formula_sum   'Er4 Ga16 Co1 Ir2'
_cell_volume   413.12169764
_cell_formula_units_Z   1
loop_
 _symmetry_equiv_pos_site_id
 _symmetry_equiv_pos_as_xyz
  1  'x, y, z'
loop_
 _atom_site_type_symbol
 _atom_site_label
 _atom_site_symmetry_multiplicity
 _atom_site_fract_x
 _atom_site_fract_y
 _atom_site_fract_z
 _atom_site_occupancy
  Er  Er0  1  0.000000  0.500000  0.196891  1
  Er  Er1  1  0.000000  0.500000  0.803109  1
  Er  Er2  1  0.500000  0.000000  0.807423  1
  Er  Er3  1  0.500000  0.000000  0.192577  1
  Ga  Ga4  1  0.000000  0.000000  0.226013  1
  Ga  Ga5  1  0.000000  0.000000  0.773987  1
  Ga  Ga6  1  0.500000  0.500000  0.197067  1
  Ga  Ga7  1  0.500000  0.500000  0.802933  1
  Ga  Ga8  1  0.288015  0.289094  0.000000  1
  Ga  Ga9  1  0.711985  0.710906  0.000000  1
  Ga  Ga10  1  0.288015  0.710906  0.000000  1
  Ga  Ga11  1  0.711985  0.289094  0.000000  1
  Ga  Ga12  1  0.256866  0.242238  0.382074  1
  Ga  Ga13  1  0.743134  0.757762  0.382074  1
  Ga  Ga14  1  0.256866  0.757762  0.617926  1
  Ga  Ga15  1  0.743134  0.242238  0.617926  1
  Ga  Ga16  1  0.743134  0.757762  0.617926  1
  Ga  Ga17  1  0.256866  0.242238  0.617926  1
  Ga  Ga18  1  0.256866  0.757762  0.382074  1
  Ga  Ga19  1  0.743134  0.242238  0.382074  1
  Co  Co20  1  0.500000  0.000000  0.500000  1
  Ir  Ir21  1  0.000000  0.500000  0.500000  1
  Ir  Ir22  1  0.000000  0.000000  0.000000  1
