# generated using pymatgen
data_Er7LuSc12Si15Ir
_symmetry_space_group_name_H-M   'P 1'
_cell_length_a   7.04889004
_cell_length_b   7.40207520
_cell_length_c   13.89206357
_cell_angle_alpha   89.96760085
_cell_angle_beta   89.99413163
_cell_angle_gamma   90.11668366
_symmetry_Int_Tables_number   1
_chemical_formula_structural   Er7LuSc12Si15Ir
_chemical_formula_sum   'Er7 Lu1 Sc12 Si15 Ir1'
_cell_volume   724.83643981
_cell_formula_units_Z   1
loop_
 _symmetry_equiv_pos_site_id
 _symmetry_equiv_pos_as_xyz
  1  'x, y, z'
loop_
 _atom_site_type_symbol
 _atom_site_label
 _atom_site_symmetry_multiplicity
 _atom_site_fract_x
 _atom_site_fract_y
 _atom_site_fract_z
 _atom_site_occupancy
  Er  Er0  1  0.990507  0.825499  0.904601  1
  Er  Er1  1  0.488913  0.676862  0.905262  1
  Er  Er2  1  0.990464  0.825392  0.595484  1
  Er  Er3  1  0.511560  0.323117  0.096224  1
  Er  Er4  1  0.011887  0.179904  0.403837  1
  Er  Er5  1  0.511482  0.323129  0.403763  1
  Er  Er6  1  0.488927  0.676927  0.594825  1
  Lu  Lu7  1  0.011987  0.180226  0.096459  1
  Sc  Sc8  1  0.157670  0.502596  0.749973  1
  Sc  Sc9  1  0.838828  0.496407  0.249917  1
  Sc  Sc10  1  0.340233  0.006405  0.249925  1
  Sc  Sc11  1  0.666892  0.995911  0.749961  1
  Sc  Sc12  1  0.318679  0.171829  0.627351  1
  Sc  Sc13  1  0.672416  0.826036  0.373540  1
  Sc  Sc14  1  0.171380  0.678239  0.374018  1
  Sc  Sc15  1  0.672454  0.826137  0.126448  1
  Sc  Sc16  1  0.835549  0.319523  0.627281  1
  Sc  Sc17  1  0.318526  0.171866  0.872691  1
  Sc  Sc18  1  0.835665  0.319373  0.872738  1
  Sc  Sc19  1  0.171387  0.678284  0.125921  1
  Si  Si20  1  0.970552  0.888196  0.249882  1
  Si  Si21  1  0.469773  0.613942  0.249966  1
  Si  Si22  1  0.529170  0.388701  0.750012  1
  Si  Si23  1  0.287239  0.864890  0.749991  1
  Si  Si24  1  0.714696  0.132734  0.249763  1
  Si  Si25  1  0.213619  0.370288  0.249743  1
  Si  Si26  1  0.778469  0.626255  0.750013  1
  Si  Si27  1  0.160198  0.467792  0.537737  1
  Si  Si28  1  0.842144  0.535653  0.461546  1
  Si  Si29  1  0.344330  0.966868  0.460202  1
  Si  Si30  1  0.842303  0.535267  0.038572  1
  Si  Si31  1  0.656480  0.033993  0.538464  1
  Si  Si32  1  0.160132  0.467390  0.962403  1
  Si  Si33  1  0.656645  0.034042  0.961554  1
  Si  Si34  1  0.343710  0.967161  0.039913  1
  Ir  Ir35  1  0.025135  0.103165  0.750016  1
