# generated using pymatgen
data_Li2TbPrBi4
_symmetry_space_group_name_H-M   'P 1'
_cell_length_a   4.54722300
_cell_length_b   4.54722300
_cell_length_c   10.51560600
_cell_angle_alpha   90.00000000
_cell_angle_beta   90.00000000
_cell_angle_gamma   90.00000000
_symmetry_Int_Tables_number   1
_chemical_formula_structural   Li2TbPrBi4
_chemical_formula_sum   'Li2 Tb1 Pr1 Bi4'
_cell_volume   217.43367758
_cell_formula_units_Z   1
loop_
 _symmetry_equiv_pos_site_id
 _symmetry_equiv_pos_as_xyz
  1  'x, y, z'
loop_
 _atom_site_type_symbol
 _atom_site_label
 _atom_site_symmetry_multiplicity
 _atom_site_fract_x
 _atom_site_fract_y
 _atom_site_fract_z
 _atom_site_occupancy
  Li  Li0  1  0.000000  0.000000  0.997696  1
  Li  Li1  1  0.500000  0.500000  0.997696  1
  Tb  Tb2  1  0.500000  0.000000  0.742787  1
  Pr  Pr3  1  0.000000  0.500000  0.257096  1
  Bi  Bi4  1  0.000000  0.500000  0.832388  1
  Bi  Bi5  1  0.500000  0.000000  0.162669  1
  Bi  Bi6  1  0.000000  0.000000  0.504835  1
  Bi  Bi7  1  0.500000  0.500000  0.504835  1
