# generated using pymatgen
data_Eu5Mn2O12
_symmetry_space_group_name_H-M   'P 1'
_cell_length_a   5.62232200
_cell_length_b   6.99223898
_cell_length_c   7.70756200
_cell_angle_alpha   106.37070459
_cell_angle_beta   90.00000000
_cell_angle_gamma   113.70578191
_symmetry_Int_Tables_number   1
_chemical_formula_structural   Eu5Mn2O12
_chemical_formula_sum   'Eu5 Mn2 O12'
_cell_volume   263.96605277
_cell_formula_units_Z   1
loop_
 _symmetry_equiv_pos_site_id
 _symmetry_equiv_pos_as_xyz
  1  'x, y, z'
loop_
 _atom_site_type_symbol
 _atom_site_label
 _atom_site_symmetry_multiplicity
 _atom_site_fract_x
 _atom_site_fract_y
 _atom_site_fract_z
 _atom_site_occupancy
  Eu  Eu0  1  0.311268  0.622535  0.163662  1
  Eu  Eu1  1  0.689217  0.378436  0.351744  1
  Eu  Eu2  1  0.000000  0.000000  0.500000  1
  Eu  Eu3  1  0.310783  0.621565  0.648257  1
  Eu  Eu4  1  0.688732  0.377465  0.836339  1
  Mn  Mn5  1  0.243973  0.000000  0.000000  1
  Mn  Mn6  1  0.756026  0.000000  0.000000  1
  O  O7  1  0.418911  0.318221  0.078981  1
  O  O8  1  0.899309  0.318221  0.078981  1
  O  O9  1  0.500177  0.000355  0.172249  1
  O  O10  1  0.001583  0.003165  0.172948  1
  O  O11  1  0.096822  0.691868  0.424328  1
  O  O12  1  0.595046  0.691868  0.424328  1
  O  O13  1  0.404954  0.308132  0.575672  1
  O  O14  1  0.903178  0.308132  0.575672  1
  O  O15  1  0.998417  0.996836  0.827053  1
  O  O16  1  0.499823  0.999645  0.827751  1
  O  O17  1  0.100691  0.681779  0.921019  1
  O  O18  1  0.581089  0.681779  0.921019  1
