# generated using pymatgen
data_Tb3NiSn3Ir2
_symmetry_space_group_name_H-M   'P 1'
_cell_length_a   7.53094500
_cell_length_b   7.53094452
_cell_length_c   3.85361400
_cell_angle_alpha   90.00000000
_cell_angle_beta   90.00000000
_cell_angle_gamma   119.99998892
_symmetry_Int_Tables_number   1
_chemical_formula_structural   Tb3NiSn3Ir2
_chemical_formula_sum   'Tb3 Ni1 Sn3 Ir2'
_cell_volume   189.27698765
_cell_formula_units_Z   1
loop_
 _symmetry_equiv_pos_site_id
 _symmetry_equiv_pos_as_xyz
  1  'x, y, z'
loop_
 _atom_site_type_symbol
 _atom_site_label
 _atom_site_symmetry_multiplicity
 _atom_site_fract_x
 _atom_site_fract_y
 _atom_site_fract_z
 _atom_site_occupancy
  Tb  Tb0  1  0.591256  0.000000  0.000000  1
  Tb  Tb1  1  0.000000  0.591256  0.000000  1
  Tb  Tb2  1  0.408744  0.408744  0.000000  1
  Ni  Ni3  1  0.000000  0.000000  0.000000  1
  Sn  Sn4  1  0.253620  0.000000  0.500000  1
  Sn  Sn5  1  0.000000  0.253620  0.500000  1
  Sn  Sn6  1  0.746380  0.746380  0.500000  1
  Ir  Ir7  1  0.333333  0.666667  0.500000  1
  Ir  Ir8  1  0.666667  0.333333  0.500000  1
