# generated using pymatgen
data_Pa4Al24Pt8W
_symmetry_space_group_name_H-M   'P 1'
_cell_length_a   7.57959677
_cell_length_b   7.67567418
_cell_length_c   13.05256289
_cell_angle_alpha   85.02397100
_cell_angle_beta   79.18758042
_cell_angle_gamma   59.54978740
_symmetry_Int_Tables_number   1
_chemical_formula_structural   Pa4Al24Pt8W
_chemical_formula_sum   'Pa4 Al24 Pt8 W1'
_cell_volume   642.98435259
_cell_formula_units_Z   1
loop_
 _symmetry_equiv_pos_site_id
 _symmetry_equiv_pos_as_xyz
  1  'x, y, z'
loop_
 _atom_site_type_symbol
 _atom_site_label
 _atom_site_symmetry_multiplicity
 _atom_site_fract_x
 _atom_site_fract_y
 _atom_site_fract_z
 _atom_site_occupancy
  Pa  Pa0  1  0.378275  0.182610  0.811170  1
  Pa  Pa1  1  0.621725  0.817390  0.188830  1
  Pa  Pa2  1  0.747650  0.498390  0.811006  1
  Pa  Pa3  1  0.252350  0.501610  0.188994  1
  Al  Al4  1  0.684259  0.838128  0.942894  1
  Al  Al5  1  0.315741  0.161872  0.057106  1
  Al  Al6  1  0.145771  0.831481  0.561729  1
  Al  Al7  1  0.854229  0.168519  0.438271  1
  Al  Al8  1  0.482351  0.165966  0.559505  1
  Al  Al9  1  0.517649  0.834034  0.440495  1
  Al  Al10  1  0.219809  0.160202  0.327447  1
  Al  Al11  1  0.780191  0.839798  0.672553  1
  Al  Al12  1  0.438818  0.509760  0.673006  1
  Al  Al13  1  0.561182  0.490240  0.326994  1
  Al  Al14  1  0.111218  0.156371  0.666305  1
  Al  Al15  1  0.888782  0.843629  0.333695  1
  Al  Al16  1  0.353630  0.503439  0.942802  1
  Al  Al17  1  0.646370  0.496561  0.057198  1
  Al  Al18  1  0.013502  0.166711  0.959062  1
  Al  Al19  1  0.986498  0.833289  0.040938  1
  Al  Al20  1  0.187790  0.498954  0.441962  1
  Al  Al21  1  0.812210  0.501046  0.558038  1
  Al  Al22  1  0.733621  0.157069  0.183499  1
  Al  Al23  1  0.266379  0.842931  0.816501  1
  Al  Al24  1  0.060658  0.644085  0.816899  1
  Al  Al25  1  0.939342  0.355915  0.183101  1
  Al  Al26  1  0.854682  0.049346  0.816344  1
  Al  Al27  1  0.145318  0.950654  0.183656  1
  Pt  Pt28  1  0.119543  0.491163  0.641207  1
  Pt  Pt29  1  0.880457  0.508837  0.358793  1
  Pt  Pt30  1  0.655008  0.172645  0.999995  1
  Pt  Pt31  1  0.344992  0.827355  0.000005  1
  Pt  Pt32  1  0.536034  0.167283  0.361780  1
  Pt  Pt33  1  0.463966  0.832717  0.638220  1
  Pt  Pt34  1  0.778507  0.175925  0.637304  1
  Pt  Pt35  1  0.221493  0.824075  0.362696  1
  W  W36  1  0.000000  0.500000  0.000000  1
