# generated using pymatgen
data_Yb3(H6Rh)2
_symmetry_space_group_name_H-M   'P 1'
_cell_length_a   4.86299600
_cell_length_b   4.86299594
_cell_length_c   8.05956200
_cell_angle_alpha   90.00000000
_cell_angle_beta   90.00000000
_cell_angle_gamma   120.00000044
_symmetry_Int_Tables_number   1
_chemical_formula_structural   Yb3(H6Rh)2
_chemical_formula_sum   'Yb3 H12 Rh2'
_cell_volume   165.06305897
_cell_formula_units_Z   1
loop_
 _symmetry_equiv_pos_site_id
 _symmetry_equiv_pos_as_xyz
  1  'x, y, z'
loop_
 _atom_site_type_symbol
 _atom_site_label
 _atom_site_symmetry_multiplicity
 _atom_site_fract_x
 _atom_site_fract_y
 _atom_site_fract_z
 _atom_site_occupancy
  Yb  Yb0  1  0.000000  0.000000  0.000000  1
  Yb  Yb1  1  0.666667  0.333333  0.362983  1
  Yb  Yb2  1  0.333333  0.666667  0.637017  1
  H  H3  1  0.170401  0.829599  0.367740  1
  H  H4  1  0.659199  0.829599  0.367740  1
  H  H5  1  0.170401  0.340801  0.367740  1
  H  H6  1  0.829599  0.170401  0.632260  1
  H  H7  1  0.340801  0.170401  0.632260  1
  H  H8  1  0.829599  0.659199  0.632260  1
  H  H9  1  0.508877  0.017756  0.872802  1
  H  H10  1  0.508877  0.491123  0.872802  1
  H  H11  1  0.982244  0.491123  0.872802  1
  H  H12  1  0.491123  0.982244  0.127198  1
  H  H13  1  0.491123  0.508877  0.127198  1
  H  H14  1  0.017756  0.508877  0.127198  1
  Rh  Rh15  1  0.666667  0.333333  0.750106  1
  Rh  Rh16  1  0.333333  0.666667  0.249894  1
