# generated using pymatgen
data_Cs2PrY5(CBr6)2
_symmetry_space_group_name_H-M   'P 1'
_cell_length_a   8.89506936
_cell_length_b   8.92989304
_cell_length_c   9.51600596
_cell_angle_alpha   71.03225697
_cell_angle_beta   84.96554397
_cell_angle_gamma   89.26391957
_symmetry_Int_Tables_number   1
_chemical_formula_structural   Cs2PrY5(CBr6)2
_chemical_formula_sum   'Cs2 Pr1 Y5 C2 Br12'
_cell_volume   711.97645904
_cell_formula_units_Z   1
loop_
 _symmetry_equiv_pos_site_id
 _symmetry_equiv_pos_as_xyz
  1  'x, y, z'
loop_
 _atom_site_type_symbol
 _atom_site_label
 _atom_site_symmetry_multiplicity
 _atom_site_fract_x
 _atom_site_fract_y
 _atom_site_fract_z
 _atom_site_occupancy
  Cs  Cs0  1  0.467384  0.364084  0.331388  1
  Cs  Cs1  1  0.532016  0.636277  0.668240  1
  Pr  Pr2  1  0.914155  0.735451  0.004550  1
  Y  Y3  1  0.085354  0.256302  0.995277  1
  Y  Y4  1  0.745077  0.084017  0.000797  1
  Y  Y5  1  0.254871  0.913686  0.999101  1
  Y  Y6  1  0.973560  0.888749  0.323023  1
  Y  Y7  1  0.026775  0.114499  0.676519  1
  C  C8  1  0.007662  0.029985  0.920725  1
  C  C9  1  0.995007  0.977055  0.078329  1
  Br  Br10  1  0.075426  0.195994  0.328313  1
  Br  Br11  1  0.925673  0.809540  0.662670  1
  Br  Br12  1  0.216900  0.590230  0.000375  1
  Br  Br13  1  0.795578  0.400653  0.998907  1
  Br  Br14  1  0.401707  0.197735  0.002263  1
  Br  Br15  1  0.587921  0.805865  0.997879  1
  Br  Br16  1  0.668741  0.001620  0.322812  1
  Br  Br17  1  0.330130  0.999661  0.675638  1
  Br  Br18  1  0.277507  0.776867  0.320953  1
  Br  Br19  1  0.721251  0.222077  0.679913  1
  Br  Br20  1  0.849822  0.590755  0.337083  1
  Br  Br21  1  0.147480  0.408899  0.675245  1
