# generated using pymatgen
data_Y3Tc4SbF28
_symmetry_space_group_name_H-M   'P 1'
_cell_length_a   5.70400463
_cell_length_b   9.23290982
_cell_length_c   12.32681900
_cell_angle_alpha   61.89891118
_cell_angle_beta   90.12977937
_cell_angle_gamma   89.89468962
_symmetry_Int_Tables_number   1
_chemical_formula_structural   Y3Tc4SbF28
_chemical_formula_sum   'Y3 Tc4 Sb1 F28'
_cell_volume   572.65447097
_cell_formula_units_Z   1
loop_
 _symmetry_equiv_pos_site_id
 _symmetry_equiv_pos_as_xyz
  1  'x, y, z'
loop_
 _atom_site_type_symbol
 _atom_site_label
 _atom_site_symmetry_multiplicity
 _atom_site_fract_x
 _atom_site_fract_y
 _atom_site_fract_z
 _atom_site_occupancy
  Y  Y0  1  0.758794  0.817454  0.762738  1
  Y  Y1  1  0.258516  0.186591  0.735068  1
  Y  Y2  1  0.238131  0.194443  0.237949  1
  Tc  Tc3  1  0.758077  0.276227  0.956499  1
  Tc  Tc4  1  0.262492  0.725792  0.545670  1
  Tc  Tc5  1  0.242470  0.725710  0.040411  1
  Tc  Tc6  1  0.739725  0.269996  0.458343  1
  Sb  Sb7  1  0.729310  0.836915  0.254466  1
  F  F8  1  0.459277  0.708060  0.921816  1
  F  F9  1  0.956100  0.290265  0.574739  1
  F  F10  1  0.541610  0.292261  0.074355  1
  F  F11  1  0.054572  0.706494  0.429232  1
  F  F12  1  0.463759  0.279157  0.552039  1
  F  F13  1  0.967398  0.713184  0.945764  1
  F  F14  1  0.539297  0.724094  0.449509  1
  F  F15  1  0.030535  0.280942  0.055767  1
  F  F16  1  0.767228  0.513927  0.858654  1
  F  F17  1  0.274249  0.482726  0.643117  1
  F  F18  1  0.237733  0.480818  0.140868  1
  F  F19  1  0.728502  0.503846  0.359968  1
  F  F20  1  0.756479  0.030696  0.057764  1
  F  F21  1  0.254503  0.967550  0.443624  1
  F  F22  1  0.240597  0.966125  0.944091  1
  F  F23  1  0.741441  0.027284  0.556943  1
  F  F24  1  0.000198  0.734276  0.648245  1
  F  F25  1  0.495929  0.261922  0.858104  1
  F  F26  1  0.003351  0.259517  0.356163  1
  F  F27  1  0.508552  0.739377  0.136919  1
  F  F28  1  0.035234  0.746217  0.159484  1
  F  F29  1  0.528240  0.247823  0.336561  1
  F  F30  1  0.973599  0.252607  0.839286  1
  F  F31  1  0.475599  0.746076  0.667265  1
  F  F32  1  0.434633  0.984092  0.230943  1
  F  F33  1  0.917732  0.022038  0.266536  1
  F  F34  1  0.563877  0.022204  0.765534  1
  F  F35  1  0.062260  0.983295  0.735568  1
