# generated using pymatgen
data_Gd3In3HgRu
_symmetry_space_group_name_H-M   'P 1'
_cell_length_a   8.02515200
_cell_length_b   8.02515243
_cell_length_c   3.73250700
_cell_angle_alpha   90.00000000
_cell_angle_beta   90.00000000
_cell_angle_gamma   119.99999822
_symmetry_Int_Tables_number   1
_chemical_formula_structural   Gd3In3HgRu
_chemical_formula_sum   'Gd3 In3 Hg1 Ru1'
_cell_volume   208.17943596
_cell_formula_units_Z   1
loop_
 _symmetry_equiv_pos_site_id
 _symmetry_equiv_pos_as_xyz
  1  'x, y, z'
loop_
 _atom_site_type_symbol
 _atom_site_label
 _atom_site_symmetry_multiplicity
 _atom_site_fract_x
 _atom_site_fract_y
 _atom_site_fract_z
 _atom_site_occupancy
  Gd  Gd0  1  0.564998  0.966906  0.500000  1
  Gd  Gd1  1  0.401908  0.435003  0.500000  1
  Gd  Gd2  1  0.033094  0.598093  0.500000  1
  In  In3  1  0.229122  0.996195  0.000000  1
  In  In4  1  0.003805  0.232927  0.000000  1
  In  In5  1  0.767073  0.770879  0.000000  1
  Hg  Hg6  1  0.666667  0.333333  0.000000  1
  Ru  Ru7  1  0.333333  0.666666  0.000000  1
