# generated using pymatgen
data_TbTmMn2F14
_symmetry_space_group_name_H-M   'P 1'
_cell_length_a   5.41423941
_cell_length_b   8.71086133
_cell_length_c   11.70393400
_cell_angle_alpha   62.31353910
_cell_angle_beta   90.07310341
_cell_angle_gamma   90.05572463
_symmetry_Int_Tables_number   1
_chemical_formula_structural   TbTmMn2F14
_chemical_formula_sum   'Tb2 Tm2 Mn4 F28'
_cell_volume   488.78771393
_cell_formula_units_Z   2
loop_
 _symmetry_equiv_pos_site_id
 _symmetry_equiv_pos_as_xyz
  1  'x, y, z'
loop_
 _atom_site_type_symbol
 _atom_site_label
 _atom_site_symmetry_multiplicity
 _atom_site_fract_x
 _atom_site_fract_y
 _atom_site_fract_z
 _atom_site_occupancy
  Tb  Tb0  1  0.761358  0.187405  0.236067  1
  Tb  Tb1  1  0.238642  0.812595  0.763933  1
  Tm  Tm2  1  0.262346  0.809973  0.264052  1
  Tm  Tm3  1  0.737654  0.190027  0.735948  1
  Mn  Mn4  1  0.759229  0.727535  0.044114  1
  Mn  Mn5  1  0.240771  0.272465  0.955886  1
  Mn  Mn6  1  0.259100  0.276106  0.457951  1
  Mn  Mn7  1  0.740900  0.723894  0.542049  1
  F  F8  1  0.933472  0.705503  0.420325  1
  F  F9  1  0.066528  0.294497  0.579675  1
  F  F10  1  0.432397  0.292656  0.077697  1
  F  F11  1  0.567603  0.707344  0.922303  1
  F  F12  1  0.479972  0.729623  0.133949  1
  F  F13  1  0.520028  0.270377  0.866051  1
  F  F14  1  0.980745  0.272645  0.368413  1
  F  F15  1  0.019255  0.727355  0.631587  1
  F  F16  1  0.951255  0.743406  0.170150  1
  F  F17  1  0.048745  0.256594  0.829850  1
  F  F18  1  0.447690  0.260377  0.331277  1
  F  F19  1  0.552310  0.739623  0.668723  1
  F  F20  1  0.770825  0.488973  0.138322  1
  F  F21  1  0.229175  0.511027  0.861678  1
  F  F22  1  0.271465  0.515015  0.362501  1
  F  F23  1  0.728535  0.484985  0.637499  1
  F  F24  1  0.955523  0.281046  0.039667  1
  F  F25  1  0.044477  0.718954  0.960333  1
  F  F26  1  0.453792  0.718149  0.457409  1
  F  F27  1  0.546208  0.281851  0.542591  1
  F  F28  1  0.739922  0.961237  0.452631  1
  F  F29  1  0.260078  0.038763  0.547369  1
  F  F30  1  0.239589  0.035515  0.047774  1
  F  F31  1  0.760411  0.964485  0.952226  1
  F  F32  1  0.589772  0.965159  0.228534  1
  F  F33  1  0.410228  0.034841  0.771466  1
  F  F34  1  0.096884  0.026429  0.271918  1
  F  F35  1  0.903116  0.973571  0.728082  1
