# generated using pymatgen
data_Y4Tm16Cd6CuRh
_symmetry_space_group_name_H-M   'P 1'
_cell_length_a   9.55016000
_cell_length_b   9.54648749
_cell_length_c   9.70644900
_cell_angle_alpha   90.00000000
_cell_angle_beta   90.00000000
_cell_angle_gamma   119.98727658
_symmetry_Int_Tables_number   1
_chemical_formula_structural   Y4Tm16Cd6CuRh
_chemical_formula_sum   'Y4 Tm16 Cd6 Cu1 Rh1'
_cell_volume   766.48018289
_cell_formula_units_Z   1
loop_
 _symmetry_equiv_pos_site_id
 _symmetry_equiv_pos_as_xyz
  1  'x, y, z'
loop_
 _atom_site_type_symbol
 _atom_site_label
 _atom_site_symmetry_multiplicity
 _atom_site_fract_x
 _atom_site_fract_y
 _atom_site_fract_z
 _atom_site_occupancy
  Y  Y0  1  0.542020  0.458430  0.250000  1
  Y  Y1  1  0.542020  0.083591  0.250000  1
  Y  Y2  1  0.916981  0.458491  0.250000  1
  Y  Y3  1  0.088226  0.544113  0.750000  1
  Tm  Tm4  1  0.999920  0.999960  0.499078  1
  Tm  Tm5  1  0.999920  0.999960  0.000922  1
  Tm  Tm6  1  0.456891  0.544164  0.750000  1
  Tm  Tm7  1  0.456891  0.912727  0.750000  1
  Tm  Tm8  1  0.210719  0.790821  0.441477  1
  Tm  Tm9  1  0.210719  0.419899  0.441477  1
  Tm  Tm10  1  0.579669  0.789835  0.441961  1
  Tm  Tm11  1  0.790225  0.207709  0.559238  1
  Tm  Tm12  1  0.790225  0.582515  0.559238  1
  Tm  Tm13  1  0.417122  0.208560  0.559622  1
  Tm  Tm14  1  0.790225  0.207709  0.940762  1
  Tm  Tm15  1  0.790225  0.582515  0.940762  1
  Tm  Tm16  1  0.417122  0.208560  0.940378  1
  Tm  Tm17  1  0.210719  0.790821  0.058523  1
  Tm  Tm18  1  0.210719  0.419899  0.058523  1
  Tm  Tm19  1  0.579669  0.789835  0.058039  1
  Cd  Cd20  1  0.885843  0.113510  0.250000  1
  Cd  Cd21  1  0.885843  0.772333  0.250000  1
  Cd  Cd22  1  0.227883  0.113942  0.250000  1
  Cd  Cd23  1  0.116125  0.886565  0.750000  1
  Cd  Cd24  1  0.116125  0.229559  0.750000  1
  Cd  Cd25  1  0.769095  0.884548  0.750000  1
  Cu  Cu26  1  0.665979  0.332989  0.750000  1
  Rh  Rh27  1  0.332882  0.666441  0.250000  1
