# generated using pymatgen
data_Sr5Nd(CoO3)4
_symmetry_space_group_name_H-M   'P 1'
_cell_length_a   6.59978570
_cell_length_b   6.56488266
_cell_length_c   6.61134678
_cell_angle_alpha   92.69018261
_cell_angle_beta   92.22163996
_cell_angle_gamma   92.31577248
_symmetry_Int_Tables_number   1
_chemical_formula_structural   Sr5Nd(CoO3)4
_chemical_formula_sum   'Sr5 Nd1 Co4 O12'
_cell_volume   285.66189861
_cell_formula_units_Z   1
loop_
 _symmetry_equiv_pos_site_id
 _symmetry_equiv_pos_as_xyz
  1  'x, y, z'
loop_
 _atom_site_type_symbol
 _atom_site_label
 _atom_site_symmetry_multiplicity
 _atom_site_fract_x
 _atom_site_fract_y
 _atom_site_fract_z
 _atom_site_occupancy
  Sr  Sr0  1  0.888720  0.246050  0.616821  1
  Sr  Sr1  1  0.245868  0.619488  0.885902  1
  Sr  Sr2  1  0.614634  0.884918  0.246340  1
  Sr  Sr3  1  0.380699  0.113532  0.752144  1
  Sr  Sr4  1  0.114812  0.755816  0.384230  1
  Nd  Nd5  1  0.758211  0.382809  0.111991  1
  Co  Co6  1  0.994598  0.001313  0.002732  1
  Co  Co7  1  0.748837  0.752750  0.748555  1
  Co  Co8  1  0.504154  0.496467  0.499421  1
  Co  Co9  1  0.254859  0.249892  0.245020  1
  O  O10  1  0.230051  0.414985  0.541784  1
  O  O11  1  0.422422  0.534107  0.219306  1
  O  O12  1  0.547038  0.223542  0.409173  1
  O  O13  1  0.902281  0.711885  0.044997  1
  O  O14  1  0.713479  0.049675  0.918085  1
  O  O15  1  0.031592  0.902980  0.720765  1
  O  O16  1  0.780058  0.573533  0.446645  1
  O  O17  1  0.593367  0.457592  0.782796  1
  O  O18  1  0.466807  0.775068  0.588181  1
  O  O19  1  0.079234  0.286159  0.962455  1
  O  O20  1  0.275827  0.964690  0.094528  1
  O  O21  1  0.952453  0.102749  0.278129  1
