# generated using pymatgen
data_HoTi4(Re5Tc)4
_symmetry_space_group_name_H-M   'P 1'
_cell_length_a   8.40744714
_cell_length_b   8.40559004
_cell_length_c   8.40324602
_cell_angle_alpha   109.45812287
_cell_angle_beta   109.46707071
_cell_angle_gamma   109.50423635
_symmetry_Int_Tables_number   1
_chemical_formula_structural   HoTi4(Re5Tc)4
_chemical_formula_sum   'Ho1 Ti4 Re20 Tc4'
_cell_volume   457.05970673
_cell_formula_units_Z   1
loop_
 _symmetry_equiv_pos_site_id
 _symmetry_equiv_pos_as_xyz
  1  'x, y, z'
loop_
 _atom_site_type_symbol
 _atom_site_label
 _atom_site_symmetry_multiplicity
 _atom_site_fract_x
 _atom_site_fract_y
 _atom_site_fract_z
 _atom_site_occupancy
  Ho  Ho0  1  0.000036  0.000013  0.000000  1
  Ti  Ti1  1  0.627438  0.000111  0.000000  1
  Ti  Ti2  1  0.998767  0.627616  0.000000  1
  Ti  Ti3  1  0.999884  0.999833  0.628199  1
  Ti  Ti4  1  0.371685  0.371634  0.371801  1
  Re  Re5  1  0.000580  0.400934  0.681776  1
  Re  Re6  1  0.318804  0.719158  0.318224  1
  Re  Re7  1  0.318708  0.318276  0.719109  1
  Re  Re8  1  0.000162  0.681459  0.400482  1
  Re  Re9  1  0.681074  0.000244  0.400277  1
  Re  Re10  1  0.599599  0.599167  0.280891  1
  Re  Re11  1  0.280798  0.599968  0.599723  1
  Re  Re12  1  0.599680  0.280977  0.599518  1
  Re  Re13  1  0.378591  0.195397  0.000000  1
  Re  Re14  1  0.182825  0.805035  0.805012  1
  Re  Re15  1  0.377813  0.000023  0.194988  1
  Re  Re16  1  0.195208  0.378657  0.000000  1
  Re  Re17  1  0.000061  0.378193  0.194461  1
  Re  Re18  1  0.805600  0.183732  0.805539  1
  Re  Re19  1  0.805612  0.805702  0.184045  1
  Re  Re20  1  0.000268  0.194539  0.378312  1
  Re  Re21  1  0.194806  0.999905  0.378824  1
  Re  Re22  1  0.621567  0.621657  0.815955  1
  Re  Re23  1  0.815983  0.621081  0.621176  1
  Re  Re24  1  0.621956  0.816227  0.621688  1
  Tc  Tc25  1  0.400947  0.681796  0.000000  1
  Tc  Tc26  1  0.718969  0.318055  0.317776  1
  Tc  Tc27  1  0.401192  0.000279  0.682224  1
  Tc  Tc28  1  0.681385  0.400332  0.000000  1
