# generated using pymatgen
data_Dy13Er3Cd4(CoNi)2
_symmetry_space_group_name_H-M   'P 1'
_cell_length_a   9.50242330
_cell_length_b   9.49353238
_cell_length_c   9.49036123
_cell_angle_alpha   59.92179883
_cell_angle_beta   59.96450091
_cell_angle_gamma   59.95784638
_symmetry_Int_Tables_number   1
_chemical_formula_structural   Dy13Er3Cd4(CoNi)2
_chemical_formula_sum   'Dy13 Er3 Cd4 Co2 Ni2'
_cell_volume   604.66914140
_cell_formula_units_Z   1
loop_
 _symmetry_equiv_pos_site_id
 _symmetry_equiv_pos_as_xyz
  1  'x, y, z'
loop_
 _atom_site_type_symbol
 _atom_site_label
 _atom_site_symmetry_multiplicity
 _atom_site_fract_x
 _atom_site_fract_y
 _atom_site_fract_z
 _atom_site_occupancy
  Dy  Dy0  1  0.937728  0.562027  0.562205  1
  Dy  Dy1  1  0.542636  0.153920  0.152922  1
  Dy  Dy2  1  0.151399  0.154821  0.541532  1
  Dy  Dy3  1  0.935234  0.938930  0.562775  1
  Dy  Dy4  1  0.310840  0.685034  0.312055  1
  Dy  Dy5  1  0.563651  0.936641  0.936266  1
  Dy  Dy6  1  0.563142  0.938787  0.562512  1
  Dy  Dy7  1  0.692165  0.684394  0.312585  1
  Dy  Dy8  1  0.563210  0.562295  0.938700  1
  Dy  Dy9  1  0.935538  0.562428  0.938846  1
  Dy  Dy10  1  0.311619  0.688251  0.688882  1
  Dy  Dy11  1  0.150247  0.153958  0.153558  1
  Dy  Dy12  1  0.311484  0.312200  0.685090  1
  Er  Er13  1  0.152122  0.540927  0.154596  1
  Er  Er14  1  0.691629  0.312158  0.685104  1
  Er  Er15  1  0.688655  0.311379  0.312004  1
  Cd  Cd16  1  0.918447  0.243583  0.919275  1
  Cd  Cd17  1  0.918902  0.920034  0.920088  1
  Cd  Cd18  1  0.918711  0.919158  0.243511  1
  Cd  Cd19  1  0.240928  0.919869  0.920209  1
  Co  Co20  1  0.925454  0.357997  0.357365  1
  Co  Co21  1  0.359004  0.358008  0.357138  1
  Ni  Ni22  1  0.358644  0.358564  0.924608  1
  Ni  Ni23  1  0.358612  0.924633  0.358170  1
