# generated using pymatgen
data_Lu3SnSb2Ir3
_symmetry_space_group_name_H-M   'P 1'
_cell_length_a   7.38479400
_cell_length_b   7.41646313
_cell_length_c   3.90912900
_cell_angle_alpha   90.00000000
_cell_angle_beta   90.00000000
_cell_angle_gamma   119.85885499
_symmetry_Int_Tables_number   1
_chemical_formula_structural   Lu3SnSb2Ir3
_chemical_formula_sum   'Lu3 Sn1 Sb2 Ir3'
_cell_volume   185.67857300
_cell_formula_units_Z   1
loop_
 _symmetry_equiv_pos_site_id
 _symmetry_equiv_pos_as_xyz
  1  'x, y, z'
loop_
 _atom_site_type_symbol
 _atom_site_label
 _atom_site_symmetry_multiplicity
 _atom_site_fract_x
 _atom_site_fract_y
 _atom_site_fract_z
 _atom_site_occupancy
  Lu  Lu0  1  0.998043  0.397293  0.500000  1
  Lu  Lu1  1  0.600750  0.602707  0.500000  1
  Lu  Lu2  1  0.402643  0.000000  0.500000  1
  Sn  Sn3  1  0.733886  0.000000  0.000000  1
  Sb  Sb4  1  0.997913  0.734133  0.000000  1
  Sb  Sb5  1  0.263781  0.265867  0.000000  1
  Ir  Ir6  1  0.330936  0.664044  0.000000  1
  Ir  Ir7  1  0.666894  0.335956  0.000000  1
  Ir  Ir8  1  0.005154  0.000000  0.500000  1
