# generated using pymatgen
data_Sc5Co11(P3Ru2)4
_symmetry_space_group_name_H-M   'P 1'
_cell_length_a   12.06043617
_cell_length_b   12.06779706
_cell_length_c   3.67413900
_cell_angle_alpha   90.00000000
_cell_angle_beta   90.00000000
_cell_angle_gamma   119.79071733
_symmetry_Int_Tables_number   1
_chemical_formula_structural   Sc5Co11(P3Ru2)4
_chemical_formula_sum   'Sc5 Co11 P12 Ru8'
_cell_volume   464.07614015
_cell_formula_units_Z   1
loop_
 _symmetry_equiv_pos_site_id
 _symmetry_equiv_pos_as_xyz
  1  'x, y, z'
loop_
 _atom_site_type_symbol
 _atom_site_label
 _atom_site_symmetry_multiplicity
 _atom_site_fract_x
 _atom_site_fract_y
 _atom_site_fract_z
 _atom_site_occupancy
  Sc  Sc0  1  0.666505  0.332868  0.000000  1
  Sc  Sc1  1  0.328098  0.662640  0.000000  1
  Sc  Sc2  1  0.821779  0.821203  0.500000  1
  Sc  Sc3  1  0.177763  0.000199  0.500000  1
  Sc  Sc4  1  0.000029  0.178540  0.500000  1
  Co  Co5  1  0.129599  0.481237  0.500000  1
  Co  Co6  1  0.806906  0.172567  0.000000  1
  Co  Co7  1  0.829417  0.632778  0.000000  1
  Co  Co8  1  0.364432  0.194252  0.000000  1
  Co  Co9  1  0.172462  0.805676  0.000000  1
  Co  Co10  1  0.634369  0.827614  0.000000  1
  Co  Co11  1  0.192621  0.370471  0.000000  1
  Co  Co12  1  0.276967  0.280552  0.500000  1
  Co  Co13  1  0.721469  0.000390  0.500000  1
  Co  Co14  1  0.001099  0.719599  0.500000  1
  Co  Co15  1  0.000646  0.999910  0.000000  1
  P  P16  1  0.685180  0.162818  0.500000  1
  P  P17  1  0.840182  0.522091  0.500000  1
  P  P18  1  0.476679  0.317635  0.500000  1
  P  P19  1  0.161072  0.678843  0.500000  1
  P  P20  1  0.522105  0.839245  0.500000  1
  P  P21  1  0.310542  0.478513  0.500000  1
  P  P22  1  0.173263  0.175668  0.000000  1
  P  P23  1  0.825950  0.999613  0.000000  1
  P  P24  1  0.000266  0.825050  0.000000  1
  P  P25  1  0.642025  0.642418  0.000000  1
  P  P26  1  0.356743  0.999874  0.000000  1
  P  P27  1  0.003282  0.358053  0.000000  1
  Ru  Ru28  1  0.875446  0.352833  0.500000  1
  Ru  Ru29  1  0.649237  0.519129  0.500000  1
  Ru  Ru30  1  0.481577  0.131148  0.500000  1
  Ru  Ru31  1  0.350168  0.868355  0.500000  1
  Ru  Ru32  1  0.514564  0.647443  0.500000  1
  Ru  Ru33  1  0.443680  0.444822  0.000000  1
  Ru  Ru34  1  0.555536  0.000291  0.000000  1
  Ru  Ru35  1  0.008340  0.555663  0.000000  1
