# generated using pymatgen
data_TbDy3Tm4(SiBr6)2
_symmetry_space_group_name_H-M   'P 1'
_cell_length_a   4.02579200
_cell_length_b   13.19702936
_cell_length_c   13.93369438
_cell_angle_alpha   90.02687846
_cell_angle_beta   90.00000000
_cell_angle_gamma   90.00000000
_symmetry_Int_Tables_number   1
_chemical_formula_structural   TbDy3Tm4(SiBr6)2
_chemical_formula_sum   'Tb1 Dy3 Tm4 Si2 Br12'
_cell_volume   740.27613417
_cell_formula_units_Z   1
loop_
 _symmetry_equiv_pos_site_id
 _symmetry_equiv_pos_as_xyz
  1  'x, y, z'
loop_
 _atom_site_type_symbol
 _atom_site_label
 _atom_site_symmetry_multiplicity
 _atom_site_fract_x
 _atom_site_fract_y
 _atom_site_fract_z
 _atom_site_occupancy
  Tb  Tb0  1  0.000000  0.381509  0.079069  1
  Dy  Dy1  1  0.000000  0.118322  0.578927  1
  Dy  Dy2  1  0.000000  0.881688  0.421053  1
  Dy  Dy3  1  0.000000  0.618662  0.920834  1
  Tm  Tm4  1  0.500000  0.117170  0.342407  1
  Tm  Tm5  1  0.500000  0.882798  0.657608  1
  Tm  Tm6  1  0.500000  0.617308  0.157644  1
  Tm  Tm7  1  0.500000  0.382810  0.842264  1
  Si  Si8  1  0.500000  0.999985  0.500026  1
  Si  Si9  1  0.500000  0.500457  0.999671  1
  Br  Br10  1  0.500000  0.241667  0.165775  1
  Br  Br11  1  0.500000  0.757177  0.834943  1
  Br  Br12  1  0.500000  0.743144  0.335169  1
  Br  Br13  1  0.500000  0.256922  0.664775  1
  Br  Br14  1  0.000000  0.253878  0.409137  1
  Br  Br15  1  0.000000  0.746114  0.590888  1
  Br  Br16  1  0.000000  0.753978  0.090989  1
  Br  Br17  1  0.000000  0.245831  0.908340  1
  Br  Br18  1  0.000000  0.004847  0.243084  1
  Br  Br19  1  0.000000  0.995073  0.756934  1
  Br  Br20  1  0.000000  0.505661  0.257552  1
  Br  Br21  1  0.000000  0.495000  0.742909  1
