# generated using pymatgen
data_LaDyLu2(NiP)4
_symmetry_space_group_name_H-M   'P 1'
_cell_length_a   3.90008500
_cell_length_b   3.90008602
_cell_length_c   15.54134100
_cell_angle_alpha   90.00000000
_cell_angle_beta   90.00000000
_cell_angle_gamma   120.00001678
_symmetry_Int_Tables_number   1
_chemical_formula_structural   LaDyLu2(NiP)4
_chemical_formula_sum   'La1 Dy1 Lu2 Ni4 P4'
_cell_volume   204.72331543
_cell_formula_units_Z   1
loop_
 _symmetry_equiv_pos_site_id
 _symmetry_equiv_pos_as_xyz
  1  'x, y, z'
loop_
 _atom_site_type_symbol
 _atom_site_label
 _atom_site_symmetry_multiplicity
 _atom_site_fract_x
 _atom_site_fract_y
 _atom_site_fract_z
 _atom_site_occupancy
  La  La0  1  0.000000  0.000000  0.500000  1
  Dy  Dy1  1  0.000000  0.000000  0.000000  1
  Lu  Lu2  1  0.000000  0.000000  0.243127  1
  Lu  Lu3  1  0.000000  0.000000  0.756873  1
  Ni  Ni4  1  0.333333  0.666667  0.355741  1
  Ni  Ni5  1  0.666667  0.333333  0.644259  1
  Ni  Ni6  1  0.666667  0.333333  0.868384  1
  Ni  Ni7  1  0.333333  0.666667  0.131616  1
  P  P8  1  0.333333  0.666667  0.880090  1
  P  P9  1  0.666667  0.333333  0.119910  1
  P  P10  1  0.666667  0.333333  0.365654  1
  P  P11  1  0.333333  0.666667  0.634346  1
