# generated using pymatgen
data_Sm2Fe4P7Ru7Pt
_symmetry_space_group_name_H-M   'P 1'
_cell_length_a   9.34979035
_cell_length_b   9.30850661
_cell_length_c   3.85366500
_cell_angle_alpha   90.00000000
_cell_angle_beta   90.00000000
_cell_angle_gamma   120.48722588
_symmetry_Int_Tables_number   1
_chemical_formula_structural   Sm2Fe4P7Ru7Pt
_chemical_formula_sum   'Sm2 Fe4 P7 Ru7 Pt1'
_cell_volume   289.02356399
_cell_formula_units_Z   1
loop_
 _symmetry_equiv_pos_site_id
 _symmetry_equiv_pos_as_xyz
  1  'x, y, z'
loop_
 _atom_site_type_symbol
 _atom_site_label
 _atom_site_symmetry_multiplicity
 _atom_site_fract_x
 _atom_site_fract_y
 _atom_site_fract_z
 _atom_site_occupancy
  Sm  Sm0  1  0.332413  0.666567  0.000000  1
  Sm  Sm1  1  0.671858  0.337334  0.500000  1
  Fe  Fe2  1  0.942367  0.580192  0.000000  1
  Fe  Fe3  1  0.150216  0.884591  0.000000  1
  Fe  Fe4  1  0.111113  0.272094  0.000000  1
  Fe  Fe5  1  0.731498  0.841225  0.000000  1
  P  P6  1  0.409036  0.095080  0.000000  1
  P  P7  1  0.893933  0.311546  0.000000  1
  P  P8  1  0.716187  0.599477  0.000000  1
  P  P9  1  0.109044  0.714650  0.500000  1
  P  P10  1  0.271011  0.398931  0.500000  1
  P  P11  1  0.603519  0.883793  0.500000  1
  P  P12  1  0.999709  0.002176  0.000000  1
  Ru  Ru13  1  0.641020  0.062436  0.000000  1
  Ru  Ru14  1  0.382854  0.945875  0.500000  1
  Ru  Ru15  1  0.045427  0.438612  0.500000  1
  Ru  Ru16  1  0.560998  0.610080  0.500000  1
  Ru  Ru17  1  0.208422  0.121758  0.500000  1
  Ru  Ru18  1  0.882541  0.086660  0.500000  1
  Ru  Ru19  1  0.908199  0.788602  0.500000  1
  Pt  Pt20  1  0.428628  0.358323  0.000000  1
