# generated using pymatgen
data_Tb16Zr4(IrRh3)3
_symmetry_space_group_name_H-M   'P 1'
_cell_length_a   10.89477486
_cell_length_b   10.89477486
_cell_length_c   6.26693687
_cell_angle_alpha   90.04276930
_cell_angle_beta   90.04276930
_cell_angle_gamma   89.98467775
_symmetry_Int_Tables_number   1
_chemical_formula_structural   Tb16Zr4(IrRh3)3
_chemical_formula_sum   'Tb16 Zr4 Ir3 Rh9'
_cell_volume   743.86064488
_cell_formula_units_Z   1
loop_
 _symmetry_equiv_pos_site_id
 _symmetry_equiv_pos_as_xyz
  1  'x, y, z'
loop_
 _atom_site_type_symbol
 _atom_site_label
 _atom_site_symmetry_multiplicity
 _atom_site_fract_x
 _atom_site_fract_y
 _atom_site_fract_z
 _atom_site_occupancy
  Tb  Tb0  1  0.289332  0.088703  0.374234  1
  Tb  Tb1  1  0.289448  0.911034  0.874197  1
  Tb  Tb2  1  0.711038  0.087130  0.874622  1
  Tb  Tb3  1  0.710565  0.911106  0.374220  1
  Tb  Tb4  1  0.585818  0.788107  0.875792  1
  Tb  Tb5  1  0.585712  0.211275  0.374982  1
  Tb  Tb6  1  0.414002  0.788424  0.375087  1
  Tb  Tb7  1  0.412551  0.211292  0.875899  1
  Tb  Tb8  1  0.211893  0.414182  0.624208  1
  Tb  Tb9  1  0.211576  0.585998  0.124913  1
  Tb  Tb10  1  0.788725  0.414288  0.125018  1
  Tb  Tb11  1  0.788708  0.587449  0.624101  1
  Tb  Tb12  1  0.911297  0.710668  0.125766  1
  Tb  Tb13  1  0.912870  0.288962  0.625378  1
  Tb  Tb14  1  0.088966  0.710552  0.625803  1
  Tb  Tb15  1  0.088894  0.289435  0.125780  1
  Zr  Zr16  1  0.000050  0.000035  0.499739  1
  Zr  Zr17  1  0.999965  0.999950  0.000261  1
  Zr  Zr18  1  0.499656  0.500319  0.999608  1
  Zr  Zr19  1  0.499681  0.500344  0.500392  1
  Ir  Ir20  1  0.645893  0.645001  0.250331  1
  Ir  Ir21  1  0.354999  0.354107  0.249669  1
  Ir  Ir22  1  0.353988  0.646012  0.750000  1
  Rh  Rh23  1  0.854998  0.145002  0.250000  1
  Rh  Rh24  1  0.855137  0.855485  0.750155  1
  Rh  Rh25  1  0.144515  0.144863  0.749845  1
  Rh  Rh26  1  0.144442  0.855558  0.250000  1
  Rh  Rh27  1  0.645862  0.354138  0.750000  1
  Rh  Rh28  1  0.500295  0.000421  0.119227  1
  Rh  Rh29  1  0.500320  0.000778  0.619799  1
  Rh  Rh30  1  0.999222  0.499680  0.880201  1
  Rh  Rh31  1  0.999579  0.499705  0.380773  1
