# generated using pymatgen
data_SrMn3F10
_symmetry_space_group_name_H-M   'P 1'
_cell_length_a   10.53570517
_cell_length_b   9.12869214
_cell_length_c   7.67766893
_cell_angle_alpha   77.10643959
_cell_angle_beta   57.62977802
_cell_angle_gamma   45.26377097
_symmetry_Int_Tables_number   1
_chemical_formula_structural   SrMn3F10
_chemical_formula_sum   'Sr2 Mn6 F20'
_cell_volume   428.24582957
_cell_formula_units_Z   2
loop_
 _symmetry_equiv_pos_site_id
 _symmetry_equiv_pos_as_xyz
  1  'x, y, z'
loop_
 _atom_site_type_symbol
 _atom_site_label
 _atom_site_symmetry_multiplicity
 _atom_site_fract_x
 _atom_site_fract_y
 _atom_site_fract_z
 _atom_site_occupancy
  Sr  Sr0  1  0.004962  0.995038  0.995038  1
  Sr  Sr1  1  0.254962  0.245038  0.245038  1
  Mn  Mn2  1  0.505049  0.494951  0.494951  1
  Mn  Mn3  1  0.755049  0.744951  0.744951  1
  Mn  Mn4  1  0.263444  0.249654  0.736453  1
  Mn  Mn5  1  0.750448  0.736453  0.249654  1
  Mn  Mn6  1  0.513547  0.499552  0.986556  1
  Mn  Mn7  1  0.000346  0.986556  0.499552  1
  F  F8  1  0.156603  0.131004  0.840968  1
  F  F9  1  0.871425  0.840968  0.131004  1
  F  F10  1  0.409032  0.378575  0.093397  1
  F  F11  1  0.118996  0.093397  0.378575  1
  F  F12  1  0.812511  0.194194  0.792116  1
  F  F13  1  0.201178  0.792116  0.194194  1
  F  F14  1  0.457884  0.048822  0.437489  1
  F  F15  1  0.055806  0.437489  0.048822  1
  F  F16  1  0.851983  0.637964  0.443922  1
  F  F17  1  0.066131  0.443922  0.637964  1
  F  F18  1  0.806078  0.183869  0.398017  1
  F  F19  1  0.612036  0.398017  0.183869  1
  F  F20  1  0.631948  0.627507  0.366901  1
  F  F21  1  0.373644  0.366901  0.627507  1
  F  F22  1  0.883099  0.876356  0.618052  1
  F  F23  1  0.622493  0.618052  0.876356  1
  F  F24  1  0.454670  0.055504  0.841022  1
  F  F25  1  0.648804  0.841022  0.055504  1
  F  F26  1  0.408978  0.601196  0.795330  1
  F  F27  1  0.194496  0.795330  0.601196  1
