# generated using pymatgen
data_TaHg2SbO7
_symmetry_space_group_name_H-M   'P 1'
_cell_length_a   7.48046990
_cell_length_b   7.48046916
_cell_length_c   7.44377200
_cell_angle_alpha   60.16214798
_cell_angle_beta   60.16215122
_cell_angle_gamma   60.32952857
_symmetry_Int_Tables_number   1
_chemical_formula_structural   TaHg2SbO7
_chemical_formula_sum   'Ta2 Hg4 Sb2 O14'
_cell_volume   295.98592954
_cell_formula_units_Z   2
loop_
 _symmetry_equiv_pos_site_id
 _symmetry_equiv_pos_as_xyz
  1  'x, y, z'
loop_
 _atom_site_type_symbol
 _atom_site_label
 _atom_site_symmetry_multiplicity
 _atom_site_fract_x
 _atom_site_fract_y
 _atom_site_fract_z
 _atom_site_occupancy
  Ta  Ta0  1  0.125000  0.625000  0.125000  1
  Ta  Ta1  1  0.625000  0.125000  0.125000  1
  Hg  Hg2  1  0.625000  0.625000  0.625000  1
  Hg  Hg3  1  0.625000  0.125000  0.625000  1
  Hg  Hg4  1  0.625000  0.625000  0.125000  1
  Hg  Hg5  1  0.125000  0.625000  0.625000  1
  Sb  Sb6  1  0.125000  0.125000  0.125000  1
  Sb  Sb7  1  0.125000  0.125000  0.625000  1
  O  O8  1  0.814967  0.814967  0.185033  1
  O  O9  1  0.809966  0.190962  0.808426  1
  O  O10  1  0.050538  0.050538  0.449462  1
  O  O11  1  0.809966  0.190962  0.190646  1
  O  O12  1  0.435033  0.435033  0.064967  1
  O  O13  1  0.059038  0.440034  0.059354  1
  O  O14  1  0.190962  0.809966  0.808426  1
  O  O15  1  0.440034  0.059038  0.441574  1
  O  O16  1  0.504010  0.504010  0.495990  1
  O  O17  1  0.190962  0.809966  0.190646  1
  O  O18  1  0.199462  0.199462  0.800538  1
  O  O19  1  0.745990  0.745990  0.754010  1
  O  O20  1  0.440034  0.059038  0.059354  1
  O  O21  1  0.059038  0.440034  0.441574  1
