# generated using pymatgen
data_Ca2Al16MoPt8
_symmetry_space_group_name_H-M   'P 1'
_cell_length_a   11.23832428
_cell_length_b   11.23832438
_cell_length_c   11.23832500
_cell_angle_alpha   158.83131571
_cell_angle_beta   117.08306429
_cell_angle_gamma   67.18213092
_symmetry_Int_Tables_number   1
_chemical_formula_structural   Ca2Al16MoPt8
_chemical_formula_sum   'Ca2 Al16 Mo1 Pt8'
_cell_volume   453.37013194
_cell_formula_units_Z   1
loop_
 _symmetry_equiv_pos_site_id
 _symmetry_equiv_pos_as_xyz
  1  'x, y, z'
loop_
 _atom_site_type_symbol
 _atom_site_label
 _atom_site_symmetry_multiplicity
 _atom_site_fract_x
 _atom_site_fract_y
 _atom_site_fract_z
 _atom_site_occupancy
  Ca  Ca0  1  0.231890  0.231920  0.999971  1
  Ca  Ca1  1  0.768051  0.768080  0.999971  1
  Al  Al2  1  0.275081  0.392265  0.882816  1
  Al  Al3  1  0.087975  0.924718  0.163256  1
  Al  Al4  1  0.501645  0.200418  0.301228  1
  Al  Al5  1  0.238539  0.075282  0.163256  1
  Al  Al6  1  0.909220  0.416598  0.492622  1
  Al  Al7  1  0.725100  0.599311  0.125788  1
  Al  Al8  1  0.904738  0.211062  0.693675  1
  Al  Al9  1  0.482615  0.788938  0.693675  1
  Al  Al10  1  0.388564  0.000000  0.388564  1
  Al  Al11  1  0.629276  0.000000  0.629276  1
  Al  Al12  1  0.490552  0.607735  0.882816  1
  Al  Al13  1  0.100810  0.799582  0.301228  1
  Al  Al14  1  0.912970  0.089945  0.823026  1
  Al  Al15  1  0.733080  0.910055  0.823026  1
  Al  Al16  1  0.526476  0.400689  0.125788  1
  Al  Al17  1  0.076025  0.583402  0.492622  1
  Mo  Mo18  1  0.788494  0.500000  0.288494  1
  Pt  Pt19  1  0.025647  0.344862  0.680784  1
  Pt  Pt20  1  0.627992  0.125233  0.502758  1
  Pt  Pt21  1  0.255179  0.500000  0.755179  1
  Pt  Pt22  1  0.377525  0.874767  0.502758  1
  Pt  Pt23  1  0.983197  0.000000  0.983197  1
  Pt  Pt24  1  0.645272  0.333551  0.311720  1
  Pt  Pt25  1  0.335922  0.655138  0.680784  1
  Pt  Pt26  1  0.978168  0.666449  0.311720  1
