# generated using pymatgen
data_SmZr(NiAs)3
_symmetry_space_group_name_H-M   'P 1'
_cell_length_a   3.93365900
_cell_length_b   10.63809500
_cell_length_c   12.76496400
_cell_angle_alpha   90.00000000
_cell_angle_beta   90.00000000
_cell_angle_gamma   90.00000000
_symmetry_Int_Tables_number   1
_chemical_formula_structural   SmZr(NiAs)3
_chemical_formula_sum   'Sm4 Zr4 Ni12 As12'
_cell_volume   534.17082937
_cell_formula_units_Z   4
loop_
 _symmetry_equiv_pos_site_id
 _symmetry_equiv_pos_as_xyz
  1  'x, y, z'
loop_
 _atom_site_type_symbol
 _atom_site_label
 _atom_site_symmetry_multiplicity
 _atom_site_fract_x
 _atom_site_fract_y
 _atom_site_fract_z
 _atom_site_occupancy
  Sm  Sm0  1  0.250000  0.070844  0.206109  1
  Sm  Sm1  1  0.750000  0.929156  0.793891  1
  Sm  Sm2  1  0.750000  0.570844  0.293891  1
  Sm  Sm3  1  0.250000  0.429156  0.706109  1
  Zr  Zr4  1  0.250000  0.161130  0.497236  1
  Zr  Zr5  1  0.750000  0.838870  0.502764  1
  Zr  Zr6  1  0.750000  0.661130  0.002764  1
  Zr  Zr7  1  0.250000  0.338870  0.997236  1
  Ni  Ni8  1  0.250000  0.726795  0.663979  1
  Ni  Ni9  1  0.750000  0.273205  0.336021  1
  Ni  Ni10  1  0.750000  0.226795  0.836021  1
  Ni  Ni11  1  0.250000  0.773205  0.163979  1
  Ni  Ni12  1  0.250000  0.363607  0.219846  1
  Ni  Ni13  1  0.750000  0.636393  0.780154  1
  Ni  Ni14  1  0.750000  0.863607  0.280154  1
  Ni  Ni15  1  0.250000  0.136393  0.719846  1
  Ni  Ni16  1  0.250000  0.603026  0.483280  1
  Ni  Ni17  1  0.750000  0.396974  0.516720  1
  Ni  Ni18  1  0.750000  0.103026  0.016720  1
  Ni  Ni19  1  0.250000  0.896974  0.983280  1
  As  As20  1  0.250000  0.945192  0.621120  1
  As  As21  1  0.750000  0.054808  0.378880  1
  As  As22  1  0.750000  0.445192  0.878880  1
  As  As23  1  0.250000  0.554808  0.121120  1
  As  As24  1  0.250000  0.395428  0.404704  1
  As  As25  1  0.750000  0.604572  0.595296  1
  As  As26  1  0.750000  0.895428  0.095296  1
  As  As27  1  0.250000  0.104572  0.904704  1
  As  As28  1  0.250000  0.772992  0.355210  1
  As  As29  1  0.750000  0.227008  0.644790  1
  As  As30  1  0.750000  0.272992  0.144790  1
  As  As31  1  0.250000  0.727008  0.855210  1
