# generated using pymatgen
data_TbTm5Hf2(Co4P3)4
_symmetry_space_group_name_H-M   'P 1'
_cell_length_a   3.70636100
_cell_length_b   10.65532100
_cell_length_c   12.34754800
_cell_angle_alpha   90.00000000
_cell_angle_beta   90.00000000
_cell_angle_gamma   90.00000000
_symmetry_Int_Tables_number   1
_chemical_formula_structural   TbTm5Hf2(Co4P3)4
_chemical_formula_sum   'Tb1 Tm5 Hf2 Co16 P12'
_cell_volume   487.63512200
_cell_formula_units_Z   1
loop_
 _symmetry_equiv_pos_site_id
 _symmetry_equiv_pos_as_xyz
  1  'x, y, z'
loop_
 _atom_site_type_symbol
 _atom_site_label
 _atom_site_symmetry_multiplicity
 _atom_site_fract_x
 _atom_site_fract_y
 _atom_site_fract_z
 _atom_site_occupancy
  Tb  Tb0  1  0.000000  0.500000  0.529481  1
  Tm  Tm1  1  0.500000  0.000000  0.470759  1
  Tm  Tm2  1  0.500000  0.822407  0.204480  1
  Tm  Tm3  1  0.500000  0.177593  0.204480  1
  Tm  Tm4  1  0.000000  0.677871  0.795822  1
  Tm  Tm5  1  0.000000  0.322129  0.795822  1
  Hf  Hf6  1  0.500000  0.500000  0.157310  1
  Hf  Hf7  1  0.000000  0.000000  0.841839  1
  Co  Co8  1  0.500000  0.500000  0.704569  1
  Co  Co9  1  0.000000  0.000000  0.296813  1
  Co  Co10  1  0.000000  0.500000  0.986819  1
  Co  Co11  1  0.500000  0.000000  0.013276  1
  Co  Co12  1  0.500000  0.331828  0.993382  1
  Co  Co13  1  0.500000  0.668172  0.993382  1
  Co  Co14  1  0.000000  0.167928  0.006672  1
  Co  Co15  1  0.000000  0.832072  0.006672  1
  Co  Co16  1  0.500000  0.294114  0.432851  1
  Co  Co17  1  0.500000  0.705886  0.432851  1
  Co  Co18  1  0.000000  0.203974  0.566840  1
  Co  Co19  1  0.000000  0.796026  0.566840  1
  Co  Co20  1  0.500000  0.877440  0.702936  1
  Co  Co21  1  0.500000  0.122560  0.702936  1
  Co  Co22  1  0.000000  0.623142  0.296719  1
  Co  Co23  1  0.000000  0.376858  0.296719  1
  P  P24  1  0.500000  0.500000  0.883274  1
  P  P25  1  0.000000  0.000000  0.117221  1
  P  P26  1  0.500000  0.500000  0.361869  1
  P  P27  1  0.000000  0.000000  0.636520  1
  P  P28  1  0.500000  0.309935  0.616665  1
  P  P29  1  0.500000  0.690065  0.616665  1
  P  P30  1  0.000000  0.188520  0.383744  1
  P  P31  1  0.000000  0.811480  0.383744  1
  P  P32  1  0.500000  0.837927  0.892111  1
  P  P33  1  0.500000  0.162073  0.892111  1
  P  P34  1  0.000000  0.662330  0.107904  1
  P  P35  1  0.000000  0.337670  0.107904  1
