# generated using pymatgen
data_P2I9Cl
_symmetry_space_group_name_H-M   'P 1'
_cell_length_a   6.49282200
_cell_length_b   9.58371900
_cell_length_c   19.10006900
_cell_angle_alpha   90.00000000
_cell_angle_beta   90.00000000
_cell_angle_gamma   90.00000000
_symmetry_Int_Tables_number   1
_chemical_formula_structural   P2I9Cl
_chemical_formula_sum   'P4 I18 Cl2'
_cell_volume   1188.50908144
_cell_formula_units_Z   2
loop_
 _symmetry_equiv_pos_site_id
 _symmetry_equiv_pos_as_xyz
  1  'x, y, z'
loop_
 _atom_site_type_symbol
 _atom_site_label
 _atom_site_symmetry_multiplicity
 _atom_site_fract_x
 _atom_site_fract_y
 _atom_site_fract_z
 _atom_site_occupancy
  P  P0  1  0.038432  0.750000  0.638048  1
  P  P1  1  0.038432  0.250000  0.861952  1
  P  P2  1  0.968568  0.250000  0.365780  1
  P  P3  1  0.968568  0.750000  0.134220  1
  I  I4  1  0.191246  0.750000  0.240229  1
  I  I5  1  0.191246  0.250000  0.259771  1
  I  I6  1  0.819081  0.250000  0.754832  1
  I  I7  1  0.819081  0.750000  0.745168  1
  I  I8  1  0.757442  0.964965  0.127867  1
  I  I9  1  0.757442  0.035035  0.372133  1
  I  I10  1  0.250260  0.466995  0.869600  1
  I  I11  1  0.250260  0.533005  0.630400  1
  I  I12  1  0.250260  0.033005  0.869600  1
  I  I13  1  0.250260  0.966995  0.630400  1
  I  I14  1  0.757442  0.535035  0.127867  1
  I  I15  1  0.757442  0.464965  0.372133  1
  I  I16  1  0.477988  0.750000  0.383809  1
  I  I17  1  0.477988  0.250000  0.116191  1
  I  I18  1  0.523702  0.250000  0.613289  1
  I  I19  1  0.523702  0.750000  0.886711  1
  I  I20  1  0.807914  0.750000  0.536172  1
  I  I21  1  0.807914  0.250000  0.963828  1
  Cl  Cl22  1  0.157667  0.250000  0.450684  1
  Cl  Cl23  1  0.157667  0.750000  0.049316  1
