# generated using pymatgen
data_Hf4TiGaBi2
_symmetry_space_group_name_H-M   'P 1'
_cell_length_a   5.45526139
_cell_length_b   8.33466039
_cell_length_c   8.33466064
_cell_angle_alpha   83.85175419
_cell_angle_beta   70.89724367
_cell_angle_gamma   70.89724240
_symmetry_Int_Tables_number   1
_chemical_formula_structural   Hf4TiGaBi2
_chemical_formula_sum   'Hf8 Ti2 Ga2 Bi4'
_cell_volume   338.37134668
_cell_formula_units_Z   2
loop_
 _symmetry_equiv_pos_site_id
 _symmetry_equiv_pos_as_xyz
  1  'x, y, z'
loop_
 _atom_site_type_symbol
 _atom_site_label
 _atom_site_symmetry_multiplicity
 _atom_site_fract_x
 _atom_site_fract_y
 _atom_site_fract_z
 _atom_site_occupancy
  Hf  Hf0  1  0.710373  0.866048  0.713206  1
  Hf  Hf1  1  0.289627  0.133952  0.286794  1
  Hf  Hf2  1  0.789627  0.286794  0.133952  1
  Hf  Hf3  1  0.210373  0.713206  0.866048  1
  Hf  Hf4  1  0.576420  0.713206  0.133952  1
  Hf  Hf5  1  0.423580  0.286794  0.866048  1
  Hf  Hf6  1  0.076420  0.133952  0.713206  1
  Hf  Hf7  1  0.923580  0.866048  0.286794  1
  Ti  Ti8  1  0.750000  0.500000  0.500000  1
  Ti  Ti9  1  0.250000  0.500000  0.500000  1
  Ga  Ga10  1  0.250000  0.000000  0.000000  1
  Ga  Ga11  1  0.750000  0.000000  0.000000  1
  Bi  Bi12  1  0.159219  0.500000  0.181563  1
  Bi  Bi13  1  0.840781  0.500000  0.818437  1
  Bi  Bi14  1  0.340781  0.818437  0.500000  1
  Bi  Bi15  1  0.659219  0.181563  0.500000  1
