# generated using pymatgen
data_Ti3Mn2CrAs2P
_symmetry_space_group_name_H-M   'P 1'
_cell_length_a   6.44443637
_cell_length_b   6.48138506
_cell_length_c   3.34760200
_cell_angle_alpha   90.00000000
_cell_angle_beta   90.00000000
_cell_angle_gamma   120.18981970
_symmetry_Int_Tables_number   1
_chemical_formula_structural   Ti3Mn2CrAs2P
_chemical_formula_sum   'Ti3 Mn2 Cr1 As2 P1'
_cell_volume   120.86020765
_cell_formula_units_Z   1
loop_
 _symmetry_equiv_pos_site_id
 _symmetry_equiv_pos_as_xyz
  1  'x, y, z'
loop_
 _atom_site_type_symbol
 _atom_site_label
 _atom_site_symmetry_multiplicity
 _atom_site_fract_x
 _atom_site_fract_y
 _atom_site_fract_z
 _atom_site_occupancy
  Ti  Ti0  1  0.393575  0.397016  0.500000  1
  Ti  Ti1  1  0.606425  0.003441  0.500000  1
  Ti  Ti2  1  0.000000  0.601169  0.500000  1
  Mn  Mn3  1  0.757252  0.756356  0.000000  1
  Mn  Mn4  1  0.242748  0.999104  0.000000  1
  Cr  Cr5  1  0.000000  0.244041  0.000000  1
  As  As6  1  0.663935  0.334594  0.000000  1
  As  As7  1  0.336065  0.670661  0.000000  1
  P  P8  1  0.000000  0.993618  0.500000  1
