# generated using pymatgen
data_Tb16Dy4Sn11Sb5
_symmetry_space_group_name_H-M   'P 1'
_cell_length_a   8.14913925
_cell_length_b   8.18500749
_cell_length_c   15.46503600
_cell_angle_alpha   90.14417398
_cell_angle_beta   90.18231153
_cell_angle_gamma   89.84815092
_symmetry_Int_Tables_number   1
_chemical_formula_structural   Tb16Dy4Sn11Sb5
_chemical_formula_sum   'Tb16 Dy4 Sn11 Sb5'
_cell_volume   1031.51765565
_cell_formula_units_Z   1
loop_
 _symmetry_equiv_pos_site_id
 _symmetry_equiv_pos_as_xyz
  1  'x, y, z'
loop_
 _atom_site_type_symbol
 _atom_site_label
 _atom_site_symmetry_multiplicity
 _atom_site_fract_x
 _atom_site_fract_y
 _atom_site_fract_z
 _atom_site_occupancy
  Tb  Tb0  1  0.379536  0.839255  0.879732  1
  Tb  Tb1  1  0.878442  0.660838  0.621492  1
  Tb  Tb2  1  0.622084  0.159815  0.378625  1
  Tb  Tb3  1  0.120472  0.338825  0.121225  1
  Tb  Tb4  1  0.621485  0.161245  0.120570  1
  Tb  Tb5  1  0.122736  0.337958  0.378751  1
  Tb  Tb6  1  0.376127  0.838960  0.621604  1
  Tb  Tb7  1  0.878314  0.660969  0.878706  1
  Tb  Tb8  1  0.543874  0.331284  0.894812  1
  Tb  Tb9  1  0.042189  0.172634  0.604332  1
  Tb  Tb10  1  0.457924  0.673011  0.395663  1
  Tb  Tb11  1  0.958182  0.825309  0.104738  1
  Tb  Tb12  1  0.462419  0.669413  0.104563  1
  Tb  Tb13  1  0.968177  0.824423  0.398198  1
  Tb  Tb14  1  0.531575  0.324558  0.601943  1
  Tb  Tb15  1  0.036560  0.178058  0.896961  1
  Dy  Dy16  1  0.208132  0.501013  0.747585  1
  Dy  Dy17  1  0.708242  0.000411  0.749556  1
  Dy  Dy18  1  0.791821  0.498954  0.248917  1
  Dy  Dy19  1  0.292141  0.999897  0.252187  1
  Sn  Sn20  1  0.218093  0.531690  0.543383  1
  Sn  Sn21  1  0.282167  0.030980  0.456720  1
  Sn  Sn22  1  0.780085  0.470097  0.043244  1
  Sn  Sn23  1  0.573842  0.624340  0.749889  1
  Sn  Sn24  1  0.074086  0.877483  0.751738  1
  Sn  Sn25  1  0.425787  0.375488  0.249569  1
  Sn  Sn26  1  0.925839  0.122578  0.249812  1
  Sn  Sn27  1  0.343977  0.146108  0.751619  1
  Sn  Sn28  1  0.843401  0.354445  0.749271  1
  Sn  Sn29  1  0.656974  0.853711  0.250092  1
  Sn  Sn30  1  0.156138  0.645026  0.249503  1
  Sb  Sb31  1  0.275119  0.024536  0.045596  1
  Sb  Sb32  1  0.777123  0.472222  0.455292  1
  Sb  Sb33  1  0.722159  0.972719  0.544859  1
  Sb  Sb34  1  0.222283  0.527272  0.954960  1
  Sb  Sb35  1  0.722495  0.974475  0.954290  1
