# generated using pymatgen
data_Rb4Na2YInP4
_symmetry_space_group_name_H-M   'P 1'
_cell_length_a   9.26405228
_cell_length_b   9.26405248
_cell_length_c   9.26405218
_cell_angle_alpha   136.06427821
_cell_angle_beta   62.98325925
_cell_angle_gamma   137.23392808
_symmetry_Int_Tables_number   1
_chemical_formula_structural   Rb4Na2YInP4
_chemical_formula_sum   'Rb4 Na2 Y1 In1 P4'
_cell_volume   369.87723245
_cell_formula_units_Z   1
loop_
 _symmetry_equiv_pos_site_id
 _symmetry_equiv_pos_as_xyz
  1  'x, y, z'
loop_
 _atom_site_type_symbol
 _atom_site_label
 _atom_site_symmetry_multiplicity
 _atom_site_fract_x
 _atom_site_fract_y
 _atom_site_fract_z
 _atom_site_occupancy
  Rb  Rb0  1  0.329854  0.781596  0.092033  1
  Rb  Rb1  1  0.170146  0.262179  0.451743  1
  Rb  Rb2  1  0.810437  0.718403  0.548258  1
  Rb  Rb3  1  0.689563  0.237822  0.907968  1
  Na  Na4  1  0.750001  0.250001  0.500000  1
  Na  Na5  1  0.250001  0.750001  0.500000  1
  Y  Y6  1  0.250001  0.250001  0.000000  1
  In  In7  1  0.750000  0.750000  0.000000  1
  P  P8  1  0.899056  0.212364  0.123512  1
  P  P9  1  0.600943  0.724456  0.313307  1
  P  P10  1  0.411149  0.287636  0.686692  1
  P  P11  1  0.088851  0.775544  0.876488  1
