# generated using pymatgen
data_Tm3Fe5Co2(P3Ir)2
_symmetry_space_group_name_H-M   'P 1'
_cell_length_a   3.71670700
_cell_length_b   10.69756800
_cell_length_c   12.14780800
_cell_angle_alpha   90.00000000
_cell_angle_beta   90.00000000
_cell_angle_gamma   90.00000000
_symmetry_Int_Tables_number   1
_chemical_formula_structural   Tm3Fe5Co2(P3Ir)2
_chemical_formula_sum   'Tm6 Fe10 Co4 P12 Ir4'
_cell_volume   482.99351598
_cell_formula_units_Z   2
loop_
 _symmetry_equiv_pos_site_id
 _symmetry_equiv_pos_as_xyz
  1  'x, y, z'
loop_
 _atom_site_type_symbol
 _atom_site_label
 _atom_site_symmetry_multiplicity
 _atom_site_fract_x
 _atom_site_fract_y
 _atom_site_fract_z
 _atom_site_occupancy
  Tm  Tm0  1  0.000000  0.500000  0.521299  1
  Tm  Tm1  1  0.500000  0.000000  0.478701  1
  Tm  Tm2  1  0.500000  0.817691  0.203132  1
  Tm  Tm3  1  0.500000  0.182309  0.203132  1
  Tm  Tm4  1  0.000000  0.682309  0.796868  1
  Tm  Tm5  1  0.000000  0.317691  0.796868  1
  Fe  Fe6  1  0.000000  0.500000  0.993060  1
  Fe  Fe7  1  0.500000  0.000000  0.006940  1
  Fe  Fe8  1  0.500000  0.332588  0.994994  1
  Fe  Fe9  1  0.500000  0.667412  0.994994  1
  Fe  Fe10  1  0.000000  0.167412  0.005006  1
  Fe  Fe11  1  0.000000  0.832588  0.005006  1
  Fe  Fe12  1  0.500000  0.299344  0.429286  1
  Fe  Fe13  1  0.500000  0.700656  0.429286  1
  Fe  Fe14  1  0.000000  0.200656  0.570714  1
  Fe  Fe15  1  0.000000  0.799344  0.570714  1
  Co  Co16  1  0.500000  0.880665  0.712292  1
  Co  Co17  1  0.500000  0.119335  0.712292  1
  Co  Co18  1  0.000000  0.619335  0.287708  1
  Co  Co19  1  0.000000  0.380665  0.287708  1
  P  P20  1  0.500000  0.500000  0.891506  1
  P  P21  1  0.000000  0.000000  0.108494  1
  P  P22  1  0.500000  0.500000  0.350895  1
  P  P23  1  0.000000  0.000000  0.649105  1
  P  P24  1  0.500000  0.300307  0.614056  1
  P  P25  1  0.500000  0.699693  0.614056  1
  P  P26  1  0.000000  0.199693  0.385944  1
  P  P27  1  0.000000  0.800307  0.385944  1
  P  P28  1  0.500000  0.840800  0.897319  1
  P  P29  1  0.500000  0.159200  0.897319  1
  P  P30  1  0.000000  0.659200  0.102681  1
  P  P31  1  0.000000  0.340800  0.102681  1
  Ir  Ir32  1  0.500000  0.500000  0.158813  1
  Ir  Ir33  1  0.000000  0.000000  0.841187  1
  Ir  Ir34  1  0.500000  0.500000  0.699313  1
  Ir  Ir35  1  0.000000  0.000000  0.300687  1
