# generated using pymatgen
data_KBaHgSb3Au4
_symmetry_space_group_name_H-M   'P 1'
_cell_length_a   4.88111100
_cell_length_b   5.02396336
_cell_length_c   11.08620499
_cell_angle_alpha   88.68268237
_cell_angle_beta   90.00000000
_cell_angle_gamma   90.00000000
_symmetry_Int_Tables_number   1
_chemical_formula_structural   KBaHgSb3Au4
_chemical_formula_sum   'K1 Ba1 Hg1 Sb3 Au4'
_cell_volume   271.78986355
_cell_formula_units_Z   1
loop_
 _symmetry_equiv_pos_site_id
 _symmetry_equiv_pos_as_xyz
  1  'x, y, z'
loop_
 _atom_site_type_symbol
 _atom_site_label
 _atom_site_symmetry_multiplicity
 _atom_site_fract_x
 _atom_site_fract_y
 _atom_site_fract_z
 _atom_site_occupancy
  K  K0  1  0.750000  0.262816  0.246343  1
  Ba  Ba1  1  0.250000  0.738158  0.752134  1
  Hg  Hg2  1  0.750000  0.752376  0.507056  1
  Sb  Sb3  1  0.250000  0.250009  0.495339  1
  Sb  Sb4  1  0.250000  0.807552  0.121090  1
  Sb  Sb5  1  0.750000  0.190528  0.878406  1
  Au  Au6  1  0.750000  0.686980  0.999435  1
  Au  Au7  1  0.750000  0.246583  0.632551  1
  Au  Au8  1  0.250000  0.750034  0.366738  1
  Au  Au9  1  0.250000  0.314964  0.000907  1
