# generated using pymatgen
data_Li4Pr4Sn3Bi
_symmetry_space_group_name_H-M   'P 1'
_cell_length_a   9.64230549
_cell_length_b   9.64108876
_cell_length_c   7.71342254
_cell_angle_alpha   89.99999831
_cell_angle_beta   90.06287368
_cell_angle_gamma   119.99582103
_symmetry_Int_Tables_number   1
_chemical_formula_structural   Li4Pr4Sn3Bi
_chemical_formula_sum   'Li8 Pr8 Sn6 Bi2'
_cell_volume   621.01581441
_cell_formula_units_Z   2
loop_
 _symmetry_equiv_pos_site_id
 _symmetry_equiv_pos_as_xyz
  1  'x, y, z'
loop_
 _atom_site_type_symbol
 _atom_site_label
 _atom_site_symmetry_multiplicity
 _atom_site_fract_x
 _atom_site_fract_y
 _atom_site_fract_z
 _atom_site_occupancy
  Li  Li0  1  0.831536  0.166080  0.719178  1
  Li  Li1  1  0.831536  0.665455  0.719178  1
  Li  Li2  1  0.335521  0.167760  0.715111  1
  Li  Li3  1  0.170968  0.835157  0.214040  1
  Li  Li4  1  0.170968  0.335812  0.214040  1
  Li  Li5  1  0.662162  0.831082  0.209238  1
  Li  Li6  1  0.662871  0.331435  0.332129  1
  Li  Li7  1  0.334363  0.667182  0.826678  1
  Pr  Pr8  1  0.483478  0.508749  0.507756  1
  Pr  Pr9  1  0.483478  0.974729  0.507756  1
  Pr  Pr10  1  0.027544  0.513772  0.509722  1
  Pr  Pr11  1  0.506900  0.486233  0.002285  1
  Pr  Pr12  1  0.506900  0.020667  0.002285  1
  Pr  Pr13  1  0.982491  0.491245  0.000440  1
  Pr  Pr14  1  0.004392  0.002196  0.505882  1
  Pr  Pr15  1  0.004714  0.002357  0.997373  1
  Sn  Sn16  1  0.333237  0.166619  0.269049  1
  Sn  Sn17  1  0.166216  0.833108  0.768368  1
  Sn  Sn18  1  0.166216  0.333108  0.768368  1
  Sn  Sn19  1  0.666602  0.833301  0.769172  1
  Sn  Sn20  1  0.667548  0.333773  0.734146  1
  Sn  Sn21  1  0.332782  0.666391  0.233880  1
  Bi  Bi22  1  0.833789  0.167247  0.265966  1
  Bi  Bi23  1  0.833789  0.666542  0.265966  1
