# generated using pymatgen
data_Tb2Dy6Sc12Si15Au
_symmetry_space_group_name_H-M   'P 1'
_cell_length_a   7.12918095
_cell_length_b   7.38607637
_cell_length_c   14.07170021
_cell_angle_alpha   89.95991638
_cell_angle_beta   89.69846740
_cell_angle_gamma   90.17361158
_symmetry_Int_Tables_number   1
_chemical_formula_structural   Tb2Dy6Sc12Si15Au
_chemical_formula_sum   'Tb2 Dy6 Sc12 Si15 Au1'
_cell_volume   740.95509141
_cell_formula_units_Z   1
loop_
 _symmetry_equiv_pos_site_id
 _symmetry_equiv_pos_as_xyz
  1  'x, y, z'
loop_
 _atom_site_type_symbol
 _atom_site_label
 _atom_site_symmetry_multiplicity
 _atom_site_fract_x
 _atom_site_fract_y
 _atom_site_fract_z
 _atom_site_occupancy
  Tb  Tb0  1  0.012491  0.175253  0.097525  1
  Tb  Tb1  1  0.987247  0.825248  0.903408  1
  Dy  Dy2  1  0.487096  0.676456  0.903191  1
  Dy  Dy3  1  0.987854  0.827950  0.597823  1
  Dy  Dy4  1  0.512268  0.324038  0.096772  1
  Dy  Dy5  1  0.010800  0.174038  0.399897  1
  Dy  Dy6  1  0.510645  0.324650  0.400854  1
  Dy  Dy7  1  0.490749  0.676064  0.599033  1
  Sc  Sc8  1  0.162540  0.501328  0.750948  1
  Sc  Sc9  1  0.837867  0.498348  0.250772  1
  Sc  Sc10  1  0.338229  0.000818  0.249353  1
  Sc  Sc11  1  0.663610  0.996333  0.750817  1
  Sc  Sc12  1  0.337490  0.175913  0.625576  1
  Sc  Sc13  1  0.667267  0.823669  0.373903  1
  Sc  Sc14  1  0.169238  0.673599  0.373687  1
  Sc  Sc15  1  0.670278  0.824099  0.125052  1
  Sc  Sc16  1  0.827980  0.325487  0.625231  1
  Sc  Sc17  1  0.328750  0.175282  0.875915  1
  Sc  Sc18  1  0.829908  0.322646  0.875812  1
  Sc  Sc19  1  0.169637  0.676683  0.124999  1
  Si  Si20  1  0.034963  0.119335  0.750598  1
  Si  Si21  1  0.966525  0.883345  0.249435  1
  Si  Si22  1  0.466679  0.616276  0.248531  1
  Si  Si23  1  0.534830  0.384251  0.752204  1
  Si  Si24  1  0.284821  0.874470  0.750682  1
  Si  Si25  1  0.713251  0.127336  0.249036  1
  Si  Si26  1  0.214832  0.371821  0.248289  1
  Si  Si27  1  0.786681  0.626683  0.752348  1
  Si  Si28  1  0.835559  0.537292  0.459383  1
  Si  Si29  1  0.341426  0.963306  0.460093  1
  Si  Si30  1  0.843729  0.535535  0.038979  1
  Si  Si31  1  0.657419  0.036039  0.538041  1
  Si  Si32  1  0.155746  0.464336  0.961465  1
  Si  Si33  1  0.656448  0.035048  0.960917  1
  Si  Si34  1  0.343442  0.964228  0.039299  1
  Au  Au35  1  0.161706  0.462800  0.540130  1
