# generated using pymatgen
data_TmLu11Tc3Ir
_symmetry_space_group_name_H-M   'P 1'
_cell_length_a   6.15275511
_cell_length_b   7.30467964
_cell_length_c   8.90912600
_cell_angle_alpha   90.00000000
_cell_angle_beta   90.00000000
_cell_angle_gamma   90.00397504
_symmetry_Int_Tables_number   1
_chemical_formula_structural   TmLu11Tc3Ir
_chemical_formula_sum   'Tm1 Lu11 Tc3 Ir1'
_cell_volume   400.41091113
_cell_formula_units_Z   1
loop_
 _symmetry_equiv_pos_site_id
 _symmetry_equiv_pos_as_xyz
  1  'x, y, z'
loop_
 _atom_site_type_symbol
 _atom_site_label
 _atom_site_symmetry_multiplicity
 _atom_site_fract_x
 _atom_site_fract_y
 _atom_site_fract_z
 _atom_site_occupancy
  Tm  Tm0  1  0.875890  0.539337  0.250000  1
  Lu  Lu1  1  0.335600  0.676145  0.062500  1
  Lu  Lu2  1  0.161632  0.175095  0.438197  1
  Lu  Lu3  1  0.662644  0.322690  0.561013  1
  Lu  Lu4  1  0.836893  0.826105  0.938875  1
  Lu  Lu5  1  0.662644  0.322690  0.938987  1
  Lu  Lu6  1  0.836893  0.826105  0.561125  1
  Lu  Lu7  1  0.335600  0.676145  0.437500  1
  Lu  Lu8  1  0.161632  0.175095  0.061803  1
  Lu  Lu9  1  0.624128  0.037962  0.250000  1
  Lu  Lu10  1  0.129575  0.458790  0.750000  1
  Lu  Lu11  1  0.373816  0.960665  0.750000  1
  Tc  Tc12  1  0.040158  0.882972  0.250000  1
  Tc  Tc13  1  0.460837  0.384759  0.250000  1
  Tc  Tc14  1  0.961019  0.117920  0.750000  1
  Ir  Ir15  1  0.541040  0.617523  0.750000  1
