# generated using pymatgen
data_PrHf(NiAs)2
_symmetry_space_group_name_H-M   'P 1'
_cell_length_a   4.05502500
_cell_length_b   4.05502468
_cell_length_c   15.05326100
_cell_angle_alpha   90.00000000
_cell_angle_beta   90.00000000
_cell_angle_gamma   120.00001080
_symmetry_Int_Tables_number   1
_chemical_formula_structural   PrHf(NiAs)2
_chemical_formula_sum   'Pr2 Hf2 Ni4 As4'
_cell_volume   214.36220393
_cell_formula_units_Z   2
loop_
 _symmetry_equiv_pos_site_id
 _symmetry_equiv_pos_as_xyz
  1  'x, y, z'
loop_
 _atom_site_type_symbol
 _atom_site_label
 _atom_site_symmetry_multiplicity
 _atom_site_fract_x
 _atom_site_fract_y
 _atom_site_fract_z
 _atom_site_occupancy
  Pr  Pr0  1  0.000000  0.000000  0.758428  1
  Pr  Pr1  1  0.000000  0.000000  0.487012  1
  Hf  Hf2  1  0.000000  0.000000  0.238366  1
  Hf  Hf3  1  0.000000  0.000000  0.008299  1
  Ni  Ni4  1  0.333333  0.666667  0.146245  1
  Ni  Ni5  1  0.666667  0.333333  0.929195  1
  Ni  Ni6  1  0.666667  0.333333  0.628230  1
  Ni  Ni7  1  0.333333  0.666667  0.320284  1
  As  As8  1  0.333333  0.666667  0.622926  1
  As  As9  1  0.666667  0.333333  0.359981  1
  As  As10  1  0.666667  0.333333  0.110144  1
  As  As11  1  0.333333  0.666667  0.890892  1
