# generated using pymatgen
data_B8PbO13
_symmetry_space_group_name_H-M   'P 1'
_cell_length_a   8.75519500
_cell_length_b   8.75519500
_cell_length_c   13.33318000
_cell_angle_alpha   90.00000000
_cell_angle_beta   90.00000000
_cell_angle_gamma   90.00000000
_symmetry_Int_Tables_number   1
_chemical_formula_structural   B8PbO13
_chemical_formula_sum   'B32 Pb4 O52'
_cell_volume   1022.03410631
_cell_formula_units_Z   4
loop_
 _symmetry_equiv_pos_site_id
 _symmetry_equiv_pos_as_xyz
  1  'x, y, z'
loop_
 _atom_site_type_symbol
 _atom_site_label
 _atom_site_symmetry_multiplicity
 _atom_site_fract_x
 _atom_site_fract_y
 _atom_site_fract_z
 _atom_site_occupancy
  B  B0  1  0.784199  0.064730  0.998958  1
  B  B1  1  0.215801  0.935270  0.498958  1
  B  B2  1  0.064730  0.784199  0.751042  1
  B  B3  1  0.064730  0.215801  0.748958  1
  B  B4  1  0.935270  0.784199  0.248958  1
  B  B5  1  0.215801  0.064730  0.001042  1
  B  B6  1  0.784199  0.935270  0.501042  1
  B  B7  1  0.935270  0.215801  0.251042  1
  B  B8  1  0.741174  0.802027  0.034862  1
  B  B9  1  0.258826  0.197973  0.534862  1
  B  B10  1  0.802027  0.741174  0.715138  1
  B  B11  1  0.802027  0.258826  0.784862  1
  B  B12  1  0.197973  0.741174  0.284862  1
  B  B13  1  0.258826  0.802027  0.965138  1
  B  B14  1  0.741174  0.197973  0.465138  1
  B  B15  1  0.197973  0.258826  0.215138  1
  B  B16  1  0.639445  0.551917  0.110438  1
  B  B17  1  0.360555  0.448083  0.610438  1
  B  B18  1  0.551917  0.639445  0.639562  1
  B  B19  1  0.551917  0.360555  0.860438  1
  B  B20  1  0.448083  0.639445  0.360438  1
  B  B21  1  0.360555  0.551917  0.889562  1
  B  B22  1  0.639445  0.448083  0.389562  1
  B  B23  1  0.448083  0.360555  0.139562  1
  B  B24  1  0.866370  0.866370  0.875000  1
  B  B25  1  0.133630  0.866370  0.125000  1
  B  B26  1  0.866370  0.133630  0.625000  1
  B  B27  1  0.133630  0.133630  0.375000  1
  B  B28  1  0.278682  0.721318  0.625000  1
  B  B29  1  0.278682  0.278682  0.875000  1
  B  B30  1  0.721318  0.721318  0.375000  1
  B  B31  1  0.721318  0.278682  0.125000  1
  Pb  Pb32  1  0.000000  0.589942  0.500000  1
  Pb  Pb33  1  0.410058  0.000000  0.750000  1
  Pb  Pb34  1  0.589942  0.000000  0.250000  1
  Pb  Pb35  1  0.000000  0.410058  0.000000  1
  O  O36  1  0.706573  0.956289  0.056914  1
  O  O37  1  0.293427  0.043711  0.556914  1
  O  O38  1  0.956289  0.706573  0.693086  1
  O  O39  1  0.956289  0.293427  0.806914  1
  O  O40  1  0.043711  0.706573  0.306914  1
  O  O41  1  0.293427  0.956289  0.943086  1
  O  O42  1  0.706573  0.043711  0.443086  1
  O  O43  1  0.043711  0.293427  0.193086  1
  O  O44  1  0.848215  0.025835  0.910409  1
  O  O45  1  0.151785  0.974165  0.410409  1
  O  O46  1  0.025835  0.848215  0.839591  1
  O  O47  1  0.025835  0.151785  0.660409  1
  O  O48  1  0.974165  0.848215  0.160409  1
  O  O49  1  0.151785  0.025835  0.089591  1
  O  O50  1  0.848215  0.974165  0.589591  1
  O  O51  1  0.974165  0.151785  0.339591  1
  O  O52  1  0.831283  0.758498  0.957993  1
  O  O53  1  0.168717  0.241502  0.457993  1
  O  O54  1  0.758498  0.831283  0.792007  1
  O  O55  1  0.758498  0.168717  0.707993  1
  O  O56  1  0.241502  0.831283  0.207993  1
  O  O57  1  0.168717  0.758498  0.042007  1
  O  O58  1  0.831283  0.241502  0.542007  1
  O  O59  1  0.241502  0.168717  0.292007  1
  O  O60  1  0.753722  0.444724  0.117137  1
  O  O61  1  0.246278  0.555276  0.617137  1
  O  O62  1  0.444724  0.753722  0.632863  1
  O  O63  1  0.444724  0.246278  0.867137  1
  O  O64  1  0.555276  0.753722  0.367137  1
  O  O65  1  0.246278  0.444724  0.882863  1
  O  O66  1  0.753722  0.555276  0.382863  1
  O  O67  1  0.555276  0.246278  0.132863  1
  O  O68  1  0.793041  0.213335  0.033895  1
  O  O69  1  0.206959  0.786665  0.533895  1
  O  O70  1  0.213335  0.793041  0.716105  1
  O  O71  1  0.213335  0.206959  0.783895  1
  O  O72  1  0.786665  0.793041  0.283895  1
  O  O73  1  0.206959  0.213335  0.966105  1
  O  O74  1  0.793041  0.786665  0.466105  1
  O  O75  1  0.786665  0.206959  0.216105  1
  O  O76  1  0.663234  0.703225  0.095572  1
  O  O77  1  0.336766  0.296775  0.595572  1
  O  O78  1  0.703225  0.663234  0.654428  1
  O  O79  1  0.703225  0.336766  0.845572  1
  O  O80  1  0.296775  0.663234  0.345572  1
  O  O81  1  0.336766  0.703225  0.904428  1
  O  O82  1  0.663234  0.296775  0.404428  1
  O  O83  1  0.296775  0.336766  0.154428  1
  O  O84  1  0.511158  0.488842  0.625000  1
  O  O85  1  0.511158  0.511158  0.875000  1
  O  O86  1  0.488842  0.488842  0.375000  1
  O  O87  1  0.488842  0.511158  0.125000  1
