# generated using pymatgen
data_Ba6Li2Ta2P2O17
_symmetry_space_group_name_H-M   'P 1'
_cell_length_a   5.82721300
_cell_length_b   5.82721282
_cell_length_c   14.68523700
_cell_angle_alpha   90.00000000
_cell_angle_beta   90.00000000
_cell_angle_gamma   120.00000667
_symmetry_Int_Tables_number   1
_chemical_formula_structural   Ba6Li2Ta2P2O17
_chemical_formula_sum   'Ba6 Li2 Ta2 P2 O17'
_cell_volume   431.85040899
_cell_formula_units_Z   1
loop_
 _symmetry_equiv_pos_site_id
 _symmetry_equiv_pos_as_xyz
  1  'x, y, z'
loop_
 _atom_site_type_symbol
 _atom_site_label
 _atom_site_symmetry_multiplicity
 _atom_site_fract_x
 _atom_site_fract_y
 _atom_site_fract_z
 _atom_site_occupancy
  Ba  Ba0  1  0.666667  0.333333  0.663901  1
  Ba  Ba1  1  0.333333  0.666667  0.336099  1
  Ba  Ba2  1  0.666667  0.333333  0.177409  1
  Ba  Ba3  1  0.333333  0.666667  0.822591  1
  Ba  Ba4  1  0.000000  0.000000  0.000000  1
  Ba  Ba5  1  0.000000  0.000000  0.500000  1
  Li  Li6  1  0.000000  0.000000  0.718926  1
  Li  Li7  1  0.000000  0.000000  0.281074  1
  Ta  Ta8  1  0.333333  0.666667  0.587029  1
  Ta  Ta9  1  0.666667  0.333333  0.412971  1
  P  P10  1  0.333333  0.666667  0.106974  1
  P  P11  1  0.666667  0.333333  0.893026  1
  O  O12  1  0.173255  0.346510  0.659889  1
  O  O13  1  0.811779  0.188221  0.854491  1
  O  O14  1  0.500000  0.000000  0.500000  1
  O  O15  1  0.653490  0.826745  0.659889  1
  O  O16  1  0.188221  0.376442  0.145509  1
  O  O17  1  0.333333  0.666667  0.002023  1
  O  O18  1  0.826745  0.653490  0.340111  1
  O  O19  1  0.826745  0.173255  0.340111  1
  O  O20  1  0.623558  0.811779  0.145509  1
  O  O21  1  0.666667  0.333333  0.997977  1
  O  O22  1  0.811779  0.623558  0.854491  1
  O  O23  1  0.376442  0.188221  0.854491  1
  O  O24  1  0.188221  0.811779  0.145509  1
  O  O25  1  0.000000  0.500000  0.500000  1
  O  O26  1  0.173255  0.826745  0.659889  1
  O  O27  1  0.346510  0.173255  0.340111  1
  O  O28  1  0.500000  0.500000  0.500000  1
