# generated using pymatgen
data_Ho13Th3(ZnCo)4
_symmetry_space_group_name_H-M   'P 1'
_cell_length_a   9.36663240
_cell_length_b   9.37452549
_cell_length_c   9.37452600
_cell_angle_alpha   59.99999821
_cell_angle_beta   59.97211860
_cell_angle_gamma   59.97212150
_symmetry_Int_Tables_number   1
_chemical_formula_structural   Ho13Th3(ZnCo)4
_chemical_formula_sum   'Ho13 Th3 Zn4 Co4'
_cell_volume   581.81369863
_cell_formula_units_Z   1
loop_
 _symmetry_equiv_pos_site_id
 _symmetry_equiv_pos_as_xyz
  1  'x, y, z'
loop_
 _atom_site_type_symbol
 _atom_site_label
 _atom_site_symmetry_multiplicity
 _atom_site_fract_x
 _atom_site_fract_y
 _atom_site_fract_z
 _atom_site_occupancy
  Ho  Ho0  1  0.944569  0.351810  0.351810  1
  Ho  Ho1  1  0.810251  0.190311  0.190311  1
  Ho  Ho2  1  0.189997  0.810966  0.810966  1
  Ho  Ho3  1  0.189997  0.810966  0.188070  1
  Ho  Ho4  1  0.810251  0.190311  0.809126  1
  Ho  Ho5  1  0.189997  0.188070  0.810966  1
  Ho  Ho6  1  0.810251  0.809126  0.190311  1
  Ho  Ho7  1  0.936269  0.564243  0.564243  1
  Ho  Ho8  1  0.564280  0.935569  0.935569  1
  Ho  Ho9  1  0.564280  0.935569  0.564582  1
  Ho  Ho10  1  0.936269  0.564243  0.935246  1
  Ho  Ho11  1  0.564280  0.564582  0.935569  1
  Ho  Ho12  1  0.936269  0.935246  0.564243  1
  Th  Th13  1  0.346270  0.349339  0.349339  1
  Th  Th14  1  0.346270  0.349339  0.955051  1
  Th  Th15  1  0.346270  0.955051  0.349339  1
  Zn  Zn16  1  0.579937  0.577975  0.577975  1
  Zn  Zn17  1  0.579937  0.577975  0.264114  1
  Zn  Zn18  1  0.579937  0.264114  0.577975  1
  Zn  Zn19  1  0.262824  0.579059  0.579059  1
  Co  Co20  1  0.147714  0.141114  0.141114  1
  Co  Co21  1  0.147714  0.141114  0.570058  1
  Co  Co22  1  0.147714  0.570058  0.141114  1
  Co  Co23  1  0.568452  0.143850  0.143850  1
