# generated using pymatgen
data_LaPr6Y9(CdPt)4
_symmetry_space_group_name_H-M   'P 1'
_cell_length_a   9.84421145
_cell_length_b   9.84421065
_cell_length_c   9.84420941
_cell_angle_alpha   60.31095152
_cell_angle_beta   60.31095816
_cell_angle_gamma   60.31094792
_symmetry_Int_Tables_number   1
_chemical_formula_structural   LaPr6Y9(CdPt)4
_chemical_formula_sum   'La1 Pr6 Y9 Cd4 Pt4'
_cell_volume   679.31737831
_cell_formula_units_Z   1
loop_
 _symmetry_equiv_pos_site_id
 _symmetry_equiv_pos_as_xyz
  1  'x, y, z'
loop_
 _atom_site_type_symbol
 _atom_site_label
 _atom_site_symmetry_multiplicity
 _atom_site_fract_x
 _atom_site_fract_y
 _atom_site_fract_z
 _atom_site_occupancy
  La  La0  1  0.349115  0.349115  0.349115  1
  Pr  Pr1  1  0.940090  0.562056  0.562056  1
  Pr  Pr2  1  0.560701  0.938050  0.938050  1
  Pr  Pr3  1  0.562056  0.940090  0.562056  1
  Pr  Pr4  1  0.938050  0.560701  0.938050  1
  Pr  Pr5  1  0.562056  0.562056  0.940090  1
  Pr  Pr6  1  0.938050  0.938050  0.560701  1
  Y  Y7  1  0.351386  0.351386  0.944753  1
  Y  Y8  1  0.351386  0.944753  0.351386  1
  Y  Y9  1  0.944753  0.351386  0.351386  1
  Y  Y10  1  0.814849  0.187040  0.187040  1
  Y  Y11  1  0.188736  0.811770  0.811770  1
  Y  Y12  1  0.187040  0.814849  0.187040  1
  Y  Y13  1  0.811770  0.188736  0.811770  1
  Y  Y14  1  0.187040  0.187040  0.814849  1
  Y  Y15  1  0.811770  0.811770  0.188736  1
  Cd  Cd16  1  0.580074  0.580074  0.580074  1
  Cd  Cd17  1  0.581871  0.581871  0.261129  1
  Cd  Cd18  1  0.581871  0.261129  0.581871  1
  Cd  Cd19  1  0.261129  0.581871  0.581871  1
  Pt  Pt20  1  0.143121  0.143121  0.143121  1
  Pt  Pt21  1  0.139319  0.139319  0.574443  1
  Pt  Pt22  1  0.139319  0.574443  0.139319  1
  Pt  Pt23  1  0.574443  0.139319  0.139319  1
