# generated using pymatgen
data_Yb3Y3(CoSn6)2
_symmetry_space_group_name_H-M   'P 1'
_cell_length_a   8.42968451
_cell_length_b   8.42968453
_cell_length_c   13.24027213
_cell_angle_alpha   90.01515874
_cell_angle_beta   89.98484203
_cell_angle_gamma   148.04687239
_symmetry_Int_Tables_number   1
_chemical_formula_structural   Yb3Y3(CoSn6)2
_chemical_formula_sum   'Yb3 Y3 Co2 Sn12'
_cell_volume   497.92066412
_cell_formula_units_Z   1
loop_
 _symmetry_equiv_pos_site_id
 _symmetry_equiv_pos_as_xyz
  1  'x, y, z'
loop_
 _atom_site_type_symbol
 _atom_site_label
 _atom_site_symmetry_multiplicity
 _atom_site_fract_x
 _atom_site_fract_y
 _atom_site_fract_z
 _atom_site_occupancy
  Yb  Yb0  1  0.100389  0.899611  0.596992  1
  Yb  Yb1  1  0.100959  0.899041  0.903367  1
  Yb  Yb2  1  0.899953  0.100047  0.402900  1
  Y  Y3  1  0.898832  0.101168  0.093937  1
  Y  Y4  1  0.901341  0.098659  0.753720  1
  Y  Y5  1  0.098448  0.901552  0.248480  1
  Co  Co6  1  0.298923  0.701077  0.249781  1
  Co  Co7  1  0.703094  0.296906  0.750155  1
  Sn  Sn8  1  0.758108  0.241892  0.571940  1
  Sn  Sn9  1  0.426038  0.573962  0.578167  1
  Sn  Sn10  1  0.572927  0.427073  0.422894  1
  Sn  Sn11  1  0.733680  0.266320  0.248812  1
  Sn  Sn12  1  0.266997  0.733003  0.750040  1
  Sn  Sn13  1  0.241673  0.758327  0.072294  1
  Sn  Sn14  1  0.242861  0.757139  0.427659  1
  Sn  Sn15  1  0.572070  0.427930  0.075714  1
  Sn  Sn16  1  0.454496  0.545504  0.248882  1
  Sn  Sn17  1  0.545973  0.454027  0.749963  1
  Sn  Sn18  1  0.756355  0.243645  0.929556  1
  Sn  Sn19  1  0.426883  0.573117  0.924747  1
