# generated using pymatgen
data_Tb8ErTmRu4
_symmetry_space_group_name_H-M   'P 1'
_cell_length_a   6.36381636
_cell_length_b   7.26489784
_cell_length_c   8.49850513
_cell_angle_alpha   96.59247168
_cell_angle_beta   111.98773018
_cell_angle_gamma   90.00000321
_symmetry_Int_Tables_number   1
_chemical_formula_structural   Tb8ErTmRu4
_chemical_formula_sum   'Tb8 Er1 Tm1 Ru4'
_cell_volume   361.52520848
_cell_formula_units_Z   1
loop_
 _symmetry_equiv_pos_site_id
 _symmetry_equiv_pos_as_xyz
  1  'x, y, z'
loop_
 _atom_site_type_symbol
 _atom_site_label
 _atom_site_symmetry_multiplicity
 _atom_site_fract_x
 _atom_site_fract_y
 _atom_site_fract_z
 _atom_site_occupancy
  Tb  Tb0  1  0.792315  0.083994  0.814678  1
  Tb  Tb1  1  0.977636  0.416006  0.185322  1
  Tb  Tb2  1  0.207517  0.915633  0.185264  1
  Tb  Tb3  1  0.022254  0.584367  0.814736  1
  Tb  Tb4  1  0.206932  0.185377  0.567149  1
  Tb  Tb5  1  0.639783  0.314623  0.432851  1
  Tb  Tb6  1  0.792983  0.814499  0.432654  1
  Tb  Tb7  1  0.360329  0.685501  0.567346  1
  Er  Er8  1  0.422873  0.250000  0.000000  1
  Tm  Tm9  1  0.576961  0.750000  0.000000  1
  Ru  Ru10  1  0.603442  0.425042  0.781668  1
  Ru  Ru11  1  0.821773  0.074958  0.218332  1
  Ru  Ru12  1  0.396789  0.575490  0.218377  1
  Ru  Ru13  1  0.178413  0.924510  0.781623  1
