# generated using pymatgen
data_Ba3(InRh)2
_symmetry_space_group_name_H-M   'P 1'
_cell_length_a   6.57050000
_cell_length_b   8.89435800
_cell_length_c   15.00207900
_cell_angle_alpha   90.00000000
_cell_angle_beta   90.00000000
_cell_angle_gamma   90.00000000
_symmetry_Int_Tables_number   1
_chemical_formula_structural   Ba3(InRh)2
_chemical_formula_sum   'Ba12 In8 Rh8'
_cell_volume   876.72718613
_cell_formula_units_Z   4
loop_
 _symmetry_equiv_pos_site_id
 _symmetry_equiv_pos_as_xyz
  1  'x, y, z'
loop_
 _atom_site_type_symbol
 _atom_site_label
 _atom_site_symmetry_multiplicity
 _atom_site_fract_x
 _atom_site_fract_y
 _atom_site_fract_z
 _atom_site_occupancy
  Ba  Ba0  1  0.636198  0.246546  0.250000  1
  Ba  Ba1  1  0.363802  0.753454  0.750000  1
  Ba  Ba2  1  0.363802  0.746546  0.250000  1
  Ba  Ba3  1  0.636198  0.253454  0.750000  1
  Ba  Ba4  1  0.159752  0.401634  0.090848  1
  Ba  Ba5  1  0.840248  0.598366  0.909152  1
  Ba  Ba6  1  0.840248  0.598366  0.590848  1
  Ba  Ba7  1  0.840248  0.901634  0.409152  1
  Ba  Ba8  1  0.159752  0.401634  0.409152  1
  Ba  Ba9  1  0.159752  0.098366  0.590848  1
  Ba  Ba10  1  0.159752  0.098366  0.909152  1
  Ba  Ba11  1  0.840248  0.901634  0.090848  1
  In  In12  1  0.167866  0.095955  0.250000  1
  In  In13  1  0.832134  0.904045  0.750000  1
  In  In14  1  0.832134  0.595955  0.250000  1
  In  In15  1  0.167866  0.404045  0.750000  1
  In  In16  1  0.617652  0.250000  0.000000  1
  In  In17  1  0.382348  0.750000  0.000000  1
  In  In18  1  0.382348  0.750000  0.500000  1
  In  In19  1  0.617652  0.250000  0.500000  1
  Rh  Rh20  1  0.372720  0.031983  0.090896  1
  Rh  Rh21  1  0.627280  0.968017  0.909104  1
  Rh  Rh22  1  0.627280  0.968017  0.590896  1
  Rh  Rh23  1  0.627280  0.531983  0.409104  1
  Rh  Rh24  1  0.372720  0.031983  0.409104  1
  Rh  Rh25  1  0.372720  0.468017  0.590896  1
  Rh  Rh26  1  0.372720  0.468017  0.909104  1
  Rh  Rh27  1  0.627280  0.531983  0.090896  1
