# generated using pymatgen
data_Pm4SbTe7
_symmetry_space_group_name_H-M   'P 1'
_cell_length_a   4.40873595
_cell_length_b   9.01280687
_cell_length_c   9.23760009
_cell_angle_alpha   89.99577556
_cell_angle_beta   89.97368961
_cell_angle_gamma   87.90301786
_symmetry_Int_Tables_number   1
_chemical_formula_structural   Pm4SbTe7
_chemical_formula_sum   'Pm4 Sb1 Te7'
_cell_volume   366.81098127
_cell_formula_units_Z   1
loop_
 _symmetry_equiv_pos_site_id
 _symmetry_equiv_pos_as_xyz
  1  'x, y, z'
loop_
 _atom_site_type_symbol
 _atom_site_label
 _atom_site_symmetry_multiplicity
 _atom_site_fract_x
 _atom_site_fract_y
 _atom_site_fract_z
 _atom_site_occupancy
  Pm  Pm0  1  0.259396  0.625879  0.727023  1
  Pm  Pm1  1  0.750640  0.375039  0.266561  1
  Pm  Pm2  1  0.240867  0.124354  0.726000  1
  Pm  Pm3  1  0.749430  0.874707  0.278857  1
  Sb  Sb4  1  0.250092  0.874830  0.999331  1
  Te  Te5  1  0.250567  0.374699  0.998882  1
  Te  Te6  1  0.750128  0.874916  0.628431  1
  Te  Te7  1  0.247500  0.126520  0.372137  1
  Te  Te8  1  0.252517  0.623276  0.372843  1
  Te  Te9  1  0.728089  0.110247  0.001586  1
  Te  Te10  1  0.749515  0.375037  0.626606  1
  Te  Te11  1  0.771260  0.640497  0.001744  1
