# generated using pymatgen
data_LaPbF7
_symmetry_space_group_name_H-M   'P 1'
_cell_length_a   5.99439900
_cell_length_b   6.45251981
_cell_length_c   8.70392814
_cell_angle_alpha   77.68907871
_cell_angle_beta   90.00000000
_cell_angle_gamma   90.00000000
_symmetry_Int_Tables_number   1
_chemical_formula_structural   LaPbF7
_chemical_formula_sum   'La2 Pb2 F14'
_cell_volume   328.91755590
_cell_formula_units_Z   2
loop_
 _symmetry_equiv_pos_site_id
 _symmetry_equiv_pos_as_xyz
  1  'x, y, z'
loop_
 _atom_site_type_symbol
 _atom_site_label
 _atom_site_symmetry_multiplicity
 _atom_site_fract_x
 _atom_site_fract_y
 _atom_site_fract_z
 _atom_site_occupancy
  La  La0  1  0.199124  0.655594  0.313779  1
  La  La1  1  0.699124  0.344406  0.686221  1
  Pb  Pb2  1  0.209102  0.811607  0.774961  1
  Pb  Pb3  1  0.709102  0.188393  0.225039  1
  F  F4  1  0.386347  0.451487  0.525091  1
  F  F5  1  0.886347  0.548513  0.474909  1
  F  F6  1  0.922321  0.927516  0.231932  1
  F  F7  1  0.422321  0.072484  0.768068  1
  F  F8  1  0.444027  0.968793  0.238295  1
  F  F9  1  0.944027  0.031207  0.761705  1
  F  F10  1  0.498258  0.452074  0.211562  1
  F  F11  1  0.998258  0.547926  0.788438  1
  F  F12  1  0.203972  0.757768  0.020536  1
  F  F13  1  0.703972  0.242232  0.979464  1
  F  F14  1  0.213316  0.863324  0.528562  1
  F  F15  1  0.713316  0.136676  0.471438  1
  F  F16  1  0.999895  0.377117  0.215904  1
  F  F17  1  0.499895  0.622883  0.784096  1
