# generated using pymatgen
data_Mn2Be8SiW
_symmetry_space_group_name_H-M   'P 1'
_cell_length_a   4.24229000
_cell_length_b   4.24229008
_cell_length_c   6.93819700
_cell_angle_alpha   90.00000000
_cell_angle_beta   90.00000000
_cell_angle_gamma   119.99999939
_symmetry_Int_Tables_number   1
_chemical_formula_structural   Mn2Be8SiW
_chemical_formula_sum   'Mn2 Be8 Si1 W1'
_cell_volume   108.13791101
_cell_formula_units_Z   1
loop_
 _symmetry_equiv_pos_site_id
 _symmetry_equiv_pos_as_xyz
  1  'x, y, z'
loop_
 _atom_site_type_symbol
 _atom_site_label
 _atom_site_symmetry_multiplicity
 _atom_site_fract_x
 _atom_site_fract_y
 _atom_site_fract_z
 _atom_site_occupancy
  Mn  Mn0  1  0.666667  0.333333  0.937298  1
  Mn  Mn1  1  0.333333  0.666667  0.440780  1
  Be  Be2  1  0.000000  0.000000  0.001794  1
  Be  Be3  1  0.000000  0.000000  0.492856  1
  Be  Be4  1  0.829511  0.659020  0.244724  1
  Be  Be5  1  0.167366  0.832634  0.756349  1
  Be  Be6  1  0.665268  0.832634  0.756349  1
  Be  Be7  1  0.340980  0.170489  0.244724  1
  Be  Be8  1  0.829511  0.170489  0.244724  1
  Be  Be9  1  0.167366  0.334732  0.756349  1
  Si  Si10  1  0.333333  0.666667  0.061305  1
  W  W11  1  0.666667  0.333333  0.562747  1
