# generated using pymatgen
data_YLu2Sc3FeSb2
_symmetry_space_group_name_H-M   'P 1'
_cell_length_a   7.80678000
_cell_length_b   7.79651496
_cell_length_c   4.09343500
_cell_angle_alpha   90.00000000
_cell_angle_beta   90.00000000
_cell_angle_gamma   120.04357994
_symmetry_Int_Tables_number   1
_chemical_formula_structural   YLu2Sc3FeSb2
_chemical_formula_sum   'Y1 Lu2 Sc3 Fe1 Sb2'
_cell_volume   215.67514769
_cell_formula_units_Z   1
loop_
 _symmetry_equiv_pos_site_id
 _symmetry_equiv_pos_as_xyz
  1  'x, y, z'
loop_
 _atom_site_type_symbol
 _atom_site_label
 _atom_site_symmetry_multiplicity
 _atom_site_fract_x
 _atom_site_fract_y
 _atom_site_fract_z
 _atom_site_occupancy
  Y  Y0  1  0.605147  0.000000  0.500000  1
  Lu  Lu1  1  0.388774  0.389458  0.500000  1
  Lu  Lu2  1  0.999316  0.610542  0.500000  1
  Sc  Sc3  1  0.229253  0.000000  0.000000  1
  Sc  Sc4  1  0.774332  0.773539  0.000000  1
  Sc  Sc5  1  0.000793  0.226461  0.000000  1
  Fe  Fe6  1  0.005029  0.000000  0.500000  1
  Sb  Sb7  1  0.330189  0.663024  0.000000  1
  Sb  Sb8  1  0.667166  0.336976  0.000000  1
