# generated using pymatgen
data_PaVB4
_symmetry_space_group_name_H-M   'P 1'
_cell_length_a   3.60910000
_cell_length_b   5.95025201
_cell_length_c   11.51177213
_cell_angle_alpha   89.99724849
_cell_angle_beta   90.00000000
_cell_angle_gamma   90.00000000
_symmetry_Int_Tables_number   1
_chemical_formula_structural   PaVB4
_chemical_formula_sum   'Pa4 V4 B16'
_cell_volume   247.21593373
_cell_formula_units_Z   4
loop_
 _symmetry_equiv_pos_site_id
 _symmetry_equiv_pos_as_xyz
  1  'x, y, z'
loop_
 _atom_site_type_symbol
 _atom_site_label
 _atom_site_symmetry_multiplicity
 _atom_site_fract_x
 _atom_site_fract_y
 _atom_site_fract_z
 _atom_site_occupancy
  Pa  Pa0  1  0.500000  0.875357  0.151116  1
  Pa  Pa1  1  0.500000  0.624597  0.650926  1
  Pa  Pa2  1  0.500000  0.374986  0.348989  1
  Pa  Pa3  1  0.500000  0.125057  0.848981  1
  V  V4  1  0.500000  0.126458  0.583001  1
  V  V5  1  0.500000  0.873026  0.416752  1
  V  V6  1  0.500000  0.627067  0.916928  1
  V  V7  1  0.500000  0.373579  0.083262  1
  B  B8  1  0.000000  0.283914  0.685039  1
  B  B9  1  0.000000  0.715593  0.314853  1
  B  B10  1  0.000000  0.784289  0.814784  1
  B  B11  1  0.000000  0.215921  0.185339  1
  B  B12  1  0.000000  0.363633  0.532392  1
  B  B13  1  0.000000  0.635794  0.467243  1
  B  B14  1  0.000000  0.864338  0.967521  1
  B  B15  1  0.000000  0.136521  0.032764  1
  B  B16  1  0.000000  0.025593  0.308364  1
  B  B17  1  0.000000  0.973977  0.691501  1
  B  B18  1  0.000000  0.525726  0.191824  1
  B  B19  1  0.000000  0.474305  0.808373  1
  B  B20  1  0.000000  0.112892  0.453719  1
  B  B21  1  0.000000  0.886562  0.546013  1
  B  B22  1  0.000000  0.613523  0.046350  1
  B  B23  1  0.000000  0.387293  0.953968  1
