# generated using pymatgen
data_Nd6Cd16SiAg7
_symmetry_space_group_name_H-M   'P 1'
_cell_length_a   9.94695053
_cell_length_b   9.94695052
_cell_length_c   9.94695100
_cell_angle_alpha   60.00000174
_cell_angle_beta   60.00000176
_cell_angle_gamma   59.99999732
_symmetry_Int_Tables_number   1
_chemical_formula_structural   Nd6Cd16SiAg7
_chemical_formula_sum   'Nd6 Cd16 Si1 Ag7'
_cell_volume   695.91291944
_cell_formula_units_Z   1
loop_
 _symmetry_equiv_pos_site_id
 _symmetry_equiv_pos_as_xyz
  1  'x, y, z'
loop_
 _atom_site_type_symbol
 _atom_site_label
 _atom_site_symmetry_multiplicity
 _atom_site_fract_x
 _atom_site_fract_y
 _atom_site_fract_z
 _atom_site_occupancy
  Nd  Nd0  1  0.791878  0.791878  0.208122  1
  Nd  Nd1  1  0.208122  0.791878  0.208122  1
  Nd  Nd2  1  0.791878  0.208122  0.208122  1
  Nd  Nd3  1  0.208122  0.208122  0.791878  1
  Nd  Nd4  1  0.791878  0.208122  0.791878  1
  Nd  Nd5  1  0.208122  0.791878  0.791878  1
  Cd  Cd6  1  0.833555  0.833555  0.499335  1
  Cd  Cd7  1  0.833555  0.499335  0.833555  1
  Cd  Cd8  1  0.499335  0.833555  0.833555  1
  Cd  Cd9  1  0.833555  0.833555  0.833555  1
  Cd  Cd10  1  0.166445  0.166445  0.500665  1
  Cd  Cd11  1  0.166445  0.500665  0.166445  1
  Cd  Cd12  1  0.500665  0.166445  0.166445  1
  Cd  Cd13  1  0.166445  0.166445  0.166445  1
  Cd  Cd14  1  0.620494  0.620494  0.138518  1
  Cd  Cd15  1  0.620494  0.138518  0.620494  1
  Cd  Cd16  1  0.138518  0.620494  0.620494  1
  Cd  Cd17  1  0.620494  0.620494  0.620494  1
  Cd  Cd18  1  0.379506  0.379506  0.861482  1
  Cd  Cd19  1  0.379506  0.861482  0.379506  1
  Cd  Cd20  1  0.861482  0.379506  0.379506  1
  Cd  Cd21  1  0.379506  0.379506  0.379506  1
  Si  Si22  1  0.000000  0.000000  0.000000  1
  Ag  Ag23  1  0.000000  0.000000  0.500000  1
  Ag  Ag24  1  0.500000  0.000000  0.500000  1
  Ag  Ag25  1  0.000000  0.500000  0.500000  1
  Ag  Ag26  1  0.500000  0.500000  0.000000  1
  Ag  Ag27  1  0.000000  0.500000  0.000000  1
  Ag  Ag28  1  0.500000  0.000000  0.000000  1
  Ag  Ag29  1  0.500000  0.500000  0.500000  1
