# generated using pymatgen
data_Rb3Zn2InBr8
_symmetry_space_group_name_H-M   'P 1'
_cell_length_a   7.77137500
_cell_length_b   7.49198619
_cell_length_c   9.71266404
_cell_angle_alpha   71.04591661
_cell_angle_beta   90.00000000
_cell_angle_gamma   90.00000000
_symmetry_Int_Tables_number   1
_chemical_formula_structural   Rb3Zn2InBr8
_chemical_formula_sum   'Rb3 Zn2 In1 Br8'
_cell_volume   534.83885585
_cell_formula_units_Z   1
loop_
 _symmetry_equiv_pos_site_id
 _symmetry_equiv_pos_as_xyz
  1  'x, y, z'
loop_
 _atom_site_type_symbol
 _atom_site_label
 _atom_site_symmetry_multiplicity
 _atom_site_fract_x
 _atom_site_fract_y
 _atom_site_fract_z
 _atom_site_occupancy
  Rb  Rb0  1  0.750000  0.221446  0.573944  1
  Rb  Rb1  1  0.250000  0.777441  0.425859  1
  Rb  Rb2  1  0.750000  0.299738  0.043409  1
  Zn  Zn3  1  0.750000  0.718233  0.205922  1
  Zn  Zn4  1  0.250000  0.284424  0.794382  1
  In  In5  1  0.250000  0.719554  0.956349  1
  Br  Br6  1  0.750000  0.886321  0.945025  1
  Br  Br7  1  0.250000  0.096976  0.053353  1
  Br  Br8  1  0.750000  0.918420  0.359968  1
  Br  Br9  1  0.250000  0.069949  0.649802  1
  Br  Br10  1  0.000748  0.508380  0.262226  1
  Br  Br11  1  0.497302  0.495368  0.733766  1
  Br  Br12  1  0.002698  0.495368  0.733766  1
  Br  Br13  1  0.499252  0.508380  0.262226  1
