# generated using pymatgen
data_Nd4Er(InBi)2
_symmetry_space_group_name_H-M   'P 1'
_cell_length_a   8.38009300
_cell_length_b   8.38686700
_cell_length_c   16.03893000
_cell_angle_alpha   90.00000000
_cell_angle_beta   90.00000000
_cell_angle_gamma   90.00000000
_symmetry_Int_Tables_number   1
_chemical_formula_structural   Nd4Er(InBi)2
_chemical_formula_sum   'Nd16 Er4 In8 Bi8'
_cell_volume   1127.25971352
_cell_formula_units_Z   4
loop_
 _symmetry_equiv_pos_site_id
 _symmetry_equiv_pos_as_xyz
  1  'x, y, z'
loop_
 _atom_site_type_symbol
 _atom_site_label
 _atom_site_symmetry_multiplicity
 _atom_site_fract_x
 _atom_site_fract_y
 _atom_site_fract_z
 _atom_site_occupancy
  Nd  Nd0  1  0.043052  0.176062  0.393329  1
  Nd  Nd1  1  0.384625  0.837271  0.121483  1
  Nd  Nd2  1  0.115375  0.337271  0.621483  1
  Nd  Nd3  1  0.456948  0.676062  0.893329  1
  Nd  Nd4  1  0.884625  0.662729  0.121483  1
  Nd  Nd5  1  0.115375  0.337271  0.878517  1
  Nd  Nd6  1  0.456948  0.676062  0.606671  1
  Nd  Nd7  1  0.615375  0.162729  0.621483  1
  Nd  Nd8  1  0.884625  0.662729  0.378517  1
  Nd  Nd9  1  0.043052  0.176062  0.106671  1
  Nd  Nd10  1  0.956948  0.823938  0.893329  1
  Nd  Nd11  1  0.615375  0.162729  0.878517  1
  Nd  Nd12  1  0.543052  0.323938  0.106671  1
  Nd  Nd13  1  0.384625  0.837271  0.378517  1
  Nd  Nd14  1  0.956948  0.823938  0.606671  1
  Nd  Nd15  1  0.543052  0.323938  0.393329  1
  Er  Er16  1  0.215265  0.498559  0.250000  1
  Er  Er17  1  0.715265  0.001441  0.250000  1
  Er  Er18  1  0.284735  0.998559  0.750000  1
  Er  Er19  1  0.784735  0.501441  0.750000  1
  In  In20  1  0.658977  0.860720  0.750000  1
  In  In21  1  0.841023  0.360720  0.250000  1
  In  In22  1  0.584469  0.617113  0.250000  1
  In  In23  1  0.415531  0.382887  0.750000  1
  In  In24  1  0.158977  0.639280  0.750000  1
  In  In25  1  0.915531  0.117113  0.750000  1
  In  In26  1  0.341023  0.139280  0.250000  1
  In  In27  1  0.084469  0.882887  0.250000  1
  Bi  Bi28  1  0.775171  0.477271  0.546388  1
  Bi  Bi29  1  0.724829  0.977271  0.453612  1
  Bi  Bi30  1  0.224829  0.522729  0.453612  1
  Bi  Bi31  1  0.275171  0.022729  0.953612  1
  Bi  Bi32  1  0.775171  0.477271  0.953612  1
  Bi  Bi33  1  0.224829  0.522729  0.046388  1
  Bi  Bi34  1  0.275171  0.022729  0.546388  1
  Bi  Bi35  1  0.724829  0.977271  0.046388  1
