# generated using pymatgen
data_Hf18FeRe8P
_symmetry_space_group_name_H-M   'P 1'
_cell_length_a   8.60638400
_cell_length_b   8.55209521
_cell_length_c   8.55209503
_cell_angle_alpha   120.00238034
_cell_angle_beta   90.00000000
_cell_angle_gamma   90.00000000
_symmetry_Int_Tables_number   1
_chemical_formula_structural   Hf18FeRe8P
_chemical_formula_sum   'Hf18 Fe1 Re8 P1'
_cell_volume   545.11229679
_cell_formula_units_Z   1
loop_
 _symmetry_equiv_pos_site_id
 _symmetry_equiv_pos_as_xyz
  1  'x, y, z'
loop_
 _atom_site_type_symbol
 _atom_site_label
 _atom_site_symmetry_multiplicity
 _atom_site_fract_x
 _atom_site_fract_y
 _atom_site_fract_z
 _atom_site_occupancy
  Hf  Hf0  1  0.549569  0.805496  0.610991  1
  Hf  Hf1  1  0.549548  0.805461  0.194539  1
  Hf  Hf2  1  0.549569  0.389009  0.194504  1
  Hf  Hf3  1  0.442883  0.200617  0.401212  1
  Hf  Hf4  1  0.442867  0.200616  0.799384  1
  Hf  Hf5  1  0.442883  0.598788  0.799383  1
  Hf  Hf6  1  0.057117  0.200617  0.401212  1
  Hf  Hf7  1  0.057133  0.200616  0.799384  1
  Hf  Hf8  1  0.057117  0.598788  0.799383  1
  Hf  Hf9  1  0.950431  0.805496  0.610991  1
  Hf  Hf10  1  0.950452  0.805461  0.194539  1
  Hf  Hf11  1  0.950431  0.389009  0.194504  1
  Hf  Hf12  1  0.750000  0.459289  0.918595  1
  Hf  Hf13  1  0.750000  0.459295  0.540705  1
  Hf  Hf14  1  0.750000  0.081405  0.540710  1
  Hf  Hf15  1  0.250000  0.540171  0.080324  1
  Hf  Hf16  1  0.250000  0.540122  0.459878  1
  Hf  Hf17  1  0.250000  0.919676  0.459828  1
  Fe  Fe18  1  0.250000  0.333458  0.666542  1
  Re  Re19  1  0.750000  0.110175  0.220382  1
  Re  Re20  1  0.750000  0.110173  0.889827  1
  Re  Re21  1  0.750000  0.779618  0.889825  1
  Re  Re22  1  0.250000  0.889414  0.778789  1
  Re  Re23  1  0.250000  0.889390  0.110610  1
  Re  Re24  1  0.250000  0.221211  0.110586  1
  Re  Re25  1  0.498424  0.999991  0.000009  1
  Re  Re26  1  0.001576  0.999991  0.000009  1
  P  P27  1  0.750000  0.666646  0.333354  1
