# generated using pymatgen
data_Ac(ReSi)2
_symmetry_space_group_name_H-M   'P 1'
_cell_length_a   4.23078539
_cell_length_b   4.33219921
_cell_length_c   11.15706242
_cell_angle_alpha   101.19164499
_cell_angle_beta   100.80611544
_cell_angle_gamma   90.00574777
_symmetry_Int_Tables_number   1
_chemical_formula_structural   Ac(ReSi)2
_chemical_formula_sum   'Ac2 Re4 Si4'
_cell_volume   196.90602670
_cell_formula_units_Z   2
loop_
 _symmetry_equiv_pos_site_id
 _symmetry_equiv_pos_as_xyz
  1  'x, y, z'
loop_
 _atom_site_type_symbol
 _atom_site_label
 _atom_site_symmetry_multiplicity
 _atom_site_fract_x
 _atom_site_fract_y
 _atom_site_fract_z
 _atom_site_occupancy
  Ac  Ac0  1  0.837751  0.087964  0.175763  1
  Ac  Ac1  1  0.162284  0.912055  0.824288  1
  Re  Re2  1  0.463566  0.213461  0.426482  1
  Re  Re3  1  0.967221  0.715440  0.431253  1
  Re  Re4  1  0.033026  0.284677  0.568971  1
  Re  Re5  1  0.535937  0.786389  0.573194  1
  Si  Si6  1  0.278460  0.527995  0.057008  1
  Si  Si7  1  0.399609  0.649759  0.298808  1
  Si  Si8  1  0.600469  0.350253  0.701201  1
  Si  Si9  1  0.721682  0.472003  0.943029  1
