# generated using pymatgen
data_Cd3Pb(IO6)2
_symmetry_space_group_name_H-M   'P 1'
_cell_length_a   5.00771326
_cell_length_b   5.00352699
_cell_length_c   9.96384700
_cell_angle_alpha   90.00000000
_cell_angle_beta   90.00000000
_cell_angle_gamma   90.23045914
_symmetry_Int_Tables_number   1
_chemical_formula_structural   Cd3Pb(IO6)2
_chemical_formula_sum   'Cd3 Pb1 I2 O12'
_cell_volume   249.65440702
_cell_formula_units_Z   1
loop_
 _symmetry_equiv_pos_site_id
 _symmetry_equiv_pos_as_xyz
  1  'x, y, z'
loop_
 _atom_site_type_symbol
 _atom_site_label
 _atom_site_symmetry_multiplicity
 _atom_site_fract_x
 _atom_site_fract_y
 _atom_site_fract_z
 _atom_site_occupancy
  Cd  Cd0  1  0.500000  0.500000  0.157837  1
  Cd  Cd1  1  0.000000  0.000000  0.671002  1
  Cd  Cd2  1  0.500000  0.500000  0.836193  1
  Pb  Pb3  1  0.000000  0.000000  0.334314  1
  I  I4  1  0.500000  0.500000  0.499240  1
  I  I5  1  0.000000  0.000000  0.998807  1
  O  O6  1  0.681326  0.681730  0.636426  1
  O  O7  1  0.318674  0.318270  0.636426  1
  O  O8  1  0.815879  0.184326  0.861428  1
  O  O9  1  0.184121  0.815674  0.861428  1
  O  O10  1  0.317856  0.317695  0.352704  1
  O  O11  1  0.682144  0.682305  0.352704  1
  O  O12  1  0.180434  0.818936  0.153268  1
  O  O13  1  0.819566  0.181064  0.153268  1
  O  O14  1  0.733382  0.733332  0.002585  1
  O  O15  1  0.266618  0.266668  0.002585  1
  O  O16  1  0.776633  0.223187  0.494892  1
  O  O17  1  0.223367  0.776813  0.494892  1
