# generated using pymatgen
data_Tb4Tm4B24MoRh3
_symmetry_space_group_name_H-M   'P 1'
_cell_length_a   3.65533000
_cell_length_b   9.14739473
_cell_length_c   11.52884798
_cell_angle_alpha   90.21889232
_cell_angle_beta   90.00000000
_cell_angle_gamma   90.00000000
_symmetry_Int_Tables_number   1
_chemical_formula_structural   Tb4Tm4B24MoRh3
_chemical_formula_sum   'Tb4 Tm4 B24 Mo1 Rh3'
_cell_volume   385.48435283
_cell_formula_units_Z   1
loop_
 _symmetry_equiv_pos_site_id
 _symmetry_equiv_pos_as_xyz
  1  'x, y, z'
loop_
 _atom_site_type_symbol
 _atom_site_label
 _atom_site_symmetry_multiplicity
 _atom_site_fract_x
 _atom_site_fract_y
 _atom_site_fract_z
 _atom_site_occupancy
  Tb  Tb0  1  0.500000  0.319488  0.411206  1
  Tb  Tb1  1  0.500000  0.676928  0.584800  1
  Tb  Tb2  1  0.500000  0.178339  0.916820  1
  Tb  Tb3  1  0.500000  0.823666  0.086638  1
  Tm  Tm4  1  0.500000  0.444902  0.125984  1
  Tm  Tm5  1  0.500000  0.556861  0.871661  1
  Tm  Tm6  1  0.500000  0.055808  0.629037  1
  Tm  Tm7  1  0.500000  0.945399  0.373743  1
  B  B8  1  0.000000  0.104686  0.473444  1
  B  B9  1  0.000000  0.894425  0.529636  1
  B  B10  1  0.000000  0.397296  0.970020  1
  B  B11  1  0.000000  0.606013  0.027707  1
  B  B12  1  0.000000  0.131737  0.317316  1
  B  B13  1  0.000000  0.867202  0.683445  1
  B  B14  1  0.000000  0.368893  0.816448  1
  B  B15  1  0.000000  0.632369  0.183565  1
  B  B16  1  0.000000  0.052395  0.065256  1
  B  B17  1  0.000000  0.945654  0.932684  1
  B  B18  1  0.000000  0.444457  0.566196  1
  B  B19  1  0.000000  0.553881  0.433195  1
  B  B20  1  0.000000  0.483965  0.286751  1
  B  B21  1  0.000000  0.516460  0.712700  1
  B  B22  1  0.000000  0.016235  0.786894  1
  B  B23  1  0.000000  0.980567  0.214524  1
  B  B24  1  0.000000  0.252126  0.079232  1
  B  B25  1  0.000000  0.750275  0.918867  1
  B  B26  1  0.000000  0.249172  0.580269  1
  B  B27  1  0.000000  0.749883  0.420132  1
  B  B28  1  0.000000  0.295710  0.235727  1
  B  B29  1  0.000000  0.706073  0.763922  1
  B  B30  1  0.000000  0.207746  0.735855  1
  B  B31  1  0.000000  0.792336  0.266093  1
  Mo  Mo32  1  0.500000  0.139009  0.179931  1
  Rh  Rh33  1  0.500000  0.860036  0.819840  1
  Rh  Rh34  1  0.500000  0.360402  0.679956  1
  Rh  Rh35  1  0.500000  0.639609  0.320507  1
