# generated using pymatgen
data_YErLu4FeBi2
_symmetry_space_group_name_H-M   'P 1'
_cell_length_a   8.17553679
_cell_length_b   8.21630320
_cell_length_c   4.14582000
_cell_angle_alpha   90.00000000
_cell_angle_beta   90.00000000
_cell_angle_gamma   120.08751012
_symmetry_Int_Tables_number   1
_chemical_formula_structural   YErLu4FeBi2
_chemical_formula_sum   'Y1 Er1 Lu4 Fe1 Bi2'
_cell_volume   240.96289241
_cell_formula_units_Z   1
loop_
 _symmetry_equiv_pos_site_id
 _symmetry_equiv_pos_as_xyz
  1  'x, y, z'
loop_
 _atom_site_type_symbol
 _atom_site_label
 _atom_site_symmetry_multiplicity
 _atom_site_fract_x
 _atom_site_fract_y
 _atom_site_fract_z
 _atom_site_occupancy
  Y  Y0  1  0.000515  0.611481  0.000000  1
  Er  Er1  1  0.386776  0.386296  0.000000  1
  Lu  Lu2  1  0.228719  0.001318  0.500000  1
  Lu  Lu3  1  0.999580  0.228821  0.500000  1
  Lu  Lu4  1  0.769591  0.771361  0.500000  1
  Lu  Lu5  1  0.616642  0.000039  0.000000  1
  Fe  Fe6  1  0.996843  0.001666  0.000000  1
  Bi  Bi7  1  0.335592  0.668009  0.500000  1
  Bi  Bi8  1  0.665741  0.331010  0.500000  1
