# generated using pymatgen
data_ErScCo12Si4P3
_symmetry_space_group_name_H-M   'P 1'
_cell_length_a   9.04758100
_cell_length_b   9.04757989
_cell_length_c   3.55720700
_cell_angle_alpha   90.00000000
_cell_angle_beta   90.00000000
_cell_angle_gamma   120.00000039
_symmetry_Int_Tables_number   1
_chemical_formula_structural   ErScCo12Si4P3
_chemical_formula_sum   'Er1 Sc1 Co12 Si4 P3'
_cell_volume   252.17653609
_cell_formula_units_Z   1
loop_
 _symmetry_equiv_pos_site_id
 _symmetry_equiv_pos_as_xyz
  1  'x, y, z'
loop_
 _atom_site_type_symbol
 _atom_site_label
 _atom_site_symmetry_multiplicity
 _atom_site_fract_x
 _atom_site_fract_y
 _atom_site_fract_z
 _atom_site_occupancy
  Er  Er0  1  0.666667  0.333333  0.000000  1
  Sc  Sc1  1  0.000000  0.000000  0.500000  1
  Co  Co2  1  0.769330  0.046254  0.000000  1
  Co  Co3  1  0.953746  0.723076  0.000000  1
  Co  Co4  1  0.276924  0.230670  0.000000  1
  Co  Co5  1  0.486244  0.539234  0.000000  1
  Co  Co6  1  0.460766  0.947010  0.000000  1
  Co  Co7  1  0.052990  0.513756  0.000000  1
  Co  Co8  1  0.715424  0.609701  0.500000  1
  Co  Co9  1  0.390299  0.105723  0.500000  1
  Co  Co10  1  0.894277  0.284576  0.500000  1
  Co  Co11  1  0.569913  0.798381  0.500000  1
  Co  Co12  1  0.201619  0.771533  0.500000  1
  Co  Co13  1  0.228467  0.430087  0.500000  1
  Si  Si14  1  0.738669  0.783590  0.000000  1
  Si  Si15  1  0.216410  0.955079  0.000000  1
  Si  Si16  1  0.044921  0.261331  0.000000  1
  Si  Si17  1  0.333333  0.666667  0.000000  1
  P  P18  1  0.443741  0.375040  0.500000  1
  P  P19  1  0.624960  0.068702  0.500000  1
  P  P20  1  0.931298  0.556259  0.500000  1
