# generated using pymatgen
data_DyHo2Pa(Al3Ir)6
_symmetry_space_group_name_H-M   'P 1'
_cell_length_a   7.57350104
_cell_length_b   7.56766195
_cell_length_c   9.42369400
_cell_angle_alpha   90.00000000
_cell_angle_beta   90.00000000
_cell_angle_gamma   119.63255975
_symmetry_Int_Tables_number   1
_chemical_formula_structural   DyHo2Pa(Al3Ir)6
_chemical_formula_sum   'Dy1 Ho2 Pa1 Al18 Ir6'
_cell_volume   469.46838195
_cell_formula_units_Z   1
loop_
 _symmetry_equiv_pos_site_id
 _symmetry_equiv_pos_as_xyz
  1  'x, y, z'
loop_
 _atom_site_type_symbol
 _atom_site_label
 _atom_site_symmetry_multiplicity
 _atom_site_fract_x
 _atom_site_fract_y
 _atom_site_fract_z
 _atom_site_occupancy
  Dy  Dy0  1  0.329697  0.004411  0.250000  1
  Ho  Ho1  1  0.004947  0.329501  0.250000  1
  Ho  Ho2  1  0.671704  0.995000  0.750000  1
  Pa  Pa3  1  0.995957  0.670975  0.750000  1
  Al  Al4  1  0.130967  0.130111  0.750000  1
  Al  Al5  1  0.872829  0.874226  0.250000  1
  Al  Al6  1  0.000744  0.332029  0.574498  1
  Al  Al7  1  0.999060  0.664780  0.421567  1
  Al  Al8  1  0.999060  0.664780  0.078433  1
  Al  Al9  1  0.338298  0.003748  0.925289  1
  Al  Al10  1  0.000744  0.332029  0.925502  1
  Al  Al11  1  0.665433  0.000001  0.075467  1
  Al  Al12  1  0.665433  0.000001  0.424533  1
  Al  Al13  1  0.338298  0.003748  0.574711  1
  Al  Al14  1  0.332745  0.332928  0.055085  1
  Al  Al15  1  0.663310  0.666012  0.947828  1
  Al  Al16  1  0.663310  0.666012  0.552172  1
  Al  Al17  1  0.332745  0.332928  0.444915  1
  Al  Al18  1  0.339166  0.546640  0.750000  1
  Al  Al19  1  0.659768  0.450352  0.250000  1
  Al  Al20  1  0.546359  0.341151  0.750000  1
  Al  Al21  1  0.451190  0.660812  0.250000  1
  Ir  Ir22  1  0.673946  0.329960  0.502193  1
  Ir  Ir23  1  0.325981  0.671953  0.502202  1
  Ir  Ir24  1  0.325981  0.671953  0.997798  1
  Ir  Ir25  1  0.673946  0.329960  0.997807  1
  Ir  Ir26  1  0.999188  0.997000  0.503111  1
  Ir  Ir27  1  0.999188  0.997000  0.996889  1
