# generated using pymatgen
data_HfZr2ScPd12
_symmetry_space_group_name_H-M   'P 1'
_cell_length_a   5.72039500
_cell_length_b   5.72039405
_cell_length_c   9.32630700
_cell_angle_alpha   90.00000000
_cell_angle_beta   90.00000000
_cell_angle_gamma   120.00001130
_symmetry_Int_Tables_number   1
_chemical_formula_structural   HfZr2ScPd12
_chemical_formula_sum   'Hf1 Zr2 Sc1 Pd12'
_cell_volume   264.29701240
_cell_formula_units_Z   1
loop_
 _symmetry_equiv_pos_site_id
 _symmetry_equiv_pos_as_xyz
  1  'x, y, z'
loop_
 _atom_site_type_symbol
 _atom_site_label
 _atom_site_symmetry_multiplicity
 _atom_site_fract_x
 _atom_site_fract_y
 _atom_site_fract_z
 _atom_site_occupancy
  Hf  Hf0  1  0.333333  0.666667  0.250000  1
  Zr  Zr1  1  0.000000  0.000000  0.502473  1
  Zr  Zr2  1  0.000000  0.000000  0.997527  1
  Sc  Sc3  1  0.666667  0.333333  0.750000  1
  Pd  Pd4  1  0.169889  0.339776  0.750000  1
  Pd  Pd5  1  0.001250  0.500626  0.001692  1
  Pd  Pd6  1  0.830784  0.661568  0.250000  1
  Pd  Pd7  1  0.338432  0.169216  0.250000  1
  Pd  Pd8  1  0.499374  0.500626  0.001692  1
  Pd  Pd9  1  0.830784  0.169216  0.250000  1
  Pd  Pd10  1  0.499374  0.500626  0.498308  1
  Pd  Pd11  1  0.499374  0.998750  0.498308  1
  Pd  Pd12  1  0.169889  0.830111  0.750000  1
  Pd  Pd13  1  0.660224  0.830111  0.750000  1
  Pd  Pd14  1  0.499374  0.998750  0.001692  1
  Pd  Pd15  1  0.001250  0.500626  0.498308  1
