# generated using pymatgen
data_YbPr4Sm2FeI12
_symmetry_space_group_name_H-M   'P 1'
_cell_length_a   10.08676887
_cell_length_b   9.99452449
_cell_length_c   9.98802559
_cell_angle_alpha   106.91622906
_cell_angle_beta   106.81562523
_cell_angle_gamma   107.34424694
_symmetry_Int_Tables_number   1
_chemical_formula_structural   YbPr4Sm2FeI12
_chemical_formula_sum   'Yb1 Pr4 Sm2 Fe1 I12'
_cell_volume   837.97392867
_cell_formula_units_Z   1
loop_
 _symmetry_equiv_pos_site_id
 _symmetry_equiv_pos_as_xyz
  1  'x, y, z'
loop_
 _atom_site_type_symbol
 _atom_site_label
 _atom_site_symmetry_multiplicity
 _atom_site_fract_x
 _atom_site_fract_y
 _atom_site_fract_z
 _atom_site_occupancy
  Yb  Yb0  1  0.999634  0.998955  0.999931  1
  Pr  Pr1  1  0.190220  0.473086  0.399567  1
  Pr  Pr2  1  0.473665  0.404048  0.205942  1
  Pr  Pr3  1  0.597243  0.793946  0.525514  1
  Pr  Pr4  1  0.405219  0.206997  0.474840  1
  Sm  Sm5  1  0.804441  0.527619  0.601351  1
  Sm  Sm6  1  0.525899  0.595217  0.788651  1
  Fe  Fe7  1  0.500581  0.500555  0.499297  1
  I  I8  1  0.729604  0.188962  0.575843  1
  I  I9  1  0.961198  0.879741  0.658471  1
  I  I10  1  0.573965  0.727185  0.180626  1
  I  I11  1  0.116647  0.340705  0.037527  1
  I  I12  1  0.659032  0.957335  0.885146  1
  I  I13  1  0.875946  0.654051  0.955660  1
  I  I14  1  0.039188  0.113559  0.341120  1
  I  I15  1  0.816979  0.427449  0.278014  1
  I  I16  1  0.337898  0.036433  0.114579  1
  I  I17  1  0.275807  0.818633  0.426860  1
  I  I18  1  0.188439  0.575902  0.732458  1
  I  I19  1  0.428395  0.279620  0.818605  1
