# generated using pymatgen
data_NbTc5As14
_symmetry_space_group_name_H-M   'P 1'
_cell_length_a   7.67210313
_cell_length_b   7.67210706
_cell_length_c   7.67210308
_cell_angle_alpha   109.16388770
_cell_angle_beta   110.08785751
_cell_angle_gamma   109.16389243
_symmetry_Int_Tables_number   1
_chemical_formula_structural   NbTc5As14
_chemical_formula_sum   'Nb1 Tc5 As14'
_cell_volume   347.60236889
_cell_formula_units_Z   1
loop_
 _symmetry_equiv_pos_site_id
 _symmetry_equiv_pos_as_xyz
  1  'x, y, z'
loop_
 _atom_site_type_symbol
 _atom_site_label
 _atom_site_symmetry_multiplicity
 _atom_site_fract_x
 _atom_site_fract_y
 _atom_site_fract_z
 _atom_site_occupancy
  Nb  Nb0  1  0.341857  0.000002  0.341857  1
  Tc  Tc1  1  0.000189  0.341509  0.341699  1
  Tc  Tc2  1  0.000190  0.658490  0.658679  1
  Tc  Tc3  1  0.341699  0.341509  0.000189  1
  Tc  Tc4  1  0.658679  0.658490  0.000190  1
  Tc  Tc5  1  0.666006  0.000002  0.666006  1
  As  As6  1  0.751281  0.500000  0.251281  1
  As  As7  1  0.500304  0.746900  0.247205  1
  As  As8  1  0.500304  0.253100  0.753404  1
  As  As9  1  0.753404  0.253100  0.500304  1
  As  As10  1  0.247205  0.746900  0.500304  1
  As  As11  1  0.251281  0.500000  0.751281  1
  As  As12  1  0.995612  0.000001  0.329512  1
  As  As13  1  0.668956  0.000000  0.999723  1
  As  As14  1  0.995612  0.666098  0.995612  1
  As  As15  1  0.329511  0.333900  0.329511  1
  As  As16  1  0.999722  0.330768  0.999722  1
  As  As17  1  0.668955  0.669233  0.668955  1
  As  As18  1  0.329512  0.000001  0.995612  1
  As  As19  1  0.999723  0.000000  0.668956  1
