# generated using pymatgen
data_Yb6CuRu
_symmetry_space_group_name_H-M   'P 1'
_cell_length_a   6.85766206
_cell_length_b   6.85766167
_cell_length_c   9.32986300
_cell_angle_alpha   90.00000000
_cell_angle_beta   90.00000000
_cell_angle_gamma   148.21940249
_symmetry_Int_Tables_number   1
_chemical_formula_structural   Yb6CuRu
_chemical_formula_sum   'Yb6 Cu1 Ru1'
_cell_volume   231.08103278
_cell_formula_units_Z   1
loop_
 _symmetry_equiv_pos_site_id
 _symmetry_equiv_pos_as_xyz
  1  'x, y, z'
loop_
 _atom_site_type_symbol
 _atom_site_label
 _atom_site_symmetry_multiplicity
 _atom_site_fract_x
 _atom_site_fract_y
 _atom_site_fract_z
 _atom_site_occupancy
  Yb  Yb0  1  0.651547  0.348454  0.056020  1
  Yb  Yb1  1  0.928591  0.071411  0.250000  1
  Yb  Yb2  1  0.651547  0.348454  0.443979  1
  Yb  Yb3  1  0.349793  0.650208  0.575217  1
  Yb  Yb4  1  0.072985  0.927017  0.750000  1
  Yb  Yb5  1  0.349793  0.650208  0.924782  1
  Cu  Cu6  1  0.262760  0.737241  0.250000  1
  Ru  Ru7  1  0.732990  0.267011  0.750000  1
