# generated using pymatgen
data_ZrSc21Os7Ru
_symmetry_space_group_name_H-M   'P 1'
_cell_length_a   9.41476533
_cell_length_b   9.41423488
_cell_length_c   9.43771681
_cell_angle_alpha   60.61155935
_cell_angle_beta   60.61315865
_cell_angle_gamma   60.56000221
_symmetry_Int_Tables_number   1
_chemical_formula_structural   ZrSc21Os7Ru
_chemical_formula_sum   'Zr1 Sc21 Os7 Ru1'
_cell_volume   599.43591910
_cell_formula_units_Z   1
loop_
 _symmetry_equiv_pos_site_id
 _symmetry_equiv_pos_as_xyz
  1  'x, y, z'
loop_
 _atom_site_type_symbol
 _atom_site_label
 _atom_site_symmetry_multiplicity
 _atom_site_fract_x
 _atom_site_fract_y
 _atom_site_fract_z
 _atom_site_occupancy
  Zr  Zr0  1  0.842235  0.842182  0.843800  1
  Sc  Sc1  1  0.533529  0.156116  0.154550  1
  Sc  Sc2  1  0.155962  0.155998  0.532347  1
  Sc  Sc3  1  0.156082  0.533570  0.154551  1
  Sc  Sc4  1  0.844637  0.844639  0.467544  1
  Sc  Sc5  1  0.844415  0.466314  0.846010  1
  Sc  Sc6  1  0.466370  0.844384  0.845987  1
  Sc  Sc7  1  0.158285  0.158296  0.156681  1
  Sc  Sc8  1  0.196272  0.805235  0.199104  1
  Sc  Sc9  1  0.198606  0.802434  0.799371  1
  Sc  Sc10  1  0.805213  0.196288  0.199120  1
  Sc  Sc11  1  0.799849  0.799894  0.201325  1
  Sc  Sc12  1  0.198843  0.198820  0.802768  1
  Sc  Sc13  1  0.802416  0.198554  0.799399  1
  Sc  Sc14  1  0.380676  0.380639  0.384462  1
  Sc  Sc15  1  0.149957  0.614809  0.614606  1
  Sc  Sc16  1  0.614804  0.149949  0.614621  1
  Sc  Sc17  1  0.615018  0.615051  0.151470  1
  Sc  Sc18  1  0.384214  0.850896  0.384452  1
  Sc  Sc19  1  0.384105  0.384089  0.849445  1
  Sc  Sc20  1  0.850885  0.384215  0.384471  1
  Sc  Sc21  1  0.619357  0.619391  0.615521  1
  Os  Os22  1  0.998330  0.998358  0.502986  1
  Os  Os23  1  0.499887  0.999259  0.499800  1
  Os  Os24  1  0.999280  0.499907  0.499804  1
  Os  Os25  1  0.502857  0.998507  0.998198  1
  Os  Os26  1  0.998525  0.502818  0.998217  1
  Os  Os27  1  0.500094  0.500091  0.500115  1
  Os  Os28  1  0.999618  0.999611  0.999558  1
  Ru  Ru29  1  0.499675  0.499687  0.999716  1
