# generated using pymatgen
data_Pm4Pt3
_symmetry_space_group_name_H-M   'P 1'
_cell_length_a   4.54023566
_cell_length_b   7.86178552
_cell_length_c   8.92423020
_cell_angle_alpha   128.64136289
_cell_angle_beta   120.53706807
_cell_angle_gamma   90.05484354
_symmetry_Int_Tables_number   1
_chemical_formula_structural   Pm4Pt3
_chemical_formula_sum   'Pm4 Pt3'
_cell_volume   188.80339602
_cell_formula_units_Z   1
loop_
 _symmetry_equiv_pos_site_id
 _symmetry_equiv_pos_as_xyz
  1  'x, y, z'
loop_
 _atom_site_type_symbol
 _atom_site_label
 _atom_site_symmetry_multiplicity
 _atom_site_fract_x
 _atom_site_fract_y
 _atom_site_fract_z
 _atom_site_occupancy
  Pm  Pm0  1  0.740996  0.802696  0.681550  1
  Pm  Pm1  1  0.629929  0.332468  0.070192  1
  Pm  Pm2  1  0.227330  0.786834  0.167881  1
  Pm  Pm3  1  0.139308  0.328235  0.579540  1
  Pt  Pt4  1  0.818107  0.242384  0.758372  1
  Pt  Pt5  1  0.556525  0.896375  0.997051  1
  Pt  Pt6  1  0.048371  0.875044  0.489023  1
