# generated using pymatgen
data_Tm8Sc12Ga4Si11Ge
_symmetry_space_group_name_H-M   'P 1'
_cell_length_a   7.09082348
_cell_length_b   7.37952876
_cell_length_c   14.06787915
_cell_angle_alpha   90.00547159
_cell_angle_beta   89.84193391
_cell_angle_gamma   90.19984312
_symmetry_Int_Tables_number   1
_chemical_formula_structural   Tm8Sc12Ga4Si11Ge
_chemical_formula_sum   'Tm8 Sc12 Ga4 Si11 Ge1'
_cell_volume   736.12172701
_cell_formula_units_Z   1
loop_
 _symmetry_equiv_pos_site_id
 _symmetry_equiv_pos_as_xyz
  1  'x, y, z'
loop_
 _atom_site_type_symbol
 _atom_site_label
 _atom_site_symmetry_multiplicity
 _atom_site_fract_x
 _atom_site_fract_y
 _atom_site_fract_z
 _atom_site_occupancy
  Tm  Tm0  1  0.013588  0.175493  0.097038  1
  Tm  Tm1  1  0.988208  0.823107  0.902350  1
  Tm  Tm2  1  0.487214  0.677559  0.901727  1
  Tm  Tm3  1  0.988091  0.825672  0.599735  1
  Tm  Tm4  1  0.510765  0.320675  0.097208  1
  Tm  Tm5  1  0.009606  0.175340  0.400603  1
  Tm  Tm6  1  0.510876  0.323875  0.400514  1
  Tm  Tm7  1  0.490494  0.676364  0.600450  1
  Sc  Sc8  1  0.163439  0.503247  0.751589  1
  Sc  Sc9  1  0.836589  0.497696  0.249993  1
  Sc  Sc10  1  0.336145  0.002864  0.248299  1
  Sc  Sc11  1  0.661225  0.996636  0.750044  1
  Sc  Sc12  1  0.335049  0.174630  0.627603  1
  Sc  Sc13  1  0.669010  0.826574  0.373498  1
  Sc  Sc14  1  0.170014  0.673372  0.372862  1
  Sc  Sc15  1  0.668558  0.826394  0.125580  1
  Sc  Sc16  1  0.827823  0.326335  0.626053  1
  Sc  Sc17  1  0.332061  0.175737  0.875013  1
  Sc  Sc18  1  0.827809  0.324990  0.875057  1
  Sc  Sc19  1  0.173162  0.675232  0.124409  1
  Ga  Ga20  1  0.162951  0.461434  0.539715  1
  Ga  Ga21  1  0.838060  0.537945  0.461348  1
  Ga  Ga22  1  0.338125  0.962054  0.461540  1
  Ga  Ga23  1  0.838584  0.538080  0.038736  1
  Si  Si24  1  0.967484  0.885489  0.249125  1
  Si  Si25  1  0.467703  0.612917  0.248417  1
  Si  Si26  1  0.532829  0.386686  0.751279  1
  Si  Si27  1  0.288773  0.866956  0.751196  1
  Si  Si28  1  0.714769  0.129736  0.248583  1
  Si  Si29  1  0.213938  0.370102  0.248625  1
  Si  Si30  1  0.787045  0.630617  0.751547  1
  Si  Si31  1  0.659349  0.035801  0.539249  1
  Si  Si32  1  0.159073  0.463862  0.960793  1
  Si  Si33  1  0.657972  0.035486  0.961309  1
  Si  Si34  1  0.343121  0.964547  0.037680  1
  Ge  Ge35  1  0.030501  0.116497  0.751233  1
