# generated using pymatgen
data_SmLuPuO6
_symmetry_space_group_name_H-M   'P 1'
_cell_length_a   5.57618000
_cell_length_b   7.84640130
_cell_length_c   11.73996000
_cell_angle_alpha   74.50802881
_cell_angle_beta   90.00000000
_cell_angle_gamma   90.00000000
_symmetry_Int_Tables_number   1
_chemical_formula_structural   SmLuPuO6
_chemical_formula_sum   'Sm4 Lu4 Pu4 O24'
_cell_volume   494.99556393
_cell_formula_units_Z   4
loop_
 _symmetry_equiv_pos_site_id
 _symmetry_equiv_pos_as_xyz
  1  'x, y, z'
loop_
 _atom_site_type_symbol
 _atom_site_label
 _atom_site_symmetry_multiplicity
 _atom_site_fract_x
 _atom_site_fract_y
 _atom_site_fract_z
 _atom_site_occupancy
  Sm  Sm0  1  0.749162  0.000000  0.750000  1
  Sm  Sm1  1  0.250838  0.000000  0.250000  1
  Sm  Sm2  1  0.693168  0.500000  0.750000  1
  Sm  Sm3  1  0.306832  0.500000  0.250000  1
  Lu  Lu4  1  0.182723  0.790550  0.582059  1
  Lu  Lu5  1  0.817277  0.790550  0.082059  1
  Lu  Lu6  1  0.182723  0.209450  0.917941  1
  Lu  Lu7  1  0.817277  0.209450  0.417941  1
  Pu  Pu8  1  0.257405  0.724189  0.887464  1
  Pu  Pu9  1  0.742595  0.724189  0.387464  1
  Pu  Pu10  1  0.257405  0.275811  0.612536  1
  Pu  Pu11  1  0.742595  0.275811  0.112536  1
  O  O12  1  0.057324  0.947149  0.900636  1
  O  O13  1  0.563926  0.840787  0.936904  1
  O  O14  1  0.942676  0.947149  0.400636  1
  O  O15  1  0.447014  0.797072  0.724336  1
  O  O16  1  0.436074  0.840787  0.436904  1
  O  O17  1  0.970974  0.717137  0.765305  1
  O  O18  1  0.552986  0.797072  0.224336  1
  O  O19  1  0.874157  0.632533  0.555063  1
  O  O20  1  0.371487  0.482083  0.884673  1
  O  O21  1  0.029026  0.717137  0.265305  1
  O  O22  1  0.371487  0.517917  0.615327  1
  O  O23  1  0.874157  0.367467  0.944937  1
  O  O24  1  0.125843  0.632533  0.055063  1
  O  O25  1  0.628513  0.482083  0.384673  1
  O  O26  1  0.970974  0.282863  0.734695  1
  O  O27  1  0.628513  0.517917  0.115327  1
  O  O28  1  0.125843  0.367467  0.444937  1
  O  O29  1  0.447014  0.202928  0.775664  1
  O  O30  1  0.029026  0.282863  0.234695  1
  O  O31  1  0.563926  0.159213  0.563096  1
  O  O32  1  0.552986  0.202928  0.275664  1
  O  O33  1  0.057324  0.052851  0.599364  1
  O  O34  1  0.436074  0.159213  0.063096  1
  O  O35  1  0.942676  0.052851  0.099364  1
