# generated using pymatgen
data_Y3ThAl18PtRh5
_symmetry_space_group_name_H-M   'P 1'
_cell_length_a   7.59622101
_cell_length_b   7.60617941
_cell_length_c   9.49584996
_cell_angle_alpha   90.03963198
_cell_angle_beta   90.00924014
_cell_angle_gamma   119.44965148
_symmetry_Int_Tables_number   1
_chemical_formula_structural   Y3ThAl18PtRh5
_chemical_formula_sum   'Y3 Th1 Al18 Pt1 Rh5'
_cell_volume   477.76056352
_cell_formula_units_Z   1
loop_
 _symmetry_equiv_pos_site_id
 _symmetry_equiv_pos_as_xyz
  1  'x, y, z'
loop_
 _atom_site_type_symbol
 _atom_site_label
 _atom_site_symmetry_multiplicity
 _atom_site_fract_x
 _atom_site_fract_y
 _atom_site_fract_z
 _atom_site_occupancy
  Y  Y0  1  0.004656  0.327967  0.750141  1
  Y  Y1  1  0.672315  0.994622  0.249890  1
  Y  Y2  1  0.328785  0.005784  0.749911  1
  Th  Th3  1  0.995401  0.671448  0.250335  1
  Al  Al4  1  0.131495  0.132473  0.250178  1
  Al  Al5  1  0.872303  0.873817  0.749676  1
  Al  Al6  1  0.004150  0.331434  0.073403  1
  Al  Al7  1  0.002816  0.667878  0.917822  1
  Al  Al8  1  0.999685  0.664029  0.581216  1
  Al  Al9  1  0.340091  0.004481  0.428327  1
  Al  Al10  1  0.000999  0.331027  0.428109  1
  Al  Al11  1  0.664670  0.000388  0.576170  1
  Al  Al12  1  0.664619  0.997119  0.922606  1
  Al  Al13  1  0.336189  0.001465  0.072867  1
  Al  Al14  1  0.331760  0.332069  0.553349  1
  Al  Al15  1  0.663555  0.666954  0.455669  1
  Al  Al16  1  0.662948  0.669298  0.046044  1
  Al  Al17  1  0.329670  0.332910  0.945149  1
  Al  Al18  1  0.344109  0.548975  0.250140  1
  Al  Al19  1  0.657711  0.450506  0.746908  1
  Al  Al20  1  0.543482  0.338141  0.253096  1
  Al  Al21  1  0.448606  0.660123  0.749663  1
  Pt  Pt22  1  0.673306  0.328647  0.000153  1
  Rh  Rh23  1  0.326676  0.671397  0.000317  1
  Rh  Rh24  1  0.326764  0.671415  0.499458  1
  Rh  Rh25  1  0.673066  0.328824  0.499597  1
  Rh  Rh26  1  0.999930  0.998512  0.000614  1
  Rh  Rh27  1  0.000240  0.998298  0.499194  1
