# generated using pymatgen
data_Cs3RbTm4(SiSe4)4
_symmetry_space_group_name_H-M   'P 1'
_cell_length_a   7.03269445
_cell_length_b   6.66070028
_cell_length_c   19.47115127
_cell_angle_alpha   72.07432921
_cell_angle_beta   89.86466579
_cell_angle_gamma   89.98141376
_symmetry_Int_Tables_number   1
_chemical_formula_structural   Cs3RbTm4(SiSe4)4
_chemical_formula_sum   'Cs3 Rb1 Tm4 Si4 Se16'
_cell_volume   867.80271365
_cell_formula_units_Z   1
loop_
 _symmetry_equiv_pos_site_id
 _symmetry_equiv_pos_as_xyz
  1  'x, y, z'
loop_
 _atom_site_type_symbol
 _atom_site_label
 _atom_site_symmetry_multiplicity
 _atom_site_fract_x
 _atom_site_fract_y
 _atom_site_fract_z
 _atom_site_occupancy
  Cs  Cs0  1  0.247925  0.735054  0.031589  1
  Cs  Cs1  1  0.252410  0.735545  0.531914  1
  Cs  Cs2  1  0.747852  0.265136  0.467991  1
  Rb  Rb3  1  0.748327  0.269251  0.965792  1
  Tm  Tm4  1  0.777705  0.230577  0.226235  1
  Tm  Tm5  1  0.222408  0.768561  0.774232  1
  Tm  Tm6  1  0.723133  0.230080  0.728717  1
  Tm  Tm7  1  0.277730  0.770172  0.271195  1
  Si  Si8  1  0.261819  0.216580  0.831834  1
  Si  Si9  1  0.237447  0.216710  0.329987  1
  Si  Si10  1  0.762074  0.782197  0.671027  1
  Si  Si11  1  0.738737  0.783562  0.167505  1
  Se  Se12  1  0.492917  0.986513  0.658979  1
  Se  Se13  1  0.170537  0.431076  0.216685  1
  Se  Se14  1  0.506991  0.013175  0.341312  1
  Se  Se15  1  0.991753  0.013468  0.844191  1
  Se  Se16  1  0.329380  0.431516  0.718508  1
  Se  Se17  1  0.256564  0.418137  0.906950  1
  Se  Se18  1  0.743746  0.578104  0.093654  1
  Se  Se19  1  0.829112  0.567318  0.784508  1
  Se  Se20  1  0.757867  0.579307  0.596354  1
  Se  Se21  1  0.242853  0.420680  0.404197  1
  Se  Se22  1  0.497163  0.966146  0.853061  1
  Se  Se23  1  0.997546  0.032787  0.649570  1
  Se  Se24  1  0.504786  0.035487  0.145848  1
  Se  Se25  1  0.008138  0.987530  0.155923  1
  Se  Se26  1  0.002674  0.965556  0.351138  1
  Se  Se27  1  0.670406  0.569778  0.281103  1
