# generated using pymatgen
data_Er4Ga2CoB4Ir9
_symmetry_space_group_name_H-M   'P 1'
_cell_length_a   9.49261869
_cell_length_b   9.49261869
_cell_length_c   3.14056300
_cell_angle_alpha   90.00000000
_cell_angle_beta   90.00000000
_cell_angle_gamma   90.23924818
_symmetry_Int_Tables_number   1
_chemical_formula_structural   Er4Ga2CoB4Ir9
_chemical_formula_sum   'Er4 Ga2 Co1 B4 Ir9'
_cell_volume   282.99306673
_cell_formula_units_Z   1
loop_
 _symmetry_equiv_pos_site_id
 _symmetry_equiv_pos_as_xyz
  1  'x, y, z'
loop_
 _atom_site_type_symbol
 _atom_site_label
 _atom_site_symmetry_multiplicity
 _atom_site_fract_x
 _atom_site_fract_y
 _atom_site_fract_z
 _atom_site_occupancy
  Er  Er0  1  0.821119  0.321119  0.000000  1
  Er  Er1  1  0.178881  0.678881  0.000000  1
  Er  Er2  1  0.327318  0.172682  0.000000  1
  Er  Er3  1  0.672682  0.827318  0.000000  1
  Ga  Ga4  1  0.500000  0.500000  0.000000  1
  Ga  Ga5  1  0.000000  0.000000  0.000000  1
  Co  Co6  1  0.500000  0.000000  0.500000  1
  B  B7  1  0.613771  0.113771  0.000000  1
  B  B8  1  0.386229  0.886229  0.000000  1
  B  B9  1  0.123049  0.376951  0.000000  1
  B  B10  1  0.876951  0.623049  0.000000  1
  Ir  Ir11  1  0.000000  0.500000  0.500000  1
  Ir  Ir12  1  0.717549  0.568831  0.500000  1
  Ir  Ir13  1  0.282451  0.431169  0.500000  1
  Ir  Ir14  1  0.224873  0.934737  0.500000  1
  Ir  Ir15  1  0.775127  0.065263  0.500000  1
  Ir  Ir16  1  0.434737  0.724873  0.500000  1
  Ir  Ir17  1  0.565263  0.275127  0.500000  1
  Ir  Ir18  1  0.068831  0.217549  0.500000  1
  Ir  Ir19  1  0.931169  0.782451  0.500000  1
