# generated using pymatgen
data_DyY2Zr(NiAs)4
_symmetry_space_group_name_H-M   'P 1'
_cell_length_a   4.03137600
_cell_length_b   4.03137648
_cell_length_c   15.27886000
_cell_angle_alpha   90.00000000
_cell_angle_beta   90.00000000
_cell_angle_gamma   120.00001251
_symmetry_Int_Tables_number   1
_chemical_formula_structural   DyY2Zr(NiAs)4
_chemical_formula_sum   'Dy1 Y2 Zr1 Ni4 As4'
_cell_volume   215.04442681
_cell_formula_units_Z   1
loop_
 _symmetry_equiv_pos_site_id
 _symmetry_equiv_pos_as_xyz
  1  'x, y, z'
loop_
 _atom_site_type_symbol
 _atom_site_label
 _atom_site_symmetry_multiplicity
 _atom_site_fract_x
 _atom_site_fract_y
 _atom_site_fract_z
 _atom_site_occupancy
  Dy  Dy0  1  0.000000  0.000000  0.750000  1
  Y  Y1  1  0.000000  0.000000  0.006937  1
  Y  Y2  1  0.000000  0.000000  0.493063  1
  Zr  Zr3  1  0.000000  0.000000  0.250000  1
  Ni  Ni4  1  0.333333  0.666667  0.158644  1
  Ni  Ni5  1  0.666667  0.333333  0.874500  1
  Ni  Ni6  1  0.666667  0.333333  0.625500  1
  Ni  Ni7  1  0.333333  0.666667  0.341356  1
  As  As8  1  0.333333  0.666667  0.619081  1
  As  As9  1  0.666667  0.333333  0.375471  1
  As  As10  1  0.666667  0.333333  0.124529  1
  As  As11  1  0.333333  0.666667  0.880919  1
