# generated using pymatgen
data_Sm3Er2Zr3(Ni4P3)4
_symmetry_space_group_name_H-M   'P 1'
_cell_length_a   12.37791415
_cell_length_b   12.38125804
_cell_length_c   3.82098100
_cell_angle_alpha   90.00000000
_cell_angle_beta   90.00000000
_cell_angle_gamma   120.00893826
_symmetry_Int_Tables_number   1
_chemical_formula_structural   Sm3Er2Zr3(Ni4P3)4
_chemical_formula_sum   'Sm3 Er2 Zr3 Ni16 P12'
_cell_volume   507.08250587
_cell_formula_units_Z   1
loop_
 _symmetry_equiv_pos_site_id
 _symmetry_equiv_pos_as_xyz
  1  'x, y, z'
loop_
 _atom_site_type_symbol
 _atom_site_label
 _atom_site_symmetry_multiplicity
 _atom_site_fract_x
 _atom_site_fract_y
 _atom_site_fract_z
 _atom_site_occupancy
  Sm  Sm0  1  0.000000  0.815285  0.500000  1
  Sm  Sm1  1  0.333092  0.666472  0.000000  1
  Sm  Sm2  1  0.666908  0.333379  0.000000  1
  Er  Er3  1  0.185562  0.185811  0.500000  1
  Er  Er4  1  0.814438  0.000248  0.500000  1
  Zr  Zr5  1  0.562553  0.562960  0.000000  1
  Zr  Zr6  1  0.437447  0.000407  0.000000  1
  Zr  Zr7  1  0.000000  0.435755  0.000000  1
  Ni  Ni8  1  0.726843  0.728744  0.500000  1
  Ni  Ni9  1  0.273157  0.001901  0.500000  1
  Ni  Ni10  1  0.000000  0.270687  0.500000  1
  Ni  Ni11  1  0.185476  0.374631  0.000000  1
  Ni  Ni12  1  0.624747  0.810676  0.000000  1
  Ni  Ni13  1  0.191300  0.813994  0.000000  1
  Ni  Ni14  1  0.808700  0.622694  0.000000  1
  Ni  Ni15  1  0.814524  0.189156  0.000000  1
  Ni  Ni16  1  0.375253  0.185929  0.000000  1
  Ni  Ni17  1  0.361349  0.483993  0.500000  1
  Ni  Ni18  1  0.515706  0.877259  0.500000  1
  Ni  Ni19  1  0.122754  0.637586  0.500000  1
  Ni  Ni20  1  0.877246  0.514830  0.500000  1
  Ni  Ni21  1  0.638651  0.122643  0.500000  1
  Ni  Ni22  1  0.484294  0.361552  0.500000  1
  Ni  Ni23  1  0.000000  0.001656  0.000000  1
  P  P24  1  0.821306  0.824269  0.000000  1
  P  P25  1  0.178694  0.002964  0.000000  1
  P  P26  1  0.000000  0.177075  0.000000  1
  P  P27  1  0.169961  0.472663  0.500000  1
  P  P28  1  0.526095  0.696573  0.500000  1
  P  P29  1  0.302908  0.830313  0.500000  1
  P  P30  1  0.697092  0.527406  0.500000  1
  P  P31  1  0.830039  0.302702  0.500000  1
  P  P32  1  0.473905  0.170479  0.500000  1
  P  P33  1  0.356928  0.356920  0.000000  1
  P  P34  1  0.643072  0.999992  0.000000  1
  P  P35  1  0.000000  0.640397  0.000000  1
