# generated using pymatgen
data_RbV2(Sb6Pt)2
_symmetry_space_group_name_H-M   'P 1'
_cell_length_a   8.29252967
_cell_length_b   8.35590054
_cell_length_c   8.30203114
_cell_angle_alpha   109.56873218
_cell_angle_beta   109.24965809
_cell_angle_gamma   109.31549618
_symmetry_Int_Tables_number   1
_chemical_formula_structural   RbV2(Sb6Pt)2
_chemical_formula_sum   'Rb1 V2 Sb12 Pt2'
_cell_volume   444.35540323
_cell_formula_units_Z   1
loop_
 _symmetry_equiv_pos_site_id
 _symmetry_equiv_pos_as_xyz
  1  'x, y, z'
loop_
 _atom_site_type_symbol
 _atom_site_label
 _atom_site_symmetry_multiplicity
 _atom_site_fract_x
 _atom_site_fract_y
 _atom_site_fract_z
 _atom_site_occupancy
  Rb  Rb0  1  0.000000  0.000000  0.000000  1
  V  V1  1  0.500000  0.000000  0.000000  1
  V  V2  1  0.000000  0.000000  0.500000  1
  Sb  Sb3  1  0.846151  0.654534  0.499461  1
  Sb  Sb4  1  0.153849  0.345466  0.500539  1
  Sb  Sb5  1  0.155062  0.654618  0.808427  1
  Sb  Sb6  1  0.844938  0.345382  0.191573  1
  Sb  Sb7  1  0.652029  0.500059  0.848046  1
  Sb  Sb8  1  0.347971  0.499941  0.151954  1
  Sb  Sb9  1  0.656413  0.814543  0.158095  1
  Sb  Sb10  1  0.343587  0.185457  0.841905  1
  Sb  Sb11  1  0.499262  0.843907  0.652789  1
  Sb  Sb12  1  0.500738  0.156093  0.347211  1
  Sb  Sb13  1  0.191169  0.843887  0.344745  1
  Sb  Sb14  1  0.808831  0.156113  0.655255  1
  Pt  Pt15  1  0.500000  0.500000  0.500000  1
  Pt  Pt16  1  0.000000  0.500000  0.000000  1
