# generated using pymatgen
data_Rb3La(VSe4)2
_symmetry_space_group_name_H-M   'P 1'
_cell_length_a   10.42328195
_cell_length_b   7.29549800
_cell_length_c   12.26313706
_cell_angle_alpha   90.00000000
_cell_angle_beta   90.63966629
_cell_angle_gamma   90.00000000
_symmetry_Int_Tables_number   1
_chemical_formula_structural   Rb3La(VSe4)2
_chemical_formula_sum   'Rb6 La2 V4 Se16'
_cell_volume   932.46801618
_cell_formula_units_Z   2
loop_
 _symmetry_equiv_pos_site_id
 _symmetry_equiv_pos_as_xyz
  1  'x, y, z'
loop_
 _atom_site_type_symbol
 _atom_site_label
 _atom_site_symmetry_multiplicity
 _atom_site_fract_x
 _atom_site_fract_y
 _atom_site_fract_z
 _atom_site_occupancy
  Rb  Rb0  1  0.364762  0.801509  0.089757  1
  Rb  Rb1  1  0.400765  0.307273  0.348279  1
  Rb  Rb2  1  0.838692  0.308214  0.426110  1
  Rb  Rb3  1  0.161308  0.808214  0.573891  1
  Rb  Rb4  1  0.599235  0.807273  0.651721  1
  Rb  Rb5  1  0.635239  0.301509  0.910243  1
  La  La6  1  0.887926  0.784439  0.149930  1
  La  La7  1  0.112074  0.284439  0.850070  1
  V  V8  1  0.091408  0.333998  0.159423  1
  V  V9  1  0.629101  0.807157  0.312764  1
  V  V10  1  0.370899  0.307156  0.687236  1
  V  V11  1  0.908592  0.833998  0.840577  1
  Se  Se12  1  0.928250  0.395354  0.037975  1
  Se  Se13  1  0.277218  0.305673  0.062317  1
  Se  Se14  1  0.657143  0.050969  0.196554  1
  Se  Se15  1  0.644298  0.552081  0.201903  1
  Se  Se16  1  0.060325  0.076129  0.262290  1
  Se  Se17  1  0.103083  0.579457  0.274398  1
  Se  Se18  1  0.438893  0.817178  0.398701  1
  Se  Se19  1  0.811278  0.802846  0.419453  1
  Se  Se20  1  0.188723  0.302845  0.580547  1
  Se  Se21  1  0.561106  0.317177  0.601299  1
  Se  Se22  1  0.896917  0.079456  0.725602  1
  Se  Se23  1  0.939675  0.576129  0.737710  1
  Se  Se24  1  0.355702  0.052082  0.798097  1
  Se  Se25  1  0.342857  0.550967  0.803446  1
  Se  Se26  1  0.722781  0.805674  0.937683  1
  Se  Se27  1  0.071750  0.895354  0.962024  1
