# generated using pymatgen
data_LiLa19(Bi2Ru)4
_symmetry_space_group_name_H-M   'P 1'
_cell_length_a   8.52472790
_cell_length_b   9.28690800
_cell_length_c   13.00228700
_cell_angle_alpha   90.00000000
_cell_angle_beta   89.79626205
_cell_angle_gamma   90.00000000
_symmetry_Int_Tables_number   1
_chemical_formula_structural   LiLa19(Bi2Ru)4
_chemical_formula_sum   'Li1 La19 Bi8 Ru4'
_cell_volume   1029.36327809
_cell_formula_units_Z   1
loop_
 _symmetry_equiv_pos_site_id
 _symmetry_equiv_pos_as_xyz
  1  'x, y, z'
loop_
 _atom_site_type_symbol
 _atom_site_label
 _atom_site_symmetry_multiplicity
 _atom_site_fract_x
 _atom_site_fract_y
 _atom_site_fract_z
 _atom_site_occupancy
  Li  Li0  1  0.551769  0.750000  0.000981  1
  La  La1  1  0.845217  0.750000  0.804084  1
  La  La2  1  0.151653  0.250000  0.197907  1
  La  La3  1  0.350905  0.250000  0.704614  1
  La  La4  1  0.652835  0.750000  0.291503  1
  La  La5  1  0.379854  0.750000  0.694803  1
  La  La6  1  0.619684  0.250000  0.303465  1
  La  La7  1  0.876190  0.250000  0.808264  1
  La  La8  1  0.121520  0.750000  0.193076  1
  La  La9  1  0.938508  0.750000  0.504472  1
  La  La10  1  0.057681  0.250000  0.496592  1
  La  La11  1  0.444544  0.250000  0.996673  1
  La  La12  1  0.679804  0.035184  0.565648  1
  La  La13  1  0.321534  0.963365  0.434536  1
  La  La14  1  0.182118  0.963226  0.935967  1
  La  La15  1  0.321534  0.536635  0.434536  1
  La  La16  1  0.812030  0.024059  0.063508  1
  La  La17  1  0.679804  0.464816  0.565648  1
  La  La18  1  0.812030  0.475941  0.063508  1
  La  La19  1  0.182118  0.536774  0.935967  1
  Bi  Bi20  1  0.573609  0.498608  0.834270  1
  Bi  Bi21  1  0.429906  0.513080  0.167531  1
  Bi  Bi22  1  0.072769  0.506727  0.673338  1
  Bi  Bi23  1  0.429906  0.986920  0.167531  1
  Bi  Bi24  1  0.926901  0.492626  0.326596  1
  Bi  Bi25  1  0.573609  0.001392  0.834270  1
  Bi  Bi26  1  0.926901  0.007374  0.326596  1
  Bi  Bi27  1  0.072769  0.993273  0.673338  1
  Ru  Ru28  1  0.576978  0.750000  0.513131  1
  Ru  Ru29  1  0.417935  0.250000  0.487408  1
  Ru  Ru30  1  0.085270  0.250000  0.985681  1
  Ru  Ru31  1  0.932120  0.750000  0.014560  1
