# generated using pymatgen
data_Pr8Lu12Si15P
_symmetry_space_group_name_H-M   'P 1'
_cell_length_a   7.42590361
_cell_length_b   7.72525221
_cell_length_c   14.57514200
_cell_angle_alpha   90.00000000
_cell_angle_beta   90.00000000
_cell_angle_gamma   90.55665010
_symmetry_Int_Tables_number   1
_chemical_formula_structural   Pr8Lu12Si15P
_chemical_formula_sum   'Pr8 Lu12 Si15 P1'
_cell_volume   836.09239386
_cell_formula_units_Z   1
loop_
 _symmetry_equiv_pos_site_id
 _symmetry_equiv_pos_as_xyz
  1  'x, y, z'
loop_
 _atom_site_type_symbol
 _atom_site_label
 _atom_site_symmetry_multiplicity
 _atom_site_fract_x
 _atom_site_fract_y
 _atom_site_fract_z
 _atom_site_occupancy
  Pr  Pr0  1  0.014328  0.175031  0.402346  1
  Pr  Pr1  1  0.514782  0.325934  0.402332  1
  Pr  Pr2  1  0.488565  0.672637  0.901787  1
  Pr  Pr3  1  0.488565  0.672637  0.598213  1
  Pr  Pr4  1  0.990598  0.827342  0.601347  1
  Pr  Pr5  1  0.990598  0.827342  0.898653  1
  Pr  Pr6  1  0.514782  0.325934  0.097668  1
  Pr  Pr7  1  0.014328  0.175031  0.097654  1
  Lu  Lu8  1  0.322474  0.169584  0.627215  1
  Lu  Lu9  1  0.673735  0.824038  0.375652  1
  Lu  Lu10  1  0.658585  0.992913  0.750000  1
  Lu  Lu11  1  0.171568  0.677244  0.376647  1
  Lu  Lu12  1  0.824007  0.327483  0.876543  1
  Lu  Lu13  1  0.824007  0.327483  0.623457  1
  Lu  Lu14  1  0.838251  0.492867  0.250000  1
  Lu  Lu15  1  0.340705  0.006415  0.250000  1
  Lu  Lu16  1  0.322474  0.169584  0.872785  1
  Lu  Lu17  1  0.171568  0.677244  0.123353  1
  Lu  Lu18  1  0.673735  0.824038  0.124348  1
  Lu  Lu19  1  0.159257  0.505119  0.750000  1
  Si  Si20  1  0.465194  0.618609  0.250000  1
  Si  Si21  1  0.017515  0.135118  0.750000  1
  Si  Si22  1  0.528882  0.375955  0.750000  1
  Si  Si23  1  0.154300  0.465132  0.540424  1
  Si  Si24  1  0.969134  0.881921  0.250000  1
  Si  Si25  1  0.715837  0.122179  0.250000  1
  Si  Si26  1  0.847156  0.536367  0.039129  1
  Si  Si27  1  0.349059  0.966438  0.038008  1
  Si  Si28  1  0.154300  0.465132  0.959576  1
  Si  Si29  1  0.650967  0.033045  0.540096  1
  Si  Si30  1  0.349059  0.966438  0.461992  1
  Si  Si31  1  0.847156  0.536367  0.460871  1
  Si  Si32  1  0.786630  0.625770  0.750000  1
  Si  Si33  1  0.216657  0.379350  0.250000  1
  Si  Si34  1  0.650967  0.033045  0.959904  1
  P  P35  1  0.300279  0.863239  0.750000  1
