# generated using pymatgen
data_Pr11In9Ir3Pt
_symmetry_space_group_name_H-M   'P 1'
_cell_length_a   13.50448134
_cell_length_b   13.52621012
_cell_length_c   3.88858000
_cell_angle_alpha   90.00000000
_cell_angle_beta   90.00000000
_cell_angle_gamma   111.61647338
_symmetry_Int_Tables_number   1
_chemical_formula_structural   Pr11In9Ir3Pt
_chemical_formula_sum   'Pr11 In9 Ir3 Pt1'
_cell_volume   660.34999185
_cell_formula_units_Z   1
loop_
 _symmetry_equiv_pos_site_id
 _symmetry_equiv_pos_as_xyz
  1  'x, y, z'
loop_
 _atom_site_type_symbol
 _atom_site_label
 _atom_site_symmetry_multiplicity
 _atom_site_fract_x
 _atom_site_fract_y
 _atom_site_fract_z
 _atom_site_occupancy
  Pr  Pr0  1  0.499965  0.500252  0.500000  1
  Pr  Pr1  1  0.815621  0.810442  0.500000  1
  Pr  Pr2  1  0.186775  0.186377  0.500000  1
  Pr  Pr3  1  0.575780  0.918062  0.500000  1
  Pr  Pr4  1  0.419635  0.080332  0.500000  1
  Pr  Pr5  1  0.919214  0.579498  0.500000  1
  Pr  Pr6  1  0.080779  0.420625  0.500000  1
  Pr  Pr7  1  0.127010  0.873722  0.500000  1
  Pr  Pr8  1  0.876195  0.131057  0.500000  1
  Pr  Pr9  1  0.340525  0.659664  0.500000  1
  Pr  Pr10  1  0.659892  0.341012  0.500000  1
  In  In11  1  0.338404  0.865422  0.000000  1
  In  In12  1  0.660032  0.135178  0.000000  1
  In  In13  1  0.865339  0.338049  0.000000  1
  In  In14  1  0.134843  0.661543  0.000000  1
  In  In15  1  0.576705  0.718480  0.000000  1
  In  In16  1  0.421486  0.280655  0.000000  1
  In  In17  1  0.719756  0.578353  0.000000  1
  In  In18  1  0.280444  0.421182  0.000000  1
  In  In19  1  0.999864  0.000256  0.000000  1
  Ir  Ir20  1  0.253373  0.046366  0.000000  1
  Ir  Ir21  1  0.952561  0.746297  0.000000  1
  Ir  Ir22  1  0.047550  0.254555  0.000000  1
  Pt  Pt23  1  0.748251  0.952622  0.000000  1
