# generated using pymatgen
data_CoS27
_symmetry_space_group_name_H-M   'P 1'
_cell_length_a   15.00104639
_cell_length_b   15.00104077
_cell_length_c   15.00105371
_cell_angle_alpha   118.69064656
_cell_angle_beta   118.69071607
_cell_angle_gamma   118.69063120
_symmetry_Int_Tables_number   1
_chemical_formula_structural   CoS27
_chemical_formula_sum   'Co1 S27'
_cell_volume   997.24867915
_cell_formula_units_Z   1
loop_
 _symmetry_equiv_pos_site_id
 _symmetry_equiv_pos_as_xyz
  1  'x, y, z'
loop_
 _atom_site_type_symbol
 _atom_site_label
 _atom_site_symmetry_multiplicity
 _atom_site_fract_x
 _atom_site_fract_y
 _atom_site_fract_z
 _atom_site_occupancy
  Co  Co0  1  0.943898  0.943897  0.943897  1
  S  S1  1  0.802381  0.521220  0.521220  1
  S  S2  1  0.521217  0.521217  0.802379  1
  S  S3  1  0.521218  0.802379  0.521218  1
  S  S4  1  0.245769  0.376012  0.634819  1
  S  S5  1  0.350348  0.951276  0.350347  1
  S  S6  1  0.350348  0.350347  0.951277  1
  S  S7  1  0.951276  0.350347  0.350347  1
  S  S8  1  0.125804  0.739810  0.255985  1
  S  S9  1  0.255986  0.125804  0.739810  1
  S  S10  1  0.739809  0.255985  0.125803  1
  S  S11  1  0.739809  0.125803  0.255985  1
  S  S12  1  0.255986  0.739810  0.125804  1
  S  S13  1  0.125805  0.255987  0.739811  1
  S  S14  1  0.346439  0.879367  0.530235  1
  S  S15  1  0.530236  0.346439  0.879367  1
  S  S16  1  0.879366  0.530235  0.346439  1
  S  S17  1  0.879365  0.346438  0.530234  1
  S  S18  1  0.530236  0.879367  0.346439  1
  S  S19  1  0.346440  0.530235  0.879368  1
  S  S20  1  0.245768  0.634819  0.376012  1
  S  S21  1  0.376012  0.245769  0.634819  1
  S  S22  1  0.634820  0.376013  0.245770  1
  S  S23  1  0.634819  0.245769  0.376012  1
  S  S24  1  0.376013  0.634819  0.245769  1
  S  S25  1  0.850763  0.982684  0.982684  1
  S  S26  1  0.982684  0.982684  0.850763  1
  S  S27  1  0.982684  0.850764  0.982684  1
