# generated using pymatgen
data_Tb5Er(SiNi3)4
_symmetry_space_group_name_H-M   'P 1'
_cell_length_a   7.59880546
_cell_length_b   7.59880614
_cell_length_c   7.59880616
_cell_angle_alpha   109.53451635
_cell_angle_beta   109.43957807
_cell_angle_gamma   109.43957930
_symmetry_Int_Tables_number   1
_chemical_formula_structural   Tb5Er(SiNi3)4
_chemical_formula_sum   'Tb5 Er1 Si4 Ni12'
_cell_volume   337.76434663
_cell_formula_units_Z   1
loop_
 _symmetry_equiv_pos_site_id
 _symmetry_equiv_pos_as_xyz
  1  'x, y, z'
loop_
 _atom_site_type_symbol
 _atom_site_label
 _atom_site_symmetry_multiplicity
 _atom_site_fract_x
 _atom_site_fract_y
 _atom_site_fract_z
 _atom_site_occupancy
  Tb  Tb0  1  0.715146  0.715195  0.000049  1
  Tb  Tb1  1  0.284854  0.000049  0.284904  1
  Tb  Tb2  1  0.000000  0.284518  0.284518  1
  Tb  Tb3  1  0.284854  0.284904  0.000049  1
  Tb  Tb4  1  0.715146  0.000049  0.715195  1
  Er  Er5  1  0.000000  0.713293  0.713293  1
  Si  Si6  1  0.000000  0.999544  0.500831  1
  Si  Si7  1  0.000000  0.500831  0.999544  1
  Si  Si8  1  0.498713  0.999544  0.999544  1
  Si  Si9  1  0.501287  0.500831  0.500831  1
  Ni  Ni10  1  0.331347  0.330751  0.662099  1
  Ni  Ni11  1  0.668653  0.999404  0.330751  1
  Ni  Ni12  1  0.000000  0.667783  0.331961  1
  Ni  Ni13  1  0.668653  0.330751  0.999404  1
  Ni  Ni14  1  0.331347  0.662099  0.330751  1
  Ni  Ni15  1  0.000000  0.331961  0.667783  1
  Ni  Ni16  1  0.329830  0.669688  0.999518  1
  Ni  Ni17  1  0.329830  0.999518  0.669688  1
  Ni  Ni18  1  0.664179  0.331961  0.331961  1
  Ni  Ni19  1  0.670170  0.669688  0.339856  1
  Ni  Ni20  1  0.670170  0.339856  0.669688  1
  Ni  Ni21  1  0.335821  0.667783  0.667783  1
