# generated using pymatgen
data_ZrSc3(MnOs3)2
_symmetry_space_group_name_H-M   'P 1'
_cell_length_a   5.09948889
_cell_length_b   5.23782834
_cell_length_c   8.57838145
_cell_angle_alpha   89.99999894
_cell_angle_beta   89.82590692
_cell_angle_gamma   120.90153941
_symmetry_Int_Tables_number   1
_chemical_formula_structural   ZrSc3(MnOs3)2
_chemical_formula_sum   'Zr1 Sc3 Mn2 Os6'
_cell_volume   196.60461060
_cell_formula_units_Z   1
loop_
 _symmetry_equiv_pos_site_id
 _symmetry_equiv_pos_as_xyz
  1  'x, y, z'
loop_
 _atom_site_type_symbol
 _atom_site_label
 _atom_site_symmetry_multiplicity
 _atom_site_fract_x
 _atom_site_fract_y
 _atom_site_fract_z
 _atom_site_occupancy
  Zr  Zr0  1  0.339123  0.669562  0.434783  1
  Sc  Sc1  1  0.338261  0.669131  0.062471  1
  Sc  Sc2  1  0.659885  0.329942  0.566962  1
  Sc  Sc3  1  0.661657  0.330828  0.935558  1
  Mn  Mn4  1  0.668532  0.834266  0.749907  1
  Mn  Mn5  1  0.333115  0.166558  0.250051  1
  Os  Os6  1  0.000833  0.000417  0.500855  1
  Os  Os7  1  0.999843  0.999922  0.000111  1
  Os  Os8  1  0.171220  0.347783  0.750043  1
  Os  Os9  1  0.828155  0.176288  0.249608  1
  Os  Os10  1  0.828155  0.651868  0.249608  1
  Os  Os11  1  0.171220  0.823435  0.750043  1
