# generated using pymatgen
data_Sm12Si3BBr12
_symmetry_space_group_name_H-M   'P 1'
_cell_length_a   10.28070409
_cell_length_b   10.20258892
_cell_length_c   10.20258927
_cell_angle_alpha   109.31560998
_cell_angle_beta   109.62639516
_cell_angle_gamma   109.62638501
_symmetry_Int_Tables_number   1
_chemical_formula_structural   Sm12Si3BBr12
_chemical_formula_sum   'Sm12 Si3 B1 Br12'
_cell_volume   822.21705705
_cell_formula_units_Z   1
loop_
 _symmetry_equiv_pos_site_id
 _symmetry_equiv_pos_as_xyz
  1  'x, y, z'
loop_
 _atom_site_type_symbol
 _atom_site_label
 _atom_site_symmetry_multiplicity
 _atom_site_fract_x
 _atom_site_fract_y
 _atom_site_fract_z
 _atom_site_occupancy
  Sm  Sm0  1  0.465487  0.493030  0.224987  1
  Sm  Sm1  1  0.750000  0.238325  0.261675  1
  Sm  Sm2  1  0.750000  0.010379  0.489621  1
  Sm  Sm3  1  0.239621  0.479242  0.489621  1
  Sm  Sm4  1  0.259501  0.731957  0.224987  1
  Sm  Sm5  1  0.034513  0.275013  0.006970  1
  Sm  Sm6  1  0.011675  0.023349  0.261675  1
  Sm  Sm7  1  0.472455  0.731957  0.006970  1
  Sm  Sm8  1  0.488325  0.238325  0.476651  1
  Sm  Sm9  1  0.027545  0.493030  0.768043  1
  Sm  Sm10  1  0.260379  0.010379  0.020758  1
  Sm  Sm11  1  0.240499  0.275013  0.768043  1
  Si  Si12  1  0.250000  0.250882  0.249118  1
  Si  Si13  1  0.499118  0.998236  0.249118  1
  Si  Si14  1  0.000882  0.250882  0.501764  1
  B  B15  1  0.250000  0.500000  0.000000  1
  Br  Br16  1  0.250000  0.755207  0.744793  1
  Br  Br17  1  0.510447  0.505272  0.756625  1
  Br  Br18  1  0.989553  0.743375  0.994728  1
  Br  Br19  1  0.746179  0.251354  0.756625  1
  Br  Br20  1  0.994793  0.989587  0.744793  1
  Br  Br21  1  0.250000  0.996479  0.503521  1
  Br  Br22  1  0.753521  0.507042  0.503521  1
  Br  Br23  1  0.505175  0.251354  0.994728  1
  Br  Br24  1  0.753821  0.743375  0.248646  1
  Br  Br25  1  0.746479  0.996479  0.992958  1
  Br  Br26  1  0.994825  0.505272  0.248646  1
  Br  Br27  1  0.505207  0.755207  0.510413  1
