# generated using pymatgen
data_Yb6Pr2Be3Si12Pd
_symmetry_space_group_name_H-M   'P 1'
_cell_length_a   7.98998300
_cell_length_b   7.98998253
_cell_length_c   8.59706900
_cell_angle_alpha   90.00000000
_cell_angle_beta   90.00000000
_cell_angle_gamma   119.99999780
_symmetry_Int_Tables_number   1
_chemical_formula_structural   Yb6Pr2Be3Si12Pd
_chemical_formula_sum   'Yb6 Pr2 Be3 Si12 Pd1'
_cell_volume   475.30538942
_cell_formula_units_Z   1
loop_
 _symmetry_equiv_pos_site_id
 _symmetry_equiv_pos_as_xyz
  1  'x, y, z'
loop_
 _atom_site_type_symbol
 _atom_site_label
 _atom_site_symmetry_multiplicity
 _atom_site_fract_x
 _atom_site_fract_y
 _atom_site_fract_z
 _atom_site_occupancy
  Yb  Yb0  1  0.500601  0.499399  0.747353  1
  Yb  Yb1  1  0.500750  0.499250  0.252654  1
  Yb  Yb2  1  0.998797  0.499399  0.747353  1
  Yb  Yb3  1  0.998502  0.499250  0.252654  1
  Yb  Yb4  1  0.500601  0.001203  0.747353  1
  Yb  Yb5  1  0.500750  0.001498  0.252654  1
  Pr  Pr6  1  0.000000  0.000000  0.748598  1
  Pr  Pr7  1  0.000000  0.000000  0.251432  1
  Be  Be8  1  0.666667  0.333333  0.999262  1
  Be  Be9  1  0.333333  0.666667  0.000794  1
  Be  Be10  1  0.333333  0.666667  0.499552  1
  Si  Si11  1  0.827067  0.172933  0.000051  1
  Si  Si12  1  0.172305  0.827695  0.000045  1
  Si  Si13  1  0.345865  0.172933  0.000051  1
  Si  Si14  1  0.170796  0.829204  0.499957  1
  Si  Si15  1  0.655392  0.827695  0.000045  1
  Si  Si16  1  0.833756  0.166244  0.500055  1
  Si  Si17  1  0.827067  0.654135  0.000051  1
  Si  Si18  1  0.658406  0.829204  0.499957  1
  Si  Si19  1  0.172305  0.344608  0.000045  1
  Si  Si20  1  0.332489  0.166244  0.500055  1
  Si  Si21  1  0.170796  0.341594  0.499957  1
  Si  Si22  1  0.833756  0.667511  0.500055  1
  Pd  Pd23  1  0.666667  0.333333  0.500017  1
