# generated using pymatgen
data_Cs2F5
_symmetry_space_group_name_H-M   'P 1'
_cell_length_a   8.86588401
_cell_length_b   11.80026900
_cell_length_c   6.31829001
_cell_angle_alpha   90.00000000
_cell_angle_beta   90.00495494
_cell_angle_gamma   90.00000000
_symmetry_Int_Tables_number   1
_chemical_formula_structural   Cs2F5
_chemical_formula_sum   'Cs8 F20'
_cell_volume   661.01833678
_cell_formula_units_Z   4
loop_
 _symmetry_equiv_pos_site_id
 _symmetry_equiv_pos_as_xyz
  1  'x, y, z'
loop_
 _atom_site_type_symbol
 _atom_site_label
 _atom_site_symmetry_multiplicity
 _atom_site_fract_x
 _atom_site_fract_y
 _atom_site_fract_z
 _atom_site_occupancy
  Cs  Cs0  1  0.952320  0.653776  0.255795  1
  Cs  Cs1  1  0.452319  0.846225  0.255795  1
  Cs  Cs2  1  0.101068  0.100586  0.255884  1
  Cs  Cs3  1  0.601068  0.399413  0.255884  1
  Cs  Cs4  1  0.547663  0.153810  0.755810  1
  Cs  Cs5  1  0.047662  0.346191  0.755810  1
  Cs  Cs6  1  0.398974  0.600531  0.755827  1
  Cs  Cs7  1  0.898974  0.899469  0.755827  1
  F  F8  1  0.672932  0.036669  0.255883  1
  F  F9  1  0.172933  0.463331  0.255883  1
  F  F10  1  0.827518  0.536961  0.755962  1
  F  F11  1  0.327518  0.963039  0.755962  1
  F  F12  1  0.867494  0.148011  0.913517  1
  F  F13  1  0.367493  0.351988  0.913517  1
  F  F14  1  0.317349  0.560319  0.255951  1
  F  F15  1  0.817348  0.939681  0.255951  1
  F  F16  1  0.517183  0.130468  0.255897  1
  F  F17  1  0.017184  0.369532  0.255897  1
  F  F18  1  0.867402  0.147951  0.597931  1
  F  F19  1  0.367403  0.352049  0.597931  1
  F  F20  1  0.632536  0.648041  0.413549  1
  F  F21  1  0.132537  0.851960  0.413549  1
  F  F22  1  0.182493  0.060503  0.756138  1
  F  F23  1  0.682493  0.439498  0.756138  1
  F  F24  1  0.982503  0.630323  0.755901  1
  F  F25  1  0.482502  0.869677  0.755901  1
  F  F26  1  0.632569  0.647967  0.097953  1
  F  F27  1  0.132568  0.852032  0.097953  1
