# generated using pymatgen
data_Ho6Zn21SiAg2
_symmetry_space_group_name_H-M   'P 1'
_cell_length_a   9.07678017
_cell_length_b   9.06490541
_cell_length_c   9.06490600
_cell_angle_alpha   59.99999786
_cell_angle_beta   60.04326521
_cell_angle_gamma   60.04326023
_symmetry_Int_Tables_number   1
_chemical_formula_structural   Ho6Zn21SiAg2
_chemical_formula_sum   'Ho6 Zn21 Si1 Ag2'
_cell_volume   527.74858445
_cell_formula_units_Z   1
loop_
 _symmetry_equiv_pos_site_id
 _symmetry_equiv_pos_as_xyz
  1  'x, y, z'
loop_
 _atom_site_type_symbol
 _atom_site_label
 _atom_site_symmetry_multiplicity
 _atom_site_fract_x
 _atom_site_fract_y
 _atom_site_fract_z
 _atom_site_occupancy
  Ho  Ho0  1  0.715610  0.284958  0.284958  1
  Ho  Ho1  1  0.715610  0.284958  0.714474  1
  Ho  Ho2  1  0.715610  0.714474  0.284958  1
  Ho  Ho3  1  0.283521  0.716272  0.716272  1
  Ho  Ho4  1  0.283521  0.716272  0.283934  1
  Ho  Ho5  1  0.283521  0.283934  0.716272  1
  Zn  Zn6  1  0.125436  0.622917  0.125824  1
  Zn  Zn7  1  0.125436  0.125824  0.622917  1
  Zn  Zn8  1  0.125436  0.125824  0.125824  1
  Zn  Zn9  1  0.377670  0.874110  0.874110  1
  Zn  Zn10  1  0.873472  0.375465  0.875532  1
  Zn  Zn11  1  0.873472  0.875532  0.375465  1
  Zn  Zn12  1  0.873472  0.875532  0.875532  1
  Zn  Zn13  1  0.497734  0.999182  0.999182  1
  Zn  Zn14  1  0.497734  0.999182  0.503902  1
  Zn  Zn15  1  0.497734  0.503902  0.999182  1
  Zn  Zn16  1  0.999658  0.500248  0.500248  1
  Zn  Zn17  1  0.999658  0.500248  0.999845  1
  Zn  Zn18  1  0.999658  0.999845  0.500248  1
  Zn  Zn19  1  0.001584  0.332805  0.332805  1
  Zn  Zn20  1  0.332168  0.000838  0.333497  1
  Zn  Zn21  1  0.332168  0.333497  0.000838  1
  Zn  Zn22  1  0.332168  0.333497  0.333497  1
  Zn  Zn23  1  0.998823  0.667059  0.667059  1
  Zn  Zn24  1  0.667332  0.998206  0.667231  1
  Zn  Zn25  1  0.667332  0.667231  0.998206  1
  Zn  Zn26  1  0.667332  0.667231  0.667231  1
  Si  Si27  1  0.498742  0.500419  0.500419  1
  Ag  Ag28  1  0.628086  0.123971  0.123971  1
  Ag  Ag29  1  0.010300  0.996567  0.996567  1
