# generated using pymatgen
data_Tb5Ho5Si5Bi
_symmetry_space_group_name_H-M   'P 1'
_cell_length_a   8.54753074
_cell_length_b   8.58782721
_cell_length_c   6.36965700
_cell_angle_alpha   90.00000000
_cell_angle_beta   90.00000000
_cell_angle_gamma   119.77178684
_symmetry_Int_Tables_number   1
_chemical_formula_structural   Tb5Ho5Si5Bi
_chemical_formula_sum   'Tb5 Ho5 Si5 Bi1'
_cell_volume   405.84927684
_cell_formula_units_Z   1
loop_
 _symmetry_equiv_pos_site_id
 _symmetry_equiv_pos_as_xyz
  1  'x, y, z'
loop_
 _atom_site_type_symbol
 _atom_site_label
 _atom_site_symmetry_multiplicity
 _atom_site_fract_x
 _atom_site_fract_y
 _atom_site_fract_z
 _atom_site_occupancy
  Tb  Tb0  1  0.984986  0.744801  0.750000  1
  Tb  Tb1  1  0.998452  0.243620  0.250000  1
  Tb  Tb2  1  0.754527  0.756162  0.250000  1
  Tb  Tb3  1  0.767543  0.000119  0.750000  1
  Tb  Tb4  1  0.240593  0.000153  0.250000  1
  Ho  Ho5  1  0.240175  0.255601  0.750000  1
  Ho  Ho6  1  0.330646  0.653714  0.495171  1
  Ho  Ho7  1  0.676745  0.346104  0.004877  1
  Ho  Ho8  1  0.676745  0.346104  0.495123  1
  Ho  Ho9  1  0.330646  0.653714  0.004829  1
  Si  Si10  1  0.393644  0.391136  0.250000  1
  Si  Si11  1  0.002558  0.608960  0.250000  1
  Si  Si12  1  0.999123  0.394580  0.750000  1
  Si  Si13  1  0.603393  0.604740  0.750000  1
  Si  Si14  1  0.606615  0.000043  0.250000  1
  Bi  Bi15  1  0.393609  0.000448  0.750000  1
