# generated using pymatgen
data_Tb6ZrSn23Os6
_symmetry_space_group_name_H-M   'P 1'
_cell_length_a   9.86596186
_cell_length_b   9.86596077
_cell_length_c   10.10378694
_cell_angle_alpha   90.04304074
_cell_angle_beta   89.95695870
_cell_angle_gamma   120.18715072
_symmetry_Int_Tables_number   1
_chemical_formula_structural   Tb6ZrSn23Os6
_chemical_formula_sum   'Tb6 Zr1 Sn23 Os6'
_cell_volume   850.10262143
_cell_formula_units_Z   1
loop_
 _symmetry_equiv_pos_site_id
 _symmetry_equiv_pos_as_xyz
  1  'x, y, z'
loop_
 _atom_site_type_symbol
 _atom_site_label
 _atom_site_symmetry_multiplicity
 _atom_site_fract_x
 _atom_site_fract_y
 _atom_site_fract_z
 _atom_site_occupancy
  Tb  Tb0  1  0.998782  0.001218  0.000054  1
  Tb  Tb1  1  0.515354  0.484646  0.698322  1
  Tb  Tb2  1  0.484022  0.969128  0.302771  1
  Tb  Tb3  1  0.515623  0.030905  0.697082  1
  Tb  Tb4  1  0.030872  0.515978  0.302771  1
  Tb  Tb5  1  0.969095  0.484377  0.697082  1
  Zr  Zr6  1  0.489567  0.510433  0.299100  1
  Sn  Sn7  1  0.349749  0.001868  0.000684  1
  Sn  Sn8  1  0.649787  0.000063  0.999683  1
  Sn  Sn9  1  0.999937  0.350213  0.999683  1
  Sn  Sn10  1  0.998132  0.650251  0.000684  1
  Sn  Sn11  1  0.649471  0.649675  0.999726  1
  Sn  Sn12  1  0.350325  0.350529  0.999726  1
  Sn  Sn13  1  0.332832  0.667168  0.825703  1
  Sn  Sn14  1  0.667120  0.332880  0.174127  1
  Sn  Sn15  1  0.999377  0.000623  0.498933  1
  Sn  Sn16  1  0.780206  0.219794  0.462577  1
  Sn  Sn17  1  0.219934  0.780066  0.537723  1
  Sn  Sn18  1  0.776562  0.559616  0.461865  1
  Sn  Sn19  1  0.222427  0.441433  0.534953  1
  Sn  Sn20  1  0.440384  0.223438  0.461865  1
  Sn  Sn21  1  0.558567  0.777573  0.534953  1
  Sn  Sn22  1  0.339928  0.660072  0.133623  1
  Sn  Sn23  1  0.666711  0.333289  0.872698  1
  Sn  Sn24  1  0.115712  0.884288  0.276881  1
  Sn  Sn25  1  0.883493  0.116507  0.722483  1
  Sn  Sn26  1  0.119427  0.237906  0.277740  1
  Sn  Sn27  1  0.883201  0.766394  0.722851  1
  Sn  Sn28  1  0.762094  0.880573  0.277740  1
  Sn  Sn29  1  0.233606  0.116799  0.722851  1
  Os  Os30  1  0.830258  0.169742  0.202053  1
  Os  Os31  1  0.170154  0.829846  0.799328  1
  Os  Os32  1  0.824503  0.657066  0.203045  1
  Os  Os33  1  0.170883  0.341029  0.797797  1
  Os  Os34  1  0.342934  0.175497  0.203045  1
  Os  Os35  1  0.658971  0.829117  0.797797  1
