# generated using pymatgen
data_Ba4CePr7S16
_symmetry_space_group_name_H-M   'P 1'
_cell_length_a   4.23218900
_cell_length_b   12.53190529
_cell_length_c   15.08530785
_cell_angle_alpha   90.01587137
_cell_angle_beta   90.00000000
_cell_angle_gamma   90.00000000
_symmetry_Int_Tables_number   1
_chemical_formula_structural   Ba4CePr7S16
_chemical_formula_sum   'Ba4 Ce1 Pr7 S16'
_cell_volume   800.08535105
_cell_formula_units_Z   1
loop_
 _symmetry_equiv_pos_site_id
 _symmetry_equiv_pos_as_xyz
  1  'x, y, z'
loop_
 _atom_site_type_symbol
 _atom_site_label
 _atom_site_symmetry_multiplicity
 _atom_site_fract_x
 _atom_site_fract_y
 _atom_site_fract_z
 _atom_site_occupancy
  Ba  Ba0  1  0.250000  0.754768  0.340102  1
  Ba  Ba1  1  0.250000  0.256809  0.160327  1
  Ba  Ba2  1  0.750000  0.243817  0.659691  1
  Ba  Ba3  1  0.750000  0.744048  0.840102  1
  Ce  Ce4  1  0.750000  0.078860  0.396168  1
  Pr  Pr5  1  0.250000  0.425613  0.392589  1
  Pr  Pr6  1  0.250000  0.926900  0.108321  1
  Pr  Pr7  1  0.750000  0.572828  0.608439  1
  Pr  Pr8  1  0.750000  0.074125  0.892269  1
  Pr  Pr9  1  0.250000  0.420643  0.896628  1
  Pr  Pr10  1  0.250000  0.920972  0.603327  1
  Pr  Pr11  1  0.750000  0.578921  0.103618  1
  S  S12  1  0.250000  0.207939  0.823805  1
  S  S13  1  0.250000  0.708654  0.674361  1
  S  S14  1  0.750000  0.792221  0.176081  1
  S  S15  1  0.750000  0.290252  0.325589  1
  S  S16  1  0.250000  0.129958  0.520387  1
  S  S17  1  0.250000  0.630310  0.976408  1
  S  S18  1  0.750000  0.871890  0.474845  1
  S  S19  1  0.750000  0.369315  0.023849  1
  S  S20  1  0.250000  0.520198  0.217616  1
  S  S21  1  0.250000  0.022585  0.284096  1
  S  S22  1  0.750000  0.479080  0.782931  1
  S  S23  1  0.750000  0.979976  0.716574  1
  S  S24  1  0.250000  0.418579  0.580179  1
  S  S25  1  0.250000  0.919759  0.920699  1
  S  S26  1  0.750000  0.580042  0.420767  1
  S  S27  1  0.750000  0.080938  0.080232  1
