# generated using pymatgen
data_Nd3Cu4(P2O)2
_symmetry_space_group_name_H-M   'P 1'
_cell_length_a   4.00412038
_cell_length_b   4.00379386
_cell_length_c   13.61048242
_cell_angle_alpha   98.50921306
_cell_angle_beta   98.50025325
_cell_angle_gamma   90.00592756
_symmetry_Int_Tables_number   1
_chemical_formula_structural   Nd3Cu4(P2O)2
_chemical_formula_sum   'Nd3 Cu4 P4 O2'
_cell_volume   213.37253044
_cell_formula_units_Z   1
loop_
 _symmetry_equiv_pos_site_id
 _symmetry_equiv_pos_as_xyz
  1  'x, y, z'
loop_
 _atom_site_type_symbol
 _atom_site_label
 _atom_site_symmetry_multiplicity
 _atom_site_fract_x
 _atom_site_fract_y
 _atom_site_fract_z
 _atom_site_occupancy
  Nd  Nd0  1  0.000062  0.000012  0.000007  1
  Nd  Nd1  1  0.704451  0.704410  0.409349  1
  Nd  Nd2  1  0.295635  0.295586  0.590638  1
  Cu  Cu3  1  0.592830  0.093960  0.187294  1
  Cu  Cu4  1  0.093752  0.593305  0.187273  1
  Cu  Cu5  1  0.906031  0.406871  0.812707  1
  Cu  Cu6  1  0.407011  0.905864  0.812747  1
  P  P7  1  0.541785  0.541761  0.083641  1
  P  P8  1  0.139767  0.139726  0.279769  1
  P  P9  1  0.860302  0.860264  0.720216  1
  P  P10  1  0.458289  0.458248  0.916361  1
  O  O11  1  0.750017  0.250024  0.499999  1
  O  O12  1  0.250072  0.749973  0.499999  1
