# generated using pymatgen
data_Ce3Hg2GeRh3
_symmetry_space_group_name_H-M   'P 1'
_cell_length_a   7.60611514
_cell_length_b   7.60223752
_cell_length_c   3.85920400
_cell_angle_alpha   90.00000000
_cell_angle_beta   90.00000000
_cell_angle_gamma   120.07610518
_symmetry_Int_Tables_number   1
_chemical_formula_structural   Ce3Hg2GeRh3
_chemical_formula_sum   'Ce3 Hg2 Ge1 Rh3'
_cell_volume   193.10749582
_cell_formula_units_Z   1
loop_
 _symmetry_equiv_pos_site_id
 _symmetry_equiv_pos_as_xyz
  1  'x, y, z'
loop_
 _atom_site_type_symbol
 _atom_site_label
 _atom_site_symmetry_multiplicity
 _atom_site_fract_x
 _atom_site_fract_y
 _atom_site_fract_z
 _atom_site_occupancy
  Ce  Ce0  1  0.421095  0.421085  0.500000  1
  Ce  Ce1  1  0.597554  0.990357  0.500000  1
  Ce  Ce2  1  0.990148  0.597498  0.500000  1
  Hg  Hg3  1  0.262555  0.009529  0.000000  1
  Hg  Hg4  1  0.009684  0.262659  0.000000  1
  Ge  Ge5  1  0.734604  0.734589  0.000000  1
  Rh  Rh6  1  0.941553  0.941697  0.500000  1
  Rh  Rh7  1  0.678971  0.363208  0.000000  1
  Rh  Rh8  1  0.363835  0.679378  0.000000  1
