# generated using pymatgen
data_Er2Bi2Ir3RhO14
_symmetry_space_group_name_H-M   'P 1'
_cell_length_a   7.25371193
_cell_length_b   7.29194013
_cell_length_c   7.29193983
_cell_angle_alpha   60.32498892
_cell_angle_beta   60.02291982
_cell_angle_gamma   60.02291842
_symmetry_Int_Tables_number   1
_chemical_formula_structural   Er2Bi2Ir3RhO14
_chemical_formula_sum   'Er2 Bi2 Ir3 Rh1 O14'
_cell_volume   273.48777204
_cell_formula_units_Z   1
loop_
 _symmetry_equiv_pos_site_id
 _symmetry_equiv_pos_as_xyz
  1  'x, y, z'
loop_
 _atom_site_type_symbol
 _atom_site_label
 _atom_site_symmetry_multiplicity
 _atom_site_fract_x
 _atom_site_fract_y
 _atom_site_fract_z
 _atom_site_occupancy
  Er  Er0  1  0.625000  0.125000  0.125000  1
  Er  Er1  1  0.125000  0.125000  0.125000  1
  Bi  Bi2  1  0.125000  0.625000  0.125000  1
  Bi  Bi3  1  0.125000  0.125000  0.625000  1
  Ir  Ir4  1  0.125000  0.625000  0.625000  1
  Ir  Ir5  1  0.625000  0.125000  0.625000  1
  Ir  Ir6  1  0.625000  0.625000  0.125000  1
  Rh  Rh7  1  0.625000  0.625000  0.625000  1
  O  O8  1  0.705244  0.719362  0.284928  1
  O  O9  1  0.289965  0.289982  0.719116  1
  O  O10  1  0.705244  0.284928  0.719362  1
  O  O11  1  0.289965  0.719116  0.289982  1
  O  O12  1  0.288440  0.708493  0.708493  1
  O  O13  1  0.713371  0.289223  0.289223  1
  O  O14  1  0.544756  0.530638  0.965072  1
  O  O15  1  0.960035  0.960018  0.530884  1
  O  O16  1  0.544756  0.965072  0.530638  1
  O  O17  1  0.960035  0.530884  0.960018  1
  O  O18  1  0.961560  0.541507  0.541507  1
  O  O19  1  0.536629  0.960777  0.960777  1
  O  O20  1  0.256528  0.242105  0.242105  1
  O  O21  1  0.993472  0.007895  0.007895  1
