# generated using pymatgen
data_YbTmPa2(Ga3Ir)6
_symmetry_space_group_name_H-M   'P 1'
_cell_length_a   7.63431933
_cell_length_b   7.63907496
_cell_length_c   9.39466200
_cell_angle_alpha   90.00000000
_cell_angle_beta   90.00000000
_cell_angle_gamma   119.93776601
_symmetry_Int_Tables_number   1
_chemical_formula_structural   YbTmPa2(Ga3Ir)6
_chemical_formula_sum   'Yb1 Tm1 Pa2 Ga18 Ir6'
_cell_volume   474.78270964
_cell_formula_units_Z   1
loop_
 _symmetry_equiv_pos_site_id
 _symmetry_equiv_pos_as_xyz
  1  'x, y, z'
loop_
 _atom_site_type_symbol
 _atom_site_label
 _atom_site_symmetry_multiplicity
 _atom_site_fract_x
 _atom_site_fract_y
 _atom_site_fract_z
 _atom_site_occupancy
  Yb  Yb0  1  0.668552  0.996030  0.750000  1
  Tm  Tm1  1  0.331948  0.004717  0.250000  1
  Pa  Pa2  1  0.998452  0.668300  0.750000  1
  Pa  Pa3  1  0.001298  0.331209  0.250000  1
  Ga  Ga4  1  0.128871  0.127602  0.750000  1
  Ga  Ga5  1  0.870049  0.871958  0.250000  1
  Ga  Ga6  1  0.996711  0.328434  0.583858  1
  Ga  Ga7  1  0.001904  0.670342  0.416740  1
  Ga  Ga8  1  0.001904  0.670342  0.083260  1
  Ga  Ga9  1  0.339974  0.001687  0.919258  1
  Ga  Ga10  1  0.996711  0.328434  0.916142  1
  Ga  Ga11  1  0.661150  0.997923  0.078952  1
  Ga  Ga12  1  0.661150  0.997923  0.421048  1
  Ga  Ga13  1  0.339974  0.001687  0.580742  1
  Ga  Ga14  1  0.334582  0.331074  0.067952  1
  Ga  Ga15  1  0.665496  0.670285  0.931458  1
  Ga  Ga16  1  0.665496  0.670285  0.568542  1
  Ga  Ga17  1  0.334582  0.331074  0.432048  1
  Ga  Ga18  1  0.341157  0.547273  0.750000  1
  Ga  Ga19  1  0.659408  0.453765  0.250000  1
  Ga  Ga20  1  0.545538  0.338639  0.750000  1
  Ga  Ga21  1  0.454931  0.661637  0.250000  1
  Ir  Ir22  1  0.676337  0.332725  0.498934  1
  Ir  Ir23  1  0.322167  0.666882  0.499051  1
  Ir  Ir24  1  0.322167  0.666882  0.000949  1
  Ir  Ir25  1  0.676337  0.332725  0.001066  1
  Ir  Ir26  1  0.001578  0.000084  0.498875  1
  Ir  Ir27  1  0.001578  0.000084  0.001125  1
