# generated using pymatgen
data_TmLu2ThMgCo
_symmetry_space_group_name_H-M   'P 1'
_cell_length_a   9.51044701
_cell_length_b   9.51041220
_cell_length_c   9.51041200
_cell_angle_alpha   60.00025047
_cell_angle_beta   59.99988301
_cell_angle_gamma   59.99987449
_symmetry_Int_Tables_number   1
_chemical_formula_structural   TmLu2ThMgCo
_chemical_formula_sum   'Tm4 Lu8 Th4 Mg4 Co4'
_cell_volume   608.25351908
_cell_formula_units_Z   4
loop_
 _symmetry_equiv_pos_site_id
 _symmetry_equiv_pos_as_xyz
  1  'x, y, z'
loop_
 _atom_site_type_symbol
 _atom_site_label
 _atom_site_symmetry_multiplicity
 _atom_site_fract_x
 _atom_site_fract_y
 _atom_site_fract_z
 _atom_site_occupancy
  Tm  Tm0  1  0.565461  0.934539  0.565461  1
  Tm  Tm1  1  0.934539  0.565461  0.934539  1
  Tm  Tm2  1  0.565461  0.565461  0.934539  1
  Tm  Tm3  1  0.934539  0.934539  0.565461  1
  Lu  Lu4  1  0.814686  0.185314  0.185314  1
  Lu  Lu5  1  0.185314  0.814686  0.814686  1
  Lu  Lu6  1  0.185425  0.814575  0.185425  1
  Lu  Lu7  1  0.814575  0.185425  0.814575  1
  Lu  Lu8  1  0.185425  0.185425  0.814575  1
  Lu  Lu9  1  0.814575  0.814575  0.185425  1
  Lu  Lu10  1  0.934775  0.565225  0.565225  1
  Lu  Lu11  1  0.565225  0.934775  0.934775  1
  Th  Th12  1  0.345459  0.345825  0.345825  1
  Th  Th13  1  0.345825  0.345459  0.962892  1
  Th  Th14  1  0.345825  0.962892  0.345459  1
  Th  Th15  1  0.962892  0.345825  0.345825  1
  Mg  Mg16  1  0.580821  0.580686  0.580686  1
  Mg  Mg17  1  0.580686  0.580821  0.257806  1
  Mg  Mg18  1  0.580686  0.257806  0.580821  1
  Mg  Mg19  1  0.257806  0.580686  0.580686  1
  Co  Co20  1  0.143999  0.143689  0.143689  1
  Co  Co21  1  0.143689  0.143999  0.568624  1
  Co  Co22  1  0.143689  0.568624  0.143999  1
  Co  Co23  1  0.568624  0.143689  0.143689  1
