# generated using pymatgen
data_RbNd3CBr6
_symmetry_space_group_name_H-M   'P 1'
_cell_length_a   9.01624815
_cell_length_b   9.06414134
_cell_length_c   9.74499978
_cell_angle_alpha   69.63628077
_cell_angle_beta   86.01249900
_cell_angle_gamma   89.39467471
_symmetry_Int_Tables_number   1
_chemical_formula_structural   RbNd3CBr6
_chemical_formula_sum   'Rb2 Nd6 C2 Br12'
_cell_volume   744.74579444
_cell_formula_units_Z   2
loop_
 _symmetry_equiv_pos_site_id
 _symmetry_equiv_pos_as_xyz
  1  'x, y, z'
loop_
 _atom_site_type_symbol
 _atom_site_label
 _atom_site_symmetry_multiplicity
 _atom_site_fract_x
 _atom_site_fract_y
 _atom_site_fract_z
 _atom_site_occupancy
  Rb  Rb0  1  0.475216  0.336977  0.335685  1
  Rb  Rb1  1  0.524785  0.663023  0.664315  1
  Nd  Nd2  1  0.915277  0.735850  0.004707  1
  Nd  Nd3  1  0.084723  0.264150  0.995292  1
  Nd  Nd4  1  0.735162  0.085867  0.001487  1
  Nd  Nd5  1  0.264837  0.914133  0.998514  1
  Nd  Nd6  1  0.980502  0.875610  0.328509  1
  Nd  Nd7  1  0.019497  0.124390  0.671492  1
  C  C8  1  0.004481  0.028426  0.922904  1
  C  C9  1  0.995518  0.971574  0.077096  1
  Br  Br10  1  0.090845  0.191283  0.325883  1
  Br  Br11  1  0.909155  0.808717  0.674117  1
  Br  Br12  1  0.211469  0.590786  0.000443  1
  Br  Br13  1  0.788532  0.409214  0.999557  1
  Br  Br14  1  0.405825  0.205860  0.007130  1
  Br  Br15  1  0.594174  0.794141  0.992869  1
  Br  Br16  1  0.670691  0.996700  0.329510  1
  Br  Br17  1  0.329309  0.003300  0.670490  1
  Br  Br18  1  0.289223  0.760049  0.324084  1
  Br  Br19  1  0.710777  0.239951  0.675916  1
  Br  Br20  1  0.844925  0.581267  0.327933  1
  Br  Br21  1  0.155074  0.418733  0.672067  1
