# generated using pymatgen
data_ZnBi3Te10
_symmetry_space_group_name_H-M   'P 1'
_cell_length_a   23.44050212
_cell_length_b   23.44050161
_cell_length_c   3.13356000
_cell_angle_alpha   90.00000000
_cell_angle_beta   90.00000000
_cell_angle_gamma   166.00451288
_symmetry_Int_Tables_number   1
_chemical_formula_structural   ZnBi3Te10
_chemical_formula_sum   'Zn1 Bi3 Te10'
_cell_volume   416.39910094
_cell_formula_units_Z   1
loop_
 _symmetry_equiv_pos_site_id
 _symmetry_equiv_pos_as_xyz
  1  'x, y, z'
loop_
 _atom_site_type_symbol
 _atom_site_label
 _atom_site_symmetry_multiplicity
 _atom_site_fract_x
 _atom_site_fract_y
 _atom_site_fract_z
 _atom_site_occupancy
  Zn  Zn0  1  0.108057  0.891943  0.750000  1
  Bi  Bi1  1  0.675475  0.324525  0.250000  1
  Bi  Bi2  1  0.319845  0.680155  0.750000  1
  Bi  Bi3  1  0.888609  0.111391  0.250000  1
  Te  Te4  1  0.611713  0.388287  0.250000  1
  Te  Te5  1  0.387492  0.612508  0.750000  1
  Te  Te6  1  0.821187  0.178813  0.250000  1
  Te  Te7  1  0.167322  0.832678  0.750000  1
  Te  Te8  1  0.958717  0.041283  0.750000  1
  Te  Te9  1  0.054484  0.945516  0.250000  1
  Te  Te10  1  0.546642  0.453358  0.750000  1
  Te  Te11  1  0.463631  0.536369  0.250000  1
  Te  Te12  1  0.746563  0.253437  0.750000  1
  Te  Te13  1  0.250262  0.749738  0.250000  1
