# generated using pymatgen
data_HoEr11Co5Pb
_symmetry_space_group_name_H-M   'P 1'
_cell_length_a   8.21999851
_cell_length_b   8.21999722
_cell_length_c   8.21804228
_cell_angle_alpha   110.87335962
_cell_angle_beta   110.81054049
_cell_angle_gamma   106.77336531
_symmetry_Int_Tables_number   1
_chemical_formula_structural   HoEr11Co5Pb
_chemical_formula_sum   'Ho1 Er11 Co5 Pb1'
_cell_volume   426.69172333
_cell_formula_units_Z   1
loop_
 _symmetry_equiv_pos_site_id
 _symmetry_equiv_pos_as_xyz
  1  'x, y, z'
loop_
 _atom_site_type_symbol
 _atom_site_label
 _atom_site_symmetry_multiplicity
 _atom_site_fract_x
 _atom_site_fract_y
 _atom_site_fract_z
 _atom_site_occupancy
  Ho  Ho0  1  0.289116  0.184954  0.474071  1
  Er  Er1  1  0.711114  0.815128  0.526241  1
  Er  Er2  1  0.289289  0.814496  0.103785  1
  Er  Er3  1  0.711197  0.185092  0.896289  1
  Er  Er4  1  0.620349  0.312864  0.307387  1
  Er  Er5  1  0.379806  0.687590  0.692701  1
  Er  Er6  1  0.005112  0.312895  0.692701  1
  Er  Er7  1  0.994521  0.687038  0.307387  1
  Er  Er8  1  0.209541  0.403408  0.193477  1
  Er  Er9  1  0.790905  0.597435  0.806905  1
  Er  Er10  1  0.209470  0.015999  0.806905  1
  Er  Er11  1  0.790069  0.983936  0.193477  1
  Co  Co12  1  0.999408  0.376601  0.376010  1
  Co  Co13  1  0.000037  0.623540  0.623577  1
  Co  Co14  1  0.388475  0.887644  0.499748  1
  Co  Co15  1  0.612104  0.111274  0.499748  1
  Co  Co16  1  0.999502  0.000216  0.999718  1
  Pb  Pb17  1  0.499983  0.499888  0.999871  1
