# generated using pymatgen
data_Yb6ReSeO12
_symmetry_space_group_name_H-M   'P 1'
_cell_length_a   5.73528564
_cell_length_b   5.45148640
_cell_length_c   9.54945004
_cell_angle_alpha   55.54032030
_cell_angle_beta   89.94497159
_cell_angle_gamma   90.22305186
_symmetry_Int_Tables_number   1
_chemical_formula_structural   Yb6ReSeO12
_chemical_formula_sum   'Yb6 Re1 Se1 O12'
_cell_volume   246.17586076
_cell_formula_units_Z   1
loop_
 _symmetry_equiv_pos_site_id
 _symmetry_equiv_pos_as_xyz
  1  'x, y, z'
loop_
 _atom_site_type_symbol
 _atom_site_label
 _atom_site_symmetry_multiplicity
 _atom_site_fract_x
 _atom_site_fract_y
 _atom_site_fract_z
 _atom_site_occupancy
  Yb  Yb0  1  0.561357  0.235243  0.249910  1
  Yb  Yb1  1  0.062763  0.781788  0.239301  1
  Yb  Yb2  1  0.500000  0.000000  0.000000  1
  Yb  Yb3  1  0.000000  0.000000  0.500000  1
  Yb  Yb4  1  0.937237  0.218212  0.760699  1
  Yb  Yb5  1  0.438643  0.764757  0.750090  1
  Re  Re6  1  0.500000  0.500000  0.500000  1
  Se  Se7  1  0.000000  0.500000  0.000000  1
  O  O8  1  0.553297  0.383907  0.730700  1
  O  O9  1  0.043272  0.610679  0.780895  1
  O  O10  1  0.446703  0.616093  0.269300  1
  O  O11  1  0.956728  0.389321  0.219105  1
  O  O12  1  0.781404  0.736665  0.428774  1
  O  O13  1  0.266028  0.266831  0.062237  1
  O  O14  1  0.218596  0.263335  0.571226  1
  O  O15  1  0.733972  0.733169  0.937763  1
  O  O16  1  0.177195  0.819394  0.951627  1
  O  O17  1  0.673476  0.155609  0.550267  1
  O  O18  1  0.822805  0.180606  0.048373  1
  O  O19  1  0.326524  0.844391  0.449733  1
