# generated using pymatgen
data_KAg(HgO2)2
_symmetry_space_group_name_H-M   'P 1'
_cell_length_a   3.79120249
_cell_length_b   6.32957551
_cell_length_c   6.56657123
_cell_angle_alpha   65.67267142
_cell_angle_beta   85.37866996
_cell_angle_gamma   98.94047669
_symmetry_Int_Tables_number   1
_chemical_formula_structural   KAg(HgO2)2
_chemical_formula_sum   'K1 Ag1 Hg2 O4'
_cell_volume   139.99801277
_cell_formula_units_Z   1
loop_
 _symmetry_equiv_pos_site_id
 _symmetry_equiv_pos_as_xyz
  1  'x, y, z'
loop_
 _atom_site_type_symbol
 _atom_site_label
 _atom_site_symmetry_multiplicity
 _atom_site_fract_x
 _atom_site_fract_y
 _atom_site_fract_z
 _atom_site_occupancy
  K  K0  1  0.500000  0.500000  0.000000  1
  Ag  Ag1  1  0.000000  0.500000  0.500000  1
  Hg  Hg2  1  0.500000  0.000000  0.500000  1
  Hg  Hg3  1  0.000000  0.000000  0.000000  1
  O  O4  1  0.713467  0.226486  0.793383  1
  O  O5  1  0.286533  0.773514  0.206617  1
  O  O6  1  0.909941  0.293653  0.330664  1
  O  O7  1  0.090059  0.706347  0.669336  1
