# generated using pymatgen
data_CeTm4RuPb3
_symmetry_space_group_name_H-M   'P 1'
_cell_length_a   9.24676140
_cell_length_b   9.31346983
_cell_length_c   6.53880100
_cell_angle_alpha   90.00000000
_cell_angle_beta   90.00000000
_cell_angle_gamma   120.23893001
_symmetry_Int_Tables_number   1
_chemical_formula_structural   CeTm4RuPb3
_chemical_formula_sum   'Ce2 Tm8 Ru2 Pb6'
_cell_volume   486.49598217
_cell_formula_units_Z   2
loop_
 _symmetry_equiv_pos_site_id
 _symmetry_equiv_pos_as_xyz
  1  'x, y, z'
loop_
 _atom_site_type_symbol
 _atom_site_label
 _atom_site_symmetry_multiplicity
 _atom_site_fract_x
 _atom_site_fract_y
 _atom_site_fract_z
 _atom_site_occupancy
  Ce  Ce0  1  0.770403  0.767858  0.750000  1
  Ce  Ce1  1  0.229597  0.997454  0.750000  1
  Tm  Tm2  1  0.000000  0.245905  0.750000  1
  Tm  Tm3  1  0.236383  0.238546  0.250000  1
  Tm  Tm4  1  0.763617  0.002163  0.250000  1
  Tm  Tm5  1  0.000000  0.757582  0.250000  1
  Tm  Tm6  1  0.665488  0.332230  0.000654  1
  Tm  Tm7  1  0.334512  0.666743  0.000654  1
  Tm  Tm8  1  0.334512  0.666743  0.499346  1
  Tm  Tm9  1  0.665488  0.332230  0.499346  1
  Ru  Ru10  1  0.000000  0.997571  0.989913  1
  Ru  Ru11  1  0.000000  0.997571  0.510087  1
  Pb  Pb12  1  0.401639  0.405332  0.750000  1
  Pb  Pb13  1  0.598361  0.003692  0.750000  1
  Pb  Pb14  1  0.000000  0.590361  0.750000  1
  Pb  Pb15  1  0.597617  0.597487  0.250000  1
  Pb  Pb16  1  0.402383  0.999870  0.250000  1
  Pb  Pb17  1  0.000000  0.400664  0.250000  1
