# generated using pymatgen
data_La2Dy3Ho3(WO6)4
_symmetry_space_group_name_H-M   'P 1'
_cell_length_a   5.46748508
_cell_length_b   7.79213829
_cell_length_c   11.58396913
_cell_angle_alpha   75.68506415
_cell_angle_beta   90.00059063
_cell_angle_gamma   90.01904114
_symmetry_Int_Tables_number   1
_chemical_formula_structural   La2Dy3Ho3(WO6)4
_chemical_formula_sum   'La2 Dy3 Ho3 W4 O24'
_cell_volume   478.19340131
_cell_formula_units_Z   1
loop_
 _symmetry_equiv_pos_site_id
 _symmetry_equiv_pos_as_xyz
  1  'x, y, z'
loop_
 _atom_site_type_symbol
 _atom_site_label
 _atom_site_symmetry_multiplicity
 _atom_site_fract_x
 _atom_site_fract_y
 _atom_site_fract_z
 _atom_site_occupancy
  La  La0  1  0.686781  0.499876  0.750161  1
  La  La1  1  0.313282  0.499985  0.249937  1
  Dy  Dy2  1  0.740842  0.000111  0.750277  1
  Dy  Dy3  1  0.259250  0.000089  0.249787  1
  Dy  Dy4  1  0.188554  0.799750  0.576289  1
  Ho  Ho5  1  0.811785  0.799495  0.076473  1
  Ho  Ho6  1  0.188263  0.200505  0.923525  1
  Ho  Ho7  1  0.811537  0.200673  0.423428  1
  W  W8  1  0.251903  0.728452  0.884652  1
  W  W9  1  0.748291  0.728442  0.384178  1
  W  W10  1  0.251705  0.271369  0.615566  1
  W  W11  1  0.748223  0.271479  0.115549  1
  O  O12  1  0.039778  0.942031  0.896188  1
  O  O13  1  0.529898  0.846569  0.931693  1
  O  O14  1  0.960143  0.942147  0.395860  1
  O  O15  1  0.454727  0.795391  0.728262  1
  O  O16  1  0.470939  0.847004  0.430732  1
  O  O17  1  0.988093  0.721396  0.769311  1
  O  O18  1  0.546096  0.795423  0.227506  1
  O  O19  1  0.859380  0.643203  0.544148  1
  O  O20  1  0.346423  0.494368  0.888630  1
  O  O21  1  0.011901  0.721503  0.268839  1
  O  O22  1  0.347124  0.505154  0.611434  1
  O  O23  1  0.860620  0.356279  0.955760  1
  O  O24  1  0.139424  0.643635  0.044358  1
  O  O25  1  0.653349  0.494294  0.388377  1
  O  O26  1  0.988476  0.278686  0.731273  1
  O  O27  1  0.653556  0.505525  0.111392  1
  O  O28  1  0.139504  0.356378  0.455711  1
  O  O29  1  0.453892  0.204283  0.772362  1
  O  O30  1  0.011692  0.278492  0.231119  1
  O  O31  1  0.529596  0.153205  0.568596  1
  O  O32  1  0.546023  0.204442  0.272288  1
  O  O33  1  0.038612  0.058787  0.603918  1
  O  O34  1  0.469996  0.153570  0.068576  1
  O  O35  1  0.960344  0.058009  0.103845  1
