# generated using pymatgen
data_TbYb3Ir3RuO14
_symmetry_space_group_name_H-M   'P 1'
_cell_length_a   7.23676125
_cell_length_b   7.23676161
_cell_length_c   7.23676214
_cell_angle_alpha   59.78651037
_cell_angle_beta   59.78650377
_cell_angle_gamma   59.78650924
_symmetry_Int_Tables_number   1
_chemical_formula_structural   TbYb3Ir3RuO14
_chemical_formula_sum   'Tb1 Yb3 Ir3 Ru1 O14'
_cell_volume   266.69061245
_cell_formula_units_Z   1
loop_
 _symmetry_equiv_pos_site_id
 _symmetry_equiv_pos_as_xyz
  1  'x, y, z'
loop_
 _atom_site_type_symbol
 _atom_site_label
 _atom_site_symmetry_multiplicity
 _atom_site_fract_x
 _atom_site_fract_y
 _atom_site_fract_z
 _atom_site_occupancy
  Tb  Tb0  1  0.625000  0.625000  0.625000  1
  Yb  Yb1  1  0.625000  0.625000  0.125000  1
  Yb  Yb2  1  0.625000  0.125000  0.625000  1
  Yb  Yb3  1  0.125000  0.625000  0.625000  1
  Ir  Ir4  1  0.125000  0.125000  0.625000  1
  Ir  Ir5  1  0.125000  0.625000  0.125000  1
  Ir  Ir6  1  0.625000  0.125000  0.125000  1
  Ru  Ru7  1  0.125000  0.125000  0.125000  1
  O  O8  1  0.747997  0.747997  0.747997  1
  O  O9  1  0.502003  0.502003  0.502003  1
  O  O10  1  0.051074  0.449172  0.051074  1
  O  O11  1  0.794189  0.206985  0.794189  1
  O  O12  1  0.051074  0.051074  0.449172  1
  O  O13  1  0.449172  0.051074  0.051074  1
  O  O14  1  0.043015  0.455811  0.455811  1
  O  O15  1  0.455811  0.455811  0.043015  1
  O  O16  1  0.455811  0.043015  0.455811  1
  O  O17  1  0.206985  0.794189  0.794189  1
  O  O18  1  0.800828  0.198926  0.198926  1
  O  O19  1  0.198926  0.800828  0.198926  1
  O  O20  1  0.794189  0.794189  0.206985  1
  O  O21  1  0.198926  0.198926  0.800828  1
