# generated using pymatgen
data_Ba4Sr2Pr2Co3RhO15
_symmetry_space_group_name_H-M   'P 1'
_cell_length_a   12.06295197
_cell_length_b   12.06295256
_cell_length_c   7.09790700
_cell_angle_alpha   89.93412597
_cell_angle_beta   89.93413071
_cell_angle_gamma   119.88038231
_symmetry_Int_Tables_number   1
_chemical_formula_structural   Ba4Sr2Pr2Co3RhO15
_chemical_formula_sum   'Ba8 Sr4 Pr4 Co6 Rh2 O30'
_cell_volume   895.54873733
_cell_formula_units_Z   2
loop_
 _symmetry_equiv_pos_site_id
 _symmetry_equiv_pos_as_xyz
  1  'x, y, z'
loop_
 _atom_site_type_symbol
 _atom_site_label
 _atom_site_symmetry_multiplicity
 _atom_site_fract_x
 _atom_site_fract_y
 _atom_site_fract_z
 _atom_site_occupancy
  Ba  Ba0  1  0.820252  0.176910  0.331477  1
  Ba  Ba1  1  0.827465  0.650831  0.330338  1
  Ba  Ba2  1  0.351817  0.177093  0.336321  1
  Ba  Ba3  1  0.176910  0.820252  0.831477  1
  Ba  Ba4  1  0.177093  0.351817  0.836321  1
  Ba  Ba5  1  0.650831  0.827465  0.830338  1
  Ba  Ba6  1  0.665198  0.332581  0.025086  1
  Ba  Ba7  1  0.332581  0.665198  0.525086  1
  Sr  Sr8  1  0.998332  0.999335  0.523118  1
  Sr  Sr9  1  0.999335  0.998332  0.023118  1
  Sr  Sr10  1  0.524676  0.049264  0.662460  1
  Sr  Sr11  1  0.049264  0.524676  0.162460  1
  Pr  Pr12  1  0.522655  0.475961  0.661342  1
  Pr  Pr13  1  0.953211  0.477862  0.660584  1
  Pr  Pr14  1  0.475961  0.522655  0.161342  1
  Pr  Pr15  1  0.477862  0.953211  0.160584  1
  Co  Co16  1  0.825809  0.176526  0.839676  1
  Co  Co17  1  0.824792  0.650513  0.836473  1
  Co  Co18  1  0.348930  0.172488  0.843935  1
  Co  Co19  1  0.176526  0.825809  0.339676  1
  Co  Co20  1  0.172488  0.348930  0.343935  1
  Co  Co21  1  0.650513  0.824792  0.336473  1
  Rh  Rh22  1  0.664890  0.333459  0.494171  1
  Rh  Rh23  1  0.333459  0.664890  0.994171  1
  O  O24  1  0.065845  0.670385  0.474517  1
  O  O25  1  0.335314  0.398609  0.463136  1
  O  O26  1  0.603036  0.932792  0.448427  1
  O  O27  1  0.068947  0.393750  0.476781  1
  O  O28  1  0.328837  0.935212  0.455473  1
  O  O29  1  0.602075  0.664533  0.455308  1
  O  O30  1  0.935212  0.328837  0.955473  1
  O  O31  1  0.664533  0.602075  0.955308  1
  O  O32  1  0.393750  0.068947  0.976781  1
  O  O33  1  0.932792  0.603036  0.948427  1
  O  O34  1  0.670385  0.065845  0.974517  1
  O  O35  1  0.398609  0.335314  0.963136  1
  O  O36  1  0.582400  0.416590  0.330178  1
  O  O37  1  0.584314  0.169655  0.326054  1
  O  O38  1  0.831157  0.415716  0.338712  1
  O  O39  1  0.416590  0.582400  0.830178  1
  O  O40  1  0.415716  0.831157  0.838712  1
  O  O41  1  0.169655  0.584314  0.826054  1
  O  O42  1  0.082637  0.898753  0.260465  1
  O  O43  1  0.097300  0.183291  0.262334  1
  O  O44  1  0.818660  0.903256  0.264184  1
  O  O45  1  0.898753  0.082637  0.760465  1
  O  O46  1  0.903256  0.818660  0.764184  1
  O  O47  1  0.183291  0.097300  0.762334  1
  O  O48  1  0.758270  0.253464  0.657946  1
  O  O49  1  0.751125  0.507165  0.653783  1
  O  O50  1  0.491838  0.254224  0.661917  1
  O  O51  1  0.253464  0.758270  0.157946  1
  O  O52  1  0.254224  0.491838  0.161917  1
  O  O53  1  0.507165  0.751125  0.153783  1
