# generated using pymatgen
data_Tb3Tm9(TcOs)2
_symmetry_space_group_name_H-M   'P 1'
_cell_length_a   6.25261886
_cell_length_b   7.38919035
_cell_length_c   8.95459700
_cell_angle_alpha   90.00000000
_cell_angle_beta   90.00000000
_cell_angle_gamma   90.10934070
_symmetry_Int_Tables_number   1
_chemical_formula_structural   Tb3Tm9(TcOs)2
_chemical_formula_sum   'Tb3 Tm9 Tc2 Os2'
_cell_volume   413.71766510
_cell_formula_units_Z   1
loop_
 _symmetry_equiv_pos_site_id
 _symmetry_equiv_pos_as_xyz
  1  'x, y, z'
loop_
 _atom_site_type_symbol
 _atom_site_label
 _atom_site_symmetry_multiplicity
 _atom_site_fract_x
 _atom_site_fract_y
 _atom_site_fract_z
 _atom_site_occupancy
  Tb  Tb0  1  0.877356  0.539722  0.250000  1
  Tb  Tb1  1  0.622154  0.039118  0.250000  1
  Tb  Tb2  1  0.370757  0.959435  0.750000  1
  Tm  Tm3  1  0.338571  0.674219  0.061845  1
  Tm  Tm4  1  0.160795  0.176058  0.437929  1
  Tm  Tm5  1  0.664200  0.325191  0.563875  1
  Tm  Tm6  1  0.837464  0.824273  0.936390  1
  Tm  Tm7  1  0.664200  0.325191  0.936125  1
  Tm  Tm8  1  0.837464  0.824273  0.563610  1
  Tm  Tm9  1  0.338571  0.674219  0.438155  1
  Tm  Tm10  1  0.160795  0.176058  0.062071  1
  Tm  Tm11  1  0.129711  0.459105  0.750000  1
  Tc  Tc12  1  0.040235  0.883633  0.250000  1
  Tc  Tc13  1  0.459927  0.383780  0.250000  1
  Os  Os14  1  0.957065  0.118972  0.750000  1
  Os  Os15  1  0.540733  0.616750  0.750000  1
