# generated using pymatgen
data_YbYIrRhO7
_symmetry_space_group_name_H-M   'P 1'
_cell_length_a   7.24209790
_cell_length_b   7.22733364
_cell_length_c   7.22733386
_cell_angle_alpha   59.77089819
_cell_angle_beta   59.93238824
_cell_angle_gamma   59.93239612
_symmetry_Int_Tables_number   1
_chemical_formula_structural   YbYIrRhO7
_chemical_formula_sum   'Yb2 Y2 Ir2 Rh2 O14'
_cell_volume   266.75034567
_cell_formula_units_Z   2
loop_
 _symmetry_equiv_pos_site_id
 _symmetry_equiv_pos_as_xyz
  1  'x, y, z'
loop_
 _atom_site_type_symbol
 _atom_site_label
 _atom_site_symmetry_multiplicity
 _atom_site_fract_x
 _atom_site_fract_y
 _atom_site_fract_z
 _atom_site_occupancy
  Yb  Yb0  1  0.125000  0.625000  0.125000  1
  Yb  Yb1  1  0.125000  0.125000  0.625000  1
  Y  Y2  1  0.625000  0.125000  0.125000  1
  Y  Y3  1  0.125000  0.125000  0.125000  1
  Ir  Ir4  1  0.125000  0.625000  0.625000  1
  Ir  Ir5  1  0.625000  0.625000  0.625000  1
  Rh  Rh6  1  0.625000  0.125000  0.625000  1
  Rh  Rh7  1  0.625000  0.625000  0.125000  1
  O  O8  1  0.706565  0.705086  0.296574  1
  O  O9  1  0.291776  0.296574  0.705086  1
  O  O10  1  0.706565  0.296574  0.705086  1
  O  O11  1  0.291776  0.705086  0.296574  1
  O  O12  1  0.298860  0.701140  0.701140  1
  O  O13  1  0.711144  0.288856  0.288856  1
  O  O14  1  0.543435  0.544914  0.953426  1
  O  O15  1  0.958224  0.953426  0.544914  1
  O  O16  1  0.543435  0.953426  0.544914  1
  O  O17  1  0.958224  0.544914  0.953426  1
  O  O18  1  0.951140  0.548860  0.548860  1
  O  O19  1  0.538856  0.961144  0.961144  1
  O  O20  1  0.254057  0.245943  0.245943  1
  O  O21  1  0.995943  0.004057  0.004057  1
