# generated using pymatgen
data_LiDyNiPt3
_symmetry_space_group_name_H-M   'P 1'
_cell_length_a   5.10852093
_cell_length_b   5.10852096
_cell_length_c   5.10852006
_cell_angle_alpha   63.44196615
_cell_angle_beta   63.44196152
_cell_angle_gamma   63.44196965
_symmetry_Int_Tables_number   1
_chemical_formula_structural   LiDyNiPt3
_chemical_formula_sum   'Li1 Dy1 Ni1 Pt3'
_cell_volume   101.44781818
_cell_formula_units_Z   1
loop_
 _symmetry_equiv_pos_site_id
 _symmetry_equiv_pos_as_xyz
  1  'x, y, z'
loop_
 _atom_site_type_symbol
 _atom_site_label
 _atom_site_symmetry_multiplicity
 _atom_site_fract_x
 _atom_site_fract_y
 _atom_site_fract_z
 _atom_site_occupancy
  Li  Li0  1  0.256183  0.256183  0.256183  1
  Dy  Dy1  1  0.001295  0.001295  0.001295  1
  Ni  Ni2  1  0.623295  0.623295  0.623295  1
  Pt  Pt3  1  0.622155  0.622155  0.124919  1
  Pt  Pt4  1  0.622155  0.124919  0.622155  1
  Pt  Pt5  1  0.124919  0.622155  0.622155  1
