# generated using pymatgen
data_Ti4Ga3TcN
_symmetry_space_group_name_H-M   'P 1'
_cell_length_a   7.58268500
_cell_length_b   7.58268626
_cell_length_c   5.17247400
_cell_angle_alpha   90.00000000
_cell_angle_beta   90.00000000
_cell_angle_gamma   119.99999889
_symmetry_Int_Tables_number   1
_chemical_formula_structural   Ti4Ga3TcN
_chemical_formula_sum   'Ti8 Ga6 Tc2 N2'
_cell_volume   257.55800626
_cell_formula_units_Z   2
loop_
 _symmetry_equiv_pos_site_id
 _symmetry_equiv_pos_as_xyz
  1  'x, y, z'
loop_
 _atom_site_type_symbol
 _atom_site_label
 _atom_site_symmetry_multiplicity
 _atom_site_fract_x
 _atom_site_fract_y
 _atom_site_fract_z
 _atom_site_occupancy
  Ti  Ti0  1  0.223419  0.000000  0.250870  1
  Ti  Ti1  1  0.776581  0.000000  0.749130  1
  Ti  Ti2  1  0.000000  0.223419  0.250870  1
  Ti  Ti3  1  0.000000  0.776581  0.749130  1
  Ti  Ti4  1  0.776581  0.776581  0.250870  1
  Ti  Ti5  1  0.223419  0.223419  0.749130  1
  Ti  Ti6  1  0.666667  0.333333  0.500000  1
  Ti  Ti7  1  0.333333  0.666667  0.500000  1
  Ga  Ga8  1  0.590598  0.000000  0.239795  1
  Ga  Ga9  1  0.409402  0.000000  0.760205  1
  Ga  Ga10  1  0.000000  0.590598  0.239795  1
  Ga  Ga11  1  0.000000  0.409402  0.760205  1
  Ga  Ga12  1  0.409402  0.409402  0.239795  1
  Ga  Ga13  1  0.590598  0.590598  0.760205  1
  Tc  Tc14  1  0.333333  0.666667  0.000000  1
  Tc  Tc15  1  0.666667  0.333333  0.000000  1
  N  N16  1  0.000000  0.000000  0.000000  1
  N  N17  1  0.000000  0.000000  0.500000  1
