# generated using pymatgen
data_TbTm(CuP2)2
_symmetry_space_group_name_H-M   'P 1'
_cell_length_a   3.69954800
_cell_length_b   3.74407900
_cell_length_c   19.39387100
_cell_angle_alpha   90.00000000
_cell_angle_beta   90.00000000
_cell_angle_gamma   90.00000000
_symmetry_Int_Tables_number   1
_chemical_formula_structural   TbTm(CuP2)2
_chemical_formula_sum   'Tb2 Tm2 Cu4 P8'
_cell_volume   268.63226431
_cell_formula_units_Z   2
loop_
 _symmetry_equiv_pos_site_id
 _symmetry_equiv_pos_as_xyz
  1  'x, y, z'
loop_
 _atom_site_type_symbol
 _atom_site_label
 _atom_site_symmetry_multiplicity
 _atom_site_fract_x
 _atom_site_fract_y
 _atom_site_fract_z
 _atom_site_occupancy
  Tb  Tb0  1  0.250000  0.723585  0.383097  1
  Tb  Tb1  1  0.250000  0.776415  0.883097  1
  Tm  Tm2  1  0.750000  0.276534  0.617520  1
  Tm  Tm3  1  0.750000  0.223466  0.117520  1
  Cu  Cu4  1  0.250000  0.227125  0.248905  1
  Cu  Cu5  1  0.750000  0.772952  0.749419  1
  Cu  Cu6  1  0.250000  0.272875  0.748905  1
  Cu  Cu7  1  0.750000  0.727048  0.249419  1
  P  P8  1  0.750000  0.799700  0.503099  1
  P  P9  1  0.750000  0.700300  0.003099  1
  P  P10  1  0.250000  0.201244  0.500463  1
  P  P11  1  0.250000  0.298756  0.000463  1
  P  P12  1  0.250000  0.725489  0.169975  1
  P  P13  1  0.750000  0.225376  0.327522  1
  P  P14  1  0.750000  0.274624  0.827522  1
  P  P15  1  0.250000  0.774511  0.669975  1
