# generated using pymatgen
data_Sm3Ho13(CdIr)4
_symmetry_space_group_name_H-M   'P 1'
_cell_length_a   9.64069764
_cell_length_b   9.62969888
_cell_length_c   9.62838205
_cell_angle_alpha   60.08011694
_cell_angle_beta   59.96971352
_cell_angle_gamma   59.95316661
_symmetry_Int_Tables_number   1
_chemical_formula_structural   Sm3Ho13(CdIr)4
_chemical_formula_sum   'Sm3 Ho13 Cd4 Ir4'
_cell_volume   632.07419653
_cell_formula_units_Z   1
loop_
 _symmetry_equiv_pos_site_id
 _symmetry_equiv_pos_as_xyz
  1  'x, y, z'
loop_
 _atom_site_type_symbol
 _atom_site_label
 _atom_site_symmetry_multiplicity
 _atom_site_fract_x
 _atom_site_fract_y
 _atom_site_fract_z
 _atom_site_occupancy
  Sm  Sm0  1  0.188873  0.811127  0.188873  1
  Sm  Sm1  1  0.811268  0.812834  0.187718  1
  Sm  Sm2  1  0.187718  0.188180  0.811268  1
  Ho  Ho3  1  0.598776  0.597517  0.599248  1
  Ho  Ho4  1  0.600140  0.598068  0.203739  1
  Ho  Ho5  1  0.599248  0.204458  0.598776  1
  Ho  Ho6  1  0.203739  0.598051  0.600140  1
  Ho  Ho7  1  0.060370  0.438698  0.438559  1
  Ho  Ho8  1  0.438559  0.062372  0.060370  1
  Ho  Ho9  1  0.438989  0.061011  0.438989  1
  Ho  Ho10  1  0.061191  0.438809  0.061191  1
  Ho  Ho11  1  0.439050  0.439292  0.060037  1
  Ho  Ho12  1  0.060037  0.061621  0.439050  1
  Ho  Ho13  1  0.189487  0.810886  0.809224  1
  Ho  Ho14  1  0.809224  0.190403  0.189487  1
  Ho  Ho15  1  0.810718  0.189282  0.810718  1
  Cd  Cd16  1  0.831242  0.831143  0.829774  1
  Cd  Cd17  1  0.830153  0.831323  0.508288  1
  Cd  Cd18  1  0.829774  0.507841  0.831242  1
  Cd  Cd19  1  0.508288  0.830235  0.830153  1
  Ir  Ir20  1  0.393452  0.390273  0.391226  1
  Ir  Ir21  1  0.393362  0.391666  0.825114  1
  Ir  Ir22  1  0.391226  0.825049  0.393452  1
  Ir  Ir23  1  0.825114  0.389857  0.393362  1
