# generated using pymatgen
data_Pr3NdDy12(CdPt)4
_symmetry_space_group_name_H-M   'P 1'
_cell_length_a   9.79179047
_cell_length_b   9.76265323
_cell_length_c   9.76289041
_cell_angle_alpha   60.19674634
_cell_angle_beta   59.90042910
_cell_angle_gamma   59.91776860
_symmetry_Int_Tables_number   1
_chemical_formula_structural   Pr3NdDy12(CdPt)4
_chemical_formula_sum   'Pr3 Nd1 Dy12 Cd4 Pt4'
_cell_volume   659.98658141
_cell_formula_units_Z   1
loop_
 _symmetry_equiv_pos_site_id
 _symmetry_equiv_pos_as_xyz
  1  'x, y, z'
loop_
 _atom_site_type_symbol
 _atom_site_label
 _atom_site_symmetry_multiplicity
 _atom_site_fract_x
 _atom_site_fract_y
 _atom_site_fract_z
 _atom_site_occupancy
  Pr  Pr0  1  0.565351  0.935011  0.564952  1
  Pr  Pr1  1  0.935011  0.565351  0.934687  1
  Pr  Pr2  1  0.564901  0.564901  0.935099  1
  Nd  Nd3  1  0.935407  0.935407  0.564593  1
  Dy  Dy4  1  0.351333  0.350327  0.350526  1
  Dy  Dy5  1  0.350327  0.351333  0.947813  1
  Dy  Dy6  1  0.350135  0.947792  0.351506  1
  Dy  Dy7  1  0.947792  0.350135  0.350568  1
  Dy  Dy8  1  0.811544  0.188242  0.188867  1
  Dy  Dy9  1  0.188242  0.811544  0.811347  1
  Dy  Dy10  1  0.188979  0.810875  0.189477  1
  Dy  Dy11  1  0.810875  0.188979  0.810668  1
  Dy  Dy12  1  0.189178  0.189178  0.810822  1
  Dy  Dy13  1  0.810762  0.810762  0.189238  1
  Dy  Dy14  1  0.942262  0.558203  0.557704  1
  Dy  Dy15  1  0.558203  0.942262  0.941831  1
  Cd  Cd16  1  0.583326  0.578528  0.578607  1
  Cd  Cd17  1  0.578528  0.583326  0.259540  1
  Cd  Cd18  1  0.579178  0.258998  0.583311  1
  Cd  Cd19  1  0.258998  0.579178  0.578514  1
  Pt  Pt20  1  0.145269  0.141330  0.141792  1
  Pt  Pt21  1  0.141330  0.145269  0.571607  1
  Pt  Pt22  1  0.141451  0.571618  0.145488  1
  Pt  Pt23  1  0.571618  0.141451  0.141442  1
