# generated using pymatgen
data_Zr10Co7Si20Ru
_symmetry_space_group_name_H-M   'P 1'
_cell_length_a   12.08960801
_cell_length_b   12.08046271
_cell_length_c   3.95192400
_cell_angle_alpha   90.00000000
_cell_angle_beta   90.00000000
_cell_angle_gamma   90.09728315
_symmetry_Int_Tables_number   1
_chemical_formula_structural   Zr10Co7Si20Ru
_chemical_formula_sum   'Zr10 Co7 Si20 Ru1'
_cell_volume   577.16999674
_cell_formula_units_Z   1
loop_
 _symmetry_equiv_pos_site_id
 _symmetry_equiv_pos_as_xyz
  1  'x, y, z'
loop_
 _atom_site_type_symbol
 _atom_site_label
 _atom_site_symmetry_multiplicity
 _atom_site_fract_x
 _atom_site_fract_y
 _atom_site_fract_z
 _atom_site_occupancy
  Zr  Zr0  1  0.000162  0.000266  0.000000  1
  Zr  Zr1  1  0.499805  0.504263  0.000000  1
  Zr  Zr2  1  0.682713  0.176627  0.500000  1
  Zr  Zr3  1  0.173304  0.321769  0.500000  1
  Zr  Zr4  1  0.821461  0.678348  0.500000  1
  Zr  Zr5  1  0.321877  0.819547  0.500000  1
  Zr  Zr6  1  0.886978  0.387103  0.500000  1
  Zr  Zr7  1  0.384806  0.109709  0.500000  1
  Zr  Zr8  1  0.615341  0.885158  0.500000  1
  Zr  Zr9  1  0.111099  0.612128  0.500000  1
  Co  Co10  1  0.253233  0.475440  0.000000  1
  Co  Co11  1  0.744433  0.529459  0.000000  1
  Co  Co12  1  0.472781  0.744218  0.000000  1
  Co  Co13  1  0.973928  0.756895  0.000000  1
  Co  Co14  1  0.026068  0.244026  0.000000  1
  Co  Co15  1  0.758509  0.025617  0.000000  1
  Co  Co16  1  0.244471  0.973804  0.000000  1
  Si  Si17  1  0.571508  0.061813  0.000000  1
  Si  Si18  1  0.066834  0.432701  0.000000  1
  Si  Si19  1  0.931775  0.569695  0.000000  1
  Si  Si20  1  0.431347  0.930396  0.000000  1
  Si  Si21  1  0.196866  0.153868  0.000000  1
  Si  Si22  1  0.154353  0.801317  0.000000  1
  Si  Si23  1  0.847291  0.199206  0.000000  1
  Si  Si24  1  0.801869  0.845360  0.000000  1
  Si  Si25  1  0.299613  0.653843  0.000000  1
  Si  Si26  1  0.704090  0.348055  0.000000  1
  Si  Si27  1  0.654089  0.700562  0.000000  1
  Si  Si28  1  0.337248  0.301736  0.000000  1
  Si  Si29  1  0.997461  0.165385  0.500000  1
  Si  Si30  1  0.163973  0.994750  0.500000  1
  Si  Si31  1  0.836799  0.998434  0.500000  1
  Si  Si32  1  0.000712  0.834665  0.500000  1
  Si  Si33  1  0.502599  0.667560  0.500000  1
  Si  Si34  1  0.506481  0.346317  0.500000  1
  Si  Si35  1  0.666522  0.499402  0.500000  1
  Si  Si36  1  0.333301  0.496417  0.500000  1
  Ru  Ru37  1  0.524305  0.254144  0.000000  1
