# generated using pymatgen
data_Nd4Al9Ga15PdRh
_symmetry_space_group_name_H-M   'P 1'
_cell_length_a   6.06422313
_cell_length_b   6.06422313
_cell_length_c   15.81096961
_cell_angle_alpha   90.14191805
_cell_angle_beta   90.14191805
_cell_angle_gamma   89.71776904
_symmetry_Int_Tables_number   1
_chemical_formula_structural   Nd4Al9Ga15PdRh
_chemical_formula_sum   'Nd4 Al9 Ga15 Pd1 Rh1'
_cell_volume   581.43467634
_cell_formula_units_Z   1
loop_
 _symmetry_equiv_pos_site_id
 _symmetry_equiv_pos_as_xyz
  1  'x, y, z'
loop_
 _atom_site_type_symbol
 _atom_site_label
 _atom_site_symmetry_multiplicity
 _atom_site_fract_x
 _atom_site_fract_y
 _atom_site_fract_z
 _atom_site_occupancy
  Nd  Nd0  1  0.751533  0.251533  0.249421  1
  Nd  Nd1  1  0.250741  0.750741  0.248905  1
  Nd  Nd2  1  0.248764  0.748764  0.751110  1
  Nd  Nd3  1  0.749106  0.249106  0.750102  1
  Al  Al4  1  0.502424  0.002424  0.913253  1
  Al  Al5  1  0.997222  0.002830  0.912908  1
  Al  Al6  1  0.502830  0.497222  0.912908  1
  Al  Al7  1  0.996622  0.496622  0.913299  1
  Al  Al8  1  0.503025  0.003025  0.086412  1
  Al  Al9  1  0.996874  0.002814  0.087200  1
  Al  Al10  1  0.502814  0.496874  0.087200  1
  Al  Al11  1  0.997795  0.497795  0.086428  1
  Al  Al12  1  0.584082  0.084082  0.434028  1
  Ga  Ga13  1  0.250214  0.250493  0.187720  1
  Ga  Ga14  1  0.750493  0.750214  0.187720  1
  Ga  Ga15  1  0.749454  0.749160  0.812278  1
  Ga  Ga16  1  0.249160  0.249454  0.812278  1
  Ga  Ga17  1  0.253853  0.249710  0.343951  1
  Ga  Ga18  1  0.749710  0.753853  0.343951  1
  Ga  Ga19  1  0.749470  0.747970  0.655978  1
  Ga  Ga20  1  0.247970  0.249470  0.655978  1
  Ga  Ga21  1  0.080987  0.922032  0.431263  1
  Ga  Ga22  1  0.422032  0.580987  0.431263  1
  Ga  Ga23  1  0.919126  0.419126  0.431375  1
  Ga  Ga24  1  0.417405  0.917405  0.568667  1
  Ga  Ga25  1  0.918372  0.077279  0.568410  1
  Ga  Ga26  1  0.577279  0.418372  0.568410  1
  Ga  Ga27  1  0.080769  0.580769  0.567603  1
  Pd  Pd28  1  0.249982  0.749982  0.999927  1
  Rh  Rh29  1  0.749892  0.249892  0.000051  1
