# generated using pymatgen
data_YHf(NiP)3
_symmetry_space_group_name_H-M   'P 1'
_cell_length_a   3.73064300
_cell_length_b   10.14620700
_cell_length_c   12.26745000
_cell_angle_alpha   90.00000000
_cell_angle_beta   90.00000000
_cell_angle_gamma   90.00000000
_symmetry_Int_Tables_number   1
_chemical_formula_structural   YHf(NiP)3
_chemical_formula_sum   'Y4 Hf4 Ni12 P12'
_cell_volume   464.34599772
_cell_formula_units_Z   4
loop_
 _symmetry_equiv_pos_site_id
 _symmetry_equiv_pos_as_xyz
  1  'x, y, z'
loop_
 _atom_site_type_symbol
 _atom_site_label
 _atom_site_symmetry_multiplicity
 _atom_site_fract_x
 _atom_site_fract_y
 _atom_site_fract_z
 _atom_site_occupancy
  Y  Y0  1  0.250000  0.071504  0.207490  1
  Y  Y1  1  0.750000  0.928496  0.792510  1
  Y  Y2  1  0.750000  0.571504  0.292510  1
  Y  Y3  1  0.250000  0.428496  0.707490  1
  Hf  Hf4  1  0.250000  0.159874  0.497389  1
  Hf  Hf5  1  0.750000  0.840126  0.502611  1
  Hf  Hf6  1  0.750000  0.659874  0.002611  1
  Hf  Hf7  1  0.250000  0.340126  0.997389  1
  Ni  Ni8  1  0.250000  0.728441  0.664199  1
  Ni  Ni9  1  0.750000  0.271559  0.335801  1
  Ni  Ni10  1  0.750000  0.228441  0.835801  1
  Ni  Ni11  1  0.250000  0.771559  0.164199  1
  Ni  Ni12  1  0.250000  0.365715  0.217814  1
  Ni  Ni13  1  0.750000  0.634285  0.782186  1
  Ni  Ni14  1  0.750000  0.865715  0.282186  1
  Ni  Ni15  1  0.250000  0.134285  0.717814  1
  Ni  Ni16  1  0.250000  0.598631  0.483820  1
  Ni  Ni17  1  0.750000  0.401369  0.516180  1
  Ni  Ni18  1  0.750000  0.098631  0.016180  1
  Ni  Ni19  1  0.250000  0.901369  0.983820  1
  P  P20  1  0.250000  0.945121  0.621509  1
  P  P21  1  0.750000  0.054879  0.378491  1
  P  P22  1  0.750000  0.445121  0.878491  1
  P  P23  1  0.250000  0.554879  0.121509  1
  P  P24  1  0.250000  0.393560  0.402409  1
  P  P25  1  0.750000  0.606440  0.597591  1
  P  P26  1  0.750000  0.893560  0.097591  1
  P  P27  1  0.250000  0.106440  0.902409  1
  P  P28  1  0.250000  0.770789  0.355620  1
  P  P29  1  0.750000  0.229211  0.644380  1
  P  P30  1  0.750000  0.270789  0.144380  1
  P  P31  1  0.250000  0.729211  0.855620  1
