# generated using pymatgen
data_LuScB6W
_symmetry_space_group_name_H-M   'P 1'
_cell_length_a   3.47081600
_cell_length_b   9.13660200
_cell_length_c   11.49302400
_cell_angle_alpha   90.00000000
_cell_angle_beta   90.00000000
_cell_angle_gamma   90.00000000
_symmetry_Int_Tables_number   1
_chemical_formula_structural   LuScB6W
_chemical_formula_sum   'Lu4 Sc4 B24 W4'
_cell_volume   364.46062151
_cell_formula_units_Z   4
loop_
 _symmetry_equiv_pos_site_id
 _symmetry_equiv_pos_as_xyz
  1  'x, y, z'
loop_
 _atom_site_type_symbol
 _atom_site_label
 _atom_site_symmetry_multiplicity
 _atom_site_fract_x
 _atom_site_fract_y
 _atom_site_fract_z
 _atom_site_occupancy
  Lu  Lu0  1  0.500000  0.319949  0.413896  1
  Lu  Lu1  1  0.500000  0.680051  0.586104  1
  Lu  Lu2  1  0.500000  0.180051  0.913896  1
  Lu  Lu3  1  0.500000  0.819949  0.086104  1
  Sc  Sc4  1  0.500000  0.445446  0.126949  1
  Sc  Sc5  1  0.500000  0.554554  0.873051  1
  Sc  Sc6  1  0.500000  0.054554  0.626949  1
  Sc  Sc7  1  0.500000  0.945446  0.373051  1
  B  B8  1  0.000000  0.096756  0.473284  1
  B  B9  1  0.000000  0.903244  0.526716  1
  B  B10  1  0.000000  0.403244  0.973284  1
  B  B11  1  0.000000  0.596756  0.026716  1
  B  B12  1  0.000000  0.130132  0.319996  1
  B  B13  1  0.000000  0.869868  0.680004  1
  B  B14  1  0.000000  0.369868  0.819996  1
  B  B15  1  0.000000  0.630132  0.180004  1
  B  B16  1  0.000000  0.051973  0.064576  1
  B  B17  1  0.000000  0.948027  0.935424  1
  B  B18  1  0.000000  0.448027  0.564576  1
  B  B19  1  0.000000  0.551973  0.435424  1
  B  B20  1  0.000000  0.477967  0.285884  1
  B  B21  1  0.000000  0.522033  0.714116  1
  B  B22  1  0.000000  0.022033  0.785884  1
  B  B23  1  0.000000  0.977967  0.214116  1
  B  B24  1  0.000000  0.256342  0.077665  1
  B  B25  1  0.000000  0.743658  0.922335  1
  B  B26  1  0.000000  0.243658  0.577665  1
  B  B27  1  0.000000  0.756342  0.422335  1
  B  B28  1  0.000000  0.298080  0.236583  1
  B  B29  1  0.000000  0.701920  0.763417  1
  B  B30  1  0.000000  0.201920  0.736583  1
  B  B31  1  0.000000  0.798080  0.263417  1
  W  W32  1  0.500000  0.141330  0.180881  1
  W  W33  1  0.500000  0.858670  0.819119  1
  W  W34  1  0.500000  0.358670  0.680881  1
  W  W35  1  0.500000  0.641330  0.319119  1
