# generated using pymatgen
data_ScTa8SnSe16
_symmetry_space_group_name_H-M   'P 1'
_cell_length_a   7.03524803
_cell_length_b   7.02757590
_cell_length_c   14.26201000
_cell_angle_alpha   90.13495662
_cell_angle_beta   90.05317285
_cell_angle_gamma   119.93481043
_symmetry_Int_Tables_number   1
_chemical_formula_structural   ScTa8SnSe16
_chemical_formula_sum   'Sc1 Ta8 Sn1 Se16'
_cell_volume   611.05282043
_cell_formula_units_Z   1
loop_
 _symmetry_equiv_pos_site_id
 _symmetry_equiv_pos_as_xyz
  1  'x, y, z'
loop_
 _atom_site_type_symbol
 _atom_site_label
 _atom_site_symmetry_multiplicity
 _atom_site_fract_x
 _atom_site_fract_y
 _atom_site_fract_z
 _atom_site_occupancy
  Sc  Sc0  1  0.000000  0.000000  0.000000  1
  Ta  Ta1  1  0.507359  0.492460  0.767283  1
  Ta  Ta2  1  0.015290  0.507605  0.232678  1
  Ta  Ta3  1  0.492483  0.984667  0.232854  1
  Ta  Ta4  1  0.507517  0.015333  0.767146  1
  Ta  Ta5  1  0.984710  0.492395  0.767322  1
  Ta  Ta6  1  0.492641  0.507540  0.232717  1
  Ta  Ta7  1  0.999796  0.000033  0.768427  1
  Ta  Ta8  1  0.000204  0.999967  0.231573  1
  Sn  Sn9  1  0.000000  0.000000  0.500000  1
  Se  Se10  1  0.832194  0.169205  0.347050  1
  Se  Se11  1  0.832072  0.663548  0.346907  1
  Se  Se12  1  0.337434  0.169118  0.347172  1
  Se  Se13  1  0.660073  0.830710  0.882210  1
  Se  Se14  1  0.167928  0.336452  0.653093  1
  Se  Se15  1  0.170861  0.830718  0.882229  1
  Se  Se16  1  0.170550  0.340780  0.882503  1
  Se  Se17  1  0.829139  0.169282  0.117771  1
  Se  Se18  1  0.339927  0.169290  0.117790  1
  Se  Se19  1  0.662566  0.830882  0.652828  1
  Se  Se20  1  0.332795  0.665805  0.112184  1
  Se  Se21  1  0.666104  0.332767  0.646853  1
  Se  Se22  1  0.667205  0.334195  0.887816  1
  Se  Se23  1  0.333896  0.667233  0.353147  1
  Se  Se24  1  0.829450  0.659220  0.117497  1
  Se  Se25  1  0.167806  0.830795  0.652950  1
