# generated using pymatgen
data_HoUS6
_symmetry_space_group_name_H-M   'P 1'
_cell_length_a   3.93092600
_cell_length_b   5.38421760
_cell_length_c   9.47335622
_cell_angle_alpha   82.73301671
_cell_angle_beta   90.00000000
_cell_angle_gamma   90.00000000
_symmetry_Int_Tables_number   1
_chemical_formula_structural   HoUS6
_chemical_formula_sum   'Ho1 U1 S6'
_cell_volume   198.89267228
_cell_formula_units_Z   1
loop_
 _symmetry_equiv_pos_site_id
 _symmetry_equiv_pos_as_xyz
  1  'x, y, z'
loop_
 _atom_site_type_symbol
 _atom_site_label
 _atom_site_symmetry_multiplicity
 _atom_site_fract_x
 _atom_site_fract_y
 _atom_site_fract_z
 _atom_site_occupancy
  Ho  Ho0  1  0.250000  0.717463  0.146294  1
  U  U1  1  0.750000  0.279778  0.865987  1
  S  S2  1  0.250000  0.128683  0.691320  1
  S  S3  1  0.750000  0.874508  0.312987  1
  S  S4  1  0.750000  0.485780  0.312838  1
  S  S5  1  0.250000  0.509112  0.691603  1
  S  S6  1  0.750000  0.766882  0.924130  1
  S  S7  1  0.250000  0.237793  0.054841  1
