# generated using pymatgen
data_CsMnTlSO4F3
_symmetry_space_group_name_H-M   'P 1'
_cell_length_a   11.94097400
_cell_length_b   7.56489072
_cell_length_c   9.40642100
_cell_angle_alpha   87.44459521
_cell_angle_beta   90.00000000
_cell_angle_gamma   90.00000000
_symmetry_Int_Tables_number   1
_chemical_formula_structural   CsMnTlSO4F3
_chemical_formula_sum   'Cs4 Mn4 Tl4 S4 O16 F12'
_cell_volume   848.85739312
_cell_formula_units_Z   4
loop_
 _symmetry_equiv_pos_site_id
 _symmetry_equiv_pos_as_xyz
  1  'x, y, z'
loop_
 _atom_site_type_symbol
 _atom_site_label
 _atom_site_symmetry_multiplicity
 _atom_site_fract_x
 _atom_site_fract_y
 _atom_site_fract_z
 _atom_site_occupancy
  Cs  Cs0  1  0.312928  0.290068  0.169480  1
  Cs  Cs1  1  0.812928  0.709932  0.330520  1
  Cs  Cs2  1  0.687072  0.709932  0.830520  1
  Cs  Cs3  1  0.187072  0.290068  0.669480  1
  Mn  Mn4  1  0.000000  0.500000  0.000000  1
  Mn  Mn5  1  0.500000  0.500000  0.500000  1
  Mn  Mn6  1  0.000000  0.000000  0.000000  1
  Mn  Mn7  1  0.500000  0.000000  0.500000  1
  Tl  Tl8  1  0.207398  0.803190  0.360777  1
  Tl  Tl9  1  0.707398  0.196810  0.139223  1
  Tl  Tl10  1  0.792602  0.196810  0.639223  1
  Tl  Tl11  1  0.292602  0.803190  0.860777  1
  S  S12  1  0.995843  0.250664  0.291855  1
  S  S13  1  0.495843  0.749336  0.208145  1
  S  S14  1  0.004157  0.749336  0.708145  1
  S  S15  1  0.504157  0.250664  0.791855  1
  O  O16  1  0.444030  0.888172  0.296770  1
  O  O17  1  0.944030  0.111828  0.203230  1
  O  O18  1  0.555970  0.111828  0.703230  1
  O  O19  1  0.055970  0.888172  0.796770  1
  O  O20  1  0.044701  0.397522  0.190824  1
  O  O21  1  0.544701  0.602478  0.309176  1
  O  O22  1  0.955299  0.602478  0.809176  1
  O  O23  1  0.455299  0.397522  0.690824  1
  O  O24  1  0.908243  0.326616  0.381600  1
  O  O25  1  0.408243  0.673384  0.118400  1
  O  O26  1  0.091757  0.673384  0.618400  1
  O  O27  1  0.591757  0.326616  0.881600  1
  O  O28  1  0.091494  0.178881  0.374656  1
  O  O29  1  0.591494  0.821119  0.125344  1
  O  O30  1  0.908506  0.821119  0.625344  1
  O  O31  1  0.408506  0.178881  0.874656  1
  F  F32  1  0.346773  0.524241  0.455529  1
  F  F33  1  0.846773  0.475759  0.044471  1
  F  F34  1  0.653227  0.475759  0.544471  1
  F  F35  1  0.153227  0.524241  0.955529  1
  F  F36  1  0.153983  0.013639  0.040771  1
  F  F37  1  0.653983  0.986361  0.459229  1
  F  F38  1  0.846017  0.986361  0.959229  1
  F  F39  1  0.346017  0.013639  0.540771  1
  F  F40  1  0.996700  0.764934  0.088764  1
  F  F41  1  0.496700  0.235066  0.411236  1
  F  F42  1  0.003300  0.235066  0.911236  1
  F  F43  1  0.503300  0.764934  0.588764  1
