# generated using pymatgen
data_Tb2Dy3Co19(SiP5)2
_symmetry_space_group_name_H-M   'P 1'
_cell_length_a   12.03553101
_cell_length_b   12.02827672
_cell_length_c   3.68806400
_cell_angle_alpha   90.00000000
_cell_angle_beta   90.00000000
_cell_angle_gamma   119.98339051
_symmetry_Int_Tables_number   1
_chemical_formula_structural   Tb2Dy3Co19(SiP5)2
_chemical_formula_sum   'Tb2 Dy3 Co19 Si2 P10'
_cell_volume   462.45599133
_cell_formula_units_Z   1
loop_
 _symmetry_equiv_pos_site_id
 _symmetry_equiv_pos_as_xyz
  1  'x, y, z'
loop_
 _atom_site_type_symbol
 _atom_site_label
 _atom_site_symmetry_multiplicity
 _atom_site_fract_x
 _atom_site_fract_y
 _atom_site_fract_z
 _atom_site_occupancy
  Tb  Tb0  1  0.665557  0.332907  0.000000  1
  Tb  Tb1  1  0.184922  0.185196  0.500000  1
  Dy  Dy2  1  0.334451  0.667342  0.000000  1
  Dy  Dy3  1  0.814994  0.000200  0.500000  1
  Dy  Dy4  1  0.999980  0.811760  0.500000  1
  Co  Co5  1  0.559247  0.556297  0.000000  1
  Co  Co6  1  0.440808  0.997036  0.000000  1
  Co  Co7  1  0.000000  0.447881  0.000000  1
  Co  Co8  1  0.824872  0.203740  0.000000  1
  Co  Co9  1  0.801690  0.622535  0.000000  1
  Co  Co10  1  0.377321  0.174409  0.000000  1
  Co  Co11  1  0.198376  0.820724  0.000000  1
  Co  Co12  1  0.622702  0.797190  0.000000  1
  Co  Co13  1  0.175177  0.379175  0.000000  1
  Co  Co14  1  0.640750  0.126493  0.500000  1
  Co  Co15  1  0.875202  0.516753  0.500000  1
  Co  Co16  1  0.485477  0.358313  0.500000  1
  Co  Co17  1  0.125025  0.641563  0.500000  1
  Co  Co18  1  0.514417  0.872646  0.500000  1
  Co  Co19  1  0.359281  0.486047  0.500000  1
  Co  Co20  1  0.716911  0.715502  0.500000  1
  Co  Co21  1  0.283076  0.998379  0.500000  1
  Co  Co22  1  0.999993  0.286162  0.500000  1
  Co  Co23  1  0.999787  0.000239  0.000000  1
  Si  Si24  1  0.369935  0.369989  0.000000  1
  Si  Si25  1  0.630297  0.000054  0.000000  1
  P  P26  1  0.999979  0.631173  0.000000  1
  P  P27  1  0.833164  0.313473  0.500000  1
  P  P28  1  0.686244  0.520629  0.500000  1
  P  P29  1  0.478235  0.164903  0.500000  1
  P  P30  1  0.313816  0.834083  0.500000  1
  P  P31  1  0.521463  0.686621  0.500000  1
  P  P32  1  0.167106  0.480582  0.500000  1
  P  P33  1  0.819037  0.818315  0.000000  1
  P  P34  1  0.180933  0.998998  0.000000  1
  P  P35  1  0.999774  0.182688  0.000000  1
