# generated using pymatgen
data_SmY3(B4Mo)4
_symmetry_space_group_name_H-M   'P 1'
_cell_length_a   3.64190800
_cell_length_b   6.05221926
_cell_length_c   11.69879643
_cell_angle_alpha   90.07388654
_cell_angle_beta   90.00000000
_cell_angle_gamma   90.00000000
_symmetry_Int_Tables_number   1
_chemical_formula_structural   SmY3(B4Mo)4
_chemical_formula_sum   'Sm1 Y3 B16 Mo4'
_cell_volume   257.86027808
_cell_formula_units_Z   1
loop_
 _symmetry_equiv_pos_site_id
 _symmetry_equiv_pos_as_xyz
  1  'x, y, z'
loop_
 _atom_site_type_symbol
 _atom_site_label
 _atom_site_symmetry_multiplicity
 _atom_site_fract_x
 _atom_site_fract_y
 _atom_site_fract_z
 _atom_site_occupancy
  Sm  Sm0  1  0.000000  0.126762  0.150255  1
  Y  Y1  1  0.000000  0.873191  0.849878  1
  Y  Y2  1  0.000000  0.626744  0.350563  1
  Y  Y3  1  0.000000  0.373291  0.649814  1
  B  B4  1  0.500000  0.023724  0.693409  1
  B  B5  1  0.500000  0.974880  0.308019  1
  B  B6  1  0.500000  0.523915  0.806098  1
  B  B7  1  0.500000  0.477230  0.193174  1
  B  B8  1  0.500000  0.113623  0.547815  1
  B  B9  1  0.500000  0.885828  0.453247  1
  B  B10  1  0.500000  0.614363  0.951908  1
  B  B11  1  0.500000  0.387995  0.046298  1
  B  B12  1  0.500000  0.286866  0.315102  1
  B  B13  1  0.500000  0.713444  0.685994  1
  B  B14  1  0.500000  0.784517  0.186274  1
  B  B15  1  0.500000  0.213425  0.813382  1
  B  B16  1  0.500000  0.366555  0.468681  1
  B  B17  1  0.500000  0.633699  0.532224  1
  B  B18  1  0.500000  0.865583  0.030966  1
  B  B19  1  0.500000  0.134068  0.966927  1
  Mo  Mo20  1  0.000000  0.129196  0.417413  1
  Mo  Mo21  1  0.000000  0.870486  0.583858  1
  Mo  Mo22  1  0.000000  0.629491  0.083019  1
  Mo  Mo23  1  0.000000  0.371126  0.915683  1
