# generated using pymatgen
data_DyTm3Al5Tc3
_symmetry_space_group_name_H-M   'P 1'
_cell_length_a   5.47882805
_cell_length_b   5.52040747
_cell_length_c   8.73991110
_cell_angle_alpha   89.99999886
_cell_angle_beta   89.98473531
_cell_angle_gamma   120.25137348
_symmetry_Int_Tables_number   1
_chemical_formula_structural   DyTm3Al5Tc3
_chemical_formula_sum   'Dy1 Tm3 Al5 Tc3'
_cell_volume   228.34461779
_cell_formula_units_Z   1
loop_
 _symmetry_equiv_pos_site_id
 _symmetry_equiv_pos_as_xyz
  1  'x, y, z'
loop_
 _atom_site_type_symbol
 _atom_site_label
 _atom_site_symmetry_multiplicity
 _atom_site_fract_x
 _atom_site_fract_y
 _atom_site_fract_z
 _atom_site_occupancy
  Dy  Dy0  1  0.336797  0.668399  0.443428  1
  Tm  Tm1  1  0.665142  0.332571  0.555278  1
  Tm  Tm2  1  0.665253  0.332627  0.944856  1
  Tm  Tm3  1  0.337371  0.668686  0.056183  1
  Al  Al4  1  0.836817  0.163139  0.249684  1
  Al  Al5  1  0.836817  0.673678  0.249684  1
  Al  Al6  1  0.323813  0.161907  0.249842  1
  Al  Al7  1  0.184392  0.841824  0.750352  1
  Al  Al8  1  0.184392  0.342568  0.750352  1
  Tc  Tc9  1  0.976172  0.988086  0.510365  1
  Tc  Tc10  1  0.976143  0.988071  0.989891  1
  Tc  Tc11  1  0.676889  0.838445  0.750085  1
