# generated using pymatgen
data_LiCdSbO4
_symmetry_space_group_name_H-M   'P 1'
_cell_length_a   6.39986201
_cell_length_b   8.90262800
_cell_length_c   6.39934000
_cell_angle_alpha   89.99986678
_cell_angle_beta   89.99724257
_cell_angle_gamma   90.00026162
_symmetry_Int_Tables_number   1
_chemical_formula_structural   LiCdSbO4
_chemical_formula_sum   'Li4 Cd4 Sb4 O16'
_cell_volume   364.60617615
_cell_formula_units_Z   4
loop_
 _symmetry_equiv_pos_site_id
 _symmetry_equiv_pos_as_xyz
  1  'x, y, z'
loop_
 _atom_site_type_symbol
 _atom_site_label
 _atom_site_symmetry_multiplicity
 _atom_site_fract_x
 _atom_site_fract_y
 _atom_site_fract_z
 _atom_site_occupancy
  Li  Li0  1  0.216425  0.000000  0.999996  1
  Li  Li1  1  0.783577  0.500004  0.000008  1
  Li  Li2  1  0.999995  0.250002  0.216193  1
  Li  Li3  1  0.000007  0.749999  0.783807  1
  Cd  Cd4  1  0.757758  0.875023  0.242268  1
  Cd  Cd5  1  0.242238  0.375018  0.757729  1
  Cd  Cd6  1  0.242243  0.624979  0.242274  1
  Cd  Cd7  1  0.757756  0.124979  0.757725  1
  Sb  Sb8  1  0.500016  0.250008  0.242227  1
  Sb  Sb9  1  0.242206  0.999992  0.500015  1
  Sb  Sb10  1  0.757794  0.499993  0.499986  1
  Sb  Sb11  1  0.499985  0.750007  0.757773  1
  O  O12  1  0.265422  0.249875  0.046667  1
  O  O13  1  0.734567  0.250130  0.046670  1
  O  O14  1  0.046664  0.000173  0.265397  1
  O  O15  1  0.953330  0.499819  0.265406  1
  O  O16  1  0.046670  0.999822  0.734596  1
  O  O17  1  0.953339  0.500175  0.734604  1
  O  O18  1  0.265432  0.750130  0.953330  1
  O  O19  1  0.734577  0.749875  0.953334  1
  O  O20  1  0.478376  0.022212  0.276576  1
  O  O21  1  0.521618  0.477787  0.276601  1
  O  O22  1  0.276581  0.227769  0.478400  1
  O  O23  1  0.723390  0.272233  0.478407  1
  O  O24  1  0.276608  0.772232  0.521594  1
  O  O25  1  0.723419  0.727770  0.521598  1
  O  O26  1  0.521622  0.522211  0.723425  1
  O  O27  1  0.478382  0.977786  0.723399  1
