# generated using pymatgen
data_Li2TbHoB28
_symmetry_space_group_name_H-M   'P 1'
_cell_length_a   7.25735410
_cell_length_b   7.25735541
_cell_length_c   7.25735427
_cell_angle_alpha   132.26538044
_cell_angle_beta   110.87913952
_cell_angle_gamma   88.34028607
_symmetry_Int_Tables_number   1
_chemical_formula_structural   Li2TbHoB28
_chemical_formula_sum   'Li2 Tb1 Ho1 B28'
_cell_volume   251.72187990
_cell_formula_units_Z   1
loop_
 _symmetry_equiv_pos_site_id
 _symmetry_equiv_pos_as_xyz
  1  'x, y, z'
loop_
 _atom_site_type_symbol
 _atom_site_label
 _atom_site_symmetry_multiplicity
 _atom_site_fract_x
 _atom_site_fract_y
 _atom_site_fract_z
 _atom_site_occupancy
  Li  Li0  1  0.999979  0.999961  0.499940  1
  Li  Li1  1  0.999979  0.500039  0.000018  1
  Tb  Tb2  1  0.380125  0.750000  0.630125  1
  Ho  Ho3  1  0.621329  0.250000  0.371329  1
  B  B4  1  0.638575  0.665952  0.972624  1
  B  B5  1  0.361573  0.334031  0.027541  1
  B  B6  1  0.193510  0.165969  0.027541  1
  B  B7  1  0.806672  0.834048  0.972624  1
  B  B8  1  0.777894  0.149706  0.628187  1
  B  B9  1  0.221782  0.850596  0.371187  1
  B  B10  1  0.020589  0.649404  0.371187  1
  B  B11  1  0.978483  0.350294  0.628187  1
  B  B12  1  0.915663  0.089120  0.826544  1
  B  B13  1  0.084004  0.910879  0.173124  1
  B  B14  1  0.762245  0.589121  0.173124  1
  B  B15  1  0.237424  0.410880  0.826544  1
  B  B16  1  0.398668  0.400039  0.681173  1
  B  B17  1  0.601540  0.282975  0.002136  1
  B  B18  1  0.219160  0.900596  0.002136  1
  B  B19  1  0.781133  0.782504  0.681173  1
  B  B20  1  0.601540  0.599404  0.318563  1
  B  B21  1  0.398668  0.717496  0.998629  1
  B  B22  1  0.781133  0.099961  0.998629  1
  B  B23  1  0.219160  0.217025  0.318563  1
  B  B24  1  0.033388  0.829903  0.703207  1
  B  B25  1  0.966303  0.669541  0.796132  1
  B  B26  1  0.626591  0.329830  0.796132  1
  B  B27  1  0.373303  0.169818  0.703207  1
  B  B28  1  0.966303  0.170170  0.296761  1
  B  B29  1  0.033388  0.330182  0.203485  1
  B  B30  1  0.373303  0.670097  0.203485  1
  B  B31  1  0.626591  0.830459  0.296761  1
