# generated using pymatgen
data_Tb6TcOs
_symmetry_space_group_name_H-M   'P 1'
_cell_length_a   6.33053500
_cell_length_b   7.45599900
_cell_length_c   9.15131400
_cell_angle_alpha   90.00000000
_cell_angle_beta   90.00000000
_cell_angle_gamma   90.00000000
_symmetry_Int_Tables_number   1
_chemical_formula_structural   Tb6TcOs
_chemical_formula_sum   'Tb12 Tc2 Os2'
_cell_volume   431.94625447
_cell_formula_units_Z   2
loop_
 _symmetry_equiv_pos_site_id
 _symmetry_equiv_pos_as_xyz
  1  'x, y, z'
loop_
 _atom_site_type_symbol
 _atom_site_label
 _atom_site_symmetry_multiplicity
 _atom_site_fract_x
 _atom_site_fract_y
 _atom_site_fract_z
 _atom_site_occupancy
  Tb  Tb0  1  0.336974  0.675304  0.063207  1
  Tb  Tb1  1  0.163026  0.175304  0.436793  1
  Tb  Tb2  1  0.665694  0.324378  0.563377  1
  Tb  Tb3  1  0.834306  0.824378  0.936623  1
  Tb  Tb4  1  0.665694  0.324378  0.936623  1
  Tb  Tb5  1  0.834306  0.824378  0.563377  1
  Tb  Tb6  1  0.336974  0.675304  0.436793  1
  Tb  Tb7  1  0.163026  0.175304  0.063207  1
  Tb  Tb8  1  0.875033  0.540693  0.250000  1
  Tb  Tb9  1  0.624967  0.040693  0.250000  1
  Tb  Tb10  1  0.132098  0.458554  0.750000  1
  Tb  Tb11  1  0.367902  0.958554  0.750000  1
  Tc  Tc12  1  0.038811  0.884951  0.250000  1
  Tc  Tc13  1  0.461189  0.384951  0.250000  1
  Os  Os14  1  0.958537  0.116436  0.750000  1
  Os  Os15  1  0.541463  0.616436  0.750000  1
