# generated using pymatgen
data_Y5Hf3Fe8(Ni2P3)4
_symmetry_space_group_name_H-M   'P 1'
_cell_length_a   12.31705532
_cell_length_b   12.26122211
_cell_length_c   3.76233800
_cell_angle_alpha   90.00000000
_cell_angle_beta   90.00000000
_cell_angle_gamma   120.08684599
_symmetry_Int_Tables_number   1
_chemical_formula_structural   Y5Hf3Fe8(Ni2P3)4
_chemical_formula_sum   'Y5 Hf3 Fe8 Ni8 P12'
_cell_volume   491.64131051
_cell_formula_units_Z   1
loop_
 _symmetry_equiv_pos_site_id
 _symmetry_equiv_pos_as_xyz
  1  'x, y, z'
loop_
 _atom_site_type_symbol
 _atom_site_label
 _atom_site_symmetry_multiplicity
 _atom_site_fract_x
 _atom_site_fract_y
 _atom_site_fract_z
 _atom_site_occupancy
  Y  Y0  1  0.180739  0.181109  0.500000  1
  Y  Y1  1  0.817061  0.999825  0.500000  1
  Y  Y2  1  0.998428  0.816838  0.500000  1
  Y  Y3  1  0.333493  0.666449  0.000000  1
  Y  Y4  1  0.669557  0.334519  0.000000  1
  Hf  Hf5  1  0.561411  0.560278  0.000000  1
  Hf  Hf6  1  0.441086  0.998915  0.000000  1
  Hf  Hf7  1  0.000270  0.440561  0.000000  1
  Fe  Fe8  1  0.720497  0.720645  0.500000  1
  Fe  Fe9  1  0.280824  0.004116  0.500000  1
  Fe  Fe10  1  0.000403  0.279202  0.500000  1
  Fe  Fe11  1  0.181042  0.378402  0.000000  1
  Fe  Fe12  1  0.620779  0.802846  0.000000  1
  Fe  Fe13  1  0.196216  0.819915  0.000000  1
  Fe  Fe14  1  0.804290  0.622031  0.000000  1
  Fe  Fe15  1  0.818139  0.196482  0.000000  1
  Ni  Ni16  1  0.375751  0.182628  0.000000  1
  Ni  Ni17  1  0.358404  0.479284  0.500000  1
  Ni  Ni18  1  0.516759  0.876318  0.500000  1
  Ni  Ni19  1  0.124030  0.641644  0.500000  1
  Ni  Ni20  1  0.877582  0.518132  0.500000  1
  Ni  Ni21  1  0.642266  0.123117  0.500000  1
  Ni  Ni22  1  0.482960  0.356282  0.500000  1
  Ni  Ni23  1  0.999273  0.000417  0.000000  1
  P  P24  1  0.815402  0.816445  0.000000  1
  P  P25  1  0.177559  0.994290  0.000000  1
  P  P26  1  0.998225  0.183046  0.000000  1
  P  P27  1  0.168399  0.472147  0.500000  1
  P  P28  1  0.527740  0.696859  0.500000  1
  P  P29  1  0.302088  0.831345  0.500000  1
  P  P30  1  0.699563  0.529227  0.500000  1
  P  P31  1  0.832003  0.303321  0.500000  1
  P  P32  1  0.478534  0.168396  0.500000  1
  P  P33  1  0.347514  0.353710  0.000000  1
  P  P34  1  0.651791  0.999787  0.000000  1
  P  P35  1  0.999920  0.651470  0.000000  1
