# generated using pymatgen
data_HoThSiI2
_symmetry_space_group_name_H-M   'P 1'
_cell_length_a   11.85601229
_cell_length_b   11.85601226
_cell_length_c   11.85601219
_cell_angle_alpha   20.66902909
_cell_angle_beta   20.66903117
_cell_angle_gamma   20.66903205
_symmetry_Int_Tables_number   1
_chemical_formula_structural   HoThSiI2
_chemical_formula_sum   'Ho1 Th1 Si1 I2'
_cell_volume   181.76196977
_cell_formula_units_Z   1
loop_
 _symmetry_equiv_pos_site_id
 _symmetry_equiv_pos_as_xyz
  1  'x, y, z'
loop_
 _atom_site_type_symbol
 _atom_site_label
 _atom_site_symmetry_multiplicity
 _atom_site_fract_x
 _atom_site_fract_y
 _atom_site_fract_z
 _atom_site_occupancy
  Ho  Ho0  1  0.621617  0.621617  0.621617  1
  Th  Th1  1  0.376789  0.376789  0.376789  1
  Si  Si2  1  0.998330  0.998330  0.998330  1
  I  I3  1  0.230892  0.230892  0.230892  1
  I  I4  1  0.772371  0.772371  0.772371  1
