# generated using pymatgen
data_Ca7Sm(Si4Mo3)4
_symmetry_space_group_name_H-M   'P 1'
_cell_length_a   6.75119423
_cell_length_b   6.96589454
_cell_length_c   13.10460731
_cell_angle_alpha   89.98958676
_cell_angle_beta   90.04666777
_cell_angle_gamma   89.95652996
_symmetry_Int_Tables_number   1
_chemical_formula_structural   Ca7Sm(Si4Mo3)4
_chemical_formula_sum   'Ca7 Sm1 Si16 Mo12'
_cell_volume   616.28448345
_cell_formula_units_Z   1
loop_
 _symmetry_equiv_pos_site_id
 _symmetry_equiv_pos_as_xyz
  1  'x, y, z'
loop_
 _atom_site_type_symbol
 _atom_site_label
 _atom_site_symmetry_multiplicity
 _atom_site_fract_x
 _atom_site_fract_y
 _atom_site_fract_z
 _atom_site_occupancy
  Ca  Ca0  1  0.498296  0.333665  0.090899  1
  Ca  Ca1  1  0.998311  0.166864  0.408606  1
  Ca  Ca2  1  0.501528  0.666923  0.591692  1
  Ca  Ca3  1  0.001261  0.831119  0.907159  1
  Ca  Ca4  1  0.501208  0.667649  0.907990  1
  Ca  Ca5  1  0.001331  0.832433  0.591593  1
  Ca  Ca6  1  0.498401  0.333599  0.409201  1
  Sm  Sm7  1  0.000247  0.168544  0.093084  1
  Si  Si8  1  0.657117  0.043557  0.546134  1
  Si  Si9  1  0.158328  0.458025  0.953615  1
  Si  Si10  1  0.344145  0.955403  0.045408  1
  Si  Si11  1  0.842728  0.543799  0.453959  1
  Si  Si12  1  0.342835  0.956129  0.454028  1
  Si  Si13  1  0.841194  0.546203  0.045246  1
  Si  Si14  1  0.657656  0.042645  0.953669  1
  Si  Si15  1  0.157163  0.456136  0.546192  1
  Si  Si16  1  0.535105  0.372184  0.750362  1
  Si  Si17  1  0.035123  0.126778  0.749824  1
  Si  Si18  1  0.464834  0.629697  0.249015  1
  Si  Si19  1  0.964573  0.869967  0.250615  1
  Si  Si20  1  0.800668  0.628066  0.749979  1
  Si  Si21  1  0.301139  0.871065  0.750006  1
  Si  Si22  1  0.200696  0.373185  0.251535  1
  Si  Si23  1  0.695453  0.129330  0.251492  1
  Mo  Mo24  1  0.835013  0.330577  0.628221  1
  Mo  Mo25  1  0.334101  0.168550  0.872440  1
  Mo  Mo26  1  0.165209  0.668523  0.127140  1
  Mo  Mo27  1  0.665367  0.830432  0.371643  1
  Mo  Mo28  1  0.165487  0.669264  0.371456  1
  Mo  Mo29  1  0.667363  0.832663  0.127484  1
  Mo  Mo30  1  0.835301  0.329902  0.872562  1
  Mo  Mo31  1  0.334829  0.168673  0.628289  1
  Mo  Mo32  1  0.660942  0.011296  0.750219  1
  Mo  Mo33  1  0.161286  0.488220  0.750374  1
  Mo  Mo34  1  0.338007  0.989623  0.249883  1
  Mo  Mo35  1  0.837755  0.509310  0.248985  1
