# generated using pymatgen
data_Y3Ho2(Co2Sn5)2
_symmetry_space_group_name_H-M   'P 1'
_cell_length_a   13.83972800
_cell_length_b   13.83972800
_cell_length_c   4.43393700
_cell_angle_alpha   90.00000000
_cell_angle_beta   90.00000000
_cell_angle_gamma   90.00000000
_symmetry_Int_Tables_number   1
_chemical_formula_structural   Y3Ho2(Co2Sn5)2
_chemical_formula_sum   'Y6 Ho4 Co8 Sn20'
_cell_volume   849.26774042
_cell_formula_units_Z   2
loop_
 _symmetry_equiv_pos_site_id
 _symmetry_equiv_pos_as_xyz
  1  'x, y, z'
loop_
 _atom_site_type_symbol
 _atom_site_label
 _atom_site_symmetry_multiplicity
 _atom_site_fract_x
 _atom_site_fract_y
 _atom_site_fract_z
 _atom_site_occupancy
  Y  Y0  1  0.000000  0.000000  0.000000  1
  Y  Y1  1  0.500000  0.500000  0.000000  1
  Y  Y2  1  0.892155  0.607845  0.500000  1
  Y  Y3  1  0.107845  0.392155  0.500000  1
  Y  Y4  1  0.392155  0.892155  0.500000  1
  Y  Y5  1  0.607845  0.107845  0.500000  1
  Ho  Ho6  1  0.180815  0.680815  0.500000  1
  Ho  Ho7  1  0.819185  0.319185  0.500000  1
  Ho  Ho8  1  0.680815  0.819185  0.500000  1
  Ho  Ho9  1  0.319185  0.180815  0.500000  1
  Co  Co10  1  0.254996  0.536260  0.000000  1
  Co  Co11  1  0.745004  0.463740  0.000000  1
  Co  Co12  1  0.754996  0.963740  0.000000  1
  Co  Co13  1  0.245004  0.036260  0.000000  1
  Co  Co14  1  0.463740  0.254996  0.000000  1
  Co  Co15  1  0.536260  0.745004  0.000000  1
  Co  Co16  1  0.036260  0.754996  0.000000  1
  Co  Co17  1  0.963740  0.245004  0.000000  1
  Sn  Sn18  1  0.353232  0.701866  0.000000  1
  Sn  Sn19  1  0.646768  0.298134  0.000000  1
  Sn  Sn20  1  0.853232  0.798134  0.000000  1
  Sn  Sn21  1  0.146768  0.201866  0.000000  1
  Sn  Sn22  1  0.298134  0.353232  0.000000  1
  Sn  Sn23  1  0.701866  0.646768  0.000000  1
  Sn  Sn24  1  0.201866  0.853232  0.000000  1
  Sn  Sn25  1  0.798134  0.146768  0.000000  1
  Sn  Sn26  1  0.334859  0.513924  0.500000  1
  Sn  Sn27  1  0.665141  0.486076  0.500000  1
  Sn  Sn28  1  0.834859  0.986076  0.500000  1
  Sn  Sn29  1  0.165141  0.013924  0.500000  1
  Sn  Sn30  1  0.486076  0.334859  0.500000  1
  Sn  Sn31  1  0.513924  0.665141  0.500000  1
  Sn  Sn32  1  0.013924  0.834859  0.500000  1
  Sn  Sn33  1  0.986076  0.165141  0.500000  1
  Sn  Sn34  1  0.072526  0.572526  0.000000  1
  Sn  Sn35  1  0.927474  0.427474  0.000000  1
  Sn  Sn36  1  0.572526  0.927474  0.000000  1
  Sn  Sn37  1  0.427474  0.072526  0.000000  1
