# generated using pymatgen
data_HoTm4FeSb2
_symmetry_space_group_name_H-M   'P 1'
_cell_length_a   7.73807900
_cell_length_b   8.72293000
_cell_length_c   12.02438400
_cell_angle_alpha   90.00000000
_cell_angle_beta   90.00000000
_cell_angle_gamma   90.00000000
_symmetry_Int_Tables_number   1
_chemical_formula_structural   HoTm4FeSb2
_chemical_formula_sum   'Ho4 Tm16 Fe4 Sb8'
_cell_volume   811.63054624
_cell_formula_units_Z   4
loop_
 _symmetry_equiv_pos_site_id
 _symmetry_equiv_pos_as_xyz
  1  'x, y, z'
loop_
 _atom_site_type_symbol
 _atom_site_label
 _atom_site_symmetry_multiplicity
 _atom_site_fract_x
 _atom_site_fract_y
 _atom_site_fract_z
 _atom_site_occupancy
  Ho  Ho0  1  0.622932  0.750000  0.307694  1
  Ho  Ho1  1  0.877068  0.750000  0.807694  1
  Ho  Ho2  1  0.377068  0.250000  0.692306  1
  Ho  Ho3  1  0.122932  0.250000  0.192306  1
  Tm  Tm4  1  0.155832  0.750000  0.205133  1
  Tm  Tm5  1  0.344168  0.750000  0.705133  1
  Tm  Tm6  1  0.844168  0.250000  0.794867  1
  Tm  Tm7  1  0.655832  0.250000  0.294867  1
  Tm  Tm8  1  0.448400  0.750000  0.995917  1
  Tm  Tm9  1  0.051600  0.750000  0.495917  1
  Tm  Tm10  1  0.551600  0.250000  0.004083  1
  Tm  Tm11  1  0.948400  0.250000  0.504083  1
  Tm  Tm12  1  0.824325  0.535984  0.064321  1
  Tm  Tm13  1  0.675675  0.964016  0.564321  1
  Tm  Tm14  1  0.175675  0.035984  0.935679  1
  Tm  Tm15  1  0.324325  0.464016  0.435679  1
  Tm  Tm16  1  0.175675  0.464016  0.935679  1
  Tm  Tm17  1  0.324325  0.035984  0.435679  1
  Tm  Tm18  1  0.824325  0.964016  0.064321  1
  Tm  Tm19  1  0.675675  0.535984  0.564321  1
  Fe  Fe20  1  0.428572  0.750000  0.489810  1
  Fe  Fe21  1  0.071428  0.750000  0.989810  1
  Fe  Fe22  1  0.571428  0.250000  0.510190  1
  Fe  Fe23  1  0.928572  0.250000  0.010190  1
  Sb  Sb24  1  0.930359  0.507026  0.328448  1
  Sb  Sb25  1  0.569641  0.992974  0.828448  1
  Sb  Sb26  1  0.069641  0.007026  0.671552  1
  Sb  Sb27  1  0.430359  0.492974  0.171552  1
  Sb  Sb28  1  0.069641  0.492974  0.671552  1
  Sb  Sb29  1  0.430359  0.007026  0.171552  1
  Sb  Sb30  1  0.930359  0.992974  0.328448  1
  Sb  Sb31  1  0.569641  0.507026  0.828448  1
