# generated using pymatgen
data_NdTm4(MnB3)2
_symmetry_space_group_name_H-M   'P 1'
_cell_length_a   5.39684083
_cell_length_b   5.39684100
_cell_length_c   8.26010454
_cell_angle_alpha   70.93254678
_cell_angle_beta   70.93254785
_cell_angle_gamma   60.00001612
_symmetry_Int_Tables_number   1
_chemical_formula_structural   NdTm4(MnB3)2
_chemical_formula_sum   'Nd1 Tm4 Mn2 B6'
_cell_volume   192.95884557
_cell_formula_units_Z   1
loop_
 _symmetry_equiv_pos_site_id
 _symmetry_equiv_pos_as_xyz
  1  'x, y, z'
loop_
 _atom_site_type_symbol
 _atom_site_label
 _atom_site_symmetry_multiplicity
 _atom_site_fract_x
 _atom_site_fract_y
 _atom_site_fract_z
 _atom_site_occupancy
  Nd  Nd0  1  0.000000  0.000000  0.000000  1
  Tm  Tm1  1  0.248958  0.248958  0.253125  1
  Tm  Tm2  1  0.751042  0.751042  0.746875  1
  Tm  Tm3  1  0.418006  0.418006  0.745983  1
  Tm  Tm4  1  0.581994  0.581994  0.254017  1
  Mn  Mn5  1  0.114084  0.114084  0.657747  1
  Mn  Mn6  1  0.885916  0.885916  0.342253  1
  B  B7  1  0.166990  0.833010  0.500000  1
  B  B8  1  0.833010  0.500000  0.500000  1
  B  B9  1  0.500000  0.166990  0.500000  1
  B  B10  1  0.166990  0.500000  0.500000  1
  B  B11  1  0.500000  0.833010  0.500000  1
  B  B12  1  0.833010  0.166990  0.500000  1
