# generated using pymatgen
data_YHo7(Si4Mo3)4
_symmetry_space_group_name_H-M   'P 1'
_cell_length_a   6.76192915
_cell_length_b   6.94444319
_cell_length_c   12.91741770
_cell_angle_alpha   90.00666561
_cell_angle_beta   89.99829630
_cell_angle_gamma   90.00489151
_symmetry_Int_Tables_number   1
_chemical_formula_structural   YHo7(Si4Mo3)4
_chemical_formula_sum   'Y1 Ho7 Si16 Mo12'
_cell_volume   606.57393483
_cell_formula_units_Z   1
loop_
 _symmetry_equiv_pos_site_id
 _symmetry_equiv_pos_as_xyz
  1  'x, y, z'
loop_
 _atom_site_type_symbol
 _atom_site_label
 _atom_site_symmetry_multiplicity
 _atom_site_fract_x
 _atom_site_fract_y
 _atom_site_fract_z
 _atom_site_occupancy
  Y  Y0  1  0.997119  0.167122  0.093775  1
  Ho  Ho1  1  0.497047  0.332857  0.094002  1
  Ho  Ho2  1  0.997118  0.167220  0.406002  1
  Ho  Ho3  1  0.502929  0.667135  0.594054  1
  Ho  Ho4  1  0.002727  0.832579  0.906074  1
  Ho  Ho5  1  0.502841  0.667303  0.906139  1
  Ho  Ho6  1  0.002798  0.832768  0.594056  1
  Ho  Ho7  1  0.497090  0.332803  0.405812  1
  Si  Si8  1  0.659028  0.041667  0.547380  1
  Si  Si9  1  0.159350  0.458640  0.952571  1
  Si  Si10  1  0.341193  0.958264  0.047333  1
  Si  Si11  1  0.840856  0.541602  0.452572  1
  Si  Si12  1  0.340959  0.958345  0.452512  1
  Si  Si13  1  0.840702  0.541878  0.047365  1
  Si  Si14  1  0.658787  0.041514  0.952653  1
  Si  Si15  1  0.159110  0.458403  0.547372  1
  Si  Si16  1  0.534753  0.366079  0.750156  1
  Si  Si17  1  0.034758  0.133748  0.750079  1
  Si  Si18  1  0.465319  0.633939  0.249849  1
  Si  Si19  1  0.965306  0.866082  0.250027  1
  Si  Si20  1  0.802606  0.629442  0.750141  1
  Si  Si21  1  0.302551  0.870304  0.750096  1
  Si  Si22  1  0.197531  0.370643  0.250144  1
  Si  Si23  1  0.697179  0.129641  0.250075  1
  Mo  Mo24  1  0.830309  0.334586  0.625184  1
  Mo  Mo25  1  0.330170  0.165224  0.875047  1
  Mo  Mo26  1  0.169659  0.665431  0.125106  1
  Mo  Mo27  1  0.669814  0.834786  0.374664  1
  Mo  Mo28  1  0.169636  0.665327  0.374680  1
  Mo  Mo29  1  0.669900  0.834814  0.124944  1
  Mo  Mo30  1  0.830483  0.334338  0.875060  1
  Mo  Mo31  1  0.330371  0.165313  0.625138  1
  Mo  Mo32  1  0.666076  0.998471  0.750125  1
  Mo  Mo33  1  0.166110  0.501418  0.750103  1
  Mo  Mo34  1  0.333883  0.001808  0.249823  1
  Mo  Mo35  1  0.833932  0.498513  0.249892  1
