# generated using pymatgen
data_Ce2ThAlPd3Au2
_symmetry_space_group_name_H-M   'P 1'
_cell_length_a   7.69632338
_cell_length_b   7.45293563
_cell_length_c   3.83845800
_cell_angle_alpha   90.00000000
_cell_angle_beta   90.00000000
_cell_angle_gamma   118.95929399
_symmetry_Int_Tables_number   1
_chemical_formula_structural   Ce2ThAlPd3Au2
_chemical_formula_sum   'Ce2 Th1 Al1 Pd3 Au2'
_cell_volume   192.64494435
_cell_formula_units_Z   1
loop_
 _symmetry_equiv_pos_site_id
 _symmetry_equiv_pos_as_xyz
  1  'x, y, z'
loop_
 _atom_site_type_symbol
 _atom_site_label
 _atom_site_symmetry_multiplicity
 _atom_site_fract_x
 _atom_site_fract_y
 _atom_site_fract_z
 _atom_site_occupancy
  Ce  Ce0  1  0.402127  0.393590  0.500000  1
  Ce  Ce1  1  0.597873  0.991464  0.500000  1
  Th  Th2  1  0.000000  0.616411  0.500000  1
  Al  Al3  1  0.000000  0.255095  0.000000  1
  Pd  Pd4  1  0.691567  0.329469  0.000000  1
  Pd  Pd5  1  0.308433  0.637903  0.000000  1
  Pd  Pd6  1  0.000000  0.036140  0.500000  1
  Au  Au7  1  0.727226  0.733577  0.000000  1
  Au  Au8  1  0.272774  0.006350  0.000000  1
