# generated using pymatgen
data_Sm7Ho(SiBr6)2
_symmetry_space_group_name_H-M   'P 1'
_cell_length_a   4.14526200
_cell_length_b   13.50802793
_cell_length_c   14.32401424
_cell_angle_alpha   89.76283722
_cell_angle_beta   90.00000000
_cell_angle_gamma   90.00000000
_symmetry_Int_Tables_number   1
_chemical_formula_structural   Sm7Ho(SiBr6)2
_chemical_formula_sum   'Sm7 Ho1 Si2 Br12'
_cell_volume   802.05649251
_cell_formula_units_Z   1
loop_
 _symmetry_equiv_pos_site_id
 _symmetry_equiv_pos_as_xyz
  1  'x, y, z'
loop_
 _atom_site_type_symbol
 _atom_site_label
 _atom_site_symmetry_multiplicity
 _atom_site_fract_x
 _atom_site_fract_y
 _atom_site_fract_z
 _atom_site_occupancy
  Sm  Sm0  1  0.500000  0.119255  0.340036  1
  Sm  Sm1  1  0.500000  0.881381  0.659201  1
  Sm  Sm2  1  0.500000  0.617415  0.159504  1
  Sm  Sm3  1  0.500000  0.380871  0.841564  1
  Sm  Sm4  1  0.000000  0.118880  0.578387  1
  Sm  Sm5  1  0.000000  0.881302  0.421085  1
  Sm  Sm6  1  0.000000  0.617462  0.922054  1
  Ho  Ho7  1  0.000000  0.383469  0.077299  1
  Si  Si8  1  0.500000  0.000267  0.499458  1
  Si  Si9  1  0.500000  0.497818  0.001410  1
  Br  Br10  1  0.500000  0.251918  0.160533  1
  Br  Br11  1  0.500000  0.754361  0.837316  1
  Br  Br12  1  0.500000  0.744100  0.336470  1
  Br  Br13  1  0.500000  0.255211  0.663962  1
  Br  Br14  1  0.000000  0.255337  0.410880  1
  Br  Br15  1  0.000000  0.744973  0.588616  1
  Br  Br16  1  0.000000  0.754229  0.088154  1
  Br  Br17  1  0.000000  0.246163  0.917133  1
  Br  Br18  1  0.000000  0.002872  0.243160  1
  Br  Br19  1  0.000000  0.998004  0.756097  1
  Br  Br20  1  0.000000  0.496436  0.253224  1
  Br  Br21  1  0.000000  0.498274  0.744458  1
