# generated using pymatgen
data_AcYb5(Si3Ru)8
_symmetry_space_group_name_H-M   'P 1'
_cell_length_a   10.20169521
_cell_length_b   10.20169596
_cell_length_c   8.21163219
_cell_angle_alpha   89.75241669
_cell_angle_beta   90.24757878
_cell_angle_gamma   132.54387003
_symmetry_Int_Tables_number   1
_chemical_formula_structural   AcYb5(Si3Ru)8
_chemical_formula_sum   'Ac1 Yb5 Si24 Ru8'
_cell_volume   629.64435537
_cell_formula_units_Z   1
loop_
 _symmetry_equiv_pos_site_id
 _symmetry_equiv_pos_as_xyz
  1  'x, y, z'
loop_
 _atom_site_type_symbol
 _atom_site_label
 _atom_site_symmetry_multiplicity
 _atom_site_fract_x
 _atom_site_fract_y
 _atom_site_fract_z
 _atom_site_occupancy
  Ac  Ac0  1  0.503367  0.003367  0.250000  1
  Yb  Yb1  1  0.000217  0.999844  0.000409  1
  Yb  Yb2  1  0.499844  0.500217  0.499591  1
  Yb  Yb3  1  0.003316  0.503316  0.250000  1
  Yb  Yb4  1  0.000289  0.500289  0.750000  1
  Yb  Yb5  1  0.497893  0.997893  0.750000  1
  Si  Si6  1  0.714152  0.305226  0.992170  1
  Si  Si7  1  0.289433  0.698561  0.993892  1
  Si  Si8  1  0.805226  0.214152  0.507830  1
  Si  Si9  1  0.198561  0.789433  0.506108  1
  Si  Si10  1  0.335126  0.332523  0.168609  1
  Si  Si11  1  0.665433  0.665743  0.832085  1
  Si  Si12  1  0.165743  0.165433  0.667915  1
  Si  Si13  1  0.832523  0.835126  0.331391  1
  Si  Si14  1  0.848593  0.617135  0.012224  1
  Si  Si15  1  0.154027  0.384579  0.992896  1
  Si  Si16  1  0.653959  0.886750  0.510830  1
  Si  Si17  1  0.117135  0.348593  0.487776  1
  Si  Si18  1  0.343229  0.112859  0.498650  1
  Si  Si19  1  0.884579  0.654027  0.507104  1
  Si  Si20  1  0.386750  0.153959  0.989170  1
  Si  Si21  1  0.612859  0.843229  0.001350  1
  Si  Si22  1  0.896569  0.128935  0.268785  1
  Si  Si23  1  0.107635  0.877297  0.731325  1
  Si  Si24  1  0.603705  0.373149  0.767697  1
  Si  Si25  1  0.628935  0.396569  0.231215  1
  Si  Si26  1  0.386236  0.616876  0.227320  1
  Si  Si27  1  0.377297  0.607635  0.768675  1
  Si  Si28  1  0.873149  0.103705  0.732303  1
  Si  Si29  1  0.116876  0.886236  0.272680  1
  Ru  Ru30  1  0.832109  0.170674  0.995967  1
  Ru  Ru31  1  0.168428  0.829884  0.999269  1
  Ru  Ru32  1  0.670674  0.332109  0.504033  1
  Ru  Ru33  1  0.329884  0.668428  0.500731  1
  Ru  Ru34  1  0.125576  0.125904  0.375746  1
  Ru  Ru35  1  0.871833  0.872939  0.623890  1
  Ru  Ru36  1  0.372939  0.371833  0.876110  1
  Ru  Ru37  1  0.625904  0.625576  0.124254  1
