# generated using pymatgen
data_Sm2Ni5As6Ru5
_symmetry_space_group_name_H-M   'P 1'
_cell_length_a   3.92664700
_cell_length_b   11.10825700
_cell_length_c   12.46849000
_cell_angle_alpha   90.00000000
_cell_angle_beta   90.00000000
_cell_angle_gamma   90.00000000
_symmetry_Int_Tables_number   1
_chemical_formula_structural   Sm2Ni5As6Ru5
_chemical_formula_sum   'Sm4 Ni10 As12 Ru10'
_cell_volume   543.85314069
_cell_formula_units_Z   2
loop_
 _symmetry_equiv_pos_site_id
 _symmetry_equiv_pos_as_xyz
  1  'x, y, z'
loop_
 _atom_site_type_symbol
 _atom_site_label
 _atom_site_symmetry_multiplicity
 _atom_site_fract_x
 _atom_site_fract_y
 _atom_site_fract_z
 _atom_site_occupancy
  Sm  Sm0  1  0.250000  0.590731  0.705762  1
  Sm  Sm1  1  0.250000  0.909269  0.205762  1
  Sm  Sm2  1  0.750000  0.410839  0.295331  1
  Sm  Sm3  1  0.750000  0.089161  0.795331  1
  Ni  Ni4  1  0.750000  0.782072  0.817399  1
  Ni  Ni5  1  0.750000  0.717928  0.317399  1
  Ni  Ni6  1  0.250000  0.885423  0.697722  1
  Ni  Ni7  1  0.250000  0.614577  0.197722  1
  Ni  Ni8  1  0.750000  0.107957  0.303630  1
  Ni  Ni9  1  0.750000  0.392043  0.803630  1
  Ni  Ni10  1  0.250000  0.467280  0.930352  1
  Ni  Ni11  1  0.250000  0.032720  0.430352  1
  Ni  Ni12  1  0.750000  0.530593  0.068130  1
  Ni  Ni13  1  0.750000  0.969407  0.568130  1
  As  As14  1  0.250000  0.418194  0.111854  1
  As  As15  1  0.250000  0.081806  0.611854  1
  As  As16  1  0.750000  0.587357  0.888999  1
  As  As17  1  0.750000  0.912643  0.388999  1
  As  As18  1  0.250000  0.271880  0.876771  1
  As  As19  1  0.250000  0.228120  0.376771  1
  As  As20  1  0.750000  0.725966  0.125678  1
  As  As21  1  0.750000  0.774034  0.625678  1
  As  As22  1  0.250000  0.600181  0.386375  1
  As  As23  1  0.250000  0.899819  0.886375  1
  As  As24  1  0.750000  0.402356  0.611764  1
  As  As25  1  0.750000  0.097644  0.111764  1
  Ru  Ru26  1  0.250000  0.708070  0.986187  1
  Ru  Ru27  1  0.250000  0.791930  0.486187  1
  Ru  Ru28  1  0.750000  0.290527  0.012278  1
  Ru  Ru29  1  0.750000  0.209473  0.512278  1
  Ru  Ru30  1  0.250000  0.408091  0.488523  1
  Ru  Ru31  1  0.250000  0.091909  0.988523  1
  Ru  Ru32  1  0.750000  0.596592  0.510893  1
  Ru  Ru33  1  0.750000  0.903408  0.010893  1
  Ru  Ru34  1  0.250000  0.217057  0.182352  1
  Ru  Ru35  1  0.250000  0.282943  0.682352  1
