# generated using pymatgen
data_Tb7Dy(GeI6)2
_symmetry_space_group_name_H-M   'P 1'
_cell_length_a   4.23739500
_cell_length_b   14.07461011
_cell_length_c   14.84909512
_cell_angle_alpha   89.98571756
_cell_angle_beta   90.00000000
_cell_angle_gamma   90.00000000
_symmetry_Int_Tables_number   1
_chemical_formula_structural   Tb7Dy(GeI6)2
_chemical_formula_sum   'Tb7 Dy1 Ge2 I12'
_cell_volume   885.59529064
_cell_formula_units_Z   1
loop_
 _symmetry_equiv_pos_site_id
 _symmetry_equiv_pos_as_xyz
  1  'x, y, z'
loop_
 _atom_site_type_symbol
 _atom_site_label
 _atom_site_symmetry_multiplicity
 _atom_site_fract_x
 _atom_site_fract_y
 _atom_site_fract_z
 _atom_site_occupancy
  Tb  Tb0  1  0.500000  0.885165  0.653497  1
  Tb  Tb1  1  0.500000  0.614882  0.153560  1
  Tb  Tb2  1  0.500000  0.385120  0.846441  1
  Tb  Tb3  1  0.000000  0.112372  0.575088  1
  Tb  Tb4  1  0.000000  0.887614  0.424931  1
  Tb  Tb5  1  0.000000  0.612405  0.924897  1
  Tb  Tb6  1  0.000000  0.387602  0.075101  1
  Dy  Dy7  1  0.500000  0.114742  0.346634  1
  Ge  Ge8  1  0.500000  0.000181  0.499755  1
  Ge  Ge9  1  0.500000  0.500000  0.000002  1
  I  I10  1  0.500000  0.244490  0.161594  1
  I  I11  1  0.500000  0.755386  0.838566  1
  I  I12  1  0.500000  0.744644  0.338583  1
  I  I13  1  0.500000  0.255366  0.661400  1
  I  I14  1  0.000000  0.258011  0.413460  1
  I  I15  1  0.000000  0.741665  0.586283  1
  I  I16  1  0.000000  0.758370  0.086293  1
  I  I17  1  0.000000  0.241634  0.913709  1
  I  I18  1  0.000000  0.999636  0.240936  1
  I  I19  1  0.000000  0.000714  0.759267  1
  I  I20  1  0.000000  0.499284  0.259300  1
  I  I21  1  0.000000  0.500716  0.740702  1
