# generated using pymatgen
data_Y3UGe2Ru3
_symmetry_space_group_name_H-M   'P 1'
_cell_length_a   7.10116000
_cell_length_b   7.10116140
_cell_length_c   4.09951100
_cell_angle_alpha   90.00000000
_cell_angle_beta   90.00000000
_cell_angle_gamma   120.00000278
_symmetry_Int_Tables_number   1
_chemical_formula_structural   Y3UGe2Ru3
_chemical_formula_sum   'Y3 U1 Ge2 Ru3'
_cell_volume   179.02816391
_cell_formula_units_Z   1
loop_
 _symmetry_equiv_pos_site_id
 _symmetry_equiv_pos_as_xyz
  1  'x, y, z'
loop_
 _atom_site_type_symbol
 _atom_site_label
 _atom_site_symmetry_multiplicity
 _atom_site_fract_x
 _atom_site_fract_y
 _atom_site_fract_z
 _atom_site_occupancy
  Y  Y0  1  0.456708  0.456708  0.000000  1
  Y  Y1  1  0.543292  0.000000  0.000000  1
  Y  Y2  1  0.000000  0.543292  0.000000  1
  U  U3  1  0.000000  0.000000  0.000000  1
  Ge  Ge4  1  0.666667  0.333333  0.500000  1
  Ge  Ge5  1  0.333333  0.666667  0.500000  1
  Ru  Ru6  1  0.000000  0.231496  0.500000  1
  Ru  Ru7  1  0.768504  0.768504  0.500000  1
  Ru  Ru8  1  0.231496  0.000000  0.500000  1
