# generated using pymatgen
data_Zr4Al2(VOs)3
_symmetry_space_group_name_H-M   'P 1'
_cell_length_a   5.22728010
_cell_length_b   5.26118911
_cell_length_c   8.55269600
_cell_angle_alpha   90.00000000
_cell_angle_beta   90.00000000
_cell_angle_gamma   120.65970679
_symmetry_Int_Tables_number   1
_chemical_formula_structural   Zr4Al2(VOs)3
_chemical_formula_sum   'Zr4 Al2 V3 Os3'
_cell_volume   202.33348484
_cell_formula_units_Z   1
loop_
 _symmetry_equiv_pos_site_id
 _symmetry_equiv_pos_as_xyz
  1  'x, y, z'
loop_
 _atom_site_type_symbol
 _atom_site_label
 _atom_site_symmetry_multiplicity
 _atom_site_fract_x
 _atom_site_fract_y
 _atom_site_fract_z
 _atom_site_occupancy
  Zr  Zr0  1  0.329217  0.664795  0.435113  1
  Zr  Zr1  1  0.659460  0.331236  0.554844  1
  Zr  Zr2  1  0.659460  0.331236  0.945156  1
  Zr  Zr3  1  0.329217  0.664795  0.064887  1
  Al  Al4  1  0.187305  0.838272  0.750000  1
  Al  Al5  1  0.185927  0.345880  0.750000  1
  V  V6  1  0.823135  0.658000  0.250000  1
  V  V7  1  0.329513  0.167648  0.250000  1
  V  V8  1  0.691490  0.844016  0.750000  1
  Os  Os9  1  0.993208  0.991051  0.502216  1
  Os  Os10  1  0.993208  0.991051  0.997784  1
  Os  Os11  1  0.818862  0.172020  0.250000  1
