# generated using pymatgen
data_PuSO5
_symmetry_space_group_name_H-M   'P 1'
_cell_length_a   7.09690800
_cell_length_b   7.96211800
_cell_length_c   8.02080300
_cell_angle_alpha   90.00000000
_cell_angle_beta   90.00000000
_cell_angle_gamma   90.00000000
_symmetry_Int_Tables_number   1
_chemical_formula_structural   PuSO5
_chemical_formula_sum   'Pu4 S4 O20'
_cell_volume   453.22685448
_cell_formula_units_Z   4
loop_
 _symmetry_equiv_pos_site_id
 _symmetry_equiv_pos_as_xyz
  1  'x, y, z'
loop_
 _atom_site_type_symbol
 _atom_site_label
 _atom_site_symmetry_multiplicity
 _atom_site_fract_x
 _atom_site_fract_y
 _atom_site_fract_z
 _atom_site_occupancy
  Pu  Pu0  1  0.750000  0.631905  0.253227  1
  Pu  Pu1  1  0.250000  0.368095  0.746773  1
  Pu  Pu2  1  0.250000  0.868095  0.753227  1
  Pu  Pu3  1  0.750000  0.131905  0.246773  1
  S  S4  1  0.750000  0.877971  0.867735  1
  S  S5  1  0.250000  0.122029  0.132265  1
  S  S6  1  0.250000  0.622029  0.367735  1
  S  S7  1  0.750000  0.377971  0.632265  1
  O  O8  1  0.919440  0.875388  0.759955  1
  O  O9  1  0.080560  0.124612  0.240045  1
  O  O10  1  0.080560  0.624612  0.259955  1
  O  O11  1  0.419440  0.124612  0.240045  1
  O  O12  1  0.919440  0.375388  0.740045  1
  O  O13  1  0.580560  0.875388  0.759955  1
  O  O14  1  0.580560  0.375388  0.740045  1
  O  O15  1  0.419440  0.624612  0.259955  1
  O  O16  1  0.750000  0.882459  0.317101  1
  O  O17  1  0.250000  0.117541  0.682899  1
  O  O18  1  0.250000  0.617541  0.817101  1
  O  O19  1  0.750000  0.382459  0.182899  1
  O  O20  1  0.750000  0.727077  0.978169  1
  O  O21  1  0.250000  0.272923  0.021831  1
  O  O22  1  0.250000  0.772923  0.478169  1
  O  O23  1  0.750000  0.227077  0.521831  1
  O  O24  1  0.750000  0.534945  0.529669  1
  O  O25  1  0.250000  0.465055  0.470331  1
  O  O26  1  0.250000  0.965055  0.029669  1
  O  O27  1  0.750000  0.034945  0.970331  1
