# generated using pymatgen
data_Y3Er(ScPt)4
_symmetry_space_group_name_H-M   'P 1'
_cell_length_a   4.63930700
_cell_length_b   6.99981341
_cell_length_c   8.38341904
_cell_angle_alpha   90.10472794
_cell_angle_beta   90.00000000
_cell_angle_gamma   90.00000000
_symmetry_Int_Tables_number   1
_chemical_formula_structural   Y3Er(ScPt)4
_chemical_formula_sum   'Y3 Er1 Sc4 Pt4'
_cell_volume   272.24507054
_cell_formula_units_Z   1
loop_
 _symmetry_equiv_pos_site_id
 _symmetry_equiv_pos_as_xyz
  1  'x, y, z'
loop_
 _atom_site_type_symbol
 _atom_site_label
 _atom_site_symmetry_multiplicity
 _atom_site_fract_x
 _atom_site_fract_y
 _atom_site_fract_z
 _atom_site_occupancy
  Y  Y0  1  0.250000  0.017783  0.323849  1
  Y  Y1  1  0.250000  0.517117  0.176329  1
  Y  Y2  1  0.750000  0.982700  0.677150  1
  Er  Er3  1  0.750000  0.481598  0.824544  1
  Sc  Sc4  1  0.250000  0.641753  0.573823  1
  Sc  Sc5  1  0.250000  0.141002  0.926903  1
  Sc  Sc6  1  0.750000  0.359483  0.427941  1
  Sc  Sc7  1  0.750000  0.857505  0.072145  1
  Pt  Pt8  1  0.250000  0.259489  0.599843  1
  Pt  Pt9  1  0.250000  0.755193  0.900127  1
  Pt  Pt10  1  0.750000  0.743520  0.401002  1
  Pt  Pt11  1  0.750000  0.242858  0.096345  1
