# generated using pymatgen
data_Yb2Ga9Ir2Pd
_symmetry_space_group_name_H-M   'P 1'
_cell_length_a   7.56058617
_cell_length_b   7.56058676
_cell_length_c   9.64854500
_cell_angle_alpha   90.00000000
_cell_angle_beta   90.00000000
_cell_angle_gamma   119.21403659
_symmetry_Int_Tables_number   1
_chemical_formula_structural   Yb2Ga9Ir2Pd
_chemical_formula_sum   'Yb4 Ga18 Ir4 Pd2'
_cell_volume   481.38083245
_cell_formula_units_Z   2
loop_
 _symmetry_equiv_pos_site_id
 _symmetry_equiv_pos_as_xyz
  1  'x, y, z'
loop_
 _atom_site_type_symbol
 _atom_site_label
 _atom_site_symmetry_multiplicity
 _atom_site_fract_x
 _atom_site_fract_y
 _atom_site_fract_z
 _atom_site_occupancy
  Yb  Yb0  1  0.998987  0.671623  0.250000  1
  Yb  Yb1  1  0.001013  0.328377  0.750000  1
  Yb  Yb2  1  0.671623  0.998987  0.250000  1
  Yb  Yb3  1  0.328377  0.001013  0.750000  1
  Ga  Ga4  1  0.129169  0.129169  0.250000  1
  Ga  Ga5  1  0.870831  0.870831  0.750000  1
  Ga  Ga6  1  0.000802  0.338297  0.078056  1
  Ga  Ga7  1  0.999198  0.661703  0.921944  1
  Ga  Ga8  1  0.999198  0.661703  0.578056  1
  Ga  Ga9  1  0.338297  0.000802  0.421944  1
  Ga  Ga10  1  0.000802  0.338297  0.421944  1
  Ga  Ga11  1  0.661703  0.999198  0.578056  1
  Ga  Ga12  1  0.661703  0.999198  0.921944  1
  Ga  Ga13  1  0.338297  0.000802  0.078056  1
  Ga  Ga14  1  0.336142  0.336142  0.564980  1
  Ga  Ga15  1  0.663858  0.663858  0.435020  1
  Ga  Ga16  1  0.663858  0.663858  0.064980  1
  Ga  Ga17  1  0.336142  0.336142  0.935020  1
  Ga  Ga18  1  0.336417  0.547032  0.250000  1
  Ga  Ga19  1  0.663583  0.452968  0.750000  1
  Ga  Ga20  1  0.547032  0.336417  0.250000  1
  Ga  Ga21  1  0.452968  0.663583  0.750000  1
  Ir  Ir22  1  0.671724  0.328276  0.000000  1
  Ir  Ir23  1  0.328276  0.671724  0.000000  1
  Ir  Ir24  1  0.328276  0.671724  0.500000  1
  Ir  Ir25  1  0.671724  0.328276  0.500000  1
  Pd  Pd26  1  0.000000  0.000000  0.000000  1
  Pd  Pd27  1  0.000000  0.000000  0.500000  1
