# generated using pymatgen
data_Er2Nb3P7Rh9
_symmetry_space_group_name_H-M   'P 1'
_cell_length_a   3.91745400
_cell_length_b   9.63394816
_cell_length_c   9.63362440
_cell_angle_alpha   120.00302904
_cell_angle_beta   89.99904832
_cell_angle_gamma   90.00133653
_symmetry_Int_Tables_number   1
_chemical_formula_structural   Er2Nb3P7Rh9
_chemical_formula_sum   'Er2 Nb3 P7 Rh9'
_cell_volume   314.85840836
_cell_formula_units_Z   1
loop_
 _symmetry_equiv_pos_site_id
 _symmetry_equiv_pos_as_xyz
  1  'x, y, z'
loop_
 _atom_site_type_symbol
 _atom_site_label
 _atom_site_symmetry_multiplicity
 _atom_site_fract_x
 _atom_site_fract_y
 _atom_site_fract_z
 _atom_site_occupancy
  Er  Er0  1  0.260890  0.666650  0.333443  1
  Er  Er1  1  0.762066  0.333420  0.666638  1
  Nb  Nb2  1  0.762170  0.095117  0.873678  1
  Nb  Nb3  1  0.762166  0.126288  0.221343  1
  Nb  Nb4  1  0.762170  0.778462  0.904757  1
  P  P5  1  0.262493  0.999997  0.999990  1
  P  P6  1  0.761599  0.876122  0.589048  1
  P  P7  1  0.761505  0.411046  0.287056  1
  P  P8  1  0.761554  0.712987  0.124097  1
  P  P9  1  0.262338  0.117681  0.416978  1
  P  P10  1  0.262357  0.583003  0.700741  1
  P  P11  1  0.262350  0.299250  0.882299  1
  Rh  Rh12  1  0.261901  0.883267  0.162851  1
  Rh  Rh13  1  0.261894  0.837001  0.720392  1
  Rh  Rh14  1  0.261888  0.279662  0.116786  1
  Rh  Rh15  1  0.761821  0.610289  0.555664  1
  Rh  Rh16  1  0.761830  0.444384  0.054515  1
  Rh  Rh17  1  0.761824  0.945541  0.389752  1
  Rh  Rh18  1  0.261724  0.367778  0.439859  1
  Rh  Rh19  1  0.261728  0.559985  0.927870  1
  Rh  Rh20  1  0.261733  0.072074  0.632239  1
