# generated using pymatgen
data_K3Ti2TlPO4F9
_symmetry_space_group_name_H-M   'P 1'
_cell_length_a   11.16271500
_cell_length_b   5.93705218
_cell_length_c   20.49010500
_cell_angle_alpha   74.14203170
_cell_angle_beta   90.00000000
_cell_angle_gamma   90.00000000
_symmetry_Int_Tables_number   1
_chemical_formula_structural   K3Ti2TlPO4F9
_chemical_formula_sum   'K12 Ti8 Tl4 P4 O16 F36'
_cell_volume   1306.27250363
_cell_formula_units_Z   4
loop_
 _symmetry_equiv_pos_site_id
 _symmetry_equiv_pos_as_xyz
  1  'x, y, z'
loop_
 _atom_site_type_symbol
 _atom_site_label
 _atom_site_symmetry_multiplicity
 _atom_site_fract_x
 _atom_site_fract_y
 _atom_site_fract_z
 _atom_site_occupancy
  K  K0  1  0.755703  0.127690  0.859795  1
  K  K1  1  0.767127  0.545486  0.984297  1
  K  K2  1  0.457271  0.644089  0.848411  1
  K  K3  1  0.041717  0.642139  0.346759  1
  K  K4  1  0.243175  0.873961  0.139296  1
  K  K5  1  0.956194  0.356911  0.653316  1
  K  K6  1  0.544801  0.354547  0.151846  1
  K  K7  1  0.545476  0.341751  0.667823  1
  K  K8  1  0.257496  0.874766  0.640053  1
  K  K9  1  0.232048  0.455073  0.015936  1
  K  K10  1  0.743724  0.126837  0.359093  1
  K  K11  1  0.953419  0.342007  0.166857  1
  Ti  Ti12  1  0.999855  0.001123  0.500479  1
  Ti  Ti13  1  0.744741  0.716695  0.755518  1
  Ti  Ti14  1  0.251133  0.282166  0.243478  1
  Ti  Ti15  1  0.248864  0.279966  0.744898  1
  Ti  Ti16  1  0.500238  0.000884  0.000555  1
  Ti  Ti17  1  0.999746  0.000117  0.000830  1
  Ti  Ti18  1  0.755226  0.718885  0.254218  1
  Ti  Ti19  1  0.500102  0.999707  0.500893  1
  Tl  Tl20  1  0.051877  0.656272  0.834247  1
  Tl  Tl21  1  0.449648  0.655799  0.333484  1
  Tl  Tl22  1  0.267828  0.462512  0.511591  1
  Tl  Tl23  1  0.733394  0.537718  0.488903  1
  P  P24  1  0.752891  0.952344  0.593410  1
  P  P25  1  0.253499  0.045099  0.909082  1
  P  P26  1  0.748059  0.956233  0.091447  1
  P  P27  1  0.245387  0.049011  0.407103  1
  O  O28  1  0.159678  0.079305  0.962450  1
  O  O29  1  0.376544  0.125003  0.931593  1
  O  O30  1  0.750017  0.201486  0.099407  1
  O  O31  1  0.623203  0.881414  0.069380  1
  O  O32  1  0.839033  0.920064  0.037054  1
  O  O33  1  0.240504  0.806861  0.396332  1
  O  O34  1  0.340956  0.066016  0.461414  1
  O  O35  1  0.221055  0.230855  0.840515  1
  O  O36  1  0.720026  0.756077  0.659397  1
  O  O37  1  0.277728  0.239478  0.339608  1
  O  O38  1  0.124563  0.127828  0.432307  1
  O  O39  1  0.254966  0.798162  0.902063  1
  O  O40  1  0.660234  0.933313  0.537984  1
  O  O41  1  0.753591  0.192858  0.605207  1
  O  O42  1  0.875776  0.879530  0.568651  1
  O  O43  1  0.781197  0.764638  0.158584  1
  F  F44  1  0.957241  0.853952  0.932669  1
  F  F45  1  0.444548  0.713439  0.560444  1
  F  F46  1  0.767301  0.664035  0.851585  1
  F  F47  1  0.130615  0.055186  0.256955  1
  F  F48  1  0.129507  0.519044  0.721440  1
  F  F49  1  0.136816  0.523423  0.238721  1
  F  F50  1  0.040175  0.146336  0.069199  1
  F  F51  1  0.369414  0.052273  0.758345  1
  F  F52  1  0.902255  0.255708  0.453979  1
  F  F53  1  0.938256  0.286281  0.944822  1
  F  F54  1  0.459635  0.147196  0.569001  1
  F  F55  1  0.866173  0.942349  0.742176  1
  F  F56  1  0.370909  0.520226  0.220122  1
  F  F57  1  0.362640  0.521326  0.741091  1
  F  F58  1  0.936002  0.828658  0.442775  1
  F  F59  1  0.870537  0.943971  0.261673  1
  F  F60  1  0.730641  0.664654  0.350130  1
  F  F61  1  0.097746  0.745920  0.546041  1
  F  F62  1  0.065222  0.174054  0.557773  1
  F  F63  1  0.401880  0.743556  0.044083  1
  F  F64  1  0.542994  0.852397  0.433071  1
  F  F65  1  0.557320  0.285922  0.442480  1
  F  F66  1  0.633960  0.945762  0.240832  1
  F  F67  1  0.277470  0.333129  0.649380  1
  F  F68  1  0.429030  0.173545  0.056629  1
  F  F69  1  0.859058  0.474332  0.760378  1
  F  F70  1  0.132123  0.059054  0.735507  1
  F  F71  1  0.059786  0.713410  0.057921  1
  F  F72  1  0.224559  0.333784  0.147765  1
  F  F73  1  0.874393  0.479460  0.275380  1
  F  F74  1  0.629534  0.943104  0.761550  1
  F  F75  1  0.641237  0.476624  0.258240  1
  F  F76  1  0.598222  0.258136  0.956143  1
  F  F77  1  0.367844  0.060301  0.235416  1
  F  F78  1  0.570188  0.828317  0.944101  1
  F  F79  1  0.625058  0.478464  0.776620  1
