# generated using pymatgen
data_Al5Ga3Si8(PbO8)4
_symmetry_space_group_name_H-M   'P 1'
_cell_length_a   8.52745478
_cell_length_b   9.44470747
_cell_length_c   9.42689800
_cell_angle_alpha   90.27488145
_cell_angle_beta   96.98371806
_cell_angle_gamma   82.92970946
_symmetry_Int_Tables_number   1
_chemical_formula_structural   Al5Ga3Si8(PbO8)4
_chemical_formula_sum   'Al5 Ga3 Si8 Pb4 O32'
_cell_volume   747.83262715
_cell_formula_units_Z   1
loop_
 _symmetry_equiv_pos_site_id
 _symmetry_equiv_pos_as_xyz
  1  'x, y, z'
loop_
 _atom_site_type_symbol
 _atom_site_label
 _atom_site_symmetry_multiplicity
 _atom_site_fract_x
 _atom_site_fract_y
 _atom_site_fract_z
 _atom_site_occupancy
  Al  Al0  1  0.024488  0.792217  0.451235  1
  Al  Al1  1  0.976587  0.210050  0.552259  1
  Al  Al2  1  0.525227  0.048468  0.707991  1
  Al  Al3  1  0.614679  0.560537  0.795808  1
  Al  Al4  1  0.114654  0.704282  0.936424  1
  Ga  Ga5  1  0.880725  0.301156  0.063127  1
  Ga  Ga6  1  0.382678  0.436728  0.200728  1
  Ga  Ga7  1  0.477195  0.951201  0.292955  1
  Si  Si8  1  0.489724  0.712479  0.058659  1
  Si  Si9  1  0.009706  0.565084  0.214570  1
  Si  Si10  1  0.098562  0.065968  0.284857  1
  Si  Si11  1  0.604359  0.217128  0.436532  1
  Si  Si12  1  0.399579  0.781144  0.567001  1
  Si  Si13  1  0.900010  0.935251  0.716771  1
  Si  Si14  1  0.989612  0.440102  0.786506  1
  Si  Si15  1  0.508717  0.284657  0.934962  1
  Pb  Pb16  1  0.805351  0.922409  0.061911  1
  Pb  Pb17  1  0.694464  0.565338  0.415591  1
  Pb  Pb18  1  0.304455  0.437849  0.578583  1
  Pb  Pb19  1  0.194726  0.085045  0.938999  1
  O  O20  1  0.689119  0.237076  0.011179  1
  O  O21  1  0.378532  0.316448  0.049537  1
  O  O22  1  0.004909  0.677731  0.081405  1
  O  O23  1  0.991200  0.127874  0.133330  1
  O  O24  1  0.556024  0.853782  0.139061  1
  O  O25  1  0.506297  0.584179  0.181228  1
  O  O26  1  0.878479  0.451716  0.183513  1
  O  O27  1  0.272894  0.027166  0.227768  1
  O  O28  1  0.189841  0.487867  0.263717  1
  O  O29  1  0.013987  0.926275  0.320527  1
  O  O30  1  0.612614  0.087260  0.322734  1
  O  O31  1  0.944915  0.651467  0.352757  1
  O  O32  1  0.496319  0.368434  0.374253  1
  O  O33  1  0.101085  0.174922  0.417806  1
  O  O34  1  0.494134  0.808505  0.428807  1
  O  O35  1  0.779336  0.268074  0.481228  1
  O  O36  1  0.222240  0.733572  0.522870  1
  O  O37  1  0.513657  0.177211  0.571578  1
  O  O38  1  0.897809  0.826793  0.583260  1
  O  O39  1  0.503318  0.631431  0.635022  1
  O  O40  1  0.052981  0.355624  0.646090  1
  O  O41  1  0.398774  0.916640  0.672324  1
  O  O42  1  0.987811  0.074255  0.682203  1
  O  O43  1  0.805043  0.508321  0.750582  1
  O  O44  1  0.723081  0.977650  0.767259  1
  O  O45  1  0.111870  0.558992  0.821159  1
  O  O46  1  0.503355  0.416705  0.821015  1
  O  O47  1  0.444189  0.146532  0.848828  1
  O  O48  1  0.006646  0.867063  0.865797  1
  O  O49  1  0.006504  0.319405  0.916655  1
  O  O50  1  0.612339  0.675499  0.940452  1
  O  O51  1  0.305197  0.748439  0.990583  1
