# generated using pymatgen
data_Hf4GaSi2Mo
_symmetry_space_group_name_H-M   'P 1'
_cell_length_a   7.84323024
_cell_length_b   7.84323081
_cell_length_c   5.39341062
_cell_angle_alpha   90.04448835
_cell_angle_beta   90.04449495
_cell_angle_gamma   119.95342302
_symmetry_Int_Tables_number   1
_chemical_formula_structural   Hf4GaSi2Mo
_chemical_formula_sum   'Hf8 Ga2 Si4 Mo2'
_cell_volume   287.46646951
_cell_formula_units_Z   2
loop_
 _symmetry_equiv_pos_site_id
 _symmetry_equiv_pos_as_xyz
  1  'x, y, z'
loop_
 _atom_site_type_symbol
 _atom_site_label
 _atom_site_symmetry_multiplicity
 _atom_site_fract_x
 _atom_site_fract_y
 _atom_site_fract_z
 _atom_site_occupancy
  Hf  Hf0  1  0.335589  0.665576  0.499485  1
  Hf  Hf1  1  0.665576  0.335589  0.499485  1
  Hf  Hf2  1  0.748267  0.748267  0.752524  1
  Hf  Hf3  1  0.248130  0.999810  0.752983  1
  Hf  Hf4  1  0.999810  0.248130  0.752983  1
  Hf  Hf5  1  0.251480  0.251480  0.248095  1
  Hf  Hf6  1  0.750452  0.996629  0.248591  1
  Hf  Hf7  1  0.996629  0.750452  0.248591  1
  Ga  Ga8  1  0.396278  0.999219  0.235547  1
  Ga  Ga9  1  0.999219  0.396278  0.235547  1
  Si  Si10  1  0.393794  0.393794  0.767319  1
  Si  Si11  1  0.604645  0.002219  0.767355  1
  Si  Si12  1  0.002219  0.604645  0.767355  1
  Si  Si13  1  0.603808  0.603808  0.231285  1
  Mo  Mo14  1  0.665821  0.338284  0.996428  1
  Mo  Mo15  1  0.338284  0.665821  0.996428  1
