# generated using pymatgen
data_Hf18Fe2ReMo7
_symmetry_space_group_name_H-M   'P 1'
_cell_length_a   8.47025400
_cell_length_b   8.66530983
_cell_length_c   8.66846707
_cell_angle_alpha   120.00928778
_cell_angle_beta   90.00000000
_cell_angle_gamma   90.00000000
_symmetry_Int_Tables_number   1
_chemical_formula_structural   Hf18Fe2ReMo7
_chemical_formula_sum   'Hf18 Fe2 Re1 Mo7'
_cell_volume   550.95079250
_cell_formula_units_Z   1
loop_
 _symmetry_equiv_pos_site_id
 _symmetry_equiv_pos_as_xyz
  1  'x, y, z'
loop_
 _atom_site_type_symbol
 _atom_site_label
 _atom_site_symmetry_multiplicity
 _atom_site_fract_x
 _atom_site_fract_y
 _atom_site_fract_z
 _atom_site_occupancy
  Hf  Hf0  1  0.558604  0.797511  0.595108  1
  Hf  Hf1  1  0.558603  0.797501  0.202417  1
  Hf  Hf2  1  0.557248  0.404177  0.202084  1
  Hf  Hf3  1  0.439952  0.201933  0.403295  1
  Hf  Hf4  1  0.439958  0.201948  0.798622  1
  Hf  Hf5  1  0.441536  0.595405  0.797710  1
  Hf  Hf6  1  0.060048  0.201933  0.403295  1
  Hf  Hf7  1  0.060042  0.201948  0.798622  1
  Hf  Hf8  1  0.058464  0.595405  0.797710  1
  Hf  Hf9  1  0.941396  0.797511  0.595108  1
  Hf  Hf10  1  0.941397  0.797501  0.202417  1
  Hf  Hf11  1  0.942752  0.404177  0.202084  1
  Hf  Hf12  1  0.750000  0.458403  0.917281  1
  Hf  Hf13  1  0.750000  0.458389  0.541142  1
  Hf  Hf14  1  0.750000  0.082800  0.541403  1
  Hf  Hf15  1  0.250000  0.539747  0.082851  1
  Hf  Hf16  1  0.250000  0.539754  0.456884  1
  Hf  Hf17  1  0.250000  0.916569  0.458282  1
  Fe  Fe18  1  0.750000  0.665214  0.332631  1
  Fe  Fe19  1  0.250000  0.334230  0.667086  1
  Re  Re20  1  0.250000  0.226409  0.113190  1
  Mo  Mo21  1  0.750000  0.112413  0.224170  1
  Mo  Mo22  1  0.750000  0.112411  0.888264  1
  Mo  Mo23  1  0.750000  0.774504  0.887257  1
  Mo  Mo24  1  0.250000  0.890187  0.776786  1
  Mo  Mo25  1  0.250000  0.890178  0.113378  1
  Mo  Mo26  1  0.499986  0.000920  0.000460  1
  Mo  Mo27  1  0.000014  0.000920  0.000460  1
