# generated using pymatgen
data_Tb3Yb(AlPd)4
_symmetry_space_group_name_H-M   'P 1'
_cell_length_a   4.44937500
_cell_length_b   6.92798896
_cell_length_c   7.85268691
_cell_angle_alpha   90.69186883
_cell_angle_beta   90.00000000
_cell_angle_gamma   90.00000000
_symmetry_Int_Tables_number   1
_chemical_formula_structural   Tb3Yb(AlPd)4
_chemical_formula_sum   'Tb3 Yb1 Al4 Pd4'
_cell_volume   242.04316085
_cell_formula_units_Z   1
loop_
 _symmetry_equiv_pos_site_id
 _symmetry_equiv_pos_as_xyz
  1  'x, y, z'
loop_
 _atom_site_type_symbol
 _atom_site_label
 _atom_site_symmetry_multiplicity
 _atom_site_fract_x
 _atom_site_fract_y
 _atom_site_fract_z
 _atom_site_occupancy
  Tb  Tb0  1  0.250000  0.034251  0.320747  1
  Tb  Tb1  1  0.250000  0.533687  0.178791  1
  Tb  Tb2  1  0.750000  0.964914  0.680180  1
  Yb  Yb3  1  0.750000  0.468085  0.820839  1
  Al  Al4  1  0.250000  0.141782  0.938812  1
  Al  Al5  1  0.250000  0.642782  0.560692  1
  Al  Al6  1  0.750000  0.858024  0.062675  1
  Al  Al7  1  0.750000  0.356919  0.438440  1
  Pd  Pd8  1  0.250000  0.272334  0.620502  1
  Pd  Pd9  1  0.250000  0.774003  0.880775  1
  Pd  Pd10  1  0.750000  0.726530  0.378589  1
  Pd  Pd11  1  0.750000  0.226690  0.118958  1
