# generated using pymatgen
data_Zr8In4Pt7Au
_symmetry_space_group_name_H-M   'P 1'
_cell_length_a   7.58759402
_cell_length_b   7.58759402
_cell_length_c   6.93104066
_cell_angle_alpha   89.92909764
_cell_angle_beta   90.07090236
_cell_angle_gamma   90.07375223
_symmetry_Int_Tables_number   1
_chemical_formula_structural   Zr8In4Pt7Au
_chemical_formula_sum   'Zr8 In4 Pt7 Au1'
_cell_volume   399.03004161
_cell_formula_units_Z   1
loop_
 _symmetry_equiv_pos_site_id
 _symmetry_equiv_pos_as_xyz
  1  'x, y, z'
loop_
 _atom_site_type_symbol
 _atom_site_label
 _atom_site_symmetry_multiplicity
 _atom_site_fract_x
 _atom_site_fract_y
 _atom_site_fract_z
 _atom_site_occupancy
  Zr  Zr0  1  0.146798  0.154527  0.004464  1
  Zr  Zr1  1  0.845473  0.853202  0.004464  1
  Zr  Zr2  1  0.651850  0.348150  0.500989  1
  Zr  Zr3  1  0.354689  0.645311  0.494051  1
  Zr  Zr4  1  0.687066  0.312934  0.000206  1
  Zr  Zr5  1  0.317042  0.682958  0.003998  1
  Zr  Zr6  1  0.808120  0.813176  0.496765  1
  Zr  Zr7  1  0.186824  0.191880  0.496765  1
  In  In8  1  0.497562  0.000764  0.250145  1
  In  In9  1  0.502416  0.000683  0.751225  1
  In  In10  1  0.999236  0.502438  0.250145  1
  In  In11  1  0.999317  0.497584  0.751225  1
  Pt  Pt12  1  0.370139  0.369189  0.214817  1
  Pt  Pt13  1  0.631389  0.630689  0.784643  1
  Pt  Pt14  1  0.630811  0.629861  0.214817  1
  Pt  Pt15  1  0.870738  0.129262  0.716936  1
  Pt  Pt16  1  0.868867  0.131133  0.286673  1
  Pt  Pt17  1  0.369311  0.368611  0.784643  1
  Pt  Pt18  1  0.130618  0.869382  0.283196  1
  Au  Au19  1  0.131731  0.868269  0.709831  1
