# generated using pymatgen
data_Li3La3ZnSn4
_symmetry_space_group_name_H-M   'P 1'
_cell_length_a   4.75730032
_cell_length_b   7.34860948
_cell_length_c   8.98376610
_cell_angle_alpha   114.65203665
_cell_angle_beta   105.35342638
_cell_angle_gamma   89.99999504
_symmetry_Int_Tables_number   1
_chemical_formula_structural   Li3La3ZnSn4
_chemical_formula_sum   'Li3 La3 Zn1 Sn4'
_cell_volume   273.06213425
_cell_formula_units_Z   1
loop_
 _symmetry_equiv_pos_site_id
 _symmetry_equiv_pos_as_xyz
  1  'x, y, z'
loop_
 _atom_site_type_symbol
 _atom_site_label
 _atom_site_symmetry_multiplicity
 _atom_site_fract_x
 _atom_site_fract_y
 _atom_site_fract_z
 _atom_site_occupancy
  Li  Li0  1  0.330051  0.017525  0.660103  1
  Li  Li1  1  0.327948  0.642687  0.655896  1
  Li  Li2  1  0.669877  0.356522  0.339753  1
  La  La3  1  0.000995  0.003440  0.001990  1
  La  La4  1  0.129740  0.632771  0.259481  1
  La  La5  1  0.871098  0.364003  0.742195  1
  Zn  Zn6  1  0.671238  0.978320  0.342475  1
  Sn  Sn7  1  0.499226  0.696243  0.998452  1
  Sn  Sn8  1  0.500307  0.305093  0.000615  1
  Sn  Sn9  1  0.784615  0.788135  0.569230  1
  Sn  Sn10  1  0.214905  0.215261  0.429811  1
