# generated using pymatgen
data_CdBiAsO5
_symmetry_space_group_name_H-M   'P 1'
_cell_length_a   7.10316509
_cell_length_b   7.99428086
_cell_length_c   9.73643020
_cell_angle_alpha   77.24125351
_cell_angle_beta   92.86615605
_cell_angle_gamma   68.02117213
_symmetry_Int_Tables_number   1
_chemical_formula_structural   CdBiAsO5
_chemical_formula_sum   'Cd4 Bi4 As4 O20'
_cell_volume   494.63074895
_cell_formula_units_Z   4
loop_
 _symmetry_equiv_pos_site_id
 _symmetry_equiv_pos_as_xyz
  1  'x, y, z'
loop_
 _atom_site_type_symbol
 _atom_site_label
 _atom_site_symmetry_multiplicity
 _atom_site_fract_x
 _atom_site_fract_y
 _atom_site_fract_z
 _atom_site_occupancy
  Cd  Cd0  1  0.358531  0.846975  0.523645  1
  Cd  Cd1  1  0.641469  0.153025  0.476355  1
  Cd  Cd2  1  0.858531  0.346975  0.023645  1
  Cd  Cd3  1  0.141469  0.653025  0.976355  1
  Bi  Bi4  1  0.104706  0.427016  0.326598  1
  Bi  Bi5  1  0.604706  0.927016  0.826598  1
  Bi  Bi6  1  0.895294  0.572984  0.673402  1
  Bi  Bi7  1  0.395294  0.072984  0.173402  1
  As  As8  1  0.465928  0.410097  0.762544  1
  As  As9  1  0.965928  0.910097  0.262544  1
  As  As10  1  0.534072  0.589903  0.237456  1
  As  As11  1  0.034072  0.089903  0.737456  1
  O  O12  1  0.163015  0.378902  0.122903  1
  O  O13  1  0.663015  0.878902  0.622903  1
  O  O14  1  0.836985  0.621098  0.877097  1
  O  O15  1  0.336985  0.121098  0.377097  1
  O  O16  1  0.033852  0.259002  0.822615  1
  O  O17  1  0.533852  0.759002  0.322615  1
  O  O18  1  0.966148  0.740998  0.177385  1
  O  O19  1  0.466148  0.240998  0.677385  1
  O  O20  1  0.216984  0.560578  0.766729  1
  O  O21  1  0.716984  0.060578  0.266729  1
  O  O22  1  0.783016  0.439422  0.233271  1
  O  O23  1  0.283016  0.939422  0.733271  1
  O  O24  1  0.413636  0.698711  0.066026  1
  O  O25  1  0.913636  0.198711  0.566026  1
  O  O26  1  0.586364  0.301289  0.933974  1
  O  O27  1  0.086364  0.801289  0.433974  1
  O  O28  1  0.573337  0.549432  0.662337  1
  O  O29  1  0.073337  0.049432  0.162337  1
  O  O30  1  0.426663  0.450568  0.337663  1
  O  O31  1  0.926663  0.950568  0.837663  1
