# generated using pymatgen
data_Fe2GeI8
_symmetry_space_group_name_H-M   'P 1'
_cell_length_a   11.41014154
_cell_length_b   11.41014045
_cell_length_c   14.02263546
_cell_angle_alpha   53.40016349
_cell_angle_beta   53.40016642
_cell_angle_gamma   48.37762518
_symmetry_Int_Tables_number   1
_chemical_formula_structural   Fe2GeI8
_chemical_formula_sum   'Fe4 Ge2 I16'
_cell_volume   1032.86820760
_cell_formula_units_Z   2
loop_
 _symmetry_equiv_pos_site_id
 _symmetry_equiv_pos_as_xyz
  1  'x, y, z'
loop_
 _atom_site_type_symbol
 _atom_site_label
 _atom_site_symmetry_multiplicity
 _atom_site_fract_x
 _atom_site_fract_y
 _atom_site_fract_z
 _atom_site_occupancy
  Fe  Fe0  1  0.670188  0.158811  0.033621  1
  Fe  Fe1  1  0.329812  0.841189  0.966379  1
  Fe  Fe2  1  0.841189  0.329812  0.466379  1
  Fe  Fe3  1  0.158811  0.670188  0.533621  1
  Ge  Ge4  1  0.982791  0.017209  0.750000  1
  Ge  Ge5  1  0.017209  0.982791  0.250000  1
  I  I6  1  0.866635  0.820537  0.524719  1
  I  I7  1  0.133365  0.179463  0.475281  1
  I  I8  1  0.688849  0.629270  0.443089  1
  I  I9  1  0.629270  0.688849  0.943089  1
  I  I10  1  0.820537  0.866635  0.024719  1
  I  I11  1  0.849242  0.317255  0.285721  1
  I  I12  1  0.166560  0.698109  0.184399  1
  I  I13  1  0.301891  0.833440  0.315601  1
  I  I14  1  0.150758  0.682745  0.714279  1
  I  I15  1  0.311151  0.370730  0.556911  1
  I  I16  1  0.682745  0.150758  0.214279  1
  I  I17  1  0.179463  0.133365  0.975281  1
  I  I18  1  0.370730  0.311151  0.056911  1
  I  I19  1  0.317255  0.849242  0.785721  1
  I  I20  1  0.698109  0.166560  0.684399  1
  I  I21  1  0.833440  0.301891  0.815601  1
