# generated using pymatgen
data_NpS2
_symmetry_space_group_name_H-M   'P 1'
_cell_length_a   7.08518023
_cell_length_b   4.13119901
_cell_length_c   10.54800146
_cell_angle_alpha   90.00382221
_cell_angle_beta   115.94668837
_cell_angle_gamma   90.00222734
_symmetry_Int_Tables_number   1
_chemical_formula_structural   NpS2
_chemical_formula_sum   'Np4 S8'
_cell_volume   277.62223198
_cell_formula_units_Z   4
loop_
 _symmetry_equiv_pos_site_id
 _symmetry_equiv_pos_as_xyz
  1  'x, y, z'
loop_
 _atom_site_type_symbol
 _atom_site_label
 _atom_site_symmetry_multiplicity
 _atom_site_fract_x
 _atom_site_fract_y
 _atom_site_fract_z
 _atom_site_occupancy
  Np  Np0  1  0.714475  0.249539  0.191190  1
  Np  Np1  1  0.285562  0.749484  0.308946  1
  Np  Np2  1  0.714471  0.250494  0.691184  1
  Np  Np3  1  0.285536  0.750451  0.808924  1
  S  S4  1  0.426235  0.749594  0.099922  1
  S  S5  1  0.065144  0.249455  0.154568  1
  S  S6  1  0.934887  0.749454  0.345414  1
  S  S7  1  0.573702  0.249624  0.399972  1
  S  S8  1  0.426235  0.750393  0.599920  1
  S  S9  1  0.065152  0.250550  0.654564  1
  S  S10  1  0.934891  0.750544  0.845417  1
  S  S11  1  0.573709  0.250417  0.899976  1
