# generated using pymatgen
data_Na3La(PrTe2)4
_symmetry_space_group_name_H-M   'P 1'
_cell_length_a   9.12027626
_cell_length_b   9.14716652
_cell_length_c   9.12027600
_cell_angle_alpha   60.09719911
_cell_angle_beta   60.00000092
_cell_angle_gamma   60.09719880
_symmetry_Int_Tables_number   1
_chemical_formula_structural   Na3La(PrTe2)4
_chemical_formula_sum   'Na3 La1 Pr4 Te8'
_cell_volume   538.79561718
_cell_formula_units_Z   1
loop_
 _symmetry_equiv_pos_site_id
 _symmetry_equiv_pos_as_xyz
  1  'x, y, z'
loop_
 _atom_site_type_symbol
 _atom_site_label
 _atom_site_symmetry_multiplicity
 _atom_site_fract_x
 _atom_site_fract_y
 _atom_site_fract_z
 _atom_site_occupancy
  Na  Na0  1  0.125000  0.125000  0.625000  1
  Na  Na1  1  0.625000  0.125000  0.125000  1
  Na  Na2  1  0.125000  0.125000  0.125000  1
  La  La3  1  0.125000  0.625000  0.125000  1
  Pr  Pr4  1  0.625000  0.125000  0.625000  1
  Pr  Pr5  1  0.625000  0.625000  0.625000  1
  Pr  Pr6  1  0.125000  0.625000  0.625000  1
  Pr  Pr7  1  0.625000  0.625000  0.125000  1
  Te  Te8  1  0.376705  0.869883  0.376705  1
  Te  Te9  1  0.873295  0.380117  0.873295  1
  Te  Te10  1  0.874653  0.874488  0.376206  1
  Te  Te11  1  0.874653  0.874488  0.874653  1
  Te  Te12  1  0.873794  0.375512  0.375347  1
  Te  Te13  1  0.375347  0.375512  0.873794  1
  Te  Te14  1  0.375347  0.375512  0.375347  1
  Te  Te15  1  0.376206  0.874488  0.874653  1
