# generated using pymatgen
data_La8YbRh6
_symmetry_space_group_name_H-M   'P 1'
_cell_length_a   7.71526520
_cell_length_b   7.71526459
_cell_length_c   7.71526558
_cell_angle_alpha   71.04168177
_cell_angle_beta   71.04168348
_cell_angle_gamma   71.04167572
_symmetry_Int_Tables_number   1
_chemical_formula_structural   La8YbRh6
_chemical_formula_sum   'La8 Yb1 Rh6'
_cell_volume   398.23903790
_cell_formula_units_Z   1
loop_
 _symmetry_equiv_pos_site_id
 _symmetry_equiv_pos_as_xyz
  1  'x, y, z'
loop_
 _atom_site_type_symbol
 _atom_site_label
 _atom_site_symmetry_multiplicity
 _atom_site_fract_x
 _atom_site_fract_y
 _atom_site_fract_z
 _atom_site_occupancy
  La  La0  1  0.799638  0.799638  0.799638  1
  La  La1  1  0.200362  0.200362  0.200362  1
  La  La2  1  0.161545  0.387375  0.670852  1
  La  La3  1  0.670852  0.161545  0.387375  1
  La  La4  1  0.387375  0.670852  0.161545  1
  La  La5  1  0.838455  0.612625  0.329148  1
  La  La6  1  0.329148  0.838455  0.612625  1
  La  La7  1  0.612625  0.329148  0.838455  1
  Yb  Yb8  1  0.000000  0.000000  0.000000  1
  Rh  Rh9  1  0.956389  0.168669  0.588441  1
  Rh  Rh10  1  0.588441  0.956389  0.168669  1
  Rh  Rh11  1  0.168669  0.588441  0.956389  1
  Rh  Rh12  1  0.043611  0.831331  0.411559  1
  Rh  Rh13  1  0.411559  0.043611  0.831331  1
  Rh  Rh14  1  0.831331  0.411559  0.043611  1
