# generated using pymatgen
data_Nd2HoTm5(Si3Rh)4
_symmetry_space_group_name_H-M   'P 1'
_cell_length_a   8.18008222
_cell_length_b   8.17680984
_cell_length_c   7.92334100
_cell_angle_alpha   90.00000000
_cell_angle_beta   90.00000000
_cell_angle_gamma   119.98676951
_symmetry_Int_Tables_number   1
_chemical_formula_structural   Nd2HoTm5(Si3Rh)4
_chemical_formula_sum   'Nd2 Ho1 Tm5 Si12 Rh4'
_cell_volume   459.02720992
_cell_formula_units_Z   1
loop_
 _symmetry_equiv_pos_site_id
 _symmetry_equiv_pos_as_xyz
  1  'x, y, z'
loop_
 _atom_site_type_symbol
 _atom_site_label
 _atom_site_symmetry_multiplicity
 _atom_site_fract_x
 _atom_site_fract_y
 _atom_site_fract_z
 _atom_site_occupancy
  Nd  Nd0  1  0.000146  0.000073  0.250000  1
  Nd  Nd1  1  0.999871  0.999935  0.750000  1
  Ho  Ho2  1  0.018001  0.509000  0.750000  1
  Tm  Tm3  1  0.508749  0.491196  0.250000  1
  Tm  Tm4  1  0.508749  0.017553  0.250000  1
  Tm  Tm5  1  0.982420  0.491210  0.250000  1
  Tm  Tm6  1  0.491476  0.508806  0.750000  1
  Tm  Tm7  1  0.491476  0.982670  0.750000  1
  Si  Si8  1  0.168841  0.831708  0.500791  1
  Si  Si9  1  0.168841  0.337132  0.500791  1
  Si  Si10  1  0.662708  0.831354  0.501275  1
  Si  Si11  1  0.831243  0.168433  0.498473  1
  Si  Si12  1  0.831243  0.662811  0.498473  1
  Si  Si13  1  0.337145  0.168573  0.498601  1
  Si  Si14  1  0.831243  0.168433  0.001527  1
  Si  Si15  1  0.831243  0.662811  0.001527  1
  Si  Si16  1  0.337145  0.168573  0.001399  1
  Si  Si17  1  0.168841  0.831708  0.999209  1
  Si  Si18  1  0.168841  0.337132  0.999209  1
  Si  Si19  1  0.662708  0.831354  0.998725  1
  Rh  Rh20  1  0.333799  0.666900  0.463586  1
  Rh  Rh21  1  0.665736  0.332867  0.534683  1
  Rh  Rh22  1  0.665736  0.332867  0.965317  1
  Rh  Rh23  1  0.333799  0.666900  0.036414  1
