# generated using pymatgen
data_SmPa3(Rh2Pb)2
_symmetry_space_group_name_H-M   'P 1'
_cell_length_a   7.82829552
_cell_length_b   7.82829509
_cell_length_c   3.62375700
_cell_angle_alpha   90.00000000
_cell_angle_beta   90.00000000
_cell_angle_gamma   92.34047720
_symmetry_Int_Tables_number   1
_chemical_formula_structural   SmPa3(Rh2Pb)2
_chemical_formula_sum   'Sm1 Pa3 Rh4 Pb2'
_cell_volume   221.88657457
_cell_formula_units_Z   1
loop_
 _symmetry_equiv_pos_site_id
 _symmetry_equiv_pos_as_xyz
  1  'x, y, z'
loop_
 _atom_site_type_symbol
 _atom_site_label
 _atom_site_symmetry_multiplicity
 _atom_site_fract_x
 _atom_site_fract_y
 _atom_site_fract_z
 _atom_site_occupancy
  Sm  Sm0  1  0.829866  0.670134  0.500000  1
  Pa  Pa1  1  0.672179  0.168531  0.500000  1
  Pa  Pa2  1  0.331469  0.827821  0.500000  1
  Pa  Pa3  1  0.168034  0.331966  0.500000  1
  Rh  Rh4  1  0.150819  0.624661  0.000000  1
  Rh  Rh5  1  0.875339  0.349181  0.000000  1
  Rh  Rh6  1  0.608009  0.891991  0.000000  1
  Rh  Rh7  1  0.356758  0.143242  0.000000  1
  Pb  Pb8  1  0.999007  0.991481  0.000000  1
  Pb  Pb9  1  0.508519  0.500993  0.000000  1
