# generated using pymatgen
data_Ho4Tm8TcRu3
_symmetry_space_group_name_H-M   'P 1'
_cell_length_a   6.25608704
_cell_length_b   7.29412814
_cell_length_c   9.01123700
_cell_angle_alpha   90.00000000
_cell_angle_beta   90.00000000
_cell_angle_gamma   89.99559289
_symmetry_Int_Tables_number   1
_chemical_formula_structural   Ho4Tm8TcRu3
_chemical_formula_sum   'Ho4 Tm8 Tc1 Ru3'
_cell_volume   411.20707850
_cell_formula_units_Z   1
loop_
 _symmetry_equiv_pos_site_id
 _symmetry_equiv_pos_as_xyz
  1  'x, y, z'
loop_
 _atom_site_type_symbol
 _atom_site_label
 _atom_site_symmetry_multiplicity
 _atom_site_fract_x
 _atom_site_fract_y
 _atom_site_fract_z
 _atom_site_occupancy
  Ho  Ho0  1  0.630584  0.040268  0.250000  1
  Ho  Ho1  1  0.367726  0.957787  0.750000  1
  Ho  Ho2  1  0.132299  0.458062  0.750000  1
  Ho  Ho3  1  0.873164  0.541757  0.250000  1
  Tm  Tm4  1  0.166634  0.176071  0.064344  1
  Tm  Tm5  1  0.832523  0.823698  0.936019  1
  Tm  Tm6  1  0.665198  0.324926  0.937131  1
  Tm  Tm7  1  0.832523  0.823698  0.563981  1
  Tm  Tm8  1  0.332650  0.675907  0.063993  1
  Tm  Tm9  1  0.166634  0.176071  0.435656  1
  Tm  Tm10  1  0.332650  0.675907  0.436007  1
  Tm  Tm11  1  0.665198  0.324926  0.562869  1
  Tc  Tc12  1  0.462465  0.384599  0.250000  1
  Ru  Ru13  1  0.540068  0.617000  0.750000  1
  Ru  Ru14  1  0.960689  0.115240  0.750000  1
  Ru  Ru15  1  0.038995  0.884084  0.250000  1
