# generated using pymatgen
data_Sr6ErSc(BO3)6
_symmetry_space_group_name_H-M   'P 1'
_cell_length_a   7.78280376
_cell_length_b   7.78280384
_cell_length_c   7.78280387
_cell_angle_alpha   105.11591971
_cell_angle_beta   105.11591998
_cell_angle_gamma   105.11591470
_symmetry_Int_Tables_number   1
_chemical_formula_structural   Sr6ErSc(BO3)6
_chemical_formula_sum   'Sr6 Er1 Sc1 B6 O18'
_cell_volume   411.11696350
_cell_formula_units_Z   1
loop_
 _symmetry_equiv_pos_site_id
 _symmetry_equiv_pos_as_xyz
  1  'x, y, z'
loop_
 _atom_site_type_symbol
 _atom_site_label
 _atom_site_symmetry_multiplicity
 _atom_site_fract_x
 _atom_site_fract_y
 _atom_site_fract_z
 _atom_site_occupancy
  Sr  Sr0  1  0.648529  0.264000  0.159489  1
  Sr  Sr1  1  0.159489  0.648529  0.264000  1
  Sr  Sr2  1  0.735999  0.840512  0.351471  1
  Sr  Sr3  1  0.264001  0.159488  0.648529  1
  Sr  Sr4  1  0.840512  0.351471  0.736000  1
  Sr  Sr5  1  0.351471  0.736000  0.840511  1
  Er  Er6  1  0.000000  0.000000  0.000000  1
  Sc  Sc7  1  0.500000  0.500000  0.500000  1
  B  B8  1  0.294446  0.377607  0.041909  1
  B  B9  1  0.377606  0.041909  0.294446  1
  B  B10  1  0.041909  0.294446  0.377606  1
  B  B11  1  0.958091  0.705555  0.622394  1
  B  B12  1  0.622394  0.958092  0.705554  1
  B  B13  1  0.705555  0.622394  0.958092  1
  O  O14  1  0.730519  0.815780  0.017413  1
  O  O15  1  0.807975  0.549083  0.072301  1
  O  O16  1  0.982587  0.269481  0.184218  1
  O  O17  1  0.450916  0.927699  0.192024  1
  O  O18  1  0.432849  0.496778  0.218559  1
  O  O19  1  0.184219  0.982587  0.269480  1
  O  O20  1  0.496777  0.218559  0.432849  1
  O  O21  1  0.927699  0.192024  0.450917  1
  O  O22  1  0.218559  0.432849  0.496778  1
  O  O23  1  0.781441  0.567151  0.503223  1
  O  O24  1  0.072301  0.807975  0.549083  1
  O  O25  1  0.503223  0.781441  0.567151  1
  O  O26  1  0.815780  0.017412  0.730519  1
  O  O27  1  0.567151  0.503223  0.781442  1
  O  O28  1  0.549083  0.072301  0.807976  1
  O  O29  1  0.017412  0.730518  0.815781  1
  O  O30  1  0.192024  0.450916  0.927699  1
  O  O31  1  0.269481  0.184219  0.982587  1
