# generated using pymatgen
data_Tm2Lu4ScCo17P12
_symmetry_space_group_name_H-M   'P 1'
_cell_length_a   3.67223900
_cell_length_b   10.51438800
_cell_length_c   12.16763100
_cell_angle_alpha   90.00000000
_cell_angle_beta   90.00000000
_cell_angle_gamma   90.00000000
_symmetry_Int_Tables_number   1
_chemical_formula_structural   Tm2Lu4ScCo17P12
_chemical_formula_sum   'Tm2 Lu4 Sc1 Co17 P12'
_cell_volume   469.80860658
_cell_formula_units_Z   1
loop_
 _symmetry_equiv_pos_site_id
 _symmetry_equiv_pos_as_xyz
  1  'x, y, z'
loop_
 _atom_site_type_symbol
 _atom_site_label
 _atom_site_symmetry_multiplicity
 _atom_site_fract_x
 _atom_site_fract_y
 _atom_site_fract_z
 _atom_site_occupancy
  Tm  Tm0  1  0.000000  0.500000  0.528725  1
  Tm  Tm1  1  0.500000  0.000000  0.476596  1
  Lu  Lu2  1  0.500000  0.822478  0.207456  1
  Lu  Lu3  1  0.500000  0.177522  0.207456  1
  Lu  Lu4  1  0.000000  0.681564  0.795736  1
  Lu  Lu5  1  0.000000  0.318436  0.795736  1
  Sc  Sc6  1  0.500000  0.500000  0.153975  1
  Co  Co7  1  0.000000  0.000000  0.836146  1
  Co  Co8  1  0.500000  0.500000  0.703940  1
  Co  Co9  1  0.000000  0.000000  0.295009  1
  Co  Co10  1  0.000000  0.500000  0.984507  1
  Co  Co11  1  0.500000  0.000000  0.013286  1
  Co  Co12  1  0.500000  0.326799  0.989629  1
  Co  Co13  1  0.500000  0.673201  0.989629  1
  Co  Co14  1  0.000000  0.162512  0.001440  1
  Co  Co15  1  0.000000  0.837488  0.001440  1
  Co  Co16  1  0.500000  0.294572  0.434381  1
  Co  Co17  1  0.500000  0.705428  0.434381  1
  Co  Co18  1  0.000000  0.201602  0.570314  1
  Co  Co19  1  0.000000  0.798398  0.570314  1
  Co  Co20  1  0.500000  0.879279  0.707637  1
  Co  Co21  1  0.500000  0.120721  0.707637  1
  Co  Co22  1  0.000000  0.623697  0.296098  1
  Co  Co23  1  0.000000  0.376303  0.296098  1
  P  P24  1  0.500000  0.500000  0.882363  1
  P  P25  1  0.000000  0.000000  0.116719  1
  P  P26  1  0.500000  0.500000  0.360249  1
  P  P27  1  0.000000  0.000000  0.652972  1
  P  P28  1  0.500000  0.310629  0.618902  1
  P  P29  1  0.500000  0.689371  0.618902  1
  P  P30  1  0.000000  0.187184  0.384993  1
  P  P31  1  0.000000  0.812816  0.384993  1
  P  P32  1  0.500000  0.850742  0.887722  1
  P  P33  1  0.500000  0.149258  0.887722  1
  P  P34  1  0.000000  0.664377  0.103450  1
  P  P35  1  0.000000  0.335623  0.103450  1
