# generated using pymatgen
data_Dy2HoZrIn2Ir3
_symmetry_space_group_name_H-M   'P 1'
_cell_length_a   7.46025885
_cell_length_b   7.20980761
_cell_length_c   4.17106600
_cell_angle_alpha   90.00000000
_cell_angle_beta   90.00000000
_cell_angle_gamma   118.89553336
_symmetry_Int_Tables_number   1
_chemical_formula_structural   Dy2HoZrIn2Ir3
_chemical_formula_sum   'Dy2 Ho1 Zr1 In2 Ir3'
_cell_volume   196.41826747
_cell_formula_units_Z   1
loop_
 _symmetry_equiv_pos_site_id
 _symmetry_equiv_pos_as_xyz
  1  'x, y, z'
loop_
 _atom_site_type_symbol
 _atom_site_label
 _atom_site_symmetry_multiplicity
 _atom_site_fract_x
 _atom_site_fract_y
 _atom_site_fract_z
 _atom_site_occupancy
  Dy  Dy0  1  0.583142  0.588035  0.000000  1
  Dy  Dy1  1  0.416858  0.004893  0.000000  1
  Ho  Ho2  1  0.000000  0.393569  0.000000  1
  Zr  Zr3  1  0.000000  0.751841  0.500000  1
  In  In4  1  0.255360  0.254145  0.500000  1
  In  In5  1  0.744640  0.998784  0.500000  1
  Ir  Ir6  1  0.000000  0.982533  0.000000  1
  Ir  Ir7  1  0.678589  0.352394  0.500000  1
  Ir  Ir8  1  0.321411  0.673806  0.500000  1
