# generated using pymatgen
data_Dy7Er9(C2Br3)4
_symmetry_space_group_name_H-M   'P 1'
_cell_length_a   3.67400500
_cell_length_b   10.68001003
_cell_length_c   20.38585005
_cell_angle_alpha   90.00830354
_cell_angle_beta   90.00000000
_cell_angle_gamma   90.00000000
_symmetry_Int_Tables_number   1
_chemical_formula_structural   Dy7Er9(C2Br3)4
_chemical_formula_sum   'Dy7 Er9 C8 Br12'
_cell_volume   799.90833915
_cell_formula_units_Z   1
loop_
 _symmetry_equiv_pos_site_id
 _symmetry_equiv_pos_as_xyz
  1  'x, y, z'
loop_
 _atom_site_type_symbol
 _atom_site_label
 _atom_site_symmetry_multiplicity
 _atom_site_fract_x
 _atom_site_fract_y
 _atom_site_fract_z
 _atom_site_occupancy
  Dy  Dy0  1  0.250000  0.865620  0.580226  1
  Dy  Dy1  1  0.750000  0.134408  0.419875  1
  Dy  Dy2  1  0.750000  0.634364  0.080151  1
  Dy  Dy3  1  0.250000  0.365619  0.919430  1
  Dy  Dy4  1  0.250000  0.865047  0.744629  1
  Dy  Dy5  1  0.750000  0.135012  0.255392  1
  Dy  Dy6  1  0.750000  0.635019  0.244601  1
  Er  Er7  1  0.250000  0.365041  0.755874  1
  Er  Er8  1  0.250000  0.868033  0.169314  1
  Er  Er9  1  0.750000  0.132048  0.830435  1
  Er  Er10  1  0.750000  0.631734  0.669347  1
  Er  Er11  1  0.250000  0.368155  0.330671  1
  Er  Er12  1  0.250000  0.901247  0.327569  1
  Er  Er13  1  0.750000  0.098913  0.672409  1
  Er  Er14  1  0.750000  0.598456  0.827380  1
  Er  Er15  1  0.250000  0.401288  0.172410  1
  C  C16  1  0.250000  0.612654  0.750201  1
  C  C17  1  0.750000  0.385546  0.249808  1
  C  C18  1  0.750000  0.885753  0.250210  1
  C  C19  1  0.250000  0.116083  0.749830  1
  C  C20  1  0.250000  0.633313  0.156408  1
  C  C21  1  0.750000  0.366631  0.842756  1
  C  C22  1  0.750000  0.866649  0.656537  1
  C  C23  1  0.250000  0.133283  0.343612  1
  Br  Br24  1  0.250000  0.610811  0.555817  1
  Br  Br25  1  0.750000  0.389082  0.444296  1
  Br  Br26  1  0.750000  0.889089  0.055703  1
  Br  Br27  1  0.250000  0.111149  0.944171  1
  Br  Br28  1  0.250000  0.627905  0.952229  1
  Br  Br29  1  0.750000  0.371893  0.047545  1
  Br  Br30  1  0.750000  0.871972  0.452354  1
  Br  Br31  1  0.250000  0.128159  0.547743  1
  Br  Br32  1  0.250000  0.636793  0.357359  1
  Br  Br33  1  0.750000  0.363243  0.643800  1
  Br  Br34  1  0.750000  0.863205  0.857270  1
  Br  Br35  1  0.250000  0.136786  0.142639  1
