# generated using pymatgen
data_K8ZrVS8
_symmetry_space_group_name_H-M   'P 1'
_cell_length_a   8.22526379
_cell_length_b   9.75642200
_cell_length_c   14.51064400
_cell_angle_alpha   90.00000000
_cell_angle_beta   91.59171550
_cell_angle_gamma   90.00000000
_symmetry_Int_Tables_number   1
_chemical_formula_structural   K8ZrVS8
_chemical_formula_sum   'K16 Zr2 V2 S16'
_cell_volume   1164.01744885
_cell_formula_units_Z   2
loop_
 _symmetry_equiv_pos_site_id
 _symmetry_equiv_pos_as_xyz
  1  'x, y, z'
loop_
 _atom_site_type_symbol
 _atom_site_label
 _atom_site_symmetry_multiplicity
 _atom_site_fract_x
 _atom_site_fract_y
 _atom_site_fract_z
 _atom_site_occupancy
  K  K0  1  0.000000  0.000000  0.000000  1
  K  K1  1  0.500000  0.000000  0.500000  1
  K  K2  1  0.000000  0.500000  0.000000  1
  K  K3  1  0.500000  0.500000  0.500000  1
  K  K4  1  0.981738  0.750000  0.430736  1
  K  K5  1  0.483334  0.250000  0.071434  1
  K  K6  1  0.018262  0.250000  0.569264  1
  K  K7  1  0.516666  0.750000  0.928566  1
  K  K8  1  0.842407  0.049332  0.274417  1
  K  K9  1  0.344621  0.938824  0.219194  1
  K  K10  1  0.157593  0.549332  0.725583  1
  K  K11  1  0.655379  0.438824  0.780806  1
  K  K12  1  0.157593  0.950668  0.725583  1
  K  K13  1  0.655379  0.061176  0.780806  1
  K  K14  1  0.842407  0.450668  0.274417  1
  K  K15  1  0.344621  0.561176  0.219194  1
  Zr  Zr16  1  0.753042  0.750000  0.669498  1
  Zr  Zr17  1  0.246958  0.250000  0.330502  1
  V  V18  1  0.744620  0.750000  0.164259  1
  V  V19  1  0.255380  0.250000  0.835741  1
  S  S20  1  0.982324  0.250000  0.826245  1
  S  S21  1  0.541423  0.250000  0.322969  1
  S  S22  1  0.458577  0.750000  0.677031  1
  S  S23  1  0.017676  0.750000  0.173755  1
  S  S24  1  0.657772  0.561014  0.092048  1
  S  S25  1  0.159411  0.455328  0.407347  1
  S  S26  1  0.342228  0.061014  0.907952  1
  S  S27  1  0.840589  0.955328  0.592653  1
  S  S28  1  0.342228  0.438986  0.907952  1
  S  S29  1  0.840589  0.544672  0.592653  1
  S  S30  1  0.657772  0.938986  0.092048  1
  S  S31  1  0.159411  0.044672  0.407347  1
  S  S32  1  0.641022  0.750000  0.306799  1
  S  S33  1  0.125794  0.250000  0.175735  1
  S  S34  1  0.358978  0.250000  0.693201  1
  S  S35  1  0.874206  0.750000  0.824265  1
