# generated using pymatgen
data_Sr3Al(SiIr3)2
_symmetry_space_group_name_H-M   'P 1'
_cell_length_a   5.73959100
_cell_length_b   5.73959208
_cell_length_c   15.58618700
_cell_angle_alpha   90.00000000
_cell_angle_beta   90.00000000
_cell_angle_gamma   120.00001104
_symmetry_Int_Tables_number   1
_chemical_formula_structural   Sr3Al(SiIr3)2
_chemical_formula_sum   'Sr6 Al2 Si4 Ir12'
_cell_volume   444.66448066
_cell_formula_units_Z   2
loop_
 _symmetry_equiv_pos_site_id
 _symmetry_equiv_pos_as_xyz
  1  'x, y, z'
loop_
 _atom_site_type_symbol
 _atom_site_label
 _atom_site_symmetry_multiplicity
 _atom_site_fract_x
 _atom_site_fract_y
 _atom_site_fract_z
 _atom_site_occupancy
  Sr  Sr0  1  0.333333  0.666667  0.541062  1
  Sr  Sr1  1  0.666667  0.333333  0.458938  1
  Sr  Sr2  1  0.666667  0.333333  0.041062  1
  Sr  Sr3  1  0.333333  0.666667  0.958938  1
  Sr  Sr4  1  0.333333  0.666667  0.750000  1
  Sr  Sr5  1  0.666667  0.333333  0.250000  1
  Al  Al6  1  0.000000  0.000000  0.000000  1
  Al  Al7  1  0.000000  0.000000  0.500000  1
  Si  Si8  1  0.000000  0.000000  0.250000  1
  Si  Si9  1  0.000000  0.000000  0.750000  1
  Si  Si10  1  0.333333  0.666667  0.250000  1
  Si  Si11  1  0.666667  0.333333  0.750000  1
  Ir  Ir12  1  0.166048  0.332096  0.137462  1
  Ir  Ir13  1  0.833952  0.667904  0.862538  1
  Ir  Ir14  1  0.667904  0.833952  0.137462  1
  Ir  Ir15  1  0.833952  0.667904  0.637462  1
  Ir  Ir16  1  0.332096  0.166048  0.862538  1
  Ir  Ir17  1  0.166048  0.332096  0.362538  1
  Ir  Ir18  1  0.166048  0.833952  0.137462  1
  Ir  Ir19  1  0.332096  0.166048  0.637462  1
  Ir  Ir20  1  0.833952  0.166048  0.862538  1
  Ir  Ir21  1  0.667904  0.833952  0.362538  1
  Ir  Ir22  1  0.833952  0.166048  0.637462  1
  Ir  Ir23  1  0.166048  0.833952  0.362538  1
