# generated using pymatgen
data_Er5Bi2Sb
_symmetry_space_group_name_H-M   'P 1'
_cell_length_a   8.19001900
_cell_length_b   9.36356100
_cell_length_c   11.90508400
_cell_angle_alpha   90.00000000
_cell_angle_beta   90.00000000
_cell_angle_gamma   90.00000000
_symmetry_Int_Tables_number   1
_chemical_formula_structural   Er5Bi2Sb
_chemical_formula_sum   'Er20 Bi8 Sb4'
_cell_volume   912.97401621
_cell_formula_units_Z   4
loop_
 _symmetry_equiv_pos_site_id
 _symmetry_equiv_pos_as_xyz
  1  'x, y, z'
loop_
 _atom_site_type_symbol
 _atom_site_label
 _atom_site_symmetry_multiplicity
 _atom_site_fract_x
 _atom_site_fract_y
 _atom_site_fract_z
 _atom_site_occupancy
  Er  Er0  1  0.812304  0.561841  0.063805  1
  Er  Er1  1  0.687696  0.938159  0.563805  1
  Er  Er2  1  0.187696  0.061841  0.936195  1
  Er  Er3  1  0.312304  0.438159  0.436195  1
  Er  Er4  1  0.187696  0.438159  0.936195  1
  Er  Er5  1  0.312304  0.061841  0.436195  1
  Er  Er6  1  0.812304  0.938159  0.063805  1
  Er  Er7  1  0.687696  0.561841  0.563805  1
  Er  Er8  1  0.174979  0.750000  0.227102  1
  Er  Er9  1  0.325021  0.750000  0.727102  1
  Er  Er10  1  0.825021  0.250000  0.772898  1
  Er  Er11  1  0.674979  0.250000  0.272898  1
  Er  Er12  1  0.474258  0.750000  0.004996  1
  Er  Er13  1  0.025742  0.750000  0.504996  1
  Er  Er14  1  0.525742  0.250000  0.995004  1
  Er  Er15  1  0.974258  0.250000  0.495004  1
  Er  Er16  1  0.654153  0.750000  0.291342  1
  Er  Er17  1  0.845847  0.750000  0.791342  1
  Er  Er18  1  0.345847  0.250000  0.708658  1
  Er  Er19  1  0.154153  0.250000  0.208658  1
  Bi  Bi20  1  0.935093  0.509713  0.324845  1
  Bi  Bi21  1  0.564907  0.990287  0.824845  1
  Bi  Bi22  1  0.064907  0.009713  0.675155  1
  Bi  Bi23  1  0.435093  0.490287  0.175155  1
  Bi  Bi24  1  0.064907  0.490287  0.675155  1
  Bi  Bi25  1  0.435093  0.009713  0.175155  1
  Bi  Bi26  1  0.935093  0.990287  0.324845  1
  Bi  Bi27  1  0.564907  0.509713  0.824845  1
  Sb  Sb28  1  0.400554  0.750000  0.474578  1
  Sb  Sb29  1  0.099446  0.750000  0.974578  1
  Sb  Sb30  1  0.599446  0.250000  0.525422  1
  Sb  Sb31  1  0.900554  0.250000  0.025422  1
