# generated using pymatgen
data_Ho3Er7Cd3Pd
_symmetry_space_group_name_H-M   'P 1'
_cell_length_a   9.58355200
_cell_length_b   9.58355108
_cell_length_c   9.77550000
_cell_angle_alpha   90.00000000
_cell_angle_beta   90.00000000
_cell_angle_gamma   119.99999629
_symmetry_Int_Tables_number   1
_chemical_formula_structural   Ho3Er7Cd3Pd
_chemical_formula_sum   'Ho6 Er14 Cd6 Pd2'
_cell_volume   777.53973709
_cell_formula_units_Z   2
loop_
 _symmetry_equiv_pos_site_id
 _symmetry_equiv_pos_as_xyz
  1  'x, y, z'
loop_
 _atom_site_type_symbol
 _atom_site_label
 _atom_site_symmetry_multiplicity
 _atom_site_fract_x
 _atom_site_fract_y
 _atom_site_fract_z
 _atom_site_occupancy
  Ho  Ho0  1  0.542801  0.457199  0.750000  1
  Ho  Ho1  1  0.542801  0.085600  0.750000  1
  Ho  Ho2  1  0.914400  0.457199  0.750000  1
  Ho  Ho3  1  0.457199  0.542801  0.250000  1
  Ho  Ho4  1  0.457199  0.914400  0.250000  1
  Ho  Ho5  1  0.085600  0.542801  0.250000  1
  Er  Er6  1  0.208137  0.791863  0.943267  1
  Er  Er7  1  0.208137  0.416276  0.943267  1
  Er  Er8  1  0.583724  0.791863  0.943267  1
  Er  Er9  1  0.791863  0.208137  0.056733  1
  Er  Er10  1  0.791863  0.583724  0.056733  1
  Er  Er11  1  0.416276  0.208137  0.056733  1
  Er  Er12  1  0.791863  0.208137  0.443267  1
  Er  Er13  1  0.791863  0.583724  0.443267  1
  Er  Er14  1  0.416276  0.208137  0.443267  1
  Er  Er15  1  0.208137  0.791863  0.556733  1
  Er  Er16  1  0.208137  0.416276  0.556733  1
  Er  Er17  1  0.583724  0.791863  0.556733  1
  Er  Er18  1  0.000000  0.000000  0.000000  1
  Er  Er19  1  0.000000  0.000000  0.500000  1
  Cd  Cd20  1  0.885302  0.114698  0.750000  1
  Cd  Cd21  1  0.885302  0.770604  0.750000  1
  Cd  Cd22  1  0.229396  0.114698  0.750000  1
  Cd  Cd23  1  0.114698  0.885302  0.250000  1
  Cd  Cd24  1  0.114698  0.229396  0.250000  1
  Cd  Cd25  1  0.770604  0.885302  0.250000  1
  Pd  Pd26  1  0.333333  0.666667  0.750000  1
  Pd  Pd27  1  0.666667  0.333333  0.250000  1
