# generated using pymatgen
data_Eu4DyTmNb2O12
_symmetry_space_group_name_H-M   'P 1'
_cell_length_a   5.75756562
_cell_length_b   5.94681619
_cell_length_c   10.03041114
_cell_angle_alpha   90.06967325
_cell_angle_beta   124.79538028
_cell_angle_gamma   89.97698759
_symmetry_Int_Tables_number   1
_chemical_formula_structural   Eu4DyTmNb2O12
_chemical_formula_sum   'Eu4 Dy1 Tm1 Nb2 O12'
_cell_volume   282.02539239
_cell_formula_units_Z   1
loop_
 _symmetry_equiv_pos_site_id
 _symmetry_equiv_pos_as_xyz
  1  'x, y, z'
loop_
 _atom_site_type_symbol
 _atom_site_label
 _atom_site_symmetry_multiplicity
 _atom_site_fract_x
 _atom_site_fract_y
 _atom_site_fract_z
 _atom_site_occupancy
  Eu  Eu0  1  0.235525  0.448363  0.750473  1
  Eu  Eu1  1  0.238220  0.052347  0.253209  1
  Eu  Eu2  1  0.764475  0.551637  0.249527  1
  Eu  Eu3  1  0.761780  0.947653  0.746791  1
  Dy  Dy4  1  0.500000  0.000000  0.000000  1
  Tm  Tm5  1  0.500000  0.500000  0.500000  1
  Nb  Nb6  1  0.000000  0.500000  0.000000  1
  Nb  Nb7  1  0.000000  0.000000  0.500000  1
  O  O8  1  0.337693  0.036134  0.736151  1
  O  O9  1  0.338701  0.464423  0.238662  1
  O  O10  1  0.662307  0.963866  0.263849  1
  O  O11  1  0.661299  0.535577  0.761338  1
  O  O12  1  0.763062  0.195502  0.549276  1
  O  O13  1  0.764825  0.308278  0.050322  1
  O  O14  1  0.236938  0.804498  0.450724  1
  O  O15  1  0.235175  0.691722  0.949678  1
  O  O16  1  0.130146  0.217819  0.942045  1
  O  O17  1  0.135249  0.283012  0.443167  1
  O  O18  1  0.869854  0.782181  0.057955  1
  O  O19  1  0.864751  0.716988  0.556833  1
