# generated using pymatgen
data_Hf3Sc5Co2(P6Ir7)2
_symmetry_space_group_name_H-M   'P 1'
_cell_length_a   12.76016762
_cell_length_b   12.77028617
_cell_length_c   3.85119800
_cell_angle_alpha   90.00000000
_cell_angle_beta   90.00000000
_cell_angle_gamma   120.15893921
_symmetry_Int_Tables_number   1
_chemical_formula_structural   Hf3Sc5Co2(P6Ir7)2
_chemical_formula_sum   'Hf3 Sc5 Co2 P12 Ir14'
_cell_volume   542.60738662
_cell_formula_units_Z   1
loop_
 _symmetry_equiv_pos_site_id
 _symmetry_equiv_pos_as_xyz
  1  'x, y, z'
loop_
 _atom_site_type_symbol
 _atom_site_label
 _atom_site_symmetry_multiplicity
 _atom_site_fract_x
 _atom_site_fract_y
 _atom_site_fract_z
 _atom_site_occupancy
  Hf  Hf0  1  0.452838  0.004514  0.000000  1
  Hf  Hf1  1  0.002438  0.448013  0.000000  1
  Hf  Hf2  1  0.550256  0.551369  0.000000  1
  Sc  Sc3  1  0.333361  0.664250  0.000000  1
  Sc  Sc4  1  0.666493  0.333490  0.000000  1
  Sc  Sc5  1  0.814162  0.996355  0.500000  1
  Sc  Sc6  1  0.999055  0.818512  0.500000  1
  Sc  Sc7  1  0.182482  0.186662  0.500000  1
  Co  Co8  1  0.174661  0.372648  0.000000  1
  Co  Co9  1  0.624941  0.800206  0.000000  1
  P  P10  1  0.172795  0.999555  0.000000  1
  P  P11  1  0.008207  0.179183  0.000000  1
  P  P12  1  0.820561  0.829782  0.000000  1
  P  P13  1  0.171818  0.479230  0.500000  1
  P  P14  1  0.516311  0.687996  0.500000  1
  P  P15  1  0.315997  0.828811  0.500000  1
  P  P16  1  0.690490  0.518311  0.500000  1
  P  P17  1  0.828734  0.310622  0.500000  1
  P  P18  1  0.482297  0.174305  0.500000  1
  P  P19  1  0.654213  0.987588  0.000000  1
  P  P20  1  0.999805  0.654124  0.000000  1
  P  P21  1  0.334088  0.346682  0.000000  1
  Ir  Ir22  1  0.355241  0.484441  0.500000  1
  Ir  Ir23  1  0.516874  0.870941  0.500000  1
  Ir  Ir24  1  0.139232  0.639047  0.500000  1
  Ir  Ir25  1  0.867493  0.506544  0.500000  1
  Ir  Ir26  1  0.638710  0.137942  0.500000  1
  Ir  Ir27  1  0.498460  0.363062  0.500000  1
  Ir  Ir28  1  0.192446  0.821437  0.000000  1
  Ir  Ir29  1  0.807743  0.632256  0.000000  1
  Ir  Ir30  1  0.820708  0.185568  0.000000  1
  Ir  Ir31  1  0.365980  0.181728  0.000000  1
  Ir  Ir32  1  0.278986  0.000349  0.500000  1
  Ir  Ir33  1  0.003338  0.278481  0.500000  1
  Ir  Ir34  1  0.719665  0.725645  0.500000  1
  Ir  Ir35  1  0.999123  0.000351  0.000000  1
