# generated using pymatgen
data_CeThZn16Ag
_symmetry_space_group_name_H-M   'P 1'
_cell_length_a   6.87400178
_cell_length_b   6.87400062
_cell_length_c   6.88711101
_cell_angle_alpha   82.69528134
_cell_angle_beta   82.69528792
_cell_angle_gamma   82.81448336
_symmetry_Int_Tables_number   1
_chemical_formula_structural   CeThZn16Ag
_chemical_formula_sum   'Ce1 Th1 Zn16 Ag1'
_cell_volume   318.20008084
_cell_formula_units_Z   1
loop_
 _symmetry_equiv_pos_site_id
 _symmetry_equiv_pos_as_xyz
  1  'x, y, z'
loop_
 _atom_site_type_symbol
 _atom_site_label
 _atom_site_symmetry_multiplicity
 _atom_site_fract_x
 _atom_site_fract_y
 _atom_site_fract_z
 _atom_site_occupancy
  Ce  Ce0  1  0.665042  0.665042  0.662753  1
  Th  Th1  1  0.336502  0.336502  0.336698  1
  Zn  Zn2  1  0.707690  0.293841  0.999930  1
  Zn  Zn3  1  0.999149  0.705985  0.295470  1
  Zn  Zn4  1  0.295801  0.997586  0.704831  1
  Zn  Zn5  1  0.997586  0.295801  0.704831  1
  Zn  Zn6  1  0.705985  0.999149  0.295470  1
  Zn  Zn7  1  0.293841  0.707690  0.999930  1
  Zn  Zn8  1  0.353140  0.840692  0.351941  1
  Zn  Zn9  1  0.840692  0.353140  0.351941  1
  Zn  Zn10  1  0.653000  0.155040  0.647112  1
  Zn  Zn11  1  0.648343  0.648343  0.159338  1
  Zn  Zn12  1  0.155040  0.653000  0.647112  1
  Zn  Zn13  1  0.000274  0.000274  0.500325  1
  Zn  Zn14  1  0.503426  0.996816  0.999252  1
  Zn  Zn15  1  0.996816  0.503426  0.999252  1
  Zn  Zn16  1  0.899237  0.899237  0.898903  1
  Zn  Zn17  1  0.097205  0.097205  0.102659  1
  Ag  Ag18  1  0.351233  0.351233  0.842252  1
