# generated using pymatgen
data_Tm12Si12Os3Au
_symmetry_space_group_name_H-M   'P 1'
_cell_length_a   4.18293300
_cell_length_b   10.57624192
_cell_length_c   12.15602400
_cell_angle_alpha   90.13629661
_cell_angle_beta   90.00000000
_cell_angle_gamma   90.00000000
_symmetry_Int_Tables_number   1
_chemical_formula_structural   Tm12Si12Os3Au
_chemical_formula_sum   'Tm12 Si12 Os3 Au1'
_cell_volume   537.77747147
_cell_formula_units_Z   1
loop_
 _symmetry_equiv_pos_site_id
 _symmetry_equiv_pos_as_xyz
  1  'x, y, z'
loop_
 _atom_site_type_symbol
 _atom_site_label
 _atom_site_symmetry_multiplicity
 _atom_site_fract_x
 _atom_site_fract_y
 _atom_site_fract_z
 _atom_site_occupancy
  Tm  Tm0  1  0.250000  0.880366  0.023833  1
  Tm  Tm1  1  0.250000  0.620956  0.519009  1
  Tm  Tm2  1  0.750000  0.124795  0.983101  1
  Tm  Tm3  1  0.750000  0.381626  0.477404  1
  Tm  Tm4  1  0.250000  0.919847  0.603584  1
  Tm  Tm5  1  0.250000  0.579122  0.104849  1
  Tm  Tm6  1  0.750000  0.078780  0.396509  1
  Tm  Tm7  1  0.750000  0.420650  0.897558  1
  Tm  Tm8  1  0.250000  0.655786  0.799266  1
  Tm  Tm9  1  0.250000  0.839860  0.298768  1
  Tm  Tm10  1  0.750000  0.340488  0.200597  1
  Tm  Tm11  1  0.750000  0.165956  0.696893  1
  Si  Si12  1  0.250000  0.025364  0.824317  1
  Si  Si13  1  0.250000  0.489175  0.320420  1
  Si  Si14  1  0.750000  0.989984  0.178543  1
  Si  Si15  1  0.750000  0.506830  0.679188  1
  Si  Si16  1  0.250000  0.252560  0.840413  1
  Si  Si17  1  0.250000  0.250010  0.340443  1
  Si  Si18  1  0.750000  0.750280  0.160265  1
  Si  Si19  1  0.750000  0.741982  0.650885  1
  Si  Si20  1  0.250000  0.203680  0.542614  1
  Si  Si21  1  0.250000  0.299725  0.046323  1
  Si  Si22  1  0.750000  0.800180  0.452235  1
  Si  Si23  1  0.750000  0.686670  0.962045  1
  Os  Os24  1  0.250000  0.390504  0.678725  1
  Os  Os25  1  0.250000  0.108343  0.179891  1
  Os  Os26  1  0.750000  0.608623  0.320919  1
  Au  Au27  1  0.750000  0.887856  0.821404  1
