# generated using pymatgen
data_Pr3Y2P12Ru13Rh6
_symmetry_space_group_name_H-M   'P 1'
_cell_length_a   12.65044800
_cell_length_b   12.65044894
_cell_length_c   3.99141600
_cell_angle_alpha   90.00000000
_cell_angle_beta   90.00000000
_cell_angle_gamma   119.99999231
_symmetry_Int_Tables_number   1
_chemical_formula_structural   Pr3Y2P12Ru13Rh6
_chemical_formula_sum   'Pr3 Y2 P12 Ru13 Rh6'
_cell_volume   553.18386342
_cell_formula_units_Z   1
loop_
 _symmetry_equiv_pos_site_id
 _symmetry_equiv_pos_as_xyz
  1  'x, y, z'
loop_
 _atom_site_type_symbol
 _atom_site_label
 _atom_site_symmetry_multiplicity
 _atom_site_fract_x
 _atom_site_fract_y
 _atom_site_fract_z
 _atom_site_occupancy
  Pr  Pr0  1  0.000010  0.183428  0.500000  1
  Pr  Pr1  1  0.816572  0.816582  0.500000  1
  Pr  Pr2  1  0.183418  0.999990  0.500000  1
  Y  Y3  1  0.666667  0.333333  0.000000  1
  Y  Y4  1  0.333333  0.666667  0.000000  1
  P  P5  1  0.002846  0.813788  0.000000  1
  P  P6  1  0.186212  0.189058  0.000000  1
  P  P7  1  0.810942  0.997154  0.000000  1
  P  P8  1  0.690398  0.173487  0.500000  1
  P  P9  1  0.826513  0.516912  0.500000  1
  P  P10  1  0.483088  0.309602  0.500000  1
  P  P11  1  0.177539  0.696836  0.500000  1
  P  P12  1  0.519296  0.822461  0.500000  1
  P  P13  1  0.303164  0.480704  0.500000  1
  P  P14  1  0.004064  0.374421  0.000000  1
  P  P15  1  0.625579  0.629642  0.000000  1
  P  P16  1  0.370358  0.995936  0.000000  1
  Ru  Ru17  1  0.998628  0.709627  0.500000  1
  Ru  Ru18  1  0.290373  0.289001  0.500000  1
  Ru  Ru19  1  0.710999  0.001372  0.500000  1
  Ru  Ru20  1  0.183648  0.800915  0.000000  1
  Ru  Ru21  1  0.617269  0.816352  0.000000  1
  Ru  Ru22  1  0.199085  0.382731  0.000000  1
  Ru  Ru23  1  0.871982  0.362358  0.500000  1
  Ru  Ru24  1  0.637642  0.509624  0.500000  1
  Ru  Ru25  1  0.490376  0.128018  0.500000  1
  Ru  Ru26  1  0.369520  0.876836  0.500000  1
  Ru  Ru27  1  0.507316  0.630480  0.500000  1
  Ru  Ru28  1  0.123164  0.492684  0.500000  1
  Ru  Ru29  1  0.000000  0.000000  0.000000  1
  Rh  Rh30  1  0.993078  0.548458  0.000000  1
  Rh  Rh31  1  0.451542  0.444621  0.000000  1
  Rh  Rh32  1  0.555379  0.006922  0.000000  1
  Rh  Rh33  1  0.806918  0.185331  0.000000  1
  Rh  Rh34  1  0.814669  0.621588  0.000000  1
  Rh  Rh35  1  0.378412  0.193082  0.000000  1
