# generated using pymatgen
data_Tb16Cd3Co4Hg
_symmetry_space_group_name_H-M   'P 1'
_cell_length_a   9.52708110
_cell_length_b   9.52231445
_cell_length_c   9.52708100
_cell_angle_alpha   59.98343654
_cell_angle_beta   59.99999688
_cell_angle_gamma   59.98343356
_symmetry_Int_Tables_number   1
_chemical_formula_structural   Tb16Cd3Co4Hg
_chemical_formula_sum   'Tb16 Cd3 Co4 Hg1'
_cell_volume   610.99611248
_cell_formula_units_Z   1
loop_
 _symmetry_equiv_pos_site_id
 _symmetry_equiv_pos_as_xyz
  1  'x, y, z'
loop_
 _atom_site_type_symbol
 _atom_site_label
 _atom_site_symmetry_multiplicity
 _atom_site_fract_x
 _atom_site_fract_y
 _atom_site_fract_z
 _atom_site_occupancy
  Tb  Tb0  1  0.153619  0.539142  0.153619  1
  Tb  Tb1  1  0.687925  0.311756  0.687925  1
  Tb  Tb2  1  0.687925  0.311756  0.312394  1
  Tb  Tb3  1  0.937576  0.561574  0.563275  1
  Tb  Tb4  1  0.540828  0.153331  0.152920  1
  Tb  Tb5  1  0.152920  0.153331  0.540828  1
  Tb  Tb6  1  0.937519  0.937011  0.562735  1
  Tb  Tb7  1  0.312625  0.687118  0.312625  1
  Tb  Tb8  1  0.562735  0.937011  0.937519  1
  Tb  Tb9  1  0.562735  0.937011  0.562735  1
  Tb  Tb10  1  0.687631  0.687118  0.312625  1
  Tb  Tb11  1  0.563275  0.561574  0.937576  1
  Tb  Tb12  1  0.937576  0.561574  0.937576  1
  Tb  Tb13  1  0.312625  0.687118  0.687631  1
  Tb  Tb14  1  0.152920  0.153331  0.152920  1
  Tb  Tb15  1  0.312394  0.311756  0.687925  1
  Cd  Cd16  1  0.920197  0.919768  0.920197  1
  Cd  Cd17  1  0.920197  0.919768  0.239839  1
  Cd  Cd18  1  0.239839  0.919768  0.920197  1
  Co  Co19  1  0.359068  0.358814  0.923050  1
  Co  Co20  1  0.359078  0.922767  0.359078  1
  Co  Co21  1  0.923050  0.358814  0.359068  1
  Co  Co22  1  0.359068  0.358814  0.359068  1
  Hg  Hg23  1  0.916677  0.249970  0.916677  1
