# generated using pymatgen
data_Yb10In2Pt3Au
_symmetry_space_group_name_H-M   'P 1'
_cell_length_a   8.90375745
_cell_length_b   8.90375752
_cell_length_c   8.94647500
_cell_angle_alpha   127.93203616
_cell_angle_beta   127.93203650
_cell_angle_gamma   76.38766617
_symmetry_Int_Tables_number   1
_chemical_formula_structural   Yb10In2Pt3Au
_chemical_formula_sum   'Yb10 In2 Pt3 Au1'
_cell_volume   429.49448062
_cell_formula_units_Z   1
loop_
 _symmetry_equiv_pos_site_id
 _symmetry_equiv_pos_as_xyz
  1  'x, y, z'
loop_
 _atom_site_type_symbol
 _atom_site_label
 _atom_site_symmetry_multiplicity
 _atom_site_fract_x
 _atom_site_fract_y
 _atom_site_fract_z
 _atom_site_occupancy
  Yb  Yb0  1  0.502494  0.505102  0.007595  1
  Yb  Yb1  1  0.994898  0.997506  0.992405  1
  Yb  Yb2  1  0.537187  0.030670  0.838167  1
  Yb  Yb3  1  0.199021  0.692507  0.161833  1
  Yb  Yb4  1  0.024701  0.205945  0.500000  1
  Yb  Yb5  1  0.701010  0.533799  0.500000  1
  Yb  Yb6  1  0.469330  0.962813  0.161833  1
  Yb  Yb7  1  0.807493  0.300979  0.838167  1
  Yb  Yb8  1  0.966201  0.798990  0.500000  1
  Yb  Yb9  1  0.294055  0.475299  0.500000  1
  In  In10  1  0.252129  0.247871  0.000000  1
  In  In11  1  0.752129  0.747871  0.000000  1
  Pt  Pt12  1  0.133187  0.633243  0.766433  1
  Pt  Pt13  1  0.866757  0.366813  0.233567  1
  Pt  Pt14  1  0.630657  0.869343  0.500000  1
  Au  Au15  1  0.368750  0.131250  0.500000  1
