# generated using pymatgen
data_SrPrB4Ir5
_symmetry_space_group_name_H-M   'P 1'
_cell_length_a   7.61585823
_cell_length_b   6.34852855
_cell_length_c   5.76680570
_cell_angle_alpha   77.73189290
_cell_angle_beta   54.54361931
_cell_angle_gamma   47.72448043
_symmetry_Int_Tables_number   1
_chemical_formula_structural   SrPrB4Ir5
_chemical_formula_sum   'Sr1 Pr1 B4 Ir5'
_cell_volume   160.57481920
_cell_formula_units_Z   1
loop_
 _symmetry_equiv_pos_site_id
 _symmetry_equiv_pos_as_xyz
  1  'x, y, z'
loop_
 _atom_site_type_symbol
 _atom_site_label
 _atom_site_symmetry_multiplicity
 _atom_site_fract_x
 _atom_site_fract_y
 _atom_site_fract_z
 _atom_site_occupancy
  Sr  Sr0  1  0.144387  0.144387  0.855613  1
  Pr  Pr1  1  0.859883  0.859883  0.140117  1
  B  B2  1  0.790294  0.468836  0.531164  1
  B  B3  1  0.208293  0.531165  0.468835  1
  B  B4  1  0.531165  0.208293  0.791707  1
  B  B5  1  0.468836  0.790294  0.209706  1
  Ir  Ir6  1  0.497369  0.497369  0.502631  1
  Ir  Ir7  1  0.500170  0.500170  0.999830  1
  Ir  Ir8  1  0.000170  0.000170  0.499830  1
  Ir  Ir9  1  0.749716  0.749716  0.750284  1
  Ir  Ir10  1  0.249716  0.249716  0.250284  1
