# generated using pymatgen
data_MnAlCuS4
_symmetry_space_group_name_H-M   'P 1'
_cell_length_a   6.96412888
_cell_length_b   6.99275802
_cell_length_c   6.97266380
_cell_angle_alpha   59.54964301
_cell_angle_beta   60.03986417
_cell_angle_gamma   60.13802406
_symmetry_Int_Tables_number   1
_chemical_formula_structural   MnAlCuS4
_chemical_formula_sum   'Mn2 Al2 Cu2 S8'
_cell_volume   239.59460099
_cell_formula_units_Z   2
loop_
 _symmetry_equiv_pos_site_id
 _symmetry_equiv_pos_as_xyz
  1  'x, y, z'
loop_
 _atom_site_type_symbol
 _atom_site_label
 _atom_site_symmetry_multiplicity
 _atom_site_fract_x
 _atom_site_fract_y
 _atom_site_fract_z
 _atom_site_occupancy
  Mn  Mn0  1  0.499986  0.499934  0.000107  1
  Mn  Mn1  1  0.500046  0.000155  0.499847  1
  Al  Al2  1  0.499996  0.499993  0.500002  1
  Al  Al3  1  0.999998  0.499996  0.500005  1
  Cu  Cu4  1  0.872476  0.878059  0.877007  1
  Cu  Cu5  1  0.127549  0.121879  0.122995  1
  S  S6  1  0.736706  0.745354  0.745480  1
  S  S7  1  0.261466  0.253492  0.723577  1
  S  S8  1  0.261453  0.723595  0.253486  1
  S  S9  1  0.727532  0.254637  0.254554  1
  S  S10  1  0.738536  0.276370  0.746549  1
  S  S11  1  0.272438  0.745385  0.745444  1
  S  S12  1  0.263282  0.254652  0.254534  1
  S  S13  1  0.738542  0.746495  0.276414  1
