# generated using pymatgen
data_LuSn5SbRu4
_symmetry_space_group_name_H-M   'P 1'
_cell_length_a   6.95367867
_cell_length_b   6.95367898
_cell_length_c   6.95367916
_cell_angle_alpha   120.53655091
_cell_angle_beta   121.35811906
_cell_angle_gamma   88.36837243
_symmetry_Int_Tables_number   1
_chemical_formula_structural   LuSn5SbRu4
_chemical_formula_sum   'Lu1 Sn5 Sb1 Ru4'
_cell_volume   234.23149912
_cell_formula_units_Z   1
loop_
 _symmetry_equiv_pos_site_id
 _symmetry_equiv_pos_as_xyz
  1  'x, y, z'
loop_
 _atom_site_type_symbol
 _atom_site_label
 _atom_site_symmetry_multiplicity
 _atom_site_fract_x
 _atom_site_fract_y
 _atom_site_fract_z
 _atom_site_occupancy
  Lu  Lu0  1  0.000000  0.000000  0.000000  1
  Sn  Sn1  1  0.463072  0.464782  0.345179  1
  Sn  Sn2  1  0.536928  0.882107  0.001710  1
  Sn  Sn3  1  0.880397  0.535218  0.998290  1
  Sn  Sn4  1  0.119603  0.117893  0.654821  1
  Sn  Sn5  1  0.500000  0.000000  0.500000  1
  Sb  Sb6  1  0.000000  0.500000  0.500000  1
  Ru  Ru7  1  0.397885  0.401633  0.647594  1
  Ru  Ru8  1  0.754039  0.750291  0.352406  1
  Ru  Ru9  1  0.245961  0.598367  0.996252  1
  Ru  Ru10  1  0.602115  0.249709  0.003748  1
