# generated using pymatgen
data_LaTm(ZnGe)2
_symmetry_space_group_name_H-M   'P 1'
_cell_length_a   4.29580900
_cell_length_b   4.29580949
_cell_length_c   16.08536700
_cell_angle_alpha   90.00000000
_cell_angle_beta   90.00000000
_cell_angle_gamma   120.00000393
_symmetry_Int_Tables_number   1
_chemical_formula_structural   LaTm(ZnGe)2
_chemical_formula_sum   'La2 Tm2 Zn4 Ge4'
_cell_volume   257.07009920
_cell_formula_units_Z   2
loop_
 _symmetry_equiv_pos_site_id
 _symmetry_equiv_pos_as_xyz
  1  'x, y, z'
loop_
 _atom_site_type_symbol
 _atom_site_label
 _atom_site_symmetry_multiplicity
 _atom_site_fract_x
 _atom_site_fract_y
 _atom_site_fract_z
 _atom_site_occupancy
  La  La0  1  0.000000  0.000000  0.000000  1
  La  La1  1  0.000000  0.000000  0.500000  1
  Tm  Tm2  1  0.000000  0.000000  0.250000  1
  Tm  Tm3  1  0.000000  0.000000  0.750000  1
  Zn  Zn4  1  0.333333  0.666667  0.156838  1
  Zn  Zn5  1  0.666667  0.333333  0.843162  1
  Zn  Zn6  1  0.666667  0.333333  0.656838  1
  Zn  Zn7  1  0.333333  0.666667  0.343162  1
  Ge  Ge8  1  0.333333  0.666667  0.619661  1
  Ge  Ge9  1  0.666667  0.333333  0.380339  1
  Ge  Ge10  1  0.666667  0.333333  0.119661  1
  Ge  Ge11  1  0.333333  0.666667  0.880339  1
