# generated using pymatgen
data_Sr6CuPd(RhO6)2
_symmetry_space_group_name_H-M   'P 1'
_cell_length_a   6.82386995
_cell_length_b   6.82386949
_cell_length_c   6.76840635
_cell_angle_alpha   89.39743696
_cell_angle_beta   89.39744027
_cell_angle_gamma   91.91283136
_symmetry_Int_Tables_number   1
_chemical_formula_structural   Sr6CuPd(RhO6)2
_chemical_formula_sum   'Sr6 Cu1 Pd1 Rh2 O12'
_cell_volume   314.96051447
_cell_formula_units_Z   1
loop_
 _symmetry_equiv_pos_site_id
 _symmetry_equiv_pos_as_xyz
  1  'x, y, z'
loop_
 _atom_site_type_symbol
 _atom_site_label
 _atom_site_symmetry_multiplicity
 _atom_site_fract_x
 _atom_site_fract_y
 _atom_site_fract_z
 _atom_site_occupancy
  Sr  Sr0  1  0.099773  0.900227  0.750000  1
  Sr  Sr1  1  0.902010  0.097990  0.250000  1
  Sr  Sr2  1  0.390622  0.240408  0.374425  1
  Sr  Sr3  1  0.759592  0.609378  0.125575  1
  Sr  Sr4  1  0.608621  0.760072  0.624598  1
  Sr  Sr5  1  0.239928  0.391379  0.875402  1
  Cu  Cu6  1  0.691765  0.308235  0.750000  1
  Pd  Pd7  1  0.317253  0.682747  0.250000  1
  Rh  Rh8  1  0.502445  0.004765  0.995855  1
  Rh  Rh9  1  0.995235  0.497555  0.504145  1
  O  O10  1  0.390527  0.723291  0.954808  1
  O  O11  1  0.276709  0.609473  0.545192  1
  O  O12  1  0.611672  0.283791  0.033034  1
  O  O13  1  0.716209  0.388328  0.466966  1
  O  O14  1  0.779674  0.923394  0.930970  1
  O  O15  1  0.076606  0.220326  0.569030  1
  O  O16  1  0.224008  0.081813  0.064399  1
  O  O17  1  0.918187  0.775992  0.435601  1
  O  O18  1  0.532032  0.900222  0.281364  1
  O  O19  1  0.099778  0.467968  0.218636  1
  O  O20  1  0.890657  0.523303  0.786039  1
  O  O21  1  0.476697  0.109343  0.713961  1
