# generated using pymatgen
data_La2Eu4SbWO14
_symmetry_space_group_name_H-M   'P 1'
_cell_length_a   6.66994537
_cell_length_b   6.66994444
_cell_length_c   7.77634441
_cell_angle_alpha   90.34575449
_cell_angle_beta   89.65424476
_cell_angle_gamma   110.22774976
_symmetry_Int_Tables_number   1
_chemical_formula_structural   La2Eu4SbWO14
_chemical_formula_sum   'La2 Eu4 Sb1 W1 O14'
_cell_volume   324.60995025
_cell_formula_units_Z   1
loop_
 _symmetry_equiv_pos_site_id
 _symmetry_equiv_pos_as_xyz
  1  'x, y, z'
loop_
 _atom_site_type_symbol
 _atom_site_label
 _atom_site_symmetry_multiplicity
 _atom_site_fract_x
 _atom_site_fract_y
 _atom_site_fract_z
 _atom_site_occupancy
  La  La0  1  0.500000  0.500000  0.500000  1
  La  La1  1  0.500000  0.500000  0.000000  1
  Eu  Eu2  1  0.529127  0.999349  0.752755  1
  Eu  Eu3  1  0.999349  0.529127  0.247245  1
  Eu  Eu4  1  0.470873  0.000651  0.247245  1
  Eu  Eu5  1  0.000651  0.470873  0.752755  1
  Sb  Sb6  1  0.000000  0.000000  0.000000  1
  W  W7  1  0.000000  0.000000  0.500000  1
  O  O8  1  0.694703  0.935383  0.469025  1
  O  O9  1  0.935383  0.694703  0.530975  1
  O  O10  1  0.685223  0.931524  0.024889  1
  O  O11  1  0.931524  0.685223  0.975111  1
  O  O12  1  0.305297  0.064617  0.530975  1
  O  O13  1  0.064617  0.305297  0.469025  1
  O  O14  1  0.314777  0.068476  0.975111  1
  O  O15  1  0.068476  0.314777  0.024889  1
  O  O16  1  0.946412  0.053588  0.745083  1
  O  O17  1  0.053588  0.946412  0.254917  1
  O  O18  1  0.367729  0.632271  0.748522  1
  O  O19  1  0.632271  0.367729  0.251478  1
  O  O20  1  0.637815  0.362185  0.747277  1
  O  O21  1  0.362185  0.637815  0.252723  1
