# generated using pymatgen
data_Ca4In4IrAu3
_symmetry_space_group_name_H-M   'P 1'
_cell_length_a   4.48121300
_cell_length_b   7.47983543
_cell_length_c   8.62824548
_cell_angle_alpha   90.32805346
_cell_angle_beta   90.00000000
_cell_angle_gamma   90.00000000
_symmetry_Int_Tables_number   1
_chemical_formula_structural   Ca4In4IrAu3
_chemical_formula_sum   'Ca4 In4 Ir1 Au3'
_cell_volume   289.20313954
_cell_formula_units_Z   1
loop_
 _symmetry_equiv_pos_site_id
 _symmetry_equiv_pos_as_xyz
  1  'x, y, z'
loop_
 _atom_site_type_symbol
 _atom_site_label
 _atom_site_symmetry_multiplicity
 _atom_site_fract_x
 _atom_site_fract_y
 _atom_site_fract_z
 _atom_site_occupancy
  Ca  Ca0  1  0.750000  0.967574  0.690605  1
  Ca  Ca1  1  0.250000  0.023234  0.313731  1
  Ca  Ca2  1  0.750000  0.483821  0.821611  1
  Ca  Ca3  1  0.250000  0.533371  0.173103  1
  In  In4  1  0.750000  0.346624  0.434735  1
  In  In5  1  0.250000  0.142353  0.933986  1
  In  In6  1  0.250000  0.658850  0.575713  1
  In  In7  1  0.750000  0.840684  0.056838  1
  Ir  Ir8  1  0.250000  0.770015  0.879831  1
  Au  Au9  1  0.250000  0.265975  0.622525  1
  Au  Au10  1  0.750000  0.732584  0.376338  1
  Au  Au11  1  0.750000  0.234916  0.120986  1
