# generated using pymatgen
data_Mg2SbPt5
_symmetry_space_group_name_H-M   'P 1'
_cell_length_a   4.09416500
_cell_length_b   5.79110100
_cell_length_c   11.09867000
_cell_angle_alpha   90.00000000
_cell_angle_beta   90.00000000
_cell_angle_gamma   90.00000000
_symmetry_Int_Tables_number   1
_chemical_formula_structural   Mg2SbPt5
_chemical_formula_sum   'Mg4 Sb2 Pt10'
_cell_volume   263.14639165
_cell_formula_units_Z   2
loop_
 _symmetry_equiv_pos_site_id
 _symmetry_equiv_pos_as_xyz
  1  'x, y, z'
loop_
 _atom_site_type_symbol
 _atom_site_label
 _atom_site_symmetry_multiplicity
 _atom_site_fract_x
 _atom_site_fract_y
 _atom_site_fract_z
 _atom_site_occupancy
  Mg  Mg0  1  0.500000  0.188605  0.140682  1
  Mg  Mg1  1  0.500000  0.811395  0.859318  1
  Mg  Mg2  1  0.500000  0.311395  0.640682  1
  Mg  Mg3  1  0.500000  0.688605  0.359318  1
  Sb  Sb4  1  0.000000  0.000000  0.500000  1
  Sb  Sb5  1  0.000000  0.500000  0.000000  1
  Pt  Pt6  1  0.500000  0.222012  0.386258  1
  Pt  Pt7  1  0.500000  0.777988  0.613742  1
  Pt  Pt8  1  0.500000  0.277988  0.886258  1
  Pt  Pt9  1  0.500000  0.722012  0.113742  1
  Pt  Pt10  1  0.000000  0.451678  0.244949  1
  Pt  Pt11  1  0.000000  0.548322  0.755051  1
  Pt  Pt12  1  0.000000  0.048322  0.744949  1
  Pt  Pt13  1  0.000000  0.951678  0.255051  1
  Pt  Pt14  1  0.000000  0.000000  0.000000  1
  Pt  Pt15  1  0.000000  0.500000  0.500000  1
