# generated using pymatgen
data_K5Rb3Sb4S4(O4F3)4
_symmetry_space_group_name_H-M   'P 1'
_cell_length_a   5.72812000
_cell_length_b   9.29199100
_cell_length_c   14.35654900
_cell_angle_alpha   90.00000000
_cell_angle_beta   90.00000000
_cell_angle_gamma   90.00000000
_symmetry_Int_Tables_number   1
_chemical_formula_structural   K5Rb3Sb4S4(O4F3)4
_chemical_formula_sum   'K5 Rb3 Sb4 S4 O16 F12'
_cell_volume   764.13650135
_cell_formula_units_Z   1
loop_
 _symmetry_equiv_pos_site_id
 _symmetry_equiv_pos_as_xyz
  1  'x, y, z'
loop_
 _atom_site_type_symbol
 _atom_site_label
 _atom_site_symmetry_multiplicity
 _atom_site_fract_x
 _atom_site_fract_y
 _atom_site_fract_z
 _atom_site_occupancy
  K  K0  1  0.504550  0.996551  0.308806  1
  K  K1  1  0.005523  0.505512  0.691376  1
  K  K2  1  0.479636  0.685520  0.887851  1
  K  K3  1  0.995928  0.005680  0.808060  1
  K  K4  1  0.523538  0.183781  0.610062  1
  Rb  Rb5  1  0.974993  0.817125  0.114773  1
  Rb  Rb6  1  0.024301  0.317877  0.386489  1
  Rb  Rb7  1  0.494437  0.492125  0.190310  1
  Sb  Sb8  1  0.468339  0.058900  0.018130  1
  Sb  Sb9  1  0.969220  0.439879  0.972793  1
  Sb  Sb10  1  0.034668  0.940907  0.523979  1
  Sb  Sb11  1  0.529871  0.559908  0.484312  1
  S  S12  1  0.966131  0.710545  0.345847  1
  S  S13  1  0.524700  0.292359  0.837997  1
  S  S14  1  0.475437  0.793237  0.662409  1
  S  S15  1  0.030051  0.204698  0.155234  1
  O  O16  1  0.353790  0.372684  0.782194  1
  O  O17  1  0.582655  0.649666  0.633975  1
  O  O18  1  0.077012  0.124419  0.065189  1
  O  O19  1  0.920156  0.630687  0.436130  1
  O  O20  1  0.940655  0.353038  0.128883  1
  O  O21  1  0.743339  0.265421  0.785859  1
  O  O22  1  0.646281  0.872585  0.718812  1
  O  O23  1  0.577782  0.374767  0.926798  1
  O  O24  1  0.129420  0.627616  0.287840  1
  O  O25  1  0.425010  0.875419  0.573505  1
  O  O26  1  0.743084  0.737816  0.296923  1
  O  O27  1  0.255994  0.766611  0.714052  1
  O  O28  1  0.416899  0.149504  0.866888  1
  O  O29  1  0.849219  0.128954  0.209059  1
  O  O30  1  0.249743  0.219229  0.208783  1
  O  O31  1  0.079625  0.853096  0.371505  1
  F  F32  1  0.537930  0.407047  0.380543  1
  F  F33  1  0.746883  0.421472  0.544427  1
  F  F34  1  0.712212  0.929373  0.958477  1
  F  F35  1  0.047895  0.092640  0.627197  1
  F  F36  1  0.254323  0.919627  0.957065  1
  F  F37  1  0.786228  0.068986  0.465576  1
  F  F38  1  0.952133  0.588966  0.868843  1
  F  F39  1  0.287038  0.429952  0.544054  1
  F  F40  1  0.252020  0.077369  0.461974  1
  F  F41  1  0.754950  0.577402  0.034988  1
  F  F42  1  0.460947  0.909300  0.123558  1
  F  F43  1  0.215450  0.571750  0.028474  1
