# generated using pymatgen
data_Li7U2N6
_symmetry_space_group_name_H-M   'P 1'
_cell_length_a   5.91774700
_cell_length_b   5.91774618
_cell_length_c   5.41725400
_cell_angle_alpha   90.00000000
_cell_angle_beta   90.00000000
_cell_angle_gamma   120.00001017
_symmetry_Int_Tables_number   1
_chemical_formula_structural   Li7U2N6
_chemical_formula_sum   'Li7 U2 N6'
_cell_volume   164.29430661
_cell_formula_units_Z   1
loop_
 _symmetry_equiv_pos_site_id
 _symmetry_equiv_pos_as_xyz
  1  'x, y, z'
loop_
 _atom_site_type_symbol
 _atom_site_label
 _atom_site_symmetry_multiplicity
 _atom_site_fract_x
 _atom_site_fract_y
 _atom_site_fract_z
 _atom_site_occupancy
  Li  Li0  1  0.003379  0.662771  0.615828  1
  Li  Li1  1  0.337229  0.340608  0.615828  1
  Li  Li2  1  0.659392  0.996621  0.615828  1
  Li  Li3  1  0.017963  0.347832  0.382581  1
  Li  Li4  1  0.652168  0.670132  0.382581  1
  Li  Li5  1  0.329868  0.982037  0.382581  1
  Li  Li6  1  0.333333  0.666667  0.989298  1
  U  U7  1  0.000000  0.000000  0.000532  1
  U  U8  1  0.666667  0.333333  0.003505  1
  N  N9  1  0.969245  0.666875  0.226359  1
  N  N10  1  0.333125  0.302369  0.226359  1
  N  N11  1  0.697631  0.030755  0.226359  1
  N  N12  1  0.972323  0.306122  0.777455  1
  N  N13  1  0.693878  0.666201  0.777455  1
  N  N14  1  0.333799  0.027677  0.777455  1
