# generated using pymatgen
data_Ac6Si7Cl3
_symmetry_space_group_name_H-M   'P 1'
_cell_length_a   4.29315100
_cell_length_b   11.94104400
_cell_length_c   17.47320900
_cell_angle_alpha   90.00000000
_cell_angle_beta   90.00000000
_cell_angle_gamma   90.00000000
_symmetry_Int_Tables_number   1
_chemical_formula_structural   Ac6Si7Cl3
_chemical_formula_sum   'Ac12 Si14 Cl6'
_cell_volume   895.75890461
_cell_formula_units_Z   2
loop_
 _symmetry_equiv_pos_site_id
 _symmetry_equiv_pos_as_xyz
  1  'x, y, z'
loop_
 _atom_site_type_symbol
 _atom_site_label
 _atom_site_symmetry_multiplicity
 _atom_site_fract_x
 _atom_site_fract_y
 _atom_site_fract_z
 _atom_site_occupancy
  Ac  Ac0  1  0.500000  0.337955  0.500000  1
  Ac  Ac1  1  0.000000  0.662045  0.000000  1
  Ac  Ac2  1  0.500000  0.353839  0.755162  1
  Ac  Ac3  1  0.000000  0.646161  0.744838  1
  Ac  Ac4  1  0.500000  0.353839  0.244838  1
  Ac  Ac5  1  0.000000  0.646161  0.255162  1
  Ac  Ac6  1  0.500000  0.056113  0.879411  1
  Ac  Ac7  1  0.000000  0.943887  0.620589  1
  Ac  Ac8  1  0.500000  0.056113  0.120589  1
  Ac  Ac9  1  0.000000  0.943887  0.379411  1
  Ac  Ac10  1  0.500000  0.356662  0.000000  1
  Ac  Ac11  1  0.000000  0.643338  0.500000  1
  Si  Si12  1  0.000000  0.148076  0.000000  1
  Si  Si13  1  0.500000  0.851924  0.500000  1
  Si  Si14  1  0.500000  0.564585  0.877515  1
  Si  Si15  1  0.000000  0.435415  0.622485  1
  Si  Si16  1  0.500000  0.564585  0.122485  1
  Si  Si17  1  0.000000  0.435415  0.377515  1
  Si  Si18  1  0.000000  0.252541  0.877586  1
  Si  Si19  1  0.500000  0.747459  0.622414  1
  Si  Si20  1  0.000000  0.252541  0.122414  1
  Si  Si21  1  0.500000  0.747459  0.377586  1
  Si  Si22  1  0.000000  0.458106  0.875189  1
  Si  Si23  1  0.500000  0.541894  0.624811  1
  Si  Si24  1  0.500000  0.541894  0.375189  1
  Si  Si25  1  0.000000  0.458106  0.124811  1
  Cl  Cl26  1  0.500000  0.102997  0.695712  1
  Cl  Cl27  1  0.000000  0.897003  0.804288  1
  Cl  Cl28  1  0.000000  0.136982  0.500000  1
  Cl  Cl29  1  0.500000  0.863018  0.000000  1
  Cl  Cl30  1  0.500000  0.102997  0.304288  1
  Cl  Cl31  1  0.000000  0.897003  0.195712  1
