# generated using pymatgen
data_Ba2Dy2YBiS8
_symmetry_space_group_name_H-M   'P 1'
_cell_length_a   4.07211900
_cell_length_b   12.37267300
_cell_length_c   14.67593200
_cell_angle_alpha   90.00000000
_cell_angle_beta   90.00000000
_cell_angle_gamma   90.00000000
_symmetry_Int_Tables_number   1
_chemical_formula_structural   Ba2Dy2YBiS8
_chemical_formula_sum   'Ba4 Dy4 Y2 Bi2 S16'
_cell_volume   739.41743505
_cell_formula_units_Z   2
loop_
 _symmetry_equiv_pos_site_id
 _symmetry_equiv_pos_as_xyz
  1  'x, y, z'
loop_
 _atom_site_type_symbol
 _atom_site_label
 _atom_site_symmetry_multiplicity
 _atom_site_fract_x
 _atom_site_fract_y
 _atom_site_fract_z
 _atom_site_occupancy
  Ba  Ba0  1  0.250000  0.760379  0.337066  1
  Ba  Ba1  1  0.250000  0.260379  0.162934  1
  Ba  Ba2  1  0.750000  0.240206  0.662605  1
  Ba  Ba3  1  0.750000  0.740206  0.837395  1
  Dy  Dy4  1  0.750000  0.565691  0.611044  1
  Dy  Dy5  1  0.750000  0.065691  0.888956  1
  Dy  Dy6  1  0.750000  0.578558  0.099343  1
  Dy  Dy7  1  0.750000  0.078558  0.400657  1
  Y  Y8  1  0.250000  0.419783  0.898603  1
  Y  Y9  1  0.250000  0.919783  0.601397  1
  Bi  Bi10  1  0.250000  0.435289  0.390763  1
  Bi  Bi11  1  0.250000  0.935289  0.109237  1
  S  S12  1  0.250000  0.205689  0.836374  1
  S  S13  1  0.250000  0.705689  0.663626  1
  S  S14  1  0.750000  0.788092  0.166143  1
  S  S15  1  0.750000  0.288092  0.333857  1
  S  S16  1  0.250000  0.122784  0.524720  1
  S  S17  1  0.250000  0.622784  0.975280  1
  S  S18  1  0.750000  0.876406  0.476851  1
  S  S19  1  0.750000  0.376406  0.023149  1
  S  S20  1  0.250000  0.525076  0.213003  1
  S  S21  1  0.250000  0.025076  0.286997  1
  S  S22  1  0.750000  0.475485  0.783679  1
  S  S23  1  0.750000  0.975485  0.716321  1
  S  S24  1  0.250000  0.418579  0.580698  1
  S  S25  1  0.250000  0.918579  0.919302  1
  S  S26  1  0.750000  0.587984  0.426840  1
  S  S27  1  0.750000  0.087984  0.073160  1
