# generated using pymatgen
data_Pr2NdZn4Cl
_symmetry_space_group_name_H-M   'P 1'
_cell_length_a   7.93262989
_cell_length_b   7.93263081
_cell_length_c   7.93263000
_cell_angle_alpha   119.25091960
_cell_angle_beta   119.25091505
_cell_angle_gamma   91.30241857
_symmetry_Int_Tables_number   1
_chemical_formula_structural   Pr2NdZn4Cl
_chemical_formula_sum   'Pr4 Nd2 Zn8 Cl2'
_cell_volume   356.86572492
_cell_formula_units_Z   2
loop_
 _symmetry_equiv_pos_site_id
 _symmetry_equiv_pos_as_xyz
  1  'x, y, z'
loop_
 _atom_site_type_symbol
 _atom_site_label
 _atom_site_symmetry_multiplicity
 _atom_site_fract_x
 _atom_site_fract_y
 _atom_site_fract_z
 _atom_site_occupancy
  Pr  Pr0  1  0.840584  0.659416  0.500000  1
  Pr  Pr1  1  0.659416  0.159416  0.818832  1
  Pr  Pr2  1  0.340584  0.840584  0.181168  1
  Pr  Pr3  1  0.159416  0.340584  0.500000  1
  Nd  Nd4  1  0.250000  0.250000  0.000000  1
  Nd  Nd5  1  0.750000  0.750000  0.000000  1
  Zn  Zn6  1  0.159726  0.943169  0.500000  1
  Zn  Zn7  1  0.443169  0.659726  0.500000  1
  Zn  Zn8  1  0.556831  0.340274  0.500000  1
  Zn  Zn9  1  0.659726  0.159726  0.216557  1
  Zn  Zn10  1  0.840274  0.056831  0.500000  1
  Zn  Zn11  1  0.056831  0.556831  0.216557  1
  Zn  Zn12  1  0.340274  0.840274  0.783443  1
  Zn  Zn13  1  0.943169  0.443169  0.783443  1
  Cl  Cl14  1  0.000000  0.000000  0.000000  1
  Cl  Cl15  1  0.500000  0.500000  0.000000  1
