# generated using pymatgen
data_Pr2B4OsRh4
_symmetry_space_group_name_H-M   'P 1'
_cell_length_a   7.60103449
_cell_length_b   6.38406894
_cell_length_c   5.70281196
_cell_angle_alpha   77.70722848
_cell_angle_beta   55.14873279
_cell_angle_gamma   47.14404564
_symmetry_Int_Tables_number   1
_chemical_formula_structural   Pr2B4OsRh4
_chemical_formula_sum   'Pr2 B4 Os1 Rh4'
_cell_volume   159.21267985
_cell_formula_units_Z   1
loop_
 _symmetry_equiv_pos_site_id
 _symmetry_equiv_pos_as_xyz
  1  'x, y, z'
loop_
 _atom_site_type_symbol
 _atom_site_label
 _atom_site_symmetry_multiplicity
 _atom_site_fract_x
 _atom_site_fract_y
 _atom_site_fract_z
 _atom_site_occupancy
  Pr  Pr0  1  0.857127  0.857127  0.142873  1
  Pr  Pr1  1  0.142873  0.142873  0.857127  1
  B  B2  1  0.198512  0.538034  0.478923  1
  B  B3  1  0.784532  0.478923  0.538034  1
  B  B4  1  0.538034  0.198512  0.784532  1
  B  B5  1  0.478923  0.784532  0.198512  1
  Os  Os6  1  0.750000  0.750000  0.750000  1
  Rh  Rh7  1  0.498206  0.498206  0.001794  1
  Rh  Rh8  1  0.250000  0.250000  0.250000  1
  Rh  Rh9  1  0.001794  0.001794  0.498206  1
  Rh  Rh10  1  0.500000  0.500000  0.500000  1
