# generated using pymatgen
data_Dy20(Ga3Bi)3
_symmetry_space_group_name_H-M   'P 1'
_cell_length_a   8.19553100
_cell_length_b   8.19553100
_cell_length_c   12.67846500
_cell_angle_alpha   90.00000000
_cell_angle_beta   90.00000000
_cell_angle_gamma   90.00000000
_symmetry_Int_Tables_number   1
_chemical_formula_structural   Dy20(Ga3Bi)3
_chemical_formula_sum   'Dy20 Ga9 Bi3'
_cell_volume   851.57101483
_cell_formula_units_Z   1
loop_
 _symmetry_equiv_pos_site_id
 _symmetry_equiv_pos_as_xyz
  1  'x, y, z'
loop_
 _atom_site_type_symbol
 _atom_site_label
 _atom_site_symmetry_multiplicity
 _atom_site_fract_x
 _atom_site_fract_y
 _atom_site_fract_z
 _atom_site_occupancy
  Dy  Dy0  1  0.658217  0.146894  0.105704  1
  Dy  Dy1  1  0.149396  0.653551  0.608133  1
  Dy  Dy2  1  0.341783  0.853106  0.105704  1
  Dy  Dy3  1  0.850604  0.346449  0.608133  1
  Dy  Dy4  1  0.853106  0.658217  0.105704  1
  Dy  Dy5  1  0.346449  0.149396  0.608133  1
  Dy  Dy6  1  0.146894  0.341783  0.105704  1
  Dy  Dy7  1  0.653551  0.850604  0.608133  1
  Dy  Dy8  1  0.853106  0.341783  0.894296  1
  Dy  Dy9  1  0.346449  0.850604  0.391867  1
  Dy  Dy10  1  0.146894  0.658217  0.894296  1
  Dy  Dy11  1  0.653551  0.149396  0.391867  1
  Dy  Dy12  1  0.658217  0.853106  0.894296  1
  Dy  Dy13  1  0.149396  0.346449  0.391867  1
  Dy  Dy14  1  0.341783  0.146894  0.894296  1
  Dy  Dy15  1  0.850604  0.653551  0.391867  1
  Dy  Dy16  1  0.500000  0.500000  0.750572  1
  Dy  Dy17  1  0.000000  0.000000  0.235331  1
  Dy  Dy18  1  0.000000  0.000000  0.764669  1
  Dy  Dy19  1  0.500000  0.500000  0.249428  1
  Ga  Ga20  1  0.648594  0.151051  0.750538  1
  Ga  Ga21  1  0.151051  0.648594  0.249462  1
  Ga  Ga22  1  0.848949  0.351406  0.249462  1
  Ga  Ga23  1  0.351406  0.848949  0.750538  1
  Ga  Ga24  1  0.848949  0.648594  0.750538  1
  Ga  Ga25  1  0.351406  0.151051  0.249462  1
  Ga  Ga26  1  0.151051  0.351406  0.750538  1
  Ga  Ga27  1  0.648594  0.848949  0.249462  1
  Ga  Ga28  1  0.000000  0.000000  0.000000  1
  Bi  Bi29  1  0.500000  0.500000  0.500000  1
  Bi  Bi30  1  0.500000  0.500000  0.000000  1
  Bi  Bi31  1  0.000000  0.000000  0.500000  1
