# generated using pymatgen
data_Er6Lu4In8IrPt3
_symmetry_space_group_name_H-M   'P 1'
_cell_length_a   3.60064700
_cell_length_b   8.07979162
_cell_length_c   18.06277401
_cell_angle_alpha   89.97990091
_cell_angle_beta   90.00000000
_cell_angle_gamma   90.00000000
_symmetry_Int_Tables_number   1
_chemical_formula_structural   Er6Lu4In8IrPt3
_chemical_formula_sum   'Er6 Lu4 In8 Ir1 Pt3'
_cell_volume   525.49081337
_cell_formula_units_Z   1
loop_
 _symmetry_equiv_pos_site_id
 _symmetry_equiv_pos_as_xyz
  1  'x, y, z'
loop_
 _atom_site_type_symbol
 _atom_site_label
 _atom_site_symmetry_multiplicity
 _atom_site_fract_x
 _atom_site_fract_y
 _atom_site_fract_z
 _atom_site_occupancy
  Er  Er0  1  0.000000  0.237503  0.221871  1
  Er  Er1  1  0.000000  0.757526  0.779518  1
  Er  Er2  1  0.000000  0.257154  0.720912  1
  Er  Er3  1  0.000000  0.749968  0.279511  1
  Er  Er4  1  0.000000  0.999887  0.000161  1
  Er  Er5  1  0.000000  0.500630  0.499622  1
  Lu  Lu6  1  0.000000  0.114879  0.412134  1
  Lu  Lu7  1  0.000000  0.883353  0.585720  1
  Lu  Lu8  1  0.000000  0.383656  0.914313  1
  Lu  Lu9  1  0.000000  0.616595  0.086554  1
  In  In10  1  0.500000  0.422070  0.351370  1
  In  In11  1  0.500000  0.577311  0.648405  1
  In  In12  1  0.500000  0.077388  0.851826  1
  In  In13  1  0.500000  0.925127  0.148990  1
  In  In14  1  0.500000  0.293392  0.065943  1
  In  In15  1  0.500000  0.706638  0.934053  1
  In  In16  1  0.500000  0.206847  0.566022  1
  In  In17  1  0.500000  0.794277  0.432737  1
  Ir  Ir18  1  0.500000  0.022639  0.304629  1
  Pt  Pt19  1  0.500000  0.974673  0.695633  1
  Pt  Pt20  1  0.500000  0.474809  0.804512  1
  Pt  Pt21  1  0.500000  0.523682  0.195563  1
