# generated using pymatgen
data_Cs2Tb(TeO4)3
_symmetry_space_group_name_H-M   'P 1'
_cell_length_a   7.67561019
_cell_length_b   7.67557567
_cell_length_c   7.67356307
_cell_angle_alpha   58.06545777
_cell_angle_beta   58.06363739
_cell_angle_gamma   58.05714880
_symmetry_Int_Tables_number   1
_chemical_formula_structural   Cs2Tb(TeO4)3
_chemical_formula_sum   'Cs2 Tb1 Te3 O12'
_cell_volume   305.46712017
_cell_formula_units_Z   1
loop_
 _symmetry_equiv_pos_site_id
 _symmetry_equiv_pos_as_xyz
  1  'x, y, z'
loop_
 _atom_site_type_symbol
 _atom_site_label
 _atom_site_symmetry_multiplicity
 _atom_site_fract_x
 _atom_site_fract_y
 _atom_site_fract_z
 _atom_site_occupancy
  Cs  Cs0  1  0.117397  0.132682  0.622120  1
  Cs  Cs1  1  0.867308  0.882611  0.377884  1
  Tb  Tb2  1  0.497049  0.502951  0.000000  1
  Te  Te3  1  0.497962  0.002292  0.000104  1
  Te  Te4  1  0.997709  0.502040  0.999891  1
  Te  Te5  1  0.497808  0.502190  0.500001  1
  O  O6  1  0.813152  0.817216  0.920153  1
  O  O7  1  0.425590  0.428505  0.353369  1
  O  O8  1  0.425607  0.855857  0.926216  1
  O  O9  1  0.812853  0.421678  0.314889  1
  O  O10  1  0.850878  0.429293  0.926964  1
  O  O11  1  0.418425  0.817172  0.315108  1
  O  O12  1  0.182776  0.186857  0.079847  1
  O  O13  1  0.571497  0.574407  0.646632  1
  O  O14  1  0.570707  0.149121  0.073036  1
  O  O15  1  0.182822  0.581579  0.684892  1
  O  O16  1  0.144144  0.574393  0.073786  1
  O  O17  1  0.578317  0.187155  0.685109  1
