# generated using pymatgen
data_Cs7RbV6(MoN8)2
_symmetry_space_group_name_H-M   'P 1'
_cell_length_a   5.98949162
_cell_length_b   8.50136200
_cell_length_c   11.99540423
_cell_angle_alpha   90.00000000
_cell_angle_beta   90.05188901
_cell_angle_gamma   90.00000000
_symmetry_Int_Tables_number   1
_chemical_formula_structural   Cs7RbV6(MoN8)2
_chemical_formula_sum   'Cs7 Rb1 V6 Mo2 N16'
_cell_volume   610.79177514
_cell_formula_units_Z   1
loop_
 _symmetry_equiv_pos_site_id
 _symmetry_equiv_pos_as_xyz
  1  'x, y, z'
loop_
 _atom_site_type_symbol
 _atom_site_label
 _atom_site_symmetry_multiplicity
 _atom_site_fract_x
 _atom_site_fract_y
 _atom_site_fract_z
 _atom_site_occupancy
  Cs  Cs0  1  0.750000  0.123637  0.000000  1
  Cs  Cs1  1  0.250000  0.870561  0.500000  1
  Cs  Cs2  1  0.750000  0.112504  0.500000  1
  Cs  Cs3  1  0.736746  0.370870  0.256360  1
  Cs  Cs4  1  0.236924  0.632014  0.240634  1
  Cs  Cs5  1  0.263076  0.632014  0.759366  1
  Cs  Cs6  1  0.763254  0.370870  0.743640  1
  Rb  Rb7  1  0.250000  0.893625  0.000000  1
  V  V8  1  0.250000  0.364493  0.000000  1
  V  V9  1  0.750000  0.635134  0.500000  1
  V  V10  1  0.240954  0.120853  0.247861  1
  V  V11  1  0.740929  0.878408  0.251463  1
  V  V12  1  0.759071  0.878408  0.748537  1
  V  V13  1  0.259046  0.120853  0.752139  1
  Mo  Mo14  1  0.750000  0.622758  0.000000  1
  Mo  Mo15  1  0.250000  0.377094  0.500000  1
  N  N16  1  0.985139  0.005822  0.249148  1
  N  N17  1  0.484208  0.992770  0.249040  1
  N  N18  1  0.015792  0.992770  0.750960  1
  N  N19  1  0.514861  0.005822  0.750852  1
  N  N20  1  0.248703  0.249776  0.371927  1
  N  N21  1  0.749000  0.750499  0.127368  1
  N  N22  1  0.751000  0.750499  0.872632  1
  N  N23  1  0.251297  0.249776  0.628073  1
  N  N24  1  0.751308  0.757297  0.623334  1
  N  N25  1  0.251344  0.241240  0.877363  1
  N  N26  1  0.248656  0.241240  0.122637  1
  N  N27  1  0.748692  0.757297  0.376666  1
  N  N28  1  0.502585  0.506857  0.499917  1
  N  N29  1  0.003348  0.493692  0.000023  1
  N  N30  1  0.496652  0.493692  0.999977  1
  N  N31  1  0.997415  0.506857  0.500083  1
