# generated using pymatgen
data_Nd4Ga10Ni5Rh
_symmetry_space_group_name_H-M   'P 1'
_cell_length_a   8.48531038
_cell_length_b   8.48531083
_cell_length_c   5.66812570
_cell_angle_alpha   70.48191816
_cell_angle_beta   70.48190982
_cell_angle_gamma   94.71539343
_symmetry_Int_Tables_number   1
_chemical_formula_structural   Nd4Ga10Ni5Rh
_chemical_formula_sum   'Nd4 Ga10 Ni5 Rh1'
_cell_volume   353.81750363
_cell_formula_units_Z   1
loop_
 _symmetry_equiv_pos_site_id
 _symmetry_equiv_pos_as_xyz
  1  'x, y, z'
loop_
 _atom_site_type_symbol
 _atom_site_label
 _atom_site_symmetry_multiplicity
 _atom_site_fract_x
 _atom_site_fract_y
 _atom_site_fract_z
 _atom_site_occupancy
  Nd  Nd0  1  0.863099  0.585337  0.773023  1
  Nd  Nd1  1  0.414663  0.136901  0.726977  1
  Nd  Nd2  1  0.137281  0.414843  0.220077  1
  Nd  Nd3  1  0.585157  0.862719  0.279923  1
  Ga  Ga4  1  0.075828  0.264146  0.824612  1
  Ga  Ga5  1  0.735854  0.924172  0.675388  1
  Ga  Ga6  1  0.924010  0.736037  0.164530  1
  Ga  Ga7  1  0.263963  0.075990  0.335470  1
  Ga  Ga8  1  0.212297  0.787703  0.750000  1
  Ga  Ga9  1  0.786952  0.213048  0.250000  1
  Ga  Ga10  1  0.500399  0.499601  0.750000  1
  Ga  Ga11  1  0.499693  0.500307  0.250000  1
  Ga  Ga12  1  0.787100  0.212900  0.750000  1
  Ga  Ga13  1  0.213656  0.786344  0.250000  1
  Ni  Ni14  1  0.264033  0.549358  0.593200  1
  Ni  Ni15  1  0.450642  0.735967  0.906800  1
  Ni  Ni16  1  0.736041  0.450469  0.404568  1
  Ni  Ni17  1  0.549531  0.263959  0.095432  1
  Ni  Ni18  1  0.999790  0.000210  0.750000  1
  Rh  Rh19  1  0.000012  0.999988  0.250000  1
