# generated using pymatgen
data_YEr19Si15Ir
_symmetry_space_group_name_H-M   'P 1'
_cell_length_a   7.37514953
_cell_length_b   7.62095436
_cell_length_c   14.46697847
_cell_angle_alpha   90.18175955
_cell_angle_beta   90.31361033
_cell_angle_gamma   90.20078428
_symmetry_Int_Tables_number   1
_chemical_formula_structural   YEr19Si15Ir
_chemical_formula_sum   'Y1 Er19 Si15 Ir1'
_cell_volume   813.10501834
_cell_formula_units_Z   1
loop_
 _symmetry_equiv_pos_site_id
 _symmetry_equiv_pos_as_xyz
  1  'x, y, z'
loop_
 _atom_site_type_symbol
 _atom_site_label
 _atom_site_symmetry_multiplicity
 _atom_site_fract_x
 _atom_site_fract_y
 _atom_site_fract_z
 _atom_site_occupancy
  Y  Y0  1  0.023687  0.819858  0.598730  1
  Er  Er1  1  0.526824  0.686120  0.596542  1
  Er  Er2  1  0.321038  0.818581  0.121755  1
  Er  Er3  1  0.816366  0.679419  0.122348  1
  Er  Er4  1  0.852971  0.506091  0.749130  1
  Er  Er5  1  0.470654  0.315664  0.099353  1
  Er  Er6  1  0.028887  0.817317  0.901641  1
  Er  Er7  1  0.472145  0.313049  0.402147  1
  Er  Er8  1  0.652135  0.011837  0.258138  1
  Er  Er9  1  0.530064  0.682677  0.900976  1
  Er  Er10  1  0.681146  0.179989  0.877282  1
  Er  Er11  1  0.179860  0.321923  0.624087  1
  Er  Er12  1  0.185334  0.323256  0.875841  1
  Er  Er13  1  0.814772  0.688146  0.382070  1
  Er  Er14  1  0.323777  0.825343  0.377751  1
  Er  Er15  1  0.352668  0.989923  0.747594  1
  Er  Er16  1  0.682926  0.166506  0.619288  1
  Er  Er17  1  0.145993  0.489898  0.252549  1
  Er  Er18  1  0.970916  0.181535  0.098215  1
  Er  Er19  1  0.968991  0.175108  0.401914  1
  Si  Si20  1  0.234387  0.628959  0.750977  1
  Si  Si21  1  0.343588  0.028895  0.540872  1
  Si  Si22  1  0.026992  0.892532  0.245613  1
  Si  Si23  1  0.734226  0.869204  0.752921  1
  Si  Si24  1  0.264548  0.127478  0.245870  1
  Si  Si25  1  0.852564  0.472471  0.542474  1
  Si  Si26  1  0.482580  0.394342  0.748912  1
  Si  Si27  1  0.147293  0.530772  0.461376  1
  Si  Si28  1  0.146965  0.527478  0.040288  1
  Si  Si29  1  0.978750  0.104512  0.752288  1
  Si  Si30  1  0.767338  0.375860  0.248340  1
  Si  Si31  1  0.351514  0.029876  0.959898  1
  Si  Si32  1  0.856246  0.471292  0.959012  1
  Si  Si33  1  0.646740  0.971300  0.039454  1
  Si  Si34  1  0.520605  0.601949  0.247827  1
  Ir  Ir35  1  0.644510  0.980838  0.456524  1
