# generated using pymatgen
data_YHo2(AgGe)3
_symmetry_space_group_name_H-M   'P 1'
_cell_length_a   7.19566221
_cell_length_b   7.19566213
_cell_length_c   4.18393900
_cell_angle_alpha   90.00000000
_cell_angle_beta   90.00000000
_cell_angle_gamma   120.02794086
_symmetry_Int_Tables_number   1
_chemical_formula_structural   YHo2(AgGe)3
_chemical_formula_sum   'Y1 Ho2 Ag3 Ge3'
_cell_volume   187.55781393
_cell_formula_units_Z   1
loop_
 _symmetry_equiv_pos_site_id
 _symmetry_equiv_pos_as_xyz
  1  'x, y, z'
loop_
 _atom_site_type_symbol
 _atom_site_label
 _atom_site_symmetry_multiplicity
 _atom_site_fract_x
 _atom_site_fract_y
 _atom_site_fract_z
 _atom_site_occupancy
  Y  Y0  1  0.414270  0.414270  0.000000  1
  Ho  Ho1  1  0.585886  0.000054  0.000000  1
  Ho  Ho2  1  0.000054  0.585886  0.000000  1
  Ag  Ag3  1  0.252781  0.999761  0.500000  1
  Ag  Ag4  1  0.999761  0.252781  0.500000  1
  Ag  Ag5  1  0.747500  0.747500  0.500000  1
  Ge  Ge6  1  0.333137  0.667287  0.500000  1
  Ge  Ge7  1  0.667287  0.333137  0.500000  1
  Ge  Ge8  1  0.999324  0.999324  0.000000  1
