# generated using pymatgen
data_Tb6Lu4Si5P
_symmetry_space_group_name_H-M   'P 1'
_cell_length_a   8.37663600
_cell_length_b   8.38065418
_cell_length_c   6.21694900
_cell_angle_alpha   90.00000000
_cell_angle_beta   90.00000000
_cell_angle_gamma   119.98414088
_symmetry_Int_Tables_number   1
_chemical_formula_structural   Tb6Lu4Si5P
_chemical_formula_sum   'Tb6 Lu4 Si5 P1'
_cell_volume   378.02879486
_cell_formula_units_Z   1
loop_
 _symmetry_equiv_pos_site_id
 _symmetry_equiv_pos_as_xyz
  1  'x, y, z'
loop_
 _atom_site_type_symbol
 _atom_site_label
 _atom_site_symmetry_multiplicity
 _atom_site_fract_x
 _atom_site_fract_y
 _atom_site_fract_z
 _atom_site_occupancy
  Tb  Tb0  1  0.000796  0.754992  0.750000  1
  Tb  Tb1  1  0.000601  0.245718  0.250000  1
  Tb  Tb2  1  0.754883  0.754282  0.250000  1
  Tb  Tb3  1  0.753375  0.000000  0.750000  1
  Tb  Tb4  1  0.245804  0.245008  0.750000  1
  Tb  Tb5  1  0.245796  0.000000  0.250000  1
  Lu  Lu6  1  0.333462  0.667103  0.499647  1
  Lu  Lu7  1  0.666360  0.332897  0.000353  1
  Lu  Lu8  1  0.666360  0.332897  0.499647  1
  Lu  Lu9  1  0.333462  0.667103  0.000353  1
  Si  Si10  1  0.395876  0.395498  0.250000  1
  Si  Si11  1  0.000378  0.604502  0.250000  1
  Si  Si12  1  0.999986  0.395549  0.750000  1
  Si  Si13  1  0.604437  0.604451  0.750000  1
  Si  Si14  1  0.605021  0.000000  0.250000  1
  P  P15  1  0.393404  0.000000  0.750000  1
