# generated using pymatgen
data_Y4Er4Si8Pd7Pt
_symmetry_space_group_name_H-M   'P 1'
_cell_length_a   4.32701100
_cell_length_b   7.48408209
_cell_length_c   13.89046416
_cell_angle_alpha   90.01759936
_cell_angle_beta   90.00000000
_cell_angle_gamma   90.00000000
_symmetry_Int_Tables_number   1
_chemical_formula_structural   Y4Er4Si8Pd7Pt
_chemical_formula_sum   'Y4 Er4 Si8 Pd7 Pt1'
_cell_volume   449.82467981
_cell_formula_units_Z   1
loop_
 _symmetry_equiv_pos_site_id
 _symmetry_equiv_pos_as_xyz
  1  'x, y, z'
loop_
 _atom_site_type_symbol
 _atom_site_label
 _atom_site_symmetry_multiplicity
 _atom_site_fract_x
 _atom_site_fract_y
 _atom_site_fract_z
 _atom_site_occupancy
  Y  Y0  1  0.000000  0.298534  0.999809  1
  Y  Y1  1  0.500000  0.702243  0.499827  1
  Y  Y2  1  0.000000  0.289069  0.500195  1
  Y  Y3  1  0.500000  0.710807  0.000007  1
  Er  Er4  1  0.000000  0.210792  0.249201  1
  Er  Er5  1  0.500000  0.789351  0.250832  1
  Er  Er6  1  0.000000  0.209499  0.750191  1
  Er  Er7  1  0.500000  0.789986  0.749171  1
  Si  Si8  1  0.000000  0.910679  0.593957  1
  Si  Si9  1  0.500000  0.090869  0.905649  1
  Si  Si10  1  0.000000  0.908402  0.404294  1
  Si  Si11  1  0.500000  0.090834  0.094741  1
  Si  Si12  1  0.000000  0.591694  0.144560  1
  Si  Si13  1  0.500000  0.408684  0.355499  1
  Si  Si14  1  0.000000  0.591705  0.855609  1
  Si  Si15  1  0.500000  0.407098  0.643898  1
  Pd  Pd16  1  0.000000  0.924380  0.890287  1
  Pd  Pd17  1  0.500000  0.075732  0.390436  1
  Pd  Pd18  1  0.000000  0.924403  0.110020  1
  Pd  Pd19  1  0.500000  0.420087  0.157795  1
  Pd  Pd20  1  0.000000  0.579831  0.342157  1
  Pd  Pd21  1  0.500000  0.420444  0.842316  1
  Pd  Pd22  1  0.000000  0.580222  0.657881  1
  Pt  Pt23  1  0.500000  0.074656  0.611667  1
