# generated using pymatgen
data_Y6Ho4Si5P
_symmetry_space_group_name_H-M   'P 1'
_cell_length_a   8.40697000
_cell_length_b   8.41256117
_cell_length_c   6.29464200
_cell_angle_alpha   90.00000000
_cell_angle_beta   90.00000000
_cell_angle_gamma   119.97801693
_symmetry_Int_Tables_number   1
_chemical_formula_structural   Y6Ho4Si5P
_chemical_formula_sum   'Y6 Ho4 Si5 P1'
_cell_volume   385.62533634
_cell_formula_units_Z   1
loop_
 _symmetry_equiv_pos_site_id
 _symmetry_equiv_pos_as_xyz
  1  'x, y, z'
loop_
 _atom_site_type_symbol
 _atom_site_label
 _atom_site_symmetry_multiplicity
 _atom_site_fract_x
 _atom_site_fract_y
 _atom_site_fract_z
 _atom_site_occupancy
  Y  Y0  1  0.000837  0.756594  0.750000  1
  Y  Y1  1  0.000977  0.244443  0.250000  1
  Y  Y2  1  0.756534  0.755557  0.250000  1
  Y  Y3  1  0.754819  0.000000  0.750000  1
  Y  Y4  1  0.244244  0.243406  0.750000  1
  Y  Y5  1  0.244001  0.000000  0.250000  1
  Ho  Ho6  1  0.333814  0.667556  0.500388  1
  Ho  Ho7  1  0.666258  0.332444  0.999612  1
  Ho  Ho8  1  0.666258  0.332444  0.500388  1
  Ho  Ho9  1  0.333814  0.667556  0.999612  1
  Si  Si10  1  0.394555  0.393886  0.250000  1
  Si  Si11  1  0.000669  0.606114  0.250000  1
  Si  Si12  1  0.000123  0.393865  0.750000  1
  Si  Si13  1  0.606258  0.606135  0.750000  1
  Si  Si14  1  0.606990  0.000000  0.250000  1
  P  P15  1  0.389847  0.000000  0.750000  1
