# generated using pymatgen
data_Be5Si2NiW4
_symmetry_space_group_name_H-M   'P 1'
_cell_length_a   4.53247788
_cell_length_b   4.56373332
_cell_length_c   7.56236900
_cell_angle_alpha   90.00000000
_cell_angle_beta   90.00000000
_cell_angle_gamma   120.22836390
_symmetry_Int_Tables_number   1
_chemical_formula_structural   Be5Si2NiW4
_chemical_formula_sum   'Be5 Si2 Ni1 W4'
_cell_volume   135.15759852
_cell_formula_units_Z   1
loop_
 _symmetry_equiv_pos_site_id
 _symmetry_equiv_pos_as_xyz
  1  'x, y, z'
loop_
 _atom_site_type_symbol
 _atom_site_label
 _atom_site_symmetry_multiplicity
 _atom_site_fract_x
 _atom_site_fract_y
 _atom_site_fract_z
 _atom_site_occupancy
  Be  Be0  1  0.824627  0.171506  0.250000  1
  Be  Be1  1  0.824627  0.653121  0.250000  1
  Be  Be2  1  0.345577  0.172788  0.250000  1
  Be  Be3  1  0.176610  0.825108  0.750000  1
  Be  Be4  1  0.176610  0.351503  0.750000  1
  Si  Si5  1  0.998206  0.999103  0.502177  1
  Si  Si6  1  0.998206  0.999103  0.997823  1
  Ni  Ni7  1  0.670221  0.835111  0.750000  1
  W  W8  1  0.324417  0.662209  0.434190  1
  W  W9  1  0.668240  0.334119  0.559419  1
  W  W10  1  0.668240  0.334119  0.940581  1
  W  W11  1  0.324417  0.662209  0.065810  1
