# generated using pymatgen
data_CaYb2Eu5(VN3)4
_symmetry_space_group_name_H-M   'P 1'
_cell_length_a   5.99756285
_cell_length_b   6.03403377
_cell_length_c   11.81109960
_cell_angle_alpha   89.40508652
_cell_angle_beta   88.81481415
_cell_angle_gamma   124.22023154
_symmetry_Int_Tables_number   1
_chemical_formula_structural   CaYb2Eu5(VN3)4
_chemical_formula_sum   'Ca1 Yb2 Eu5 V4 N12'
_cell_volume   353.23967146
_cell_formula_units_Z   1
loop_
 _symmetry_equiv_pos_site_id
 _symmetry_equiv_pos_as_xyz
  1  'x, y, z'
loop_
 _atom_site_type_symbol
 _atom_site_label
 _atom_site_symmetry_multiplicity
 _atom_site_fract_x
 _atom_site_fract_y
 _atom_site_fract_z
 _atom_site_occupancy
  Ca  Ca0  1  0.944849  0.542832  0.146537  1
  Yb  Yb1  1  0.834529  0.610167  0.576930  1
  Yb  Yb2  1  0.165600  0.389359  0.422736  1
  Eu  Eu3  1  0.621667  0.843633  0.080097  1
  Eu  Eu4  1  0.469680  0.062557  0.352862  1
  Eu  Eu5  1  0.062719  0.465690  0.851907  1
  Eu  Eu6  1  0.532756  0.938381  0.645554  1
  Eu  Eu7  1  0.376718  0.157184  0.921295  1
  V  V8  1  0.766606  0.765606  0.834206  1
  V  V9  1  0.230372  0.233048  0.659142  1
  V  V10  1  0.231808  0.234366  0.166610  1
  V  V11  1  0.770198  0.764457  0.340476  1
  N  N12  1  0.084191  0.909749  0.744470  1
  N  N13  1  0.914989  0.088307  0.255931  1
  N  N14  1  0.504749  0.491717  0.747697  1
  N  N15  1  0.496220  0.507632  0.252216  1
  N  N16  1  0.338460  0.015621  0.130288  1
  N  N17  1  0.984732  0.653757  0.375090  1
  N  N18  1  0.655261  0.981577  0.870209  1
  N  N19  1  0.015174  0.344098  0.624488  1
  N  N20  1  0.811001  0.626362  0.959598  1
  N  N21  1  0.618841  0.798174  0.463364  1
  N  N22  1  0.187465  0.376080  0.042130  1
  N  N23  1  0.381414  0.199646  0.536170  1
