# generated using pymatgen
data_Pr4MnGe3F28
_symmetry_space_group_name_H-M   'P 1'
_cell_length_a   5.57065205
_cell_length_b   9.05599183
_cell_length_c   12.08490435
_cell_angle_alpha   61.79995575
_cell_angle_beta   89.98559032
_cell_angle_gamma   89.99696456
_symmetry_Int_Tables_number   1
_chemical_formula_structural   Pr4MnGe3F28
_chemical_formula_sum   'Pr4 Mn1 Ge3 F28'
_cell_volume   537.29221528
_cell_formula_units_Z   1
loop_
 _symmetry_equiv_pos_site_id
 _symmetry_equiv_pos_as_xyz
  1  'x, y, z'
loop_
 _atom_site_type_symbol
 _atom_site_label
 _atom_site_symmetry_multiplicity
 _atom_site_fract_x
 _atom_site_fract_y
 _atom_site_fract_z
 _atom_site_occupancy
  Pr  Pr0  1  0.759606  0.807124  0.764452  1
  Pr  Pr1  1  0.259856  0.192066  0.736306  1
  Pr  Pr2  1  0.240161  0.192266  0.235782  1
  Pr  Pr3  1  0.740541  0.807578  0.264158  1
  Mn  Mn4  1  0.743755  0.274187  0.457630  1
  Ge  Ge5  1  0.756164  0.273766  0.958049  1
  Ge  Ge6  1  0.256230  0.726119  0.542054  1
  Ge  Ge7  1  0.243858  0.725944  0.042216  1
  F  F8  1  0.426088  0.709151  0.923032  1
  F  F9  1  0.925866  0.290992  0.578044  1
  F  F10  1  0.573756  0.290793  0.077022  1
  F  F11  1  0.073849  0.709286  0.423059  1
  F  F12  1  0.463221  0.282350  0.537190  1
  F  F13  1  0.965629  0.717399  0.963281  1
  F  F14  1  0.534422  0.717555  0.463193  1
  F  F15  1  0.034485  0.282551  0.036745  1
  F  F16  1  0.766839  0.502347  0.866493  1
  F  F17  1  0.266596  0.497526  0.633591  1
  F  F18  1  0.233043  0.497467  0.133572  1
  F  F19  1  0.733625  0.504970  0.365272  1
  F  F20  1  0.760261  0.045653  0.045944  1
  F  F21  1  0.260154  0.954252  0.454038  1
  F  F22  1  0.239735  0.954224  0.954099  1
  F  F23  1  0.740278  0.044253  0.546074  1
  F  F24  1  0.984661  0.728488  0.626611  1
  F  F25  1  0.484535  0.271563  0.873572  1
  F  F26  1  0.018664  0.271783  0.373574  1
  F  F27  1  0.515361  0.728545  0.126424  1
  F  F28  1  0.063506  0.738655  0.164925  1
  F  F29  1  0.563170  0.261291  0.333627  1
  F  F30  1  0.936408  0.261471  0.835013  1
  F  F31  1  0.436547  0.738574  0.664955  1
  F  F32  1  0.395653  0.965049  0.226109  1
  F  F33  1  0.895581  0.034902  0.273805  1
  F  F34  1  0.604245  0.034609  0.773740  1
  F  F35  1  0.103651  0.965251  0.726351  1
