# generated using pymatgen
data_Mn4NbOF14
_symmetry_space_group_name_H-M   'P 1'
_cell_length_a   5.63451854
_cell_length_b   6.91507667
_cell_length_c   8.94416378
_cell_angle_alpha   105.50362986
_cell_angle_beta   108.10248711
_cell_angle_gamma   89.04146419
_symmetry_Int_Tables_number   1
_chemical_formula_structural   Mn4NbOF14
_chemical_formula_sum   'Mn4 Nb1 O1 F14'
_cell_volume   318.35222917
_cell_formula_units_Z   1
loop_
 _symmetry_equiv_pos_site_id
 _symmetry_equiv_pos_as_xyz
  1  'x, y, z'
loop_
 _atom_site_type_symbol
 _atom_site_label
 _atom_site_symmetry_multiplicity
 _atom_site_fract_x
 _atom_site_fract_y
 _atom_site_fract_z
 _atom_site_occupancy
  Mn  Mn0  1  0.414089  0.101322  0.309273  1
  Mn  Mn1  1  0.584064  0.885201  0.694392  1
  Mn  Mn2  1  0.817740  0.711465  0.100648  1
  Mn  Mn3  1  0.986881  0.499690  0.487068  1
  Nb  Nb4  1  0.180516  0.315327  0.911812  1
  O  O5  1  0.003402  0.503055  0.003103  1
  F  F6  1  0.910215  0.098746  0.813387  1
  F  F7  1  0.307233  0.205337  0.107209  1
  F  F8  1  0.181761  0.309880  0.396052  1
  F  F9  1  0.391479  0.101894  0.811596  1
  F  F10  1  0.793234  0.681469  0.586386  1
  F  F11  1  0.506597  0.010162  0.500664  1
  F  F12  1  0.138428  0.913014  0.208813  1
  F  F13  1  0.694629  0.298585  0.397151  1
  F  F14  1  0.272668  0.687028  0.594306  1
  F  F15  1  0.624536  0.904496  0.191939  1
  F  F16  1  0.717625  0.792405  0.905884  1
  F  F17  1  0.092852  0.383076  0.703353  1
  F  F18  1  0.890869  0.609363  0.283989  1
  F  F19  1  0.491181  0.488483  0.992975  1
