# generated using pymatgen
data_Lu16MgIn3RuRh3
_symmetry_space_group_name_H-M   'P 1'
_cell_length_a   9.50331046
_cell_length_b   9.50174804
_cell_length_c   9.50492609
_cell_angle_alpha   59.57566396
_cell_angle_beta   59.58226896
_cell_angle_gamma   59.56900145
_symmetry_Int_Tables_number   1
_chemical_formula_structural   Lu16MgIn3RuRh3
_chemical_formula_sum   'Lu16 Mg1 In3 Ru1 Rh3'
_cell_volume   601.03863134
_cell_formula_units_Z   1
loop_
 _symmetry_equiv_pos_site_id
 _symmetry_equiv_pos_as_xyz
  1  'x, y, z'
loop_
 _atom_site_type_symbol
 _atom_site_label
 _atom_site_symmetry_multiplicity
 _atom_site_fract_x
 _atom_site_fract_y
 _atom_site_fract_z
 _atom_site_occupancy
  Lu  Lu0  1  0.600831  0.600713  0.600832  1
  Lu  Lu1  1  0.596910  0.597014  0.207621  1
  Lu  Lu2  1  0.596934  0.207756  0.597019  1
  Lu  Lu3  1  0.207727  0.596913  0.596861  1
  Lu  Lu4  1  0.059162  0.442084  0.442169  1
  Lu  Lu5  1  0.440142  0.059680  0.059724  1
  Lu  Lu6  1  0.442156  0.059015  0.442219  1
  Lu  Lu7  1  0.059541  0.440224  0.059624  1
  Lu  Lu8  1  0.442117  0.442156  0.059110  1
  Lu  Lu9  1  0.059639  0.059635  0.440197  1
  Lu  Lu10  1  0.186199  0.811856  0.811997  1
  Lu  Lu11  1  0.807869  0.189136  0.189191  1
  Lu  Lu12  1  0.812058  0.186052  0.812139  1
  Lu  Lu13  1  0.189107  0.808000  0.189081  1
  Lu  Lu14  1  0.811941  0.811967  0.186250  1
  Lu  Lu15  1  0.189034  0.188991  0.807995  1
  Mg  Mg16  1  0.827145  0.826695  0.827469  1
  In  In17  1  0.834270  0.834266  0.499741  1
  In  In18  1  0.834064  0.499805  0.834355  1
  In  In19  1  0.499929  0.833827  0.834149  1
  Ru  Ru20  1  0.389945  0.390655  0.390086  1
  Rh  Rh21  1  0.393124  0.393591  0.826507  1
  Rh  Rh22  1  0.393438  0.826490  0.392967  1
  Rh  Rh23  1  0.826720  0.393479  0.392697  1
