# generated using pymatgen
data_Rb6ErInAs4
_symmetry_space_group_name_H-M   'P 1'
_cell_length_a   9.68022680
_cell_length_b   9.68022701
_cell_length_c   9.68022576
_cell_angle_alpha   128.57460120
_cell_angle_beta   68.85009939
_cell_angle_gamma   137.49989642
_symmetry_Int_Tables_number   1
_chemical_formula_structural   Rb6ErInAs4
_chemical_formula_sum   'Rb6 Er1 In1 As4'
_cell_volume   470.63406608
_cell_formula_units_Z   1
loop_
 _symmetry_equiv_pos_site_id
 _symmetry_equiv_pos_as_xyz
  1  'x, y, z'
loop_
 _atom_site_type_symbol
 _atom_site_label
 _atom_site_symmetry_multiplicity
 _atom_site_fract_x
 _atom_site_fract_y
 _atom_site_fract_z
 _atom_site_occupancy
  Rb  Rb0  1  0.800948  0.185334  0.009816  1
  Rb  Rb1  1  0.699052  0.708869  0.384389  1
  Rb  Rb2  1  0.750000  0.250000  0.500000  1
  Rb  Rb3  1  0.250000  0.750000  0.500001  1
  Rb  Rb4  1  0.324482  0.314665  0.615612  1
  Rb  Rb5  1  0.175518  0.791131  0.990183  1
  Er  Er6  1  0.250000  0.250000  0.000000  1
  In  In7  1  0.750000  0.750000  0.000000  1
  As  As8  1  0.407102  0.689036  0.088192  1
  As  As9  1  0.092898  0.181091  0.281935  1
  As  As10  1  0.899155  0.810964  0.718065  1
  As  As11  1  0.600844  0.318910  0.911808  1
