# generated using pymatgen
data_Ba4InAuO8
_symmetry_space_group_name_H-M   'P 1'
_cell_length_a   7.30712484
_cell_length_b   7.30712472
_cell_length_c   6.00861400
_cell_angle_alpha   90.00000000
_cell_angle_beta   90.00000000
_cell_angle_gamma   131.47919442
_symmetry_Int_Tables_number   1
_chemical_formula_structural   Ba4InAuO8
_chemical_formula_sum   'Ba4 In1 Au1 O8'
_cell_volume   240.36042792
_cell_formula_units_Z   1
loop_
 _symmetry_equiv_pos_site_id
 _symmetry_equiv_pos_as_xyz
  1  'x, y, z'
loop_
 _atom_site_type_symbol
 _atom_site_label
 _atom_site_symmetry_multiplicity
 _atom_site_fract_x
 _atom_site_fract_y
 _atom_site_fract_z
 _atom_site_occupancy
  Ba  Ba0  1  0.356613  0.643387  0.000000  1
  Ba  Ba1  1  0.856401  0.143599  0.500000  1
  Ba  Ba2  1  0.143599  0.856401  0.500000  1
  Ba  Ba3  1  0.643387  0.356613  0.000000  1
  In  In4  1  0.000000  0.000000  0.000000  1
  Au  Au5  1  0.500000  0.500000  0.500000  1
  O  O6  1  0.258175  0.258175  0.738895  1
  O  O7  1  0.741825  0.741825  0.261105  1
  O  O8  1  0.741825  0.741825  0.738895  1
  O  O9  1  0.258175  0.258175  0.261105  1
  O  O10  1  0.158469  0.841531  0.000000  1
  O  O11  1  0.657297  0.342703  0.500000  1
  O  O12  1  0.342703  0.657297  0.500000  1
  O  O13  1  0.841531  0.158469  0.000000  1
