# generated using pymatgen
data_DyLu9(Ga2Sb)2
_symmetry_space_group_name_H-M   'P 1'
_cell_length_a   8.52706600
_cell_length_b   8.53807715
_cell_length_c   6.39742000
_cell_angle_alpha   90.00000000
_cell_angle_beta   90.00000000
_cell_angle_gamma   120.07050329
_symmetry_Int_Tables_number   1
_chemical_formula_structural   DyLu9(Ga2Sb)2
_chemical_formula_sum   'Dy1 Lu9 Ga4 Sb2'
_cell_volume   403.07532864
_cell_formula_units_Z   1
loop_
 _symmetry_equiv_pos_site_id
 _symmetry_equiv_pos_as_xyz
  1  'x, y, z'
loop_
 _atom_site_type_symbol
 _atom_site_label
 _atom_site_symmetry_multiplicity
 _atom_site_fract_x
 _atom_site_fract_y
 _atom_site_fract_z
 _atom_site_occupancy
  Dy  Dy0  1  0.764067  0.750754  0.250000  1
  Lu  Lu1  1  0.313564  0.656929  0.999798  1
  Lu  Lu2  1  0.668664  0.333881  0.500870  1
  Lu  Lu3  1  0.668664  0.333881  0.999130  1
  Lu  Lu4  1  0.313564  0.656929  0.500202  1
  Lu  Lu5  1  0.234790  0.000542  0.250000  1
  Lu  Lu6  1  0.232562  0.232803  0.750000  1
  Lu  Lu7  1  0.015051  0.765593  0.750000  1
  Lu  Lu8  1  0.014268  0.248623  0.250000  1
  Lu  Lu9  1  0.763441  0.014925  0.750000  1
  Ga  Ga10  1  0.997854  0.398619  0.750000  1
  Ga  Ga11  1  0.999581  0.598197  0.250000  1
  Ga  Ga12  1  0.401121  0.396429  0.250000  1
  Ga  Ga13  1  0.402479  0.004269  0.750000  1
  Sb  Sb14  1  0.604344  0.996517  0.250000  1
  Sb  Sb15  1  0.605986  0.611104  0.750000  1
