# generated using pymatgen
data_Dy12Ni4SnIr
_symmetry_space_group_name_H-M   'P 1'
_cell_length_a   8.32673928
_cell_length_b   8.32687879
_cell_length_c   8.32673820
_cell_angle_alpha   106.93218608
_cell_angle_beta   109.67721998
_cell_angle_gamma   111.84076227
_symmetry_Int_Tables_number   1
_chemical_formula_structural   Dy12Ni4SnIr
_chemical_formula_sum   'Dy12 Ni4 Sn1 Ir1'
_cell_volume   443.62398095
_cell_formula_units_Z   1
loop_
 _symmetry_equiv_pos_site_id
 _symmetry_equiv_pos_as_xyz
  1  'x, y, z'
loop_
 _atom_site_type_symbol
 _atom_site_label
 _atom_site_symmetry_multiplicity
 _atom_site_fract_x
 _atom_site_fract_y
 _atom_site_fract_z
 _atom_site_occupancy
  Dy  Dy0  1  0.475238  0.293781  0.181245  1
  Dy  Dy1  1  0.112535  0.293781  0.818543  1
  Dy  Dy2  1  0.887465  0.706219  0.181457  1
  Dy  Dy3  1  0.524762  0.706219  0.818755  1
  Dy  Dy4  1  0.305485  0.626587  0.321103  1
  Dy  Dy5  1  0.305420  0.984289  0.678867  1
  Dy  Dy6  1  0.694515  0.373413  0.678897  1
  Dy  Dy7  1  0.694580  0.015711  0.321133  1
  Dy  Dy8  1  0.191805  0.212232  0.403880  1
  Dy  Dy9  1  0.808195  0.787768  0.596120  1
  Dy  Dy10  1  0.191648  0.787768  0.979572  1
  Dy  Dy11  1  0.808352  0.212232  0.020428  1
  Ni  Ni12  1  0.500054  0.624113  0.124058  1
  Ni  Ni13  1  0.499946  0.375887  0.875942  1
  Ni  Ni14  1  0.366384  0.000000  0.366384  1
  Ni  Ni15  1  0.633616  0.000000  0.633616  1
  Sn  Sn16  1  0.000000  0.500000  0.500000  1
  Ir  Ir17  1  0.000000  0.000000  0.000000  1
