# generated using pymatgen
data_Zr3BeGeAsRu3
_symmetry_space_group_name_H-M   'P 1'
_cell_length_a   7.67363203
_cell_length_b   7.67363717
_cell_length_c   7.67363864
_cell_angle_alpha   127.71802752
_cell_angle_beta   123.60183391
_cell_angle_gamma   80.49151526
_symmetry_Int_Tables_number   1
_chemical_formula_structural   Zr3BeGeAsRu3
_chemical_formula_sum   'Zr6 Be2 Ge2 As2 Ru6'
_cell_volume   287.21647419
_cell_formula_units_Z   2
loop_
 _symmetry_equiv_pos_site_id
 _symmetry_equiv_pos_as_xyz
  1  'x, y, z'
loop_
 _atom_site_type_symbol
 _atom_site_label
 _atom_site_symmetry_multiplicity
 _atom_site_fract_x
 _atom_site_fract_y
 _atom_site_fract_z
 _atom_site_occupancy
  Zr  Zr0  1  0.447421  0.647815  0.700725  1
  Zr  Zr1  1  0.552579  0.253302  0.200394  1
  Zr  Zr2  1  0.748810  0.859316  0.608288  1
  Zr  Zr3  1  0.251190  0.859478  0.110506  1
  Zr  Zr4  1  0.053263  0.253324  0.700358  1
  Zr  Zr5  1  0.946737  0.647095  0.200061  1
  Be  Be6  1  0.250694  0.253879  0.503655  1
  Be  Be7  1  0.749306  0.252959  0.003186  1
  Ge  Ge8  1  0.333405  0.586551  0.252956  1
  Ge  Ge9  1  0.666595  0.919550  0.253146  1
  As  As10  1  0.166808  0.920192  0.753174  1
  As  As11  1  0.833192  0.586367  0.753384  1
  Ru  Ru12  1  0.500000  0.490595  0.990595  1
  Ru  Ru13  1  0.000000  0.490771  0.490771  1
  Ru  Ru14  1  0.117983  0.253142  0.133947  1
  Ru  Ru15  1  0.882017  0.015963  0.135158  1
  Ru  Ru16  1  0.380705  0.015963  0.634041  1
  Ru  Ru17  1  0.619295  0.253337  0.635258  1
