# generated using pymatgen
data_Nd2Bi2IrRh3O14
_symmetry_space_group_name_H-M   'P 1'
_cell_length_a   7.38813821
_cell_length_b   7.34313195
_cell_length_c   7.38813782
_cell_angle_alpha   59.98793103
_cell_angle_beta   60.23551818
_cell_angle_gamma   59.98792558
_symmetry_Int_Tables_number   1
_chemical_formula_structural   Nd2Bi2IrRh3O14
_chemical_formula_sum   'Nd2 Bi2 Ir1 Rh3 O14'
_cell_volume   283.87283712
_cell_formula_units_Z   1
loop_
 _symmetry_equiv_pos_site_id
 _symmetry_equiv_pos_as_xyz
  1  'x, y, z'
loop_
 _atom_site_type_symbol
 _atom_site_label
 _atom_site_symmetry_multiplicity
 _atom_site_fract_x
 _atom_site_fract_y
 _atom_site_fract_z
 _atom_site_occupancy
  Nd  Nd0  1  0.125000  0.125000  0.125000  1
  Nd  Nd1  1  0.125000  0.625000  0.125000  1
  Bi  Bi2  1  0.625000  0.125000  0.125000  1
  Bi  Bi3  1  0.125000  0.125000  0.625000  1
  Ir  Ir4  1  0.625000  0.125000  0.625000  1
  Rh  Rh5  1  0.625000  0.625000  0.625000  1
  Rh  Rh6  1  0.625000  0.625000  0.125000  1
  Rh  Rh7  1  0.125000  0.625000  0.625000  1
  O  O8  1  0.253828  0.244653  0.253828  1
  O  O9  1  0.290296  0.711494  0.290296  1
  O  O10  1  0.953101  0.959643  0.543280  1
  O  O11  1  0.547090  0.956040  0.547090  1
  O  O12  1  0.707594  0.710194  0.291400  1
  O  O13  1  0.958600  0.539806  0.542406  1
  O  O14  1  0.702910  0.293960  0.702910  1
  O  O15  1  0.296899  0.290357  0.706720  1
  O  O16  1  0.706720  0.290357  0.296899  1
  O  O17  1  0.291400  0.710194  0.707594  1
  O  O18  1  0.959704  0.538506  0.959704  1
  O  O19  1  0.542406  0.539806  0.958600  1
  O  O20  1  0.996172  0.005347  0.996172  1
  O  O21  1  0.543280  0.959643  0.953101  1
