# generated using pymatgen
data_V3CrS6
_symmetry_space_group_name_H-M   'P 1'
_cell_length_a   5.56080100
_cell_length_b   5.56080044
_cell_length_c   11.94498000
_cell_angle_alpha   90.00000000
_cell_angle_beta   90.00000000
_cell_angle_gamma   120.00000926
_symmetry_Int_Tables_number   1
_chemical_formula_structural   V3CrS6
_chemical_formula_sum   'V6 Cr2 S12'
_cell_volume   319.88264753
_cell_formula_units_Z   2
loop_
 _symmetry_equiv_pos_site_id
 _symmetry_equiv_pos_as_xyz
  1  'x, y, z'
loop_
 _atom_site_type_symbol
 _atom_site_label
 _atom_site_symmetry_multiplicity
 _atom_site_fract_x
 _atom_site_fract_y
 _atom_site_fract_z
 _atom_site_occupancy
  V  V0  1  0.000000  0.000000  0.000000  1
  V  V1  1  0.666667  0.333333  0.001800  1
  V  V2  1  0.333333  0.666667  0.501800  1
  V  V3  1  0.000000  0.000000  0.500000  1
  V  V4  1  0.333333  0.666667  0.998200  1
  V  V5  1  0.666667  0.333333  0.498200  1
  Cr  Cr6  1  0.666667  0.333333  0.750000  1
  Cr  Cr7  1  0.333333  0.666667  0.250000  1
  S  S8  1  0.667155  0.667698  0.123193  1
  S  S9  1  0.332845  0.332302  0.623193  1
  S  S10  1  0.667698  0.667155  0.876807  1
  S  S11  1  0.332845  0.000542  0.876807  1
  S  S12  1  0.999458  0.667155  0.623193  1
  S  S13  1  0.999458  0.332302  0.876807  1
  S  S14  1  0.000542  0.667698  0.376807  1
  S  S15  1  0.332302  0.332845  0.376807  1
  S  S16  1  0.667155  0.999458  0.376807  1
  S  S17  1  0.000542  0.332845  0.123193  1
  S  S18  1  0.667698  0.000542  0.623193  1
  S  S19  1  0.332302  0.999458  0.123193  1
