# generated using pymatgen
data_HoLu2ThZnCo
_symmetry_space_group_name_H-M   'P 1'
_cell_length_a   9.35374652
_cell_length_b   9.34408506
_cell_length_c   9.34408559
_cell_angle_alpha   60.06882183
_cell_angle_beta   59.96594408
_cell_angle_gamma   59.96594329
_symmetry_Int_Tables_number   1
_chemical_formula_structural   HoLu2ThZnCo
_chemical_formula_sum   'Ho4 Lu8 Th4 Zn4 Co4'
_cell_volume   577.49148303
_cell_formula_units_Z   4
loop_
 _symmetry_equiv_pos_site_id
 _symmetry_equiv_pos_as_xyz
  1  'x, y, z'
loop_
 _atom_site_type_symbol
 _atom_site_label
 _atom_site_symmetry_multiplicity
 _atom_site_fract_x
 _atom_site_fract_y
 _atom_site_fract_z
 _atom_site_occupancy
  Ho  Ho0  1  0.565068  0.934945  0.565055  1
  Ho  Ho1  1  0.934924  0.565058  0.934966  1
  Ho  Ho2  1  0.565068  0.565055  0.934945  1
  Ho  Ho3  1  0.934924  0.934966  0.565058  1
  Lu  Lu4  1  0.812225  0.187787  0.187787  1
  Lu  Lu5  1  0.187756  0.812234  0.812234  1
  Lu  Lu6  1  0.187599  0.812374  0.187601  1
  Lu  Lu7  1  0.812423  0.187621  0.812356  1
  Lu  Lu8  1  0.187599  0.187601  0.812374  1
  Lu  Lu9  1  0.812423  0.812356  0.187621  1
  Lu  Lu10  1  0.936688  0.563331  0.563331  1
  Lu  Lu11  1  0.563294  0.936726  0.936726  1
  Th  Th12  1  0.350493  0.350218  0.350218  1
  Th  Th13  1  0.350150  0.350640  0.948992  1
  Th  Th14  1  0.350150  0.948992  0.350640  1
  Th  Th15  1  0.949040  0.350206  0.350206  1
  Zn  Zn16  1  0.580896  0.580185  0.580185  1
  Zn  Zn17  1  0.580187  0.580925  0.258706  1
  Zn  Zn18  1  0.580187  0.258706  0.580925  1
  Zn  Zn19  1  0.258785  0.580166  0.580166  1
  Co  Co20  1  0.144644  0.143124  0.143124  1
  Co  Co21  1  0.143130  0.144621  0.569085  1
  Co  Co22  1  0.143130  0.569085  0.144621  1
  Co  Co23  1  0.569214  0.143073  0.143073  1
