# generated using pymatgen
data_YbEr3(Si4Tc3)2
_symmetry_space_group_name_H-M   'P 1'
_cell_length_a   6.77565704
_cell_length_b   6.67676078
_cell_length_c   6.76241075
_cell_angle_alpha   70.26419667
_cell_angle_beta   90.06735108
_cell_angle_gamma   89.84813397
_symmetry_Int_Tables_number   1
_chemical_formula_structural   YbEr3(Si4Tc3)2
_chemical_formula_sum   'Yb1 Er3 Si8 Tc6'
_cell_volume   287.95569581
_cell_formula_units_Z   1
loop_
 _symmetry_equiv_pos_site_id
 _symmetry_equiv_pos_as_xyz
  1  'x, y, z'
loop_
 _atom_site_type_symbol
 _atom_site_label
 _atom_site_symmetry_multiplicity
 _atom_site_fract_x
 _atom_site_fract_y
 _atom_site_fract_z
 _atom_site_occupancy
  Yb  Yb0  1  0.666234  0.444708  0.185819  1
  Er  Er1  1  0.167908  0.058566  0.807313  1
  Er  Er2  1  0.333138  0.557349  0.809499  1
  Er  Er3  1  0.831095  0.941093  0.193284  1
  Si  Si4  1  0.451657  0.121518  0.103045  1
  Si  Si5  1  0.950377  0.378179  0.898214  1
  Si  Si6  1  0.549120  0.878304  0.898661  1
  Si  Si7  1  0.047741  0.620539  0.103796  1
  Si  Si8  1  0.857303  0.134929  0.508667  1
  Si  Si9  1  0.361032  0.368267  0.486749  1
  Si  Si10  1  0.140788  0.867292  0.489265  1
  Si  Si11  1  0.641615  0.629878  0.510978  1
  Tc  Tc12  1  0.499672  0.997620  0.501707  1
  Tc  Tc13  1  0.002597  0.499775  0.502954  1
  Tc  Tc14  1  0.153547  0.242247  0.237573  1
  Tc  Tc15  1  0.653652  0.255488  0.762802  1
  Tc  Tc16  1  0.848308  0.759440  0.762039  1
  Tc  Tc17  1  0.344216  0.744808  0.237637  1
