# generated using pymatgen
data_CaDy3Al15(SiIr2)3
_symmetry_space_group_name_H-M   'P 1'
_cell_length_a   7.53636734
_cell_length_b   7.52932169
_cell_length_c   9.35479812
_cell_angle_alpha   89.99256764
_cell_angle_beta   89.90332722
_cell_angle_gamma   119.78324626
_symmetry_Int_Tables_number   1
_chemical_formula_structural   CaDy3Al15(SiIr2)3
_chemical_formula_sum   'Ca1 Dy3 Al15 Si3 Ir6'
_cell_volume   460.70879480
_cell_formula_units_Z   1
loop_
 _symmetry_equiv_pos_site_id
 _symmetry_equiv_pos_as_xyz
  1  'x, y, z'
loop_
 _atom_site_type_symbol
 _atom_site_label
 _atom_site_symmetry_multiplicity
 _atom_site_fract_x
 _atom_site_fract_y
 _atom_site_fract_z
 _atom_site_occupancy
  Ca  Ca0  1  0.993777  0.668864  0.748148  1
  Dy  Dy1  1  0.004878  0.325234  0.253906  1
  Dy  Dy2  1  0.679677  0.000829  0.747256  1
  Dy  Dy3  1  0.324594  0.004642  0.250095  1
  Al  Al4  1  0.997902  0.668525  0.422882  1
  Al  Al5  1  0.998663  0.664069  0.074898  1
  Al  Al6  1  0.335409  0.999394  0.923960  1
  Al  Al7  1  0.002155  0.337375  0.928255  1
  Al  Al8  1  0.663336  0.998924  0.076434  1
  Al  Al9  1  0.659548  0.993989  0.421535  1
  Al  Al10  1  0.334597  0.999456  0.576012  1
  Al  Al11  1  0.336210  0.335815  0.057989  1
  Al  Al12  1  0.665430  0.665223  0.942148  1
  Al  Al13  1  0.664681  0.664749  0.558813  1
  Al  Al14  1  0.339207  0.335790  0.442105  1
  Al  Al15  1  0.335189  0.546907  0.750098  1
  Al  Al16  1  0.665390  0.451145  0.250461  1
  Al  Al17  1  0.546036  0.334994  0.750186  1
  Al  Al18  1  0.450436  0.663077  0.249596  1
  Si  Si19  1  0.132854  0.129249  0.750647  1
  Si  Si20  1  0.871430  0.872516  0.249897  1
  Si  Si21  1  0.001048  0.338049  0.572630  1
  Ir  Ir22  1  0.677733  0.327243  0.500897  1
  Ir  Ir23  1  0.321307  0.663920  0.499351  1
  Ir  Ir24  1  0.328883  0.671253  0.000306  1
  Ir  Ir25  1  0.670910  0.327512  0.000064  1
  Ir  Ir26  1  0.999176  0.009414  0.501198  1
  Ir  Ir27  1  0.999545  0.001844  0.000232  1
