# generated using pymatgen
data_Tb13Tm3(AgRh)4
_symmetry_space_group_name_H-M   'P 1'
_cell_length_a   9.55434128
_cell_length_b   9.50770406
_cell_length_c   9.53436214
_cell_angle_alpha   60.23139530
_cell_angle_beta   60.26476436
_cell_angle_gamma   60.02259335
_symmetry_Int_Tables_number   1
_chemical_formula_structural   Tb13Tm3(AgRh)4
_chemical_formula_sum   'Tb13 Tm3 Ag4 Rh4'
_cell_volume   614.81715578
_cell_formula_units_Z   1
loop_
 _symmetry_equiv_pos_site_id
 _symmetry_equiv_pos_as_xyz
  1  'x, y, z'
loop_
 _atom_site_type_symbol
 _atom_site_label
 _atom_site_symmetry_multiplicity
 _atom_site_fract_x
 _atom_site_fract_y
 _atom_site_fract_z
 _atom_site_occupancy
  Tb  Tb0  1  0.646265  0.059219  0.647686  1
  Tb  Tb1  1  0.063849  0.064679  0.436380  1
  Tb  Tb2  1  0.436380  0.435092  0.063849  1
  Tb  Tb3  1  0.647686  0.646828  0.646265  1
  Tb  Tb4  1  0.813519  0.186983  0.186510  1
  Tb  Tb5  1  0.186510  0.812987  0.813519  1
  Tb  Tb6  1  0.058756  0.646732  0.647100  1
  Tb  Tb7  1  0.436678  0.063783  0.063659  1
  Tb  Tb8  1  0.436229  0.063771  0.436229  1
  Tb  Tb9  1  0.064098  0.435902  0.064098  1
  Tb  Tb10  1  0.647100  0.647410  0.058756  1
  Tb  Tb11  1  0.187507  0.812493  0.187507  1
  Tb  Tb12  1  0.063659  0.435880  0.436678  1
  Tm  Tm13  1  0.812926  0.813061  0.187051  1
  Tm  Tm14  1  0.813547  0.186453  0.813547  1
  Tm  Tm15  1  0.187051  0.186962  0.812926  1
  Ag  Ag16  1  0.417407  0.417912  0.418285  1
  Ag  Ag17  1  0.417984  0.417834  0.745920  1
  Ag  Ag18  1  0.418285  0.746396  0.417407  1
  Ag  Ag19  1  0.745920  0.418262  0.417984  1
  Rh  Rh20  1  0.857521  0.427749  0.856070  1
  Rh  Rh21  1  0.856070  0.858660  0.857521  1
  Rh  Rh22  1  0.855579  0.856706  0.429470  1
  Rh  Rh23  1  0.429470  0.858245  0.855579  1
