# generated using pymatgen
data_Nd3Bi(IO4)4
_symmetry_space_group_name_H-M   'P 1'
_cell_length_a   5.75191632
_cell_length_b   5.78045169
_cell_length_c   11.19034894
_cell_angle_alpha   89.91094846
_cell_angle_beta   89.73581610
_cell_angle_gamma   90.11546852
_symmetry_Int_Tables_number   1
_chemical_formula_structural   Nd3Bi(IO4)4
_chemical_formula_sum   'Nd3 Bi1 I4 O16'
_cell_volume   372.05910300
_cell_formula_units_Z   1
loop_
 _symmetry_equiv_pos_site_id
 _symmetry_equiv_pos_as_xyz
  1  'x, y, z'
loop_
 _atom_site_type_symbol
 _atom_site_label
 _atom_site_symmetry_multiplicity
 _atom_site_fract_x
 _atom_site_fract_y
 _atom_site_fract_z
 _atom_site_occupancy
  Nd  Nd0  1  0.490062  0.315892  0.890734  1
  Nd  Nd1  1  0.504096  0.814579  0.111741  1
  Nd  Nd2  1  0.008689  0.816296  0.890719  1
  Bi  Bi3  1  0.987061  0.315549  0.095558  1
  I  I4  1  0.005242  0.325635  0.635905  1
  I  I5  1  0.992083  0.829088  0.364397  1
  I  I6  1  0.496070  0.824744  0.636066  1
  I  I7  1  0.504437  0.323897  0.363216  1
  O  O8  1  0.242488  0.067637  0.005359  1
  O  O9  1  0.755689  0.563595  0.990375  1
  O  O10  1  0.253803  0.566511  0.004745  1
  O  O11  1  0.745878  0.067909  0.992006  1
  O  O12  1  0.129401  0.431283  0.778357  1
  O  O13  1  0.861649  0.917729  0.221414  1
  O  O14  1  0.371496  0.931954  0.778868  1
  O  O15  1  0.620597  0.435635  0.220470  1
  O  O16  1  0.850302  0.082701  0.714172  1
  O  O17  1  0.162603  0.594210  0.292478  1
  O  O18  1  0.649256  0.582753  0.714385  1
  O  O19  1  0.362972  0.070020  0.290570  1
  O  O20  1  0.249112  0.168351  0.566996  1
  O  O21  1  0.754154  0.665506  0.439044  1
  O  O22  1  0.251019  0.669113  0.567967  1
  O  O23  1  0.751841  0.173058  0.434458  1
