# generated using pymatgen
data_Pr3NdGa4Ir3Pt
_symmetry_space_group_name_H-M   'P 1'
_cell_length_a   4.44757800
_cell_length_b   7.13096819
_cell_length_c   7.92127407
_cell_angle_alpha   90.00585143
_cell_angle_beta   90.00000000
_cell_angle_gamma   90.00000000
_symmetry_Int_Tables_number   1
_chemical_formula_structural   Pr3NdGa4Ir3Pt
_chemical_formula_sum   'Pr3 Nd1 Ga4 Ir3 Pt1'
_cell_volume   251.22746149
_cell_formula_units_Z   1
loop_
 _symmetry_equiv_pos_site_id
 _symmetry_equiv_pos_as_xyz
  1  'x, y, z'
loop_
 _atom_site_type_symbol
 _atom_site_label
 _atom_site_symmetry_multiplicity
 _atom_site_fract_x
 _atom_site_fract_y
 _atom_site_fract_z
 _atom_site_occupancy
  Pr  Pr0  1  0.250000  0.023114  0.686390  1
  Pr  Pr1  1  0.250000  0.528486  0.810401  1
  Pr  Pr2  1  0.750000  0.478472  0.193185  1
  Nd  Nd3  1  0.750000  0.974569  0.309907  1
  Ga  Ga4  1  0.250000  0.153357  0.074177  1
  Ga  Ga5  1  0.250000  0.656049  0.428137  1
  Ga  Ga6  1  0.750000  0.839373  0.929372  1
  Ga  Ga7  1  0.750000  0.345826  0.567681  1
  Ir  Ir8  1  0.250000  0.278556  0.391296  1
  Ir  Ir9  1  0.250000  0.781019  0.108606  1
  Ir  Ir10  1  0.750000  0.721776  0.608645  1
  Pt  Pt11  1  0.750000  0.219404  0.892200  1
