# generated using pymatgen
data_Gd3(ZnSi2)2
_symmetry_space_group_name_H-M   'P 1'
_cell_length_a   5.77820858
_cell_length_b   5.77820851
_cell_length_c   8.18618900
_cell_angle_alpha   79.08369021
_cell_angle_beta   79.08369035
_cell_angle_gamma   42.04593251
_symmetry_Int_Tables_number   1
_chemical_formula_structural   Gd3(ZnSi2)2
_chemical_formula_sum   'Gd3 Zn2 Si4'
_cell_volume   179.24147957
_cell_formula_units_Z   1
loop_
 _symmetry_equiv_pos_site_id
 _symmetry_equiv_pos_as_xyz
  1  'x, y, z'
loop_
 _atom_site_type_symbol
 _atom_site_label
 _atom_site_symmetry_multiplicity
 _atom_site_fract_x
 _atom_site_fract_y
 _atom_site_fract_z
 _atom_site_occupancy
  Gd  Gd0  1  0.336533  0.336533  0.671520  1
  Gd  Gd1  1  0.663467  0.663467  0.328480  1
  Gd  Gd2  1  0.000000  0.000000  0.000000  1
  Zn  Zn3  1  0.387511  0.387511  0.280335  1
  Zn  Zn4  1  0.612489  0.612489  0.719665  1
  Si  Si5  1  0.059595  0.059595  0.607124  1
  Si  Si6  1  0.940405  0.940405  0.392876  1
  Si  Si7  1  0.718773  0.718773  0.946924  1
  Si  Si8  1  0.281227  0.281227  0.053076  1
