# generated using pymatgen
data_Tb3Ho9(TcIr)2
_symmetry_space_group_name_H-M   'P 1'
_cell_length_a   6.32888039
_cell_length_b   7.33457446
_cell_length_c   9.15318900
_cell_angle_alpha   90.00000000
_cell_angle_beta   90.00000000
_cell_angle_gamma   89.95974878
_symmetry_Int_Tables_number   1
_chemical_formula_structural   Tb3Ho9(TcIr)2
_chemical_formula_sum   'Tb3 Ho9 Tc2 Ir2'
_cell_volume   424.88767388
_cell_formula_units_Z   1
loop_
 _symmetry_equiv_pos_site_id
 _symmetry_equiv_pos_as_xyz
  1  'x, y, z'
loop_
 _atom_site_type_symbol
 _atom_site_label
 _atom_site_symmetry_multiplicity
 _atom_site_fract_x
 _atom_site_fract_y
 _atom_site_fract_z
 _atom_site_occupancy
  Tb  Tb0  1  0.874018  0.538087  0.250000  1
  Tb  Tb1  1  0.625985  0.038090  0.250000  1
  Tb  Tb2  1  0.132878  0.459961  0.750000  1
  Ho  Ho3  1  0.329213  0.677015  0.065620  1
  Ho  Ho4  1  0.171107  0.176435  0.434432  1
  Ho  Ho5  1  0.667888  0.323703  0.561006  1
  Ho  Ho6  1  0.831521  0.824005  0.938784  1
  Ho  Ho7  1  0.667888  0.323703  0.938994  1
  Ho  Ho8  1  0.831521  0.824005  0.561216  1
  Ho  Ho9  1  0.329213  0.677015  0.434380  1
  Ho  Ho10  1  0.171107  0.176435  0.065568  1
  Ho  Ho11  1  0.366982  0.960014  0.750000  1
  Tc  Tc12  1  0.035907  0.886096  0.250000  1
  Tc  Tc13  1  0.463972  0.386004  0.250000  1
  Ir  Ir14  1  0.955233  0.114025  0.750000  1
  Ir  Ir15  1  0.545569  0.615404  0.750000  1
