# generated using pymatgen
data_NdDyEr2(WO6)2
_symmetry_space_group_name_H-M   'P 1'
_cell_length_a   5.43645200
_cell_length_b   7.74842569
_cell_length_c   11.49929085
_cell_angle_alpha   75.58076568
_cell_angle_beta   90.00000000
_cell_angle_gamma   90.00000000
_symmetry_Int_Tables_number   1
_chemical_formula_structural   NdDyEr2(WO6)2
_chemical_formula_sum   'Nd2 Dy2 Er4 W4 O24'
_cell_volume   469.13684586
_cell_formula_units_Z   2
loop_
 _symmetry_equiv_pos_site_id
 _symmetry_equiv_pos_as_xyz
  1  'x, y, z'
loop_
 _atom_site_type_symbol
 _atom_site_label
 _atom_site_symmetry_multiplicity
 _atom_site_fract_x
 _atom_site_fract_y
 _atom_site_fract_z
 _atom_site_occupancy
  Nd  Nd0  1  0.685428  0.500000  0.250000  1
  Nd  Nd1  1  0.314572  0.500000  0.750000  1
  Dy  Dy2  1  0.742959  0.000000  0.250000  1
  Dy  Dy3  1  0.257041  0.000000  0.750000  1
  Er  Er4  1  0.184950  0.203515  0.422795  1
  Er  Er5  1  0.184950  0.796485  0.077205  1
  Er  Er6  1  0.815050  0.796485  0.577205  1
  Er  Er7  1  0.815050  0.203515  0.922795  1
  W  W8  1  0.254523  0.272358  0.115544  1
  W  W9  1  0.254523  0.727642  0.384456  1
  W  W10  1  0.745477  0.727642  0.884456  1
  W  W11  1  0.745477  0.272358  0.615544  1
  O  O12  1  0.454557  0.204872  0.273935  1
  O  O13  1  0.454557  0.795128  0.226065  1
  O  O14  1  0.545443  0.795128  0.726065  1
  O  O15  1  0.545443  0.204872  0.773935  1
  O  O16  1  0.044700  0.058254  0.103293  1
  O  O17  1  0.044700  0.941746  0.396707  1
  O  O18  1  0.955300  0.941746  0.896707  1
  O  O19  1  0.955300  0.058254  0.603293  1
  O  O20  1  0.985983  0.280509  0.230867  1
  O  O21  1  0.985983  0.719491  0.269133  1
  O  O22  1  0.014017  0.719491  0.769133  1
  O  O23  1  0.014017  0.280509  0.730867  1
  O  O24  1  0.854740  0.359072  0.453778  1
  O  O25  1  0.854740  0.640928  0.046222  1
  O  O26  1  0.145260  0.640928  0.546222  1
  O  O27  1  0.145260  0.359072  0.953778  1
  O  O28  1  0.651341  0.507679  0.612711  1
  O  O29  1  0.651341  0.492321  0.887289  1
  O  O30  1  0.348659  0.492321  0.387289  1
  O  O31  1  0.348659  0.507679  0.112711  1
  O  O32  1  0.463700  0.155385  0.568991  1
  O  O33  1  0.463700  0.844615  0.931009  1
  O  O34  1  0.536300  0.844615  0.431009  1
  O  O35  1  0.536300  0.155385  0.068991  1
