# generated using pymatgen
data_Zn3In(BiO3)8
_symmetry_space_group_name_H-M   'P 1'
_cell_length_a   4.97074006
_cell_length_b   9.94061215
_cell_length_c   10.05310200
_cell_angle_alpha   90.00001153
_cell_angle_beta   90.00000000
_cell_angle_gamma   89.89084477
_symmetry_Int_Tables_number   1
_chemical_formula_structural   Zn3In(BiO3)8
_chemical_formula_sum   'Zn3 In1 Bi8 O24'
_cell_volume   496.74497521
_cell_formula_units_Z   1
loop_
 _symmetry_equiv_pos_site_id
 _symmetry_equiv_pos_as_xyz
  1  'x, y, z'
loop_
 _atom_site_type_symbol
 _atom_site_label
 _atom_site_symmetry_multiplicity
 _atom_site_fract_x
 _atom_site_fract_y
 _atom_site_fract_z
 _atom_site_occupancy
  Zn  Zn0  1  0.001191  0.500493  0.000000  1
  Zn  Zn1  1  0.500035  0.750038  0.500000  1
  Zn  Zn2  1  0.998804  0.999470  0.999999  1
  In  In3  1  0.499845  0.250196  0.500000  1
  Bi  Bi4  1  0.998587  0.995261  0.330756  1
  Bi  Bi5  1  0.001435  0.504779  0.330725  1
  Bi  Bi6  1  0.998587  0.995261  0.669244  1
  Bi  Bi7  1  0.001435  0.504779  0.669275  1
  Bi  Bi8  1  0.500003  0.249979  0.163855  1
  Bi  Bi9  1  0.500018  0.749999  0.165934  1
  Bi  Bi10  1  0.500003  0.249979  0.836145  1
  Bi  Bi11  1  0.500018  0.749998  0.834066  1
  O  O12  1  0.188931  0.403330  0.500000  1
  O  O13  1  0.198699  0.902618  0.500000  1
  O  O14  1  0.300943  0.150533  0.000000  1
  O  O15  1  0.302760  0.651084  0.000000  1
  O  O16  1  0.699036  0.349435  0.000000  1
  O  O17  1  0.697309  0.848862  0.000000  1
  O  O18  1  0.810870  0.096716  0.500000  1
  O  O19  1  0.801266  0.597340  0.500000  1
  O  O20  1  0.191160  0.403900  0.165255  1
  O  O21  1  0.192692  0.903883  0.163178  1
  O  O22  1  0.191160  0.403900  0.834745  1
  O  O23  1  0.192692  0.903883  0.836822  1
  O  O24  1  0.304544  0.152421  0.330989  1
  O  O25  1  0.311454  0.655326  0.335746  1
  O  O26  1  0.304544  0.152421  0.669011  1
  O  O27  1  0.311454  0.655326  0.664255  1
  O  O28  1  0.695547  0.347633  0.330939  1
  O  O29  1  0.688646  0.844656  0.335740  1
  O  O30  1  0.695547  0.347633  0.669061  1
  O  O31  1  0.688647  0.844656  0.664260  1
  O  O32  1  0.808774  0.096021  0.165250  1
  O  O33  1  0.807294  0.596085  0.163159  1
  O  O34  1  0.808774  0.096020  0.834750  1
  O  O35  1  0.807295  0.596086  0.836841  1
