# generated using pymatgen
data_Dy12IrOs3
_symmetry_space_group_name_H-M   'P 1'
_cell_length_a   6.36317796
_cell_length_b   7.36369612
_cell_length_c   9.08731400
_cell_angle_alpha   90.00000000
_cell_angle_beta   90.00000000
_cell_angle_gamma   90.06303804
_symmetry_Int_Tables_number   1
_chemical_formula_structural   Dy12IrOs3
_chemical_formula_sum   'Dy12 Ir1 Os3'
_cell_volume   425.79955105
_cell_formula_units_Z   1
loop_
 _symmetry_equiv_pos_site_id
 _symmetry_equiv_pos_as_xyz
  1  'x, y, z'
loop_
 _atom_site_type_symbol
 _atom_site_label
 _atom_site_symmetry_multiplicity
 _atom_site_fract_x
 _atom_site_fract_y
 _atom_site_fract_z
 _atom_site_occupancy
  Dy  Dy0  1  0.331794  0.673800  0.062479  1
  Dy  Dy1  1  0.170261  0.176319  0.437890  1
  Dy  Dy2  1  0.670068  0.324945  0.563531  1
  Dy  Dy3  1  0.827747  0.824783  0.934970  1
  Dy  Dy4  1  0.670068  0.324945  0.936469  1
  Dy  Dy5  1  0.827747  0.824783  0.565030  1
  Dy  Dy6  1  0.331794  0.673800  0.437521  1
  Dy  Dy7  1  0.170261  0.176319  0.062110  1
  Dy  Dy8  1  0.869214  0.537965  0.250000  1
  Dy  Dy9  1  0.630874  0.039402  0.250000  1
  Dy  Dy10  1  0.130842  0.461506  0.750000  1
  Dy  Dy11  1  0.368335  0.961427  0.750000  1
  Ir  Ir12  1  0.040531  0.883561  0.250000  1
  Os  Os13  1  0.460059  0.383382  0.250000  1
  Os  Os14  1  0.961806  0.116236  0.750000  1
  Os  Os15  1  0.538599  0.616829  0.750000  1
