# generated using pymatgen
data_Cs2P4WO13
_symmetry_space_group_name_H-M   'P 1'
_cell_length_a   5.21970759
_cell_length_b   8.12170301
_cell_length_c   16.05204600
_cell_angle_alpha   84.22910926
_cell_angle_beta   83.93934690
_cell_angle_gamma   80.49840076
_symmetry_Int_Tables_number   1
_chemical_formula_structural   Cs2P4WO13
_chemical_formula_sum   'Cs4 P8 W2 O26'
_cell_volume   665.00475094
_cell_formula_units_Z   2
loop_
 _symmetry_equiv_pos_site_id
 _symmetry_equiv_pos_as_xyz
  1  'x, y, z'
loop_
 _atom_site_type_symbol
 _atom_site_label
 _atom_site_symmetry_multiplicity
 _atom_site_fract_x
 _atom_site_fract_y
 _atom_site_fract_z
 _atom_site_occupancy
  Cs  Cs0  1  0.680035  0.738234  0.988365  1
  Cs  Cs1  1  0.319965  0.261766  0.011635  1
  Cs  Cs2  1  0.267661  0.300298  0.528381  1
  Cs  Cs3  1  0.732339  0.699702  0.471619  1
  P  P4  1  0.876383  0.226587  0.353781  1
  P  P5  1  0.123617  0.773413  0.646219  1
  P  P6  1  0.672796  0.411330  0.195660  1
  P  P7  1  0.327204  0.588670  0.804340  1
  P  P8  1  0.308093  0.669154  0.287778  1
  P  P9  1  0.691907  0.330846  0.712222  1
  P  P10  1  0.021785  0.893764  0.160368  1
  P  P11  1  0.978215  0.106236  0.839632  1
  W  W12  1  0.447085  0.056737  0.260199  1
  W  W13  1  0.552915  0.943263  0.739801  1
  O  O14  1  0.721669  0.086627  0.339786  1
  O  O15  1  0.278331  0.913373  0.660214  1
  O  O16  1  0.789222  0.313759  0.431572  1
  O  O17  1  0.210778  0.686241  0.568428  1
  O  O18  1  0.854737  0.362571  0.270893  1
  O  O19  1  0.145263  0.637429  0.729107  1
  O  O20  1  0.170386  0.149594  0.350104  1
  O  O21  1  0.829614  0.850406  0.649896  1
  O  O22  1  0.515923  0.594239  0.213722  1
  O  O23  1  0.484077  0.405761  0.786278  1
  O  O24  1  0.821785  0.427667  0.112327  1
  O  O25  1  0.178215  0.572333  0.887673  1
  O  O26  1  0.467207  0.293632  0.204639  1
  O  O27  1  0.532793  0.706368  0.795361  1
  O  O28  1  0.426654  0.816796  0.312943  1
  O  O29  1  0.573346  0.183204  0.687057  1
  O  O30  1  0.058008  0.745227  0.238711  1
  O  O31  1  0.941992  0.254773  0.761289  1
  O  O32  1  0.246439  0.545163  0.357595  1
  O  O33  1  0.753561  0.454837  0.642405  1
  O  O34  1  0.116266  0.823244  0.078627  1
  O  O35  1  0.883734  0.176756  0.921373  1
  O  O36  1  0.723893  0.959307  0.169357  1
  O  O37  1  0.276107  0.040693  0.830643  1
  O  O38  1  0.166794  0.032995  0.181733  1
  O  O39  1  0.833206  0.967005  0.818267  1
