# generated using pymatgen
data_Ba4B4Pd9Pt7
_symmetry_space_group_name_H-M   'P 1'
_cell_length_a   6.19525818
_cell_length_b   5.68857939
_cell_length_c   12.19591221
_cell_angle_alpha   90.12332092
_cell_angle_beta   90.01481752
_cell_angle_gamma   90.02326827
_symmetry_Int_Tables_number   1
_chemical_formula_structural   Ba4B4Pd9Pt7
_chemical_formula_sum   'Ba4 B4 Pd9 Pt7'
_cell_volume   429.80995132
_cell_formula_units_Z   1
loop_
 _symmetry_equiv_pos_site_id
 _symmetry_equiv_pos_as_xyz
  1  'x, y, z'
loop_
 _atom_site_type_symbol
 _atom_site_label
 _atom_site_symmetry_multiplicity
 _atom_site_fract_x
 _atom_site_fract_y
 _atom_site_fract_z
 _atom_site_occupancy
  Ba  Ba0  1  0.182837  0.249521  0.334696  1
  Ba  Ba1  1  0.682526  0.249757  0.165148  1
  Ba  Ba2  1  0.816981  0.750167  0.665266  1
  Ba  Ba3  1  0.316689  0.750413  0.834543  1
  B  B4  1  0.093795  0.254043  0.952627  1
  B  B5  1  0.591261  0.250041  0.547166  1
  B  B6  1  0.908312  0.744564  0.049338  1
  B  B7  1  0.408787  0.749863  0.452867  1
  Pd  Pd8  1  0.108385  0.251129  0.766928  1
  Pd  Pd9  1  0.608827  0.253364  0.733646  1
  Pd  Pd10  1  0.891085  0.751003  0.234176  1
  Pd  Pd11  1  0.391068  0.749373  0.266029  1
  Pd  Pd12  1  0.436854  0.251516  0.940691  1
  Pd  Pd13  1  0.935498  0.249676  0.559402  1
  Pd  Pd14  1  0.565414  0.750012  0.059022  1
  Pd  Pd15  1  0.064499  0.750243  0.441102  1
  Pd  Pd16  1  0.830955  0.003024  0.915433  1
  Pt  Pt17  1  0.331607  0.007513  0.582979  1
  Pt  Pt18  1  0.832809  0.489538  0.918445  1
  Pt  Pt19  1  0.668722  0.506917  0.417381  1
  Pt  Pt20  1  0.163993  0.993988  0.080004  1
  Pt  Pt21  1  0.668047  0.992829  0.417239  1
  Pt  Pt22  1  0.169787  0.508082  0.083553  1
  Pt  Pt23  1  0.331261  0.493424  0.582320  1
