# generated using pymatgen
data_CeDyAl3Tc
_symmetry_space_group_name_H-M   'P 1'
_cell_length_a   5.47299200
_cell_length_b   5.47299364
_cell_length_c   9.06509300
_cell_angle_alpha   90.00000000
_cell_angle_beta   90.00000000
_cell_angle_gamma   119.99999009
_symmetry_Int_Tables_number   1
_chemical_formula_structural   CeDyAl3Tc
_chemical_formula_sum   'Ce2 Dy2 Al6 Tc2'
_cell_volume   235.15417609
_cell_formula_units_Z   2
loop_
 _symmetry_equiv_pos_site_id
 _symmetry_equiv_pos_as_xyz
  1  'x, y, z'
loop_
 _atom_site_type_symbol
 _atom_site_label
 _atom_site_symmetry_multiplicity
 _atom_site_fract_x
 _atom_site_fract_y
 _atom_site_fract_z
 _atom_site_occupancy
  Ce  Ce0  1  0.333333  0.666667  0.459328  1
  Ce  Ce1  1  0.666667  0.333333  0.540672  1
  Dy  Dy2  1  0.666667  0.333333  0.940625  1
  Dy  Dy3  1  0.333333  0.666667  0.059375  1
  Al  Al4  1  0.837032  0.162968  0.244969  1
  Al  Al5  1  0.837032  0.674065  0.244969  1
  Al  Al6  1  0.325935  0.162968  0.244969  1
  Al  Al7  1  0.162968  0.837032  0.755031  1
  Al  Al8  1  0.162968  0.325935  0.755031  1
  Al  Al9  1  0.674065  0.837032  0.755031  1
  Tc  Tc10  1  0.000000  0.000000  0.500000  1
  Tc  Tc11  1  0.000000  0.000000  0.000000  1
