# generated using pymatgen
data_Y5Tm4ZrIr6
_symmetry_space_group_name_H-M   'P 1'
_cell_length_a   10.87347993
_cell_length_b   10.83766600
_cell_length_c   6.30922671
_cell_angle_alpha   90.00000000
_cell_angle_beta   90.08419676
_cell_angle_gamma   90.00000000
_symmetry_Int_Tables_number   1
_chemical_formula_structural   Y5Tm4ZrIr6
_chemical_formula_sum   'Y10 Tm8 Zr2 Ir12'
_cell_volume   743.49830682
_cell_formula_units_Z   2
loop_
 _symmetry_equiv_pos_site_id
 _symmetry_equiv_pos_as_xyz
  1  'x, y, z'
loop_
 _atom_site_type_symbol
 _atom_site_label
 _atom_site_symmetry_multiplicity
 _atom_site_fract_x
 _atom_site_fract_y
 _atom_site_fract_z
 _atom_site_occupancy
  Y  Y0  1  0.287639  0.087573  0.373654  1
  Y  Y1  1  0.287639  0.912427  0.873654  1
  Y  Y2  1  0.712366  0.087526  0.873689  1
  Y  Y3  1  0.712366  0.912474  0.373689  1
  Y  Y4  1  0.588912  0.791323  0.874436  1
  Y  Y5  1  0.588912  0.208677  0.374436  1
  Y  Y6  1  0.412113  0.792260  0.373837  1
  Y  Y7  1  0.412113  0.207740  0.873837  1
  Y  Y8  1  0.206989  0.412987  0.624889  1
  Y  Y9  1  0.206989  0.587013  0.124889  1
  Tm  Tm10  1  0.793652  0.413854  0.123802  1
  Tm  Tm11  1  0.793652  0.586146  0.623802  1
  Tm  Tm12  1  0.914521  0.708973  0.123762  1
  Tm  Tm13  1  0.914521  0.291027  0.623762  1
  Tm  Tm14  1  0.083611  0.709048  0.623453  1
  Tm  Tm15  1  0.083611  0.290952  0.123453  1
  Tm  Tm16  1  0.501024  0.499770  0.001826  1
  Tm  Tm17  1  0.501024  0.500230  0.501826  1
  Zr  Zr18  1  0.999519  0.000361  0.503458  1
  Zr  Zr19  1  0.999519  0.999639  0.003458  1
  Ir  Ir20  1  0.858094  0.147570  0.251368  1
  Ir  Ir21  1  0.858094  0.852430  0.751368  1
  Ir  Ir22  1  0.141431  0.145961  0.752960  1
  Ir  Ir23  1  0.141431  0.854039  0.252960  1
  Ir  Ir24  1  0.656860  0.349789  0.750948  1
  Ir  Ir25  1  0.656860  0.650211  0.250948  1
  Ir  Ir26  1  0.345825  0.347726  0.248633  1
  Ir  Ir27  1  0.345825  0.652274  0.748633  1
  Ir  Ir28  1  0.500281  0.000214  0.122997  1
  Ir  Ir29  1  0.500281  0.999786  0.622997  1
  Ir  Ir30  1  0.997161  0.500006  0.876288  1
  Ir  Ir31  1  0.997161  0.499994  0.376288  1
