# generated using pymatgen
data_Tb4Sm2NiBr10
_symmetry_space_group_name_H-M   'P 1'
_cell_length_a   7.37813772
_cell_length_b   9.24374149
_cell_length_c   9.32700143
_cell_angle_alpha   108.36191364
_cell_angle_beta   96.79078589
_cell_angle_gamma   106.01860535
_symmetry_Int_Tables_number   1
_chemical_formula_structural   Tb4Sm2NiBr10
_chemical_formula_sum   'Tb4 Sm2 Ni1 Br10'
_cell_volume   565.41980099
_cell_formula_units_Z   1
loop_
 _symmetry_equiv_pos_site_id
 _symmetry_equiv_pos_as_xyz
  1  'x, y, z'
loop_
 _atom_site_type_symbol
 _atom_site_label
 _atom_site_symmetry_multiplicity
 _atom_site_fract_x
 _atom_site_fract_y
 _atom_site_fract_z
 _atom_site_occupancy
  Tb  Tb0  1  0.973790  0.295578  0.093602  1
  Tb  Tb1  1  0.026210  0.704422  0.906398  1
  Tb  Tb2  1  0.357132  0.134679  0.175503  1
  Tb  Tb3  1  0.642868  0.865321  0.824497  1
  Sm  Sm4  1  0.124659  0.044912  0.754652  1
  Sm  Sm5  1  0.875341  0.955088  0.245348  1
  Ni  Ni6  1  0.000000  0.000000  0.000000  1
  Br  Br7  1  0.552078  0.177947  0.917355  1
  Br  Br8  1  0.447922  0.822053  0.082645  1
  Br  Br9  1  0.358213  0.456471  0.271676  1
  Br  Br10  1  0.641787  0.543529  0.728324  1
  Br  Br11  1  0.261169  0.086119  0.455851  1
  Br  Br12  1  0.738831  0.913881  0.544149  1
  Br  Br13  1  0.786903  0.262679  0.346879  1
  Br  Br14  1  0.213097  0.737321  0.653121  1
  Br  Br15  1  0.083957  0.371991  0.829000  1
  Br  Br16  1  0.916043  0.628009  0.171000  1
