# generated using pymatgen
data_FeAg(CO3)2
_symmetry_space_group_name_H-M   'P 1'
_cell_length_a   6.26085697
_cell_length_b   6.26086593
_cell_length_c   6.26084811
_cell_angle_alpha   45.37561491
_cell_angle_beta   45.37570853
_cell_angle_gamma   45.37562947
_symmetry_Int_Tables_number   1
_chemical_formula_structural   FeAg(CO3)2
_chemical_formula_sum   'Fe1 Ag1 C2 O6'
_cell_volume   113.24073601
_cell_formula_units_Z   1
loop_
 _symmetry_equiv_pos_site_id
 _symmetry_equiv_pos_as_xyz
  1  'x, y, z'
loop_
 _atom_site_type_symbol
 _atom_site_label
 _atom_site_symmetry_multiplicity
 _atom_site_fract_x
 _atom_site_fract_y
 _atom_site_fract_z
 _atom_site_occupancy
  Fe  Fe0  1  0.000000  0.000000  0.000000  1
  Ag  Ag1  1  0.500000  0.500000  0.500000  1
  C  C2  1  0.264368  0.264369  0.264366  1
  C  C3  1  0.735632  0.735631  0.735634  1
  O  O4  1  0.017966  0.221051  0.549885  1
  O  O5  1  0.450115  0.982033  0.778952  1
  O  O6  1  0.778951  0.450113  0.982035  1
  O  O7  1  0.221049  0.549887  0.017965  1
  O  O8  1  0.549885  0.017967  0.221048  1
  O  O9  1  0.982034  0.778949  0.450115  1
