# generated using pymatgen
data_Tb4ZnPt11
_symmetry_space_group_name_H-M   'P 1'
_cell_length_a   4.17482800
_cell_length_b   5.82848631
_cell_length_c   11.64653653
_cell_angle_alpha   88.17843460
_cell_angle_beta   90.00000000
_cell_angle_gamma   90.00000000
_symmetry_Int_Tables_number   1
_chemical_formula_structural   Tb4ZnPt11
_chemical_formula_sum   'Tb4 Zn1 Pt11'
_cell_volume   283.25112449
_cell_formula_units_Z   1
loop_
 _symmetry_equiv_pos_site_id
 _symmetry_equiv_pos_as_xyz
  1  'x, y, z'
loop_
 _atom_site_type_symbol
 _atom_site_label
 _atom_site_symmetry_multiplicity
 _atom_site_fract_x
 _atom_site_fract_y
 _atom_site_fract_z
 _atom_site_occupancy
  Tb  Tb0  1  0.500000  0.756318  0.373594  1
  Tb  Tb1  1  0.500000  0.725672  0.868132  1
  Tb  Tb2  1  0.500000  0.274328  0.131868  1
  Tb  Tb3  1  0.500000  0.243682  0.626406  1
  Zn  Zn4  1  0.000000  0.000000  0.000000  1
  Pt  Pt5  1  0.000000  0.012875  0.245855  1
  Pt  Pt6  1  0.000000  0.987125  0.754145  1
  Pt  Pt7  1  0.000000  0.500000  0.000000  1
  Pt  Pt8  1  0.000000  0.500000  0.500000  1
  Pt  Pt9  1  0.000000  0.516415  0.248352  1
  Pt  Pt10  1  0.000000  0.483585  0.751648  1
  Pt  Pt11  1  0.500000  0.254629  0.376428  1
  Pt  Pt12  1  0.500000  0.224916  0.883747  1
  Pt  Pt13  1  0.500000  0.775084  0.116253  1
  Pt  Pt14  1  0.500000  0.745371  0.623572  1
  Pt  Pt15  1  0.000000  0.000000  0.500000  1
