# generated using pymatgen
data_YZr(Tc2P)4
_symmetry_space_group_name_H-M   'P 1'
_cell_length_a   7.36350585
_cell_length_b   7.36350585
_cell_length_c   3.94736300
_cell_angle_alpha   90.00000000
_cell_angle_beta   90.00000000
_cell_angle_gamma   90.62021466
_symmetry_Int_Tables_number   1
_chemical_formula_structural   YZr(Tc2P)4
_chemical_formula_sum   'Y1 Zr1 Tc8 P4'
_cell_volume   214.01829200
_cell_formula_units_Z   1
loop_
 _symmetry_equiv_pos_site_id
 _symmetry_equiv_pos_as_xyz
  1  'x, y, z'
loop_
 _atom_site_type_symbol
 _atom_site_label
 _atom_site_symmetry_multiplicity
 _atom_site_fract_x
 _atom_site_fract_y
 _atom_site_fract_z
 _atom_site_occupancy
  Y  Y0  1  0.000000  0.000000  0.500000  1
  Zr  Zr1  1  0.500000  0.500000  0.000000  1
  Tc  Tc2  1  0.341298  0.084950  0.000000  1
  Tc  Tc3  1  0.579173  0.163630  0.500000  1
  Tc  Tc4  1  0.420827  0.836370  0.500000  1
  Tc  Tc5  1  0.658702  0.915050  0.000000  1
  Tc  Tc6  1  0.163630  0.579173  0.500000  1
  Tc  Tc7  1  0.836370  0.420827  0.500000  1
  Tc  Tc8  1  0.084950  0.341298  0.000000  1
  Tc  Tc9  1  0.915050  0.658702  0.000000  1
  P  P10  1  0.784593  0.215407  0.000000  1
  P  P11  1  0.710262  0.710262  0.500000  1
  P  P12  1  0.289738  0.289738  0.500000  1
  P  P13  1  0.215407  0.784593  0.000000  1
