# generated using pymatgen
data_Ho6MnCo17P12
_symmetry_space_group_name_H-M   'P 1'
_cell_length_a   3.68278300
_cell_length_b   10.50400800
_cell_length_c   12.15234700
_cell_angle_alpha   90.00000000
_cell_angle_beta   90.00000000
_cell_angle_gamma   90.00000000
_symmetry_Int_Tables_number   1
_chemical_formula_structural   Ho6MnCo17P12
_chemical_formula_sum   'Ho6 Mn1 Co17 P12'
_cell_volume   470.10117375
_cell_formula_units_Z   1
loop_
 _symmetry_equiv_pos_site_id
 _symmetry_equiv_pos_as_xyz
  1  'x, y, z'
loop_
 _atom_site_type_symbol
 _atom_site_label
 _atom_site_symmetry_multiplicity
 _atom_site_fract_x
 _atom_site_fract_y
 _atom_site_fract_z
 _atom_site_occupancy
  Ho  Ho0  1  0.000000  0.500000  0.523285  1
  Ho  Ho1  1  0.500000  0.000000  0.477448  1
  Ho  Ho2  1  0.500000  0.817632  0.205957  1
  Ho  Ho3  1  0.500000  0.182368  0.205957  1
  Ho  Ho4  1  0.000000  0.682788  0.794880  1
  Ho  Ho5  1  0.000000  0.317212  0.794880  1
  Mn  Mn6  1  0.500000  0.500000  0.159092  1
  Co  Co7  1  0.000000  0.500000  0.985579  1
  Co  Co8  1  0.500000  0.000000  0.014216  1
  Co  Co9  1  0.500000  0.296816  0.430403  1
  Co  Co10  1  0.500000  0.703184  0.430403  1
  Co  Co11  1  0.000000  0.203193  0.568852  1
  Co  Co12  1  0.000000  0.796807  0.568852  1
  Co  Co13  1  0.500000  0.879099  0.709048  1
  Co  Co14  1  0.500000  0.120901  0.709048  1
  Co  Co15  1  0.000000  0.620783  0.290636  1
  Co  Co16  1  0.000000  0.379217  0.290636  1
  Co  Co17  1  0.500000  0.333200  0.994059  1
  Co  Co18  1  0.500000  0.666800  0.994059  1
  Co  Co19  1  0.000000  0.166897  0.005963  1
  Co  Co20  1  0.000000  0.833103  0.005963  1
  Co  Co21  1  0.000000  0.000000  0.840480  1
  Co  Co22  1  0.500000  0.500000  0.702702  1
  Co  Co23  1  0.000000  0.000000  0.296935  1
  P  P24  1  0.500000  0.310996  0.616447  1
  P  P25  1  0.500000  0.689004  0.616447  1
  P  P26  1  0.000000  0.188618  0.383925  1
  P  P27  1  0.000000  0.811382  0.383925  1
  P  P28  1  0.500000  0.500000  0.881969  1
  P  P29  1  0.000000  0.000000  0.117555  1
  P  P30  1  0.500000  0.848034  0.892708  1
  P  P31  1  0.500000  0.151966  0.892708  1
  P  P32  1  0.000000  0.652993  0.106515  1
  P  P33  1  0.000000  0.347007  0.106515  1
  P  P34  1  0.500000  0.500000  0.346042  1
  P  P35  1  0.000000  0.000000  0.655910  1
