# generated using pymatgen
data_Tb2RuRhF14
_symmetry_space_group_name_H-M   'P 1'
_cell_length_a   5.56449631
_cell_length_b   8.94286297
_cell_length_c   11.99956224
_cell_angle_alpha   62.67199319
_cell_angle_beta   90.55217396
_cell_angle_gamma   89.83116497
_symmetry_Int_Tables_number   1
_chemical_formula_structural   Tb2RuRhF14
_chemical_formula_sum   'Tb4 Ru2 Rh2 F28'
_cell_volume   530.44189119
_cell_formula_units_Z   2
loop_
 _symmetry_equiv_pos_site_id
 _symmetry_equiv_pos_as_xyz
  1  'x, y, z'
loop_
 _atom_site_type_symbol
 _atom_site_label
 _atom_site_symmetry_multiplicity
 _atom_site_fract_x
 _atom_site_fract_y
 _atom_site_fract_z
 _atom_site_occupancy
  Tb  Tb0  1  0.261482  0.821899  0.254823  1
  Tb  Tb1  1  0.738518  0.178101  0.745177  1
  Tb  Tb2  1  0.759626  0.195892  0.223836  1
  Tb  Tb3  1  0.240374  0.804108  0.776164  1
  Ru  Ru4  1  0.258768  0.273452  0.456777  1
  Ru  Ru5  1  0.741232  0.726548  0.543223  1
  Rh  Rh6  1  0.756977  0.725682  0.044932  1
  Rh  Rh7  1  0.243023  0.274318  0.955068  1
  F  F8  1  0.937670  0.706058  0.419747  1
  F  F9  1  0.062330  0.293942  0.580253  1
  F  F10  1  0.440444  0.293091  0.085536  1
  F  F11  1  0.559556  0.706909  0.914464  1
  F  F12  1  0.467795  0.727564  0.137645  1
  F  F13  1  0.532205  0.272436  0.862355  1
  F  F14  1  0.972088  0.268757  0.365935  1
  F  F15  1  0.027912  0.731243  0.634065  1
  F  F16  1  0.950976  0.742387  0.177387  1
  F  F17  1  0.049024  0.257613  0.822613  1
  F  F18  1  0.452914  0.254031  0.330205  1
  F  F19  1  0.547086  0.745969  0.669795  1
  F  F20  1  0.769327  0.480153  0.143425  1
  F  F21  1  0.230673  0.519847  0.856575  1
  F  F22  1  0.269552  0.513496  0.363626  1
  F  F23  1  0.730448  0.486504  0.636374  1
  F  F24  1  0.946321  0.282296  0.041339  1
  F  F25  1  0.053679  0.717704  0.958661  1
  F  F26  1  0.448287  0.720994  0.454857  1
  F  F27  1  0.551713  0.279006  0.545143  1
  F  F28  1  0.740649  0.965066  0.452254  1
  F  F29  1  0.259351  0.034934  0.547746  1
  F  F30  1  0.241012  0.028633  0.049759  1
  F  F31  1  0.758988  0.971367  0.950241  1
  F  F32  1  0.589238  0.970342  0.232759  1
  F  F33  1  0.410762  0.029658  0.767241  1
  F  F34  1  0.082908  0.029962  0.270658  1
  F  F35  1  0.917092  0.970038  0.729342  1
