# generated using pymatgen
data_LaCeHo4Ta2O14
_symmetry_space_group_name_H-M   'P 1'
_cell_length_a   6.51350370
_cell_length_b   6.51350382
_cell_length_c   7.60190544
_cell_angle_alpha   90.03192028
_cell_angle_beta   89.96807809
_cell_angle_gamma   108.93310481
_symmetry_Int_Tables_number   1
_chemical_formula_structural   LaCeHo4Ta2O14
_chemical_formula_sum   'La1 Ce1 Ho4 Ta2 O14'
_cell_volume   305.06755804
_cell_formula_units_Z   1
loop_
 _symmetry_equiv_pos_site_id
 _symmetry_equiv_pos_as_xyz
  1  'x, y, z'
loop_
 _atom_site_type_symbol
 _atom_site_label
 _atom_site_symmetry_multiplicity
 _atom_site_fract_x
 _atom_site_fract_y
 _atom_site_fract_z
 _atom_site_occupancy
  La  La0  1  0.495946  0.495946  0.000000  1
  Ce  Ce1  1  0.504983  0.504983  0.500000  1
  Ho  Ho2  1  0.001354  0.533300  0.249112  1
  Ho  Ho3  1  0.998807  0.466602  0.745996  1
  Ho  Ho4  1  0.533300  0.001354  0.750888  1
  Ho  Ho5  1  0.466602  0.998807  0.254004  1
  Ta  Ta6  1  0.999838  0.999838  0.500000  1
  Ta  Ta7  1  0.999962  0.999962  0.000000  1
  O  O8  1  0.934678  0.065184  0.750077  1
  O  O9  1  0.065184  0.934678  0.249923  1
  O  O10  1  0.355830  0.644247  0.253278  1
  O  O11  1  0.644247  0.355830  0.746722  1
  O  O12  1  0.362922  0.637252  0.746188  1
  O  O13  1  0.637252  0.362922  0.253812  1
  O  O14  1  0.321587  0.068633  0.969271  1
  O  O15  1  0.678414  0.930649  0.469565  1
  O  O16  1  0.316794  0.063589  0.536281  1
  O  O17  1  0.682910  0.936520  0.036610  1
  O  O18  1  0.063589  0.316794  0.463719  1
  O  O19  1  0.936520  0.682910  0.963390  1
  O  O20  1  0.930649  0.678414  0.530435  1
  O  O21  1  0.068633  0.321587  0.030729  1
