# generated using pymatgen
data_Sm4Ga4Ru3Rh
_symmetry_space_group_name_H-M   'P 1'
_cell_length_a   4.58242700
_cell_length_b   7.33087284
_cell_length_c   7.16155463
_cell_angle_alpha   89.99934071
_cell_angle_beta   90.00000000
_cell_angle_gamma   90.00000000
_symmetry_Int_Tables_number   1
_chemical_formula_structural   Sm4Ga4Ru3Rh
_chemical_formula_sum   'Sm4 Ga4 Ru3 Rh1'
_cell_volume   240.57946268
_cell_formula_units_Z   1
loop_
 _symmetry_equiv_pos_site_id
 _symmetry_equiv_pos_as_xyz
  1  'x, y, z'
loop_
 _atom_site_type_symbol
 _atom_site_label
 _atom_site_symmetry_multiplicity
 _atom_site_fract_x
 _atom_site_fract_y
 _atom_site_fract_z
 _atom_site_occupancy
  Sm  Sm0  1  0.250000  0.021372  0.804146  1
  Sm  Sm1  1  0.250000  0.523702  0.693827  1
  Sm  Sm2  1  0.750000  0.978604  0.196665  1
  Sm  Sm3  1  0.750000  0.473976  0.307101  1
  Ga  Ga4  1  0.250000  0.195703  0.394466  1
  Ga  Ga5  1  0.250000  0.690130  0.112912  1
  Ga  Ga6  1  0.750000  0.805703  0.601434  1
  Ga  Ga7  1  0.750000  0.305292  0.893245  1
  Ru  Ru8  1  0.250000  0.845956  0.435806  1
  Ru  Ru9  1  0.250000  0.343583  0.062970  1
  Ru  Ru10  1  0.750000  0.157772  0.563716  1
  Rh  Rh11  1  0.750000  0.658210  0.933713  1
