# generated using pymatgen
data_TiAgSn(PO4)3
_symmetry_space_group_name_H-M   'P 1'
_cell_length_a   8.67776675
_cell_length_b   8.67912031
_cell_length_c   9.05704268
_cell_angle_alpha   89.95195793
_cell_angle_beta   118.61120664
_cell_angle_gamma   120.00051572
_symmetry_Int_Tables_number   1
_chemical_formula_structural   TiAgSn(PO4)3
_chemical_formula_sum   'Ti2 Ag2 Sn2 P6 O24'
_cell_volume   492.40610171
_cell_formula_units_Z   2
loop_
 _symmetry_equiv_pos_site_id
 _symmetry_equiv_pos_as_xyz
  1  'x, y, z'
loop_
 _atom_site_type_symbol
 _atom_site_label
 _atom_site_symmetry_multiplicity
 _atom_site_fract_x
 _atom_site_fract_y
 _atom_site_fract_z
 _atom_site_occupancy
  Ti  Ti0  1  0.298428  0.644326  0.939178  1
  Ti  Ti1  1  0.713642  0.853707  0.560508  1
  Ag  Ag2  1  0.029166  0.524216  0.508104  1
  Ag  Ag3  1  0.994455  0.977573  0.990958  1
  Sn  Sn4  1  0.712420  0.351227  0.061286  1
  Sn  Sn5  1  0.299491  0.146762  0.437682  1
  P  P6  1  0.505648  0.033065  0.248878  1
  P  P7  1  0.797062  0.539504  0.748327  1
  P  P8  1  0.215210  0.249008  0.750107  1
  P  P9  1  0.789686  0.749161  0.249196  1
  P  P10  1  0.222707  0.465362  0.250859  1
  P  P11  1  0.508160  0.958385  0.750740  1
  O  O12  1  0.631419  0.995723  0.416678  1
  O  O13  1  0.342700  0.054808  0.257615  1
  O  O14  1  0.007329  0.075372  0.717672  1
  O  O15  1  0.611433  0.369612  0.579413  1
  O  O16  1  0.222676  0.501911  0.084459  1
  O  O17  1  0.671408  0.216309  0.241672  1
  O  O18  1  0.398877  0.258525  0.916357  1
  O  O19  1  0.003251  0.569728  0.780448  1
  O  O20  1  0.224545  0.236997  0.584933  1
  O  O21  1  0.802518  0.717656  0.720800  1
  O  O22  1  0.661015  0.129957  0.917987  1
  O  O23  1  0.216434  0.424698  0.781342  1
  O  O24  1  0.798626  0.575332  0.238950  1
  O  O25  1  0.376128  0.869136  0.081131  1
  O  O26  1  0.206666  0.279791  0.258125  1
  O  O27  1  0.792413  0.787140  0.416426  1
  O  O28  1  0.029935  0.448243  0.239345  1
  O  O29  1  0.589576  0.713505  0.081119  1
  O  O30  1  0.359617  0.782197  0.778087  1
  O  O31  1  0.785019  0.516145  0.912161  1
  O  O32  1  0.424946  0.627629  0.419721  1
  O  O33  1  0.985304  0.920594  0.260725  1
  O  O34  1  0.651972  0.924578  0.722033  1
  O  O35  1  0.358718  0.981215  0.584177  1
