# generated using pymatgen
data_PrHo7(P7Ir8)2
_symmetry_space_group_name_H-M   'P 1'
_cell_length_a   3.94139900
_cell_length_b   12.70567872
_cell_length_c   13.15220140
_cell_angle_alpha   80.66974949
_cell_angle_beta   90.00000000
_cell_angle_gamma   90.00000000
_symmetry_Int_Tables_number   1
_chemical_formula_structural   PrHo7(P7Ir8)2
_chemical_formula_sum   'Pr1 Ho7 P14 Ir16'
_cell_volume   649.92429625
_cell_formula_units_Z   1
loop_
 _symmetry_equiv_pos_site_id
 _symmetry_equiv_pos_as_xyz
  1  'x, y, z'
loop_
 _atom_site_type_symbol
 _atom_site_label
 _atom_site_symmetry_multiplicity
 _atom_site_fract_x
 _atom_site_fract_y
 _atom_site_fract_z
 _atom_site_occupancy
  Pr  Pr0  1  0.250000  0.279045  0.102499  1
  Ho  Ho1  1  0.750000  0.791384  0.561326  1
  Ho  Ho2  1  0.250000  0.208677  0.439138  1
  Ho  Ho3  1  0.750000  0.479435  0.705394  1
  Ho  Ho4  1  0.250000  0.521133  0.294936  1
  Ho  Ho5  1  0.750000  0.719940  0.897705  1
  Ho  Ho6  1  0.250000  0.102349  0.788727  1
  Ho  Ho7  1  0.750000  0.897554  0.211713  1
  P  P8  1  0.250000  0.906529  0.412042  1
  P  P9  1  0.750000  0.473660  0.129949  1
  P  P10  1  0.250000  0.527831  0.869999  1
  P  P11  1  0.750000  0.093147  0.588347  1
  P  P12  1  0.250000  0.741618  0.079229  1
  P  P13  1  0.750000  0.256681  0.917081  1
  P  P14  1  0.750000  0.157511  0.284674  1
  P  P15  1  0.250000  0.842951  0.717084  1
  P  P16  1  0.250000  0.047729  0.101234  1
  P  P17  1  0.750000  0.947535  0.898998  1
  P  P18  1  0.250000  0.312129  0.689098  1
  P  P19  1  0.750000  0.688004  0.310416  1
  P  P20  1  0.250000  0.607981  0.566831  1
  P  P21  1  0.750000  0.392794  0.434621  1
  Ir  Ir22  1  0.250000  0.990947  0.576484  1
  Ir  Ir23  1  0.750000  0.008736  0.424341  1
  Ir  Ir24  1  0.250000  0.662621  0.730433  1
  Ir  Ir25  1  0.750000  0.339451  0.272769  1
  Ir  Ir26  1  0.250000  0.554615  0.045871  1
  Ir  Ir27  1  0.750000  0.450183  0.951002  1
  Ir  Ir28  1  0.250000  0.059520  0.273330  1
  Ir  Ir29  1  0.750000  0.939037  0.727416  1
  Ir  Ir30  1  0.250000  0.422067  0.524392  1
  Ir  Ir31  1  0.750000  0.578747  0.476192  1
  Ir  Ir32  1  0.250000  0.914060  0.996674  1
  Ir  Ir33  1  0.750000  0.083566  0.001421  1
  Ir  Ir34  1  0.250000  0.729466  0.394425  1
  Ir  Ir35  1  0.750000  0.270434  0.605502  1
  Ir  Ir36  1  0.250000  0.342022  0.856659  1
  Ir  Ir37  1  0.750000  0.658913  0.142048  1
