# generated using pymatgen
data_Ho6MnFe(Co4P3)4
_symmetry_space_group_name_H-M   'P 1'
_cell_length_a   3.68095400
_cell_length_b   10.50672700
_cell_length_c   12.15678800
_cell_angle_alpha   90.00000000
_cell_angle_beta   90.00000000
_cell_angle_gamma   90.00000000
_symmetry_Int_Tables_number   1
_chemical_formula_structural   Ho6MnFe(Co4P3)4
_chemical_formula_sum   'Ho6 Mn1 Fe1 Co16 P12'
_cell_volume   470.16108655
_cell_formula_units_Z   1
loop_
 _symmetry_equiv_pos_site_id
 _symmetry_equiv_pos_as_xyz
  1  'x, y, z'
loop_
 _atom_site_type_symbol
 _atom_site_label
 _atom_site_symmetry_multiplicity
 _atom_site_fract_x
 _atom_site_fract_y
 _atom_site_fract_z
 _atom_site_occupancy
  Ho  Ho0  1  0.000000  0.500000  0.521788  1
  Ho  Ho1  1  0.500000  0.000000  0.477079  1
  Ho  Ho2  1  0.500000  0.817906  0.205055  1
  Ho  Ho3  1  0.500000  0.182094  0.205055  1
  Ho  Ho4  1  0.000000  0.681561  0.794653  1
  Ho  Ho5  1  0.000000  0.318439  0.794653  1
  Mn  Mn6  1  0.000000  0.000000  0.840194  1
  Fe  Fe7  1  0.500000  0.500000  0.156936  1
  Co  Co8  1  0.000000  0.500000  0.986790  1
  Co  Co9  1  0.500000  0.000000  0.013762  1
  Co  Co10  1  0.500000  0.296624  0.431259  1
  Co  Co11  1  0.500000  0.703376  0.431259  1
  Co  Co12  1  0.000000  0.203161  0.570038  1
  Co  Co13  1  0.000000  0.796839  0.570038  1
  Co  Co14  1  0.500000  0.879355  0.709335  1
  Co  Co15  1  0.500000  0.120645  0.709335  1
  Co  Co16  1  0.000000  0.621266  0.291279  1
  Co  Co17  1  0.000000  0.378734  0.291279  1
  Co  Co18  1  0.500000  0.332770  0.994291  1
  Co  Co19  1  0.500000  0.667230  0.994291  1
  Co  Co20  1  0.000000  0.166769  0.005870  1
  Co  Co21  1  0.000000  0.833231  0.005870  1
  Co  Co22  1  0.500000  0.500000  0.703014  1
  Co  Co23  1  0.000000  0.000000  0.297610  1
  P  P24  1  0.500000  0.311598  0.616287  1
  P  P25  1  0.500000  0.688402  0.616287  1
  P  P26  1  0.000000  0.189101  0.383896  1
  P  P27  1  0.000000  0.810899  0.383896  1
  P  P28  1  0.500000  0.500000  0.882839  1
  P  P29  1  0.000000  0.000000  0.117789  1
  P  P30  1  0.500000  0.847039  0.892733  1
  P  P31  1  0.500000  0.152961  0.892733  1
  P  P32  1  0.000000  0.652640  0.107936  1
  P  P33  1  0.000000  0.347360  0.107936  1
  P  P34  1  0.500000  0.500000  0.342868  1
  P  P35  1  0.000000  0.000000  0.654072  1
