# generated using pymatgen
data_Pu2Ti3Si4
_symmetry_space_group_name_H-M   'P 1'
_cell_length_a   7.00693500
_cell_length_b   7.00693500
_cell_length_c   12.99393200
_cell_angle_alpha   90.00000000
_cell_angle_beta   90.00000000
_cell_angle_gamma   90.00000000
_symmetry_Int_Tables_number   1
_chemical_formula_structural   Pu2Ti3Si4
_chemical_formula_sum   'Pu8 Ti12 Si16'
_cell_volume   637.96487379
_cell_formula_units_Z   4
loop_
 _symmetry_equiv_pos_site_id
 _symmetry_equiv_pos_as_xyz
  1  'x, y, z'
loop_
 _atom_site_type_symbol
 _atom_site_label
 _atom_site_symmetry_multiplicity
 _atom_site_fract_x
 _atom_site_fract_y
 _atom_site_fract_z
 _atom_site_occupancy
  Pu  Pu0  1  0.324213  0.009579  0.469387  1
  Pu  Pu1  1  0.675785  0.990420  0.969387  1
  Pu  Pu2  1  0.824213  0.490420  0.280613  1
  Pu  Pu3  1  0.175785  0.509579  0.780613  1
  Pu  Pu4  1  0.990420  0.675785  0.030614  1
  Pu  Pu5  1  0.009579  0.324213  0.530613  1
  Pu  Pu6  1  0.509579  0.175785  0.219387  1
  Pu  Pu7  1  0.490420  0.824213  0.719387  1
  Ti  Ti8  1  0.156281  0.005032  0.879899  1
  Ti  Ti9  1  0.843719  0.994969  0.379899  1
  Ti  Ti10  1  0.656280  0.494968  0.870101  1
  Ti  Ti11  1  0.343719  0.505032  0.370101  1
  Ti  Ti12  1  0.994969  0.843719  0.620101  1
  Ti  Ti13  1  0.005032  0.156281  0.120101  1
  Ti  Ti14  1  0.505032  0.343719  0.629898  1
  Ti  Ti15  1  0.494968  0.656280  0.129899  1
  Ti  Ti16  1  0.331254  0.331254  0.000000  1
  Ti  Ti17  1  0.668746  0.668746  0.500000  1
  Ti  Ti18  1  0.831255  0.168746  0.750000  1
  Ti  Ti19  1  0.168746  0.831255  0.250001  1
  Si  Si20  1  0.299199  0.960930  0.068151  1
  Si  Si21  1  0.700801  0.039070  0.568152  1
  Si  Si22  1  0.799200  0.539071  0.681849  1
  Si  Si23  1  0.200801  0.460930  0.181848  1
  Si  Si24  1  0.039070  0.700801  0.431849  1
  Si  Si25  1  0.960930  0.299199  0.931849  1
  Si  Si26  1  0.460930  0.200801  0.818151  1
  Si  Si27  1  0.539071  0.799200  0.318151  1
  Si  Si28  1  0.203478  0.125716  0.690146  1
  Si  Si29  1  0.796521  0.874285  0.190146  1
  Si  Si30  1  0.703478  0.374285  0.059854  1
  Si  Si31  1  0.296522  0.625716  0.559854  1
  Si  Si32  1  0.874285  0.796521  0.809854  1
  Si  Si33  1  0.125716  0.203478  0.309854  1
  Si  Si34  1  0.625716  0.296522  0.440146  1
  Si  Si35  1  0.374285  0.703478  0.940146  1
