# generated using pymatgen
data_NdTh3Mg2Si3Ge
_symmetry_space_group_name_H-M   'P 1'
_cell_length_a   7.31900202
_cell_length_b   7.32699631
_cell_length_c   4.42971200
_cell_angle_alpha   90.00000000
_cell_angle_beta   90.00000000
_cell_angle_gamma   90.08819443
_symmetry_Int_Tables_number   1
_chemical_formula_structural   NdTh3Mg2Si3Ge
_chemical_formula_sum   'Nd1 Th3 Mg2 Si3 Ge1'
_cell_volume   237.54878662
_cell_formula_units_Z   1
loop_
 _symmetry_equiv_pos_site_id
 _symmetry_equiv_pos_as_xyz
  1  'x, y, z'
loop_
 _atom_site_type_symbol
 _atom_site_label
 _atom_site_symmetry_multiplicity
 _atom_site_fract_x
 _atom_site_fract_y
 _atom_site_fract_z
 _atom_site_occupancy
  Nd  Nd0  1  0.818761  0.679375  0.500000  1
  Th  Th1  1  0.678529  0.178982  0.500000  1
  Th  Th2  1  0.323287  0.823747  0.500000  1
  Th  Th3  1  0.178802  0.318512  0.500000  1
  Mg  Mg4  1  0.997831  0.999306  0.000000  1
  Mg  Mg5  1  0.503452  0.501165  0.000000  1
  Si  Si6  1  0.880524  0.377343  0.000000  1
  Si  Si7  1  0.615261  0.884719  0.000000  1
  Si  Si8  1  0.382397  0.117455  0.000000  1
  Ge  Ge9  1  0.121155  0.619395  0.000000  1
