# generated using pymatgen
data_Dy3YCuPt3
_symmetry_space_group_name_H-M   'P 1'
_cell_length_a   4.49121500
_cell_length_b   5.60745741
_cell_length_c   7.05294328
_cell_angle_alpha   89.60927618
_cell_angle_beta   90.00000000
_cell_angle_gamma   90.00000000
_symmetry_Int_Tables_number   1
_chemical_formula_structural   Dy3YCuPt3
_chemical_formula_sum   'Dy3 Y1 Cu1 Pt3'
_cell_volume   177.61928698
_cell_formula_units_Z   1
loop_
 _symmetry_equiv_pos_site_id
 _symmetry_equiv_pos_as_xyz
  1  'x, y, z'
loop_
 _atom_site_type_symbol
 _atom_site_label
 _atom_site_symmetry_multiplicity
 _atom_site_fract_x
 _atom_site_fract_y
 _atom_site_fract_z
 _atom_site_occupancy
  Dy  Dy0  1  0.000000  0.856842  0.819335  1
  Dy  Dy1  1  0.500000  0.364130  0.687172  1
  Dy  Dy2  1  0.500000  0.138951  0.176665  1
  Y  Y3  1  0.000000  0.640841  0.317107  1
  Cu  Cu4  1  0.000000  0.137037  0.463750  1
  Pt  Pt5  1  0.000000  0.339889  0.955461  1
  Pt  Pt6  1  0.500000  0.866861  0.535718  1
  Pt  Pt7  1  0.500000  0.655450  0.044790  1
