# generated using pymatgen
data_Mn2Zn2As(PN2)6
_symmetry_space_group_name_H-M   'P 1'
_cell_length_a   7.23332632
_cell_length_b   7.19600118
_cell_length_c   7.23332722
_cell_angle_alpha   109.79365450
_cell_angle_beta   109.03996797
_cell_angle_gamma   109.79365572
_symmetry_Int_Tables_number   1
_chemical_formula_structural   Mn2Zn2As(PN2)6
_chemical_formula_sum   'Mn2 Zn2 As1 P6 N12'
_cell_volume   289.05236893
_cell_formula_units_Z   1
loop_
 _symmetry_equiv_pos_site_id
 _symmetry_equiv_pos_as_xyz
  1  'x, y, z'
loop_
 _atom_site_type_symbol
 _atom_site_label
 _atom_site_symmetry_multiplicity
 _atom_site_fract_x
 _atom_site_fract_y
 _atom_site_fract_z
 _atom_site_occupancy
  Mn  Mn0  1  0.994984  0.339125  0.994984  1
  Mn  Mn1  1  0.655859  0.660875  0.655859  1
  Zn  Zn2  1  0.337013  0.000000  0.001334  1
  Zn  Zn3  1  0.001334  0.000000  0.337013  1
  As  As4  1  0.003993  0.000000  0.003993  1
  P  P5  1  0.750708  0.249453  0.498736  1
  P  P6  1  0.249283  0.750547  0.501255  1
  P  P7  1  0.501255  0.750547  0.249283  1
  P  P8  1  0.498736  0.249453  0.750708  1
  P  P9  1  0.749924  0.500000  0.249924  1
  P  P10  1  0.249924  0.500000  0.749924  1
  N  N11  1  0.559010  0.272732  0.000134  1
  N  N12  1  0.445028  0.445209  0.719930  1
  N  N13  1  0.000134  0.272732  0.559010  1
  N  N14  1  0.272187  0.000000  0.558315  1
  N  N15  1  0.719930  0.445209  0.445028  1
  N  N16  1  0.999819  0.554791  0.274721  1
  N  N17  1  0.558315  0.000000  0.272187  1
  N  N18  1  0.440148  0.716132  0.440148  1
  N  N19  1  0.274721  0.554791  0.999819  1
  N  N20  1  0.724016  0.283868  0.724016  1
  N  N21  1  0.727402  0.727268  0.286279  1
  N  N22  1  0.286279  0.727268  0.727402  1
