# generated using pymatgen
data_Nb3Zn3CoIr5
_symmetry_space_group_name_H-M   'P 1'
_cell_length_a   4.06159000
_cell_length_b   7.26617500
_cell_length_c   12.13448100
_cell_angle_alpha   90.00000000
_cell_angle_beta   90.00146548
_cell_angle_gamma   90.00000000
_symmetry_Int_Tables_number   1
_chemical_formula_structural   Nb3Zn3CoIr5
_chemical_formula_sum   'Nb6 Zn6 Co2 Ir10'
_cell_volume   358.11551792
_cell_formula_units_Z   2
loop_
 _symmetry_equiv_pos_site_id
 _symmetry_equiv_pos_as_xyz
  1  'x, y, z'
loop_
 _atom_site_type_symbol
 _atom_site_label
 _atom_site_symmetry_multiplicity
 _atom_site_fract_x
 _atom_site_fract_y
 _atom_site_fract_z
 _atom_site_occupancy
  Nb  Nb0  1  0.999992  0.000000  0.990989  1
  Nb  Nb1  1  0.500053  0.500000  0.163297  1
  Nb  Nb2  1  0.000052  0.000000  0.333327  1
  Nb  Nb3  1  0.500007  0.500000  0.503359  1
  Nb  Nb4  1  0.999938  0.000000  0.675688  1
  Nb  Nb5  1  0.499958  0.500000  0.833319  1
  Zn  Zn6  1  0.000004  0.500000  0.992165  1
  Zn  Zn7  1  0.500054  0.000000  0.164459  1
  Zn  Zn8  1  0.000053  0.500000  0.333342  1
  Zn  Zn9  1  0.500009  0.000000  0.502190  1
  Zn  Zn10  1  0.999944  0.500000  0.674507  1
  Zn  Zn11  1  0.499937  0.000000  0.833328  1
  Co  Co12  1  0.999947  0.250433  0.833328  1
  Co  Co13  1  0.999947  0.749566  0.833328  1
  Ir  Ir14  1  0.499996  0.249060  0.994910  1
  Ir  Ir15  1  0.499996  0.750939  0.994910  1
  Ir  Ir16  1  0.000042  0.249129  0.163186  1
  Ir  Ir17  1  0.000042  0.750870  0.163186  1
  Ir  Ir18  1  0.500056  0.251406  0.333319  1
  Ir  Ir19  1  0.500056  0.748593  0.333319  1
  Ir  Ir20  1  0.999994  0.249084  0.503462  1
  Ir  Ir21  1  0.999994  0.750915  0.503462  1
  Ir  Ir22  1  0.499965  0.249009  0.671809  1
  Ir  Ir23  1  0.499965  0.750990  0.671809  1
