# generated using pymatgen
data_AcTb2Y3Ta2O14
_symmetry_space_group_name_H-M   'P 1'
_cell_length_a   6.52534805
_cell_length_b   6.52541818
_cell_length_c   7.51029900
_cell_angle_alpha   89.94964440
_cell_angle_beta   90.00697171
_cell_angle_gamma   108.61435846
_symmetry_Int_Tables_number   1
_chemical_formula_structural   AcTb2Y3Ta2O14
_chemical_formula_sum   'Ac1 Tb2 Y3 Ta2 O14'
_cell_volume   303.06422268
_cell_formula_units_Z   1
loop_
 _symmetry_equiv_pos_site_id
 _symmetry_equiv_pos_as_xyz
  1  'x, y, z'
loop_
 _atom_site_type_symbol
 _atom_site_label
 _atom_site_symmetry_multiplicity
 _atom_site_fract_x
 _atom_site_fract_y
 _atom_site_fract_z
 _atom_site_occupancy
  Ac  Ac0  1  0.503263  0.503367  0.499828  1
  Tb  Tb1  1  0.536284  0.998810  0.761532  1
  Tb  Tb2  1  0.998561  0.465193  0.748956  1
  Y  Y3  1  0.465878  0.998727  0.250869  1
  Y  Y4  1  0.998897  0.535685  0.238420  1
  Y  Y5  1  0.461334  0.461326  0.000083  1
  Ta  Ta6  1  0.000217  0.000351  0.499790  1
  Ta  Ta7  1  0.997689  0.997634  0.000204  1
  O  O8  1  0.934572  0.066576  0.749604  1
  O  O9  1  0.642958  0.357470  0.767416  1
  O  O10  1  0.314987  0.062469  0.540041  1
  O  O11  1  0.950954  0.693579  0.958823  1
  O  O12  1  0.635976  0.363405  0.232104  1
  O  O13  1  0.932310  0.679246  0.527965  1
  O  O14  1  0.324611  0.079393  0.974116  1
  O  O15  1  0.079198  0.324182  0.026582  1
  O  O16  1  0.679586  0.932924  0.471196  1
  O  O17  1  0.363877  0.635206  0.768244  1
  O  O18  1  0.693815  0.950711  0.041759  1
  O  O19  1  0.062258  0.314673  0.459187  1
  O  O20  1  0.356226  0.644287  0.232879  1
  O  O21  1  0.066548  0.934788  0.250401  1
