# generated using pymatgen
data_EuNpCl6
_symmetry_space_group_name_H-M   'P 1'
_cell_length_a   7.30041823
_cell_length_b   7.30054912
_cell_length_c   7.34445700
_cell_angle_alpha   99.30365322
_cell_angle_beta   99.30686748
_cell_angle_gamma   119.92612199
_symmetry_Int_Tables_number   1
_chemical_formula_structural   EuNpCl6
_chemical_formula_sum   'Eu1 Np1 Cl6'
_cell_volume   321.06004189
_cell_formula_units_Z   1
loop_
 _symmetry_equiv_pos_site_id
 _symmetry_equiv_pos_as_xyz
  1  'x, y, z'
loop_
 _atom_site_type_symbol
 _atom_site_label
 _atom_site_symmetry_multiplicity
 _atom_site_fract_x
 _atom_site_fract_y
 _atom_site_fract_z
 _atom_site_occupancy
  Eu  Eu0  1  0.832681  0.165972  0.999938  1
  Np  Np1  1  0.166092  0.833579  0.000374  1
  Cl  Cl2  1  0.949465  0.587963  0.214173  1
  Cl  Cl3  1  0.551360  0.934928  0.217026  1
  Cl  Cl4  1  0.206994  0.189089  0.214695  1
  Cl  Cl5  1  0.812751  0.794454  0.783188  1
  Cl  Cl6  1  0.412072  0.045638  0.783754  1
  Cl  Cl7  1  0.068586  0.448377  0.786852  1
