# generated using pymatgen
data_HoAl3Co(CuO4)3
_symmetry_space_group_name_H-M   'P 1'
_cell_length_a   6.16452533
_cell_length_b   6.22561557
_cell_length_c   6.22559792
_cell_angle_alpha   70.33066125
_cell_angle_beta   70.73018991
_cell_angle_gamma   109.27537787
_symmetry_Int_Tables_number   1
_chemical_formula_structural   HoAl3Co(CuO4)3
_chemical_formula_sum   'Ho1 Al3 Co1 Cu3 O12'
_cell_volume   184.37356346
_cell_formula_units_Z   1
loop_
 _symmetry_equiv_pos_site_id
 _symmetry_equiv_pos_as_xyz
  1  'x, y, z'
loop_
 _atom_site_type_symbol
 _atom_site_label
 _atom_site_symmetry_multiplicity
 _atom_site_fract_x
 _atom_site_fract_y
 _atom_site_fract_z
 _atom_site_occupancy
  Ho  Ho0  1  0.999983  0.999989  0.000010  1
  Al  Al1  1  0.000003  0.000001  0.500000  1
  Al  Al2  1  0.000003  0.500000  0.999997  1
  Al  Al3  1  0.499998  0.499998  0.500003  1
  Co  Co4  1  0.499999  0.000000  0.999998  1
  Cu  Cu5  1  0.500000  0.000002  0.500004  1
  Cu  Cu6  1  0.499999  0.500002  0.999995  1
  Cu  Cu7  1  0.999999  0.500001  0.499999  1
  O  O8  1  0.696923  0.522540  0.175371  1
  O  O9  1  0.303081  0.477462  0.824628  1
  O  O10  1  0.696298  0.868834  0.827001  1
  O  O11  1  0.303707  0.131168  0.172996  1
  O  O12  1  0.827475  0.304161  0.868830  1
  O  O13  1  0.172527  0.695839  0.131169  1
  O  O14  1  0.174379  0.302092  0.522542  1
  O  O15  1  0.825624  0.697910  0.477455  1
  O  O16  1  0.476700  0.173002  0.695835  1
  O  O17  1  0.523302  0.826999  0.304164  1
  O  O18  1  0.127699  0.824620  0.697912  1
  O  O19  1  0.872303  0.175380  0.302088  1
