# generated using pymatgen
data_Mo2IrBr12
_symmetry_space_group_name_H-M   'P 1'
_cell_length_a   9.40828588
_cell_length_b   9.40828443
_cell_length_c   7.44493247
_cell_angle_alpha   68.68301380
_cell_angle_beta   68.68301452
_cell_angle_gamma   84.33455774
_symmetry_Int_Tables_number   1
_chemical_formula_structural   Mo2IrBr12
_chemical_formula_sum   'Mo2 Ir1 Br12'
_cell_volume   571.48229420
_cell_formula_units_Z   1
loop_
 _symmetry_equiv_pos_site_id
 _symmetry_equiv_pos_as_xyz
  1  'x, y, z'
loop_
 _atom_site_type_symbol
 _atom_site_label
 _atom_site_symmetry_multiplicity
 _atom_site_fract_x
 _atom_site_fract_y
 _atom_site_fract_z
 _atom_site_occupancy
  Mo  Mo0  1  0.274054  0.274054  0.728466  1
  Mo  Mo1  1  0.725946  0.725946  0.271534  1
  Ir  Ir2  1  0.000000  0.000000  0.000000  1
  Br  Br3  1  0.985753  0.257794  0.745917  1
  Br  Br4  1  0.257794  0.985753  0.745917  1
  Br  Br5  1  0.014247  0.742206  0.254083  1
  Br  Br6  1  0.742206  0.014247  0.254083  1
  Br  Br7  1  0.238075  0.523054  0.762989  1
  Br  Br8  1  0.523054  0.238075  0.762989  1
  Br  Br9  1  0.761925  0.476946  0.237011  1
  Br  Br10  1  0.476946  0.761925  0.237011  1
  Br  Br11  1  0.133163  0.133163  0.134920  1
  Br  Br12  1  0.866837  0.866837  0.865080  1
  Br  Br13  1  0.631041  0.631041  0.645297  1
  Br  Br14  1  0.368959  0.368959  0.354703  1
