# generated using pymatgen
data_Nb3(Al2Ni)2
_symmetry_space_group_name_H-M   'P 1'
_cell_length_a   8.72750704
_cell_length_b   8.77708868
_cell_length_c   8.09417700
_cell_angle_alpha   90.00000000
_cell_angle_beta   90.00000000
_cell_angle_gamma   121.06776527
_symmetry_Int_Tables_number   1
_chemical_formula_structural   Nb3(Al2Ni)2
_chemical_formula_sum   'Nb12 Al16 Ni8'
_cell_volume   531.09222035
_cell_formula_units_Z   4
loop_
 _symmetry_equiv_pos_site_id
 _symmetry_equiv_pos_as_xyz
  1  'x, y, z'
loop_
 _atom_site_type_symbol
 _atom_site_label
 _atom_site_symmetry_multiplicity
 _atom_site_fract_x
 _atom_site_fract_y
 _atom_site_fract_z
 _atom_site_occupancy
  Nb  Nb0  1  0.329609  0.993493  0.065380  1
  Nb  Nb1  1  0.670391  0.006507  0.934620  1
  Nb  Nb2  1  0.997521  0.329238  0.067573  1
  Nb  Nb3  1  0.670391  0.006507  0.565380  1
  Nb  Nb4  1  0.997521  0.329238  0.432427  1
  Nb  Nb5  1  0.002479  0.670762  0.932427  1
  Nb  Nb6  1  0.329609  0.993493  0.434620  1
  Nb  Nb7  1  0.002479  0.670762  0.567573  1
  Nb  Nb8  1  0.667453  0.663195  0.067205  1
  Nb  Nb9  1  0.332547  0.336805  0.932795  1
  Nb  Nb10  1  0.332547  0.336805  0.567205  1
  Nb  Nb11  1  0.667453  0.663195  0.432795  1
  Al  Al12  1  0.344583  0.847594  0.750000  1
  Al  Al13  1  0.653457  0.505901  0.750000  1
  Al  Al14  1  0.655417  0.152406  0.250000  1
  Al  Al15  1  0.346543  0.494099  0.250000  1
  Al  Al16  1  0.845418  0.342100  0.750000  1
  Al  Al17  1  0.154582  0.657900  0.250000  1
  Al  Al18  1  0.341703  0.665144  0.507084  1
  Al  Al19  1  0.658297  0.334856  0.492916  1
  Al  Al20  1  0.658297  0.334856  0.007084  1
  Al  Al21  1  0.341703  0.665144  0.992916  1
  Al  Al22  1  0.180018  0.011037  0.750000  1
  Al  Al23  1  0.819982  0.988963  0.250000  1
  Al  Al24  1  0.010113  0.180853  0.750000  1
  Al  Al25  1  0.989887  0.819147  0.250000  1
  Al  Al26  1  0.826422  0.836567  0.750000  1
  Al  Al27  1  0.173578  0.163433  0.250000  1
  Ni  Ni28  1  0.167099  0.500786  0.750000  1
  Ni  Ni29  1  0.832901  0.499214  0.250000  1
  Ni  Ni30  1  0.508236  0.674334  0.750000  1
  Ni  Ni31  1  0.505010  0.172938  0.750000  1
  Ni  Ni32  1  0.491764  0.325666  0.250000  1
  Ni  Ni33  1  0.494990  0.827062  0.250000  1
  Ni  Ni34  1  0.000000  0.000000  0.500000  1
  Ni  Ni35  1  0.000000  0.000000  0.000000  1
