# generated using pymatgen
data_Ga2GeRh5
_symmetry_space_group_name_H-M   'P 1'
_cell_length_a   4.13374100
_cell_length_b   5.37795200
_cell_length_c   10.28037400
_cell_angle_alpha   90.00000000
_cell_angle_beta   90.00000000
_cell_angle_gamma   90.00000000
_symmetry_Int_Tables_number   1
_chemical_formula_structural   Ga2GeRh5
_chemical_formula_sum   'Ga4 Ge2 Rh10'
_cell_volume   228.54361819
_cell_formula_units_Z   2
loop_
 _symmetry_equiv_pos_site_id
 _symmetry_equiv_pos_as_xyz
  1  'x, y, z'
loop_
 _atom_site_type_symbol
 _atom_site_label
 _atom_site_symmetry_multiplicity
 _atom_site_fract_x
 _atom_site_fract_y
 _atom_site_fract_z
 _atom_site_occupancy
  Ga  Ga0  1  0.500000  0.370190  0.357781  1
  Ga  Ga1  1  0.500000  0.629810  0.642219  1
  Ga  Ga2  1  0.500000  0.129810  0.857781  1
  Ga  Ga3  1  0.500000  0.870190  0.142219  1
  Ge  Ge4  1  0.000000  0.000000  0.500000  1
  Ge  Ge5  1  0.000000  0.500000  0.000000  1
  Rh  Rh6  1  0.500000  0.334916  0.107582  1
  Rh  Rh7  1  0.500000  0.665084  0.892418  1
  Rh  Rh8  1  0.500000  0.834916  0.392418  1
  Rh  Rh9  1  0.500000  0.165084  0.607582  1
  Rh  Rh10  1  0.000000  0.859942  0.727471  1
  Rh  Rh11  1  0.000000  0.140058  0.272529  1
  Rh  Rh12  1  0.000000  0.359942  0.772529  1
  Rh  Rh13  1  0.000000  0.640058  0.227471  1
  Rh  Rh14  1  0.000000  0.500000  0.500000  1
  Rh  Rh15  1  0.000000  0.000000  0.000000  1
