# generated using pymatgen
data_LiDyGePt3
_symmetry_space_group_name_H-M   'P 1'
_cell_length_a   5.09648737
_cell_length_b   5.09648634
_cell_length_c   5.09648700
_cell_angle_alpha   65.83120576
_cell_angle_beta   65.83121094
_cell_angle_gamma   65.83121754
_symmetry_Int_Tables_number   1
_chemical_formula_structural   LiDyGePt3
_chemical_formula_sum   'Li1 Dy1 Ge1 Pt3'
_cell_volume   105.43521559
_cell_formula_units_Z   1
loop_
 _symmetry_equiv_pos_site_id
 _symmetry_equiv_pos_as_xyz
  1  'x, y, z'
loop_
 _atom_site_type_symbol
 _atom_site_label
 _atom_site_symmetry_multiplicity
 _atom_site_fract_x
 _atom_site_fract_y
 _atom_site_fract_z
 _atom_site_occupancy
  Li  Li0  1  0.363895  0.363895  0.363895  1
  Dy  Dy1  1  0.620551  0.620551  0.620551  1
  Ge  Ge2  1  0.003900  0.003900  0.003900  1
  Pt  Pt3  1  0.501395  0.005130  0.005130  1
  Pt  Pt4  1  0.005130  0.501395  0.005130  1
  Pt  Pt5  1  0.005130  0.005130  0.501395  1
