# generated using pymatgen
data_La4CeV3F28
_symmetry_space_group_name_H-M   'P 1'
_cell_length_a   5.77023144
_cell_length_b   9.31956443
_cell_length_c   12.40388400
_cell_angle_alpha   62.66845455
_cell_angle_beta   90.10364466
_cell_angle_gamma   89.96120935
_symmetry_Int_Tables_number   1
_chemical_formula_structural   La4CeV3F28
_chemical_formula_sum   'La4 Ce1 V3 F28'
_cell_volume   592.56560772
_cell_formula_units_Z   1
loop_
 _symmetry_equiv_pos_site_id
 _symmetry_equiv_pos_as_xyz
  1  'x, y, z'
loop_
 _atom_site_type_symbol
 _atom_site_label
 _atom_site_symmetry_multiplicity
 _atom_site_fract_x
 _atom_site_fract_y
 _atom_site_fract_z
 _atom_site_occupancy
  La  La0  1  0.758644  0.814735  0.254730  1
  La  La1  1  0.258883  0.199465  0.230038  1
  La  La2  1  0.243687  0.189564  0.732714  1
  La  La3  1  0.741175  0.808301  0.779392  1
  Ce  Ce4  1  0.248414  0.731654  0.539012  1
  V  V5  1  0.745791  0.275324  0.955055  1
  V  V6  1  0.755917  0.275262  0.454762  1
  V  V7  1  0.253864  0.725006  0.044747  1
  F  F8  1  0.932160  0.710870  0.451519  1
  F  F9  1  0.477423  0.285125  0.042217  1
  F  F10  1  0.024850  0.282450  0.543792  1
  F  F11  1  0.526297  0.710475  0.963187  1
  F  F12  1  0.060346  0.708215  0.928002  1
  F  F13  1  0.558494  0.288303  0.573099  1
  F  F14  1  0.942005  0.288518  0.073294  1
  F  F15  1  0.457946  0.700367  0.407953  1
  F  F16  1  0.737439  0.496426  0.868852  1
  F  F17  1  0.231738  0.473518  0.647236  1
  F  F18  1  0.262203  0.503562  0.133314  1
  F  F19  1  0.767021  0.496616  0.364708  1
  F  F20  1  0.740790  0.052399  0.042762  1
  F  F21  1  0.234863  0.989883  0.442684  1
  F  F22  1  0.259613  0.945225  0.956224  1
  F  F23  1  0.758953  0.054487  0.543789  1
  F  F24  1  0.042630  0.745037  0.680725  1
  F  F25  1  0.549522  0.253843  0.838749  1
  F  F26  1  0.949500  0.260596  0.334117  1
  F  F27  1  0.445971  0.743186  0.162292  1
  F  F28  1  0.008243  0.263970  0.867762  1
  F  F29  1  0.551035  0.728866  0.644523  1
  F  F30  1  0.987526  0.731360  0.131279  1
  F  F31  1  0.493990  0.272787  0.361790  1
  F  F32  1  0.092856  0.968834  0.233260  1
  F  F33  1  0.582295  0.027353  0.268965  1
  F  F34  1  0.909816  0.032868  0.773465  1
  F  F35  1  0.408100  0.965551  0.729988  1
