# generated using pymatgen
data_NdLu2Ni9
_symmetry_space_group_name_H-M   'P 1'
_cell_length_a   8.52758232
_cell_length_b   8.52758258
_cell_length_c   8.52758100
_cell_angle_alpha   33.81947926
_cell_angle_beta   33.81947793
_cell_angle_gamma   33.81948094
_symmetry_Int_Tables_number   1
_chemical_formula_structural   NdLu2Ni9
_chemical_formula_sum   'Nd1 Lu2 Ni9'
_cell_volume   171.18305613
_cell_formula_units_Z   1
loop_
 _symmetry_equiv_pos_site_id
 _symmetry_equiv_pos_as_xyz
  1  'x, y, z'
loop_
 _atom_site_type_symbol
 _atom_site_label
 _atom_site_symmetry_multiplicity
 _atom_site_fract_x
 _atom_site_fract_y
 _atom_site_fract_z
 _atom_site_occupancy
  Nd  Nd0  1  0.000000  0.000000  0.000000  1
  Lu  Lu1  1  0.140241  0.140241  0.140241  1
  Lu  Lu2  1  0.859759  0.859759  0.859759  1
  Ni  Ni3  1  0.585082  0.585082  0.081527  1
  Ni  Ni4  1  0.333163  0.333163  0.333163  1
  Ni  Ni5  1  0.414918  0.918472  0.414920  1
  Ni  Ni6  1  0.918472  0.414918  0.414920  1
  Ni  Ni7  1  0.500000  0.500000  0.500000  1
  Ni  Ni8  1  0.585082  0.081528  0.585081  1
  Ni  Ni9  1  0.081528  0.585082  0.585081  1
  Ni  Ni10  1  0.666837  0.666837  0.666837  1
  Ni  Ni11  1  0.414918  0.414918  0.918473  1
