# generated using pymatgen
data_CaTmCd(Si3Pd10)2
_symmetry_space_group_name_H-M   'P 1'
_cell_length_a   8.70071902
_cell_length_b   8.70071843
_cell_length_c   8.70071900
_cell_angle_alpha   60.00000162
_cell_angle_beta   60.00000389
_cell_angle_gamma   60.00000252
_symmetry_Int_Tables_number   1
_chemical_formula_structural   CaTmCd(Si3Pd10)2
_chemical_formula_sum   'Ca1 Tm1 Cd1 Si6 Pd20'
_cell_volume   465.74738968
_cell_formula_units_Z   1
loop_
 _symmetry_equiv_pos_site_id
 _symmetry_equiv_pos_as_xyz
  1  'x, y, z'
loop_
 _atom_site_type_symbol
 _atom_site_label
 _atom_site_symmetry_multiplicity
 _atom_site_fract_x
 _atom_site_fract_y
 _atom_site_fract_z
 _atom_site_occupancy
  Ca  Ca0  1  0.250000  0.250000  0.250000  1
  Tm  Tm1  1  0.750000  0.750000  0.750000  1
  Cd  Cd2  1  0.000000  0.000000  0.000000  1
  Si  Si3  1  0.732062  0.267938  0.267938  1
  Si  Si4  1  0.267938  0.732062  0.732062  1
  Si  Si5  1  0.267938  0.732062  0.267938  1
  Si  Si6  1  0.732062  0.267938  0.732062  1
  Si  Si7  1  0.267938  0.267938  0.732062  1
  Si  Si8  1  0.732062  0.732062  0.267938  1
  Pd  Pd9  1  0.384870  0.384870  0.384870  1
  Pd  Pd10  1  0.617005  0.617005  0.617005  1
  Pd  Pd11  1  0.384870  0.384870  0.845389  1
  Pd  Pd12  1  0.384870  0.845389  0.384870  1
  Pd  Pd13  1  0.617005  0.617005  0.148986  1
  Pd  Pd14  1  0.617005  0.148986  0.617005  1
  Pd  Pd15  1  0.845389  0.384870  0.384870  1
  Pd  Pd16  1  0.148986  0.617005  0.617005  1
  Pd  Pd17  1  0.345528  0.998421  0.998421  1
  Pd  Pd18  1  0.657629  0.998421  0.998421  1
  Pd  Pd19  1  0.998421  0.345528  0.657629  1
  Pd  Pd20  1  0.998421  0.657629  0.345528  1
  Pd  Pd21  1  0.998421  0.345528  0.998421  1
  Pd  Pd22  1  0.657629  0.998421  0.345528  1
  Pd  Pd23  1  0.998421  0.657629  0.998421  1
  Pd  Pd24  1  0.345528  0.998421  0.657629  1
  Pd  Pd25  1  0.998421  0.998421  0.345528  1
  Pd  Pd26  1  0.998421  0.998421  0.657629  1
  Pd  Pd27  1  0.657629  0.345528  0.998421  1
  Pd  Pd28  1  0.345528  0.657629  0.998421  1
