# generated using pymatgen
data_Er10GaSnSb4
_symmetry_space_group_name_H-M   'P 1'
_cell_length_a   8.83575224
_cell_length_b   8.84323990
_cell_length_c   6.32353500
_cell_angle_alpha   90.00000000
_cell_angle_beta   90.00000000
_cell_angle_gamma   119.99863978
_symmetry_Int_Tables_number   1
_chemical_formula_structural   Er10GaSnSb4
_chemical_formula_sum   'Er10 Ga1 Sn1 Sb4'
_cell_volume   427.90902604
_cell_formula_units_Z   1
loop_
 _symmetry_equiv_pos_site_id
 _symmetry_equiv_pos_as_xyz
  1  'x, y, z'
loop_
 _atom_site_type_symbol
 _atom_site_label
 _atom_site_symmetry_multiplicity
 _atom_site_fract_x
 _atom_site_fract_y
 _atom_site_fract_z
 _atom_site_occupancy
  Er  Er0  1  0.010808  0.765558  0.750000  1
  Er  Er1  1  0.000274  0.241936  0.250000  1
  Er  Er2  1  0.757462  0.756756  0.250000  1
  Er  Er3  1  0.753603  0.001360  0.750000  1
  Er  Er4  1  0.243739  0.233819  0.750000  1
  Er  Er5  1  0.241077  0.999806  0.250000  1
  Er  Er6  1  0.334670  0.675733  0.502771  1
  Er  Er7  1  0.660967  0.324438  0.997304  1
  Er  Er8  1  0.660967  0.324438  0.502696  1
  Er  Er9  1  0.334670  0.675733  0.997229  1
  Ga  Ga10  1  0.394817  0.000551  0.750000  1
  Sn  Sn11  1  0.002535  0.393749  0.750000  1
  Sb  Sb12  1  0.391411  0.394727  0.250000  1
  Sb  Sb13  1  0.996007  0.603973  0.250000  1
  Sb  Sb14  1  0.610129  0.608127  0.750000  1
  Sb  Sb15  1  0.606865  0.999296  0.250000  1
