# generated using pymatgen
data_Dy8Lu2Os3Ru
_symmetry_space_group_name_H-M   'P 1'
_cell_length_a   6.34014749
_cell_length_b   7.31092706
_cell_length_c   8.39625320
_cell_angle_alpha   96.88141865
_cell_angle_beta   112.27353650
_cell_angle_gamma   89.89054377
_symmetry_Int_Tables_number   1
_chemical_formula_structural   Dy8Lu2Os3Ru
_chemical_formula_sum   'Dy8 Lu2 Os3 Ru1'
_cell_volume   357.15146457
_cell_formula_units_Z   1
loop_
 _symmetry_equiv_pos_site_id
 _symmetry_equiv_pos_as_xyz
  1  'x, y, z'
loop_
 _atom_site_type_symbol
 _atom_site_label
 _atom_site_symmetry_multiplicity
 _atom_site_fract_x
 _atom_site_fract_y
 _atom_site_fract_z
 _atom_site_occupancy
  Dy  Dy0  1  0.523977  0.082735  0.815218  1
  Dy  Dy1  1  0.475095  0.916907  0.182381  1
  Dy  Dy2  1  0.707586  0.416253  0.182834  1
  Dy  Dy3  1  0.291979  0.582560  0.816568  1
  Dy  Dy4  1  0.299135  0.314283  0.433886  1
  Dy  Dy5  1  0.702354  0.686455  0.566683  1
  Dy  Dy6  1  0.863319  0.186756  0.567748  1
  Dy  Dy7  1  0.135613  0.814205  0.433235  1
  Lu  Lu8  1  0.076609  0.251023  0.999677  1
  Lu  Lu9  1  0.924068  0.748993  0.999349  1
  Os  Os10  1  0.318260  0.576074  0.216284  1
  Os  Os11  1  0.682042  0.423740  0.784730  1
  Os  Os12  1  0.101972  0.924939  0.783820  1
  Ru  Ru13  1  0.897992  0.075079  0.217585  1
