# generated using pymatgen
data_PrNd5Al24(Os3Rh)2
_symmetry_space_group_name_H-M   'P 1'
_cell_length_a   8.88439819
_cell_length_b   8.88208254
_cell_length_c   9.67201600
_cell_angle_alpha   90.00000000
_cell_angle_beta   90.00000000
_cell_angle_gamma   118.98280221
_symmetry_Int_Tables_number   1
_chemical_formula_structural   PrNd5Al24(Os3Rh)2
_chemical_formula_sum   'Pr1 Nd5 Al24 Os6 Rh2'
_cell_volume   667.65378838
_cell_formula_units_Z   1
loop_
 _symmetry_equiv_pos_site_id
 _symmetry_equiv_pos_as_xyz
  1  'x, y, z'
loop_
 _atom_site_type_symbol
 _atom_site_label
 _atom_site_symmetry_multiplicity
 _atom_site_fract_x
 _atom_site_fract_y
 _atom_site_fract_z
 _atom_site_occupancy
  Pr  Pr0  1  0.184099  0.382711  0.250000  1
  Nd  Nd1  1  0.815964  0.617087  0.750000  1
  Nd  Nd2  1  0.617213  0.816094  0.250000  1
  Nd  Nd3  1  0.382946  0.184084  0.750000  1
  Nd  Nd4  1  0.192966  0.807098  0.250000  1
  Nd  Nd5  1  0.807016  0.193064  0.750000  1
  Al  Al6  1  0.332596  0.667805  0.015054  1
  Al  Al7  1  0.667537  0.332461  0.984691  1
  Al  Al8  1  0.667537  0.332461  0.515309  1
  Al  Al9  1  0.332596  0.667805  0.484946  1
  Al  Al10  1  0.162374  0.324027  0.576487  1
  Al  Al11  1  0.837586  0.675932  0.423810  1
  Al  Al12  1  0.675941  0.837605  0.576229  1
  Al  Al13  1  0.837586  0.675932  0.076190  1
  Al  Al14  1  0.324154  0.162218  0.423916  1
  Al  Al15  1  0.162374  0.324027  0.923513  1
  Al  Al16  1  0.164775  0.835270  0.574042  1
  Al  Al17  1  0.324154  0.162218  0.076084  1
  Al  Al18  1  0.835000  0.164595  0.426109  1
  Al  Al19  1  0.675941  0.837605  0.923771  1
  Al  Al20  1  0.835000  0.164595  0.073891  1
  Al  Al21  1  0.164775  0.835270  0.925958  1
  Al  Al22  1  0.560324  0.126669  0.250000  1
  Al  Al23  1  0.439672  0.873297  0.750000  1
  Al  Al24  1  0.872931  0.439757  0.250000  1
  Al  Al25  1  0.126688  0.560339  0.750000  1
  Al  Al26  1  0.559629  0.440929  0.250000  1
  Al  Al27  1  0.440880  0.559195  0.750000  1
  Al  Al28  1  0.998032  0.001285  0.250000  1
  Al  Al29  1  0.001737  0.998287  0.750000  1
  Os  Os30  1  0.500030  0.000067  0.999975  1
  Os  Os31  1  0.999881  0.500093  0.999846  1
  Os  Os32  1  0.500030  0.000067  0.500025  1
  Os  Os33  1  0.999881  0.500093  0.500154  1
  Os  Os34  1  0.999974  0.999950  0.999934  1
  Os  Os35  1  0.999974  0.999950  0.500066  1
  Rh  Rh36  1  0.500102  0.500030  0.999933  1
  Rh  Rh37  1  0.500102  0.500030  0.500067  1
