# generated using pymatgen
data_LaTm2(ZnPt)4
_symmetry_space_group_name_H-M   'P 1'
_cell_length_a   8.21989122
_cell_length_b   8.21989137
_cell_length_c   8.21989173
_cell_angle_alpha   151.71780053
_cell_angle_beta   124.78400488
_cell_angle_gamma   63.18514916
_symmetry_Int_Tables_number   1
_chemical_formula_structural   LaTm2(ZnPt)4
_chemical_formula_sum   'La1 Tm2 Zn4 Pt4'
_cell_volume   214.24474675
_cell_formula_units_Z   1
loop_
 _symmetry_equiv_pos_site_id
 _symmetry_equiv_pos_as_xyz
  1  'x, y, z'
loop_
 _atom_site_type_symbol
 _atom_site_label
 _atom_site_symmetry_multiplicity
 _atom_site_fract_x
 _atom_site_fract_y
 _atom_site_fract_z
 _atom_site_occupancy
  La  La0  1  0.500000  0.000000  0.500000  1
  Tm  Tm1  1  0.874777  0.874777  0.000000  1
  Tm  Tm2  1  0.125223  0.125223  0.000000  1
  Zn  Zn3  1  0.476520  0.675380  0.801141  1
  Zn  Zn4  1  0.874239  0.675380  0.198859  1
  Zn  Zn5  1  0.125761  0.324620  0.801141  1
  Zn  Zn6  1  0.523480  0.324620  0.198859  1
  Pt  Pt7  1  0.275042  0.775042  0.500000  1
  Pt  Pt8  1  0.724958  0.224958  0.500000  1
  Pt  Pt9  1  0.812676  0.500000  0.312676  1
  Pt  Pt10  1  0.187324  0.500000  0.687324  1
