# generated using pymatgen
data_TbDy6FeBr12
_symmetry_space_group_name_H-M   'P 1'
_cell_length_a   9.12956426
_cell_length_b   9.21119974
_cell_length_c   9.22270463
_cell_angle_alpha   106.88520944
_cell_angle_beta   106.85888565
_cell_angle_gamma   106.56562071
_symmetry_Int_Tables_number   1
_chemical_formula_structural   TbDy6FeBr12
_chemical_formula_sum   'Tb1 Dy6 Fe1 Br12'
_cell_volume   649.91412967
_cell_formula_units_Z   1
loop_
 _symmetry_equiv_pos_site_id
 _symmetry_equiv_pos_as_xyz
  1  'x, y, z'
loop_
 _atom_site_type_symbol
 _atom_site_label
 _atom_site_symmetry_multiplicity
 _atom_site_fract_x
 _atom_site_fract_y
 _atom_site_fract_z
 _atom_site_occupancy
  Tb  Tb0  1  0.294645  0.020228  0.093358  1
  Dy  Dy1  1  0.903121  0.695326  0.978525  1
  Dy  Dy2  1  0.979780  0.902750  0.694988  1
  Dy  Dy3  1  0.706818  0.979860  0.907078  1
  Dy  Dy4  1  0.096281  0.304411  0.021233  1
  Dy  Dy5  1  0.020335  0.097154  0.304890  1
  Dy  Dy6  1  0.499790  0.500138  0.499979  1
  Fe  Fe7  1  0.000638  0.999884  0.000127  1
  Br  Br8  1  0.615059  0.834454  0.541011  1
  Br  Br9  1  0.539464  0.616353  0.833816  1
  Br  Br10  1  0.834759  0.537992  0.614025  1
  Br  Br11  1  0.384970  0.166375  0.460378  1
  Br  Br12  1  0.460552  0.385111  0.166424  1
  Br  Br13  1  0.164730  0.461838  0.385857  1
  Br  Br14  1  0.679634  0.071662  0.222457  1
  Br  Br15  1  0.224243  0.679306  0.073427  1
  Br  Br16  1  0.072819  0.223852  0.679280  1
  Br  Br17  1  0.320923  0.928142  0.776293  1
  Br  Br18  1  0.774506  0.319077  0.926209  1
  Br  Br19  1  0.926934  0.776087  0.320644  1
