# generated using pymatgen
data_Yb2YCd(Ir2O7)2
_symmetry_space_group_name_H-M   'P 1'
_cell_length_a   7.17611587
_cell_length_b   7.19395096
_cell_length_c   7.19395175
_cell_angle_alpha   60.95029936
_cell_angle_beta   60.95966959
_cell_angle_gamma   60.95967990
_symmetry_Int_Tables_number   1
_chemical_formula_structural   Yb2YCd(Ir2O7)2
_chemical_formula_sum   'Yb2 Y1 Cd1 Ir4 O14'
_cell_volume   268.26876917
_cell_formula_units_Z   1
loop_
 _symmetry_equiv_pos_site_id
 _symmetry_equiv_pos_as_xyz
  1  'x, y, z'
loop_
 _atom_site_type_symbol
 _atom_site_label
 _atom_site_symmetry_multiplicity
 _atom_site_fract_x
 _atom_site_fract_y
 _atom_site_fract_z
 _atom_site_occupancy
  Yb  Yb0  1  0.125000  0.625000  0.125000  1
  Yb  Yb1  1  0.125000  0.125000  0.625000  1
  Y  Y2  1  0.625000  0.125000  0.125000  1
  Cd  Cd3  1  0.125000  0.125000  0.125000  1
  Ir  Ir4  1  0.125000  0.625000  0.625000  1
  Ir  Ir5  1  0.625000  0.125000  0.625000  1
  Ir  Ir6  1  0.625000  0.625000  0.125000  1
  Ir  Ir7  1  0.625000  0.625000  0.625000  1
  O  O8  1  0.702609  0.711447  0.294398  1
  O  O9  1  0.301381  0.300487  0.696699  1
  O  O10  1  0.702609  0.294398  0.711447  1
  O  O11  1  0.301381  0.696699  0.300487  1
  O  O12  1  0.296484  0.705241  0.705241  1
  O  O13  1  0.692588  0.299553  0.299553  1
  O  O14  1  0.547391  0.538553  0.955602  1
  O  O15  1  0.948619  0.949513  0.553301  1
  O  O16  1  0.547391  0.955602  0.538553  1
  O  O17  1  0.948619  0.553301  0.949513  1
  O  O18  1  0.953516  0.544759  0.544759  1
  O  O19  1  0.557412  0.950447  0.950447  1
  O  O20  1  0.253166  0.244124  0.244124  1
  O  O21  1  0.996834  0.005876  0.005876  1
