# generated using pymatgen
data_Ba5SrP6
_symmetry_space_group_name_H-M   'P 1'
_cell_length_a   8.42595300
_cell_length_b   8.49082964
_cell_length_c   6.38475000
_cell_angle_alpha   90.00000000
_cell_angle_beta   90.00000000
_cell_angle_gamma   119.74756884
_symmetry_Int_Tables_number   1
_chemical_formula_structural   Ba5SrP6
_chemical_formula_sum   'Ba5 Sr1 P6'
_cell_volume   396.59092921
_cell_formula_units_Z   1
loop_
 _symmetry_equiv_pos_site_id
 _symmetry_equiv_pos_as_xyz
  1  'x, y, z'
loop_
 _atom_site_type_symbol
 _atom_site_label
 _atom_site_symmetry_multiplicity
 _atom_site_fract_x
 _atom_site_fract_y
 _atom_site_fract_z
 _atom_site_occupancy
  Ba  Ba0  1  0.001925  0.640439  0.500000  1
  Ba  Ba1  1  0.361486  0.359561  0.500000  1
  Ba  Ba2  1  0.638487  0.000000  0.500000  1
  Ba  Ba3  1  0.001147  0.303314  0.000000  1
  Ba  Ba4  1  0.697832  0.696686  0.000000  1
  Sr  Sr5  1  0.307664  0.000000  0.000000  1
  P  P6  1  0.657023  0.324861  0.180052  1
  P  P7  1  0.657023  0.324861  0.819948  1
  P  P8  1  0.332161  0.675139  0.819948  1
  P  P9  1  0.332161  0.675139  0.180052  1
  P  P10  1  0.006545  0.000000  0.677350  1
  P  P11  1  0.006545  0.000000  0.322650  1
