# generated using pymatgen
data_LuMgInNi7B2
_symmetry_space_group_name_H-M   'P 1'
_cell_length_a   4.93916600
_cell_length_b   4.93916667
_cell_length_c   14.00096200
_cell_angle_alpha   90.00000000
_cell_angle_beta   90.00000000
_cell_angle_gamma   119.99999553
_symmetry_Int_Tables_number   1
_chemical_formula_structural   LuMgInNi7B2
_chemical_formula_sum   'Lu2 Mg2 In2 Ni14 B4'
_cell_volume   295.79840778
_cell_formula_units_Z   2
loop_
 _symmetry_equiv_pos_site_id
 _symmetry_equiv_pos_as_xyz
  1  'x, y, z'
loop_
 _atom_site_type_symbol
 _atom_site_label
 _atom_site_symmetry_multiplicity
 _atom_site_fract_x
 _atom_site_fract_y
 _atom_site_fract_z
 _atom_site_occupancy
  Lu  Lu0  1  0.333333  0.666667  0.750274  1
  Lu  Lu1  1  0.666667  0.333333  0.250274  1
  Mg  Mg2  1  0.333333  0.666667  0.530494  1
  Mg  Mg3  1  0.666667  0.333333  0.030494  1
  In  In4  1  0.666667  0.333333  0.470673  1
  In  In5  1  0.333333  0.666667  0.970673  1
  Ni  Ni6  1  0.000000  0.000000  0.000102  1
  Ni  Ni7  1  0.000000  0.000000  0.500102  1
  Ni  Ni8  1  0.166481  0.332963  0.145555  1
  Ni  Ni9  1  0.833519  0.667037  0.645555  1
  Ni  Ni10  1  0.667037  0.833519  0.145555  1
  Ni  Ni11  1  0.166481  0.833519  0.145555  1
  Ni  Ni12  1  0.833519  0.166481  0.645555  1
  Ni  Ni13  1  0.332963  0.166481  0.645555  1
  Ni  Ni14  1  0.833556  0.667110  0.854198  1
  Ni  Ni15  1  0.833556  0.166444  0.854198  1
  Ni  Ni16  1  0.332890  0.166444  0.854198  1
  Ni  Ni17  1  0.667110  0.833556  0.354198  1
  Ni  Ni18  1  0.166444  0.833556  0.354198  1
  Ni  Ni19  1  0.166444  0.332890  0.354198  1
  B  B20  1  0.333333  0.666667  0.249826  1
  B  B21  1  0.666667  0.333333  0.749826  1
  B  B22  1  0.000000  0.000000  0.249372  1
  B  B23  1  0.000000  0.000000  0.749372  1
