# generated using pymatgen
data_SrSi2(AsRh3)2
_symmetry_space_group_name_H-M   'P 1'
_cell_length_a   7.20467300
_cell_length_b   7.21819960
_cell_length_c   3.82553600
_cell_angle_alpha   90.00000000
_cell_angle_beta   90.00000000
_cell_angle_gamma   119.93801560
_symmetry_Int_Tables_number   1
_chemical_formula_structural   SrSi2(AsRh3)2
_chemical_formula_sum   'Sr1 Si2 As2 Rh6'
_cell_volume   172.39989852
_cell_formula_units_Z   1
loop_
 _symmetry_equiv_pos_site_id
 _symmetry_equiv_pos_as_xyz
  1  'x, y, z'
loop_
 _atom_site_type_symbol
 _atom_site_label
 _atom_site_symmetry_multiplicity
 _atom_site_fract_x
 _atom_site_fract_y
 _atom_site_fract_z
 _atom_site_occupancy
  Sr  Sr0  1  0.998304  0.996609  0.000000  1
  Si  Si1  1  0.802065  0.604130  0.500000  1
  Si  Si2  1  0.333617  0.667235  0.000000  1
  As  As3  1  0.387980  0.195574  0.500000  1
  As  As4  1  0.807593  0.195574  0.500000  1
  Rh  Rh5  1  0.197697  0.793090  0.500000  1
  Rh  Rh6  1  0.205840  0.411680  0.500000  1
  Rh  Rh7  1  0.531097  0.062194  0.000000  1
  Rh  Rh8  1  0.933288  0.473746  0.000000  1
  Rh  Rh9  1  0.540459  0.473746  0.000000  1
  Rh  Rh10  1  0.595392  0.793090  0.500000  1
