# generated using pymatgen
data_KRbNd2(SbAu)4
_symmetry_space_group_name_H-M   'P 1'
_cell_length_a   4.67266400
_cell_length_b   4.67266387
_cell_length_c   19.42719700
_cell_angle_alpha   90.00000000
_cell_angle_beta   90.00000000
_cell_angle_gamma   120.00001508
_symmetry_Int_Tables_number   1
_chemical_formula_structural   KRbNd2(SbAu)4
_chemical_formula_sum   'K1 Rb1 Nd2 Sb4 Au4'
_cell_volume   367.34133833
_cell_formula_units_Z   1
loop_
 _symmetry_equiv_pos_site_id
 _symmetry_equiv_pos_as_xyz
  1  'x, y, z'
loop_
 _atom_site_type_symbol
 _atom_site_label
 _atom_site_symmetry_multiplicity
 _atom_site_fract_x
 _atom_site_fract_y
 _atom_site_fract_z
 _atom_site_occupancy
  K  K0  1  0.000000  0.000000  0.500000  1
  Rb  Rb1  1  0.000000  0.000000  0.000000  1
  Nd  Nd2  1  0.000000  0.000000  0.250986  1
  Nd  Nd3  1  0.000000  0.000000  0.749014  1
  Sb  Sb4  1  0.333333  0.666667  0.366514  1
  Sb  Sb5  1  0.666667  0.333333  0.633486  1
  Sb  Sb6  1  0.666667  0.333333  0.863711  1
  Sb  Sb7  1  0.333333  0.666667  0.136289  1
  Au  Au8  1  0.666667  0.333333  0.340002  1
  Au  Au9  1  0.333333  0.666667  0.659998  1
  Au  Au10  1  0.333333  0.666667  0.838298  1
  Au  Au11  1  0.666667  0.333333  0.161702  1
