# generated using pymatgen
data_HoTm15MgIn3Ir4
_symmetry_space_group_name_H-M   'P 1'
_cell_length_a   9.56075531
_cell_length_b   9.54831375
_cell_length_c   9.56075695
_cell_angle_alpha   59.90780836
_cell_angle_beta   59.91861718
_cell_angle_gamma   59.90780520
_symmetry_Int_Tables_number   1
_chemical_formula_structural   HoTm15MgIn3Ir4
_chemical_formula_sum   'Ho1 Tm15 Mg1 In3 Ir4'
_cell_volume   615.91742160
_cell_formula_units_Z   1
loop_
 _symmetry_equiv_pos_site_id
 _symmetry_equiv_pos_as_xyz
  1  'x, y, z'
loop_
 _atom_site_type_symbol
 _atom_site_label
 _atom_site_symmetry_multiplicity
 _atom_site_fract_x
 _atom_site_fract_y
 _atom_site_fract_z
 _atom_site_occupancy
  Ho  Ho0  1  0.437179  0.062463  0.437179  1
  Tm  Tm1  1  0.437833  0.438295  0.060897  1
  Tm  Tm2  1  0.650853  0.650424  0.045773  1
  Tm  Tm3  1  0.189592  0.811405  0.189592  1
  Tm  Tm4  1  0.059737  0.440448  0.059737  1
  Tm  Tm5  1  0.191921  0.808307  0.809065  1
  Tm  Tm6  1  0.060897  0.438295  0.437833  1
  Tm  Tm7  1  0.811945  0.189617  0.189261  1
  Tm  Tm8  1  0.651975  0.651994  0.651975  1
  Tm  Tm9  1  0.808715  0.191954  0.808715  1
  Tm  Tm10  1  0.189261  0.189617  0.811945  1
  Tm  Tm11  1  0.045773  0.650424  0.650853  1
  Tm  Tm12  1  0.440637  0.059525  0.059080  1
  Tm  Tm13  1  0.059080  0.059525  0.440637  1
  Tm  Tm14  1  0.650769  0.045589  0.650769  1
  Tm  Tm15  1  0.809065  0.808307  0.191921  1
  Mg  Mg16  1  0.421779  0.421962  0.421779  1
  In  In17  1  0.417119  0.417101  0.748351  1
  In  In18  1  0.417213  0.747968  0.417213  1
  In  In19  1  0.748351  0.417101  0.417119  1
  Ir  Ir20  1  0.423061  0.858883  0.859679  1
  Ir  Ir21  1  0.858534  0.858479  0.858534  1
  Ir  Ir22  1  0.859033  0.423435  0.859033  1
  Ir  Ir23  1  0.859679  0.858883  0.423061  1
