# generated using pymatgen
data_GdDy7(C2Cl3)2
_symmetry_space_group_name_H-M   'P 1'
_cell_length_a   3.60797700
_cell_length_b   10.50313290
_cell_length_c   20.02767800
_cell_angle_alpha   90.16566111
_cell_angle_beta   90.00000000
_cell_angle_gamma   90.00000000
_symmetry_Int_Tables_number   1
_chemical_formula_structural   GdDy7(C2Cl3)2
_chemical_formula_sum   'Gd2 Dy14 C8 Cl12'
_cell_volume   758.94692596
_cell_formula_units_Z   2
loop_
 _symmetry_equiv_pos_site_id
 _symmetry_equiv_pos_as_xyz
  1  'x, y, z'
loop_
 _atom_site_type_symbol
 _atom_site_label
 _atom_site_symmetry_multiplicity
 _atom_site_fract_x
 _atom_site_fract_y
 _atom_site_fract_z
 _atom_site_occupancy
  Gd  Gd0  1  0.250000  0.862535  0.574652  1
  Gd  Gd1  1  0.750000  0.137465  0.425348  1
  Dy  Dy2  1  0.750000  0.636032  0.074662  1
  Dy  Dy3  1  0.250000  0.363968  0.925338  1
  Dy  Dy4  1  0.250000  0.865909  0.744802  1
  Dy  Dy5  1  0.750000  0.134091  0.255198  1
  Dy  Dy6  1  0.750000  0.634530  0.243231  1
  Dy  Dy7  1  0.250000  0.365470  0.756769  1
  Dy  Dy8  1  0.250000  0.872609  0.165454  1
  Dy  Dy9  1  0.750000  0.127391  0.834546  1
  Dy  Dy10  1  0.750000  0.626345  0.667186  1
  Dy  Dy11  1  0.250000  0.373655  0.332814  1
  Dy  Dy12  1  0.250000  0.896215  0.331103  1
  Dy  Dy13  1  0.750000  0.103785  0.668897  1
  Dy  Dy14  1  0.750000  0.604223  0.832639  1
  Dy  Dy15  1  0.250000  0.395777  0.167361  1
  C  C16  1  0.250000  0.615316  0.751635  1
  C  C17  1  0.750000  0.384684  0.248365  1
  C  C18  1  0.750000  0.885294  0.249877  1
  C  C19  1  0.250000  0.114706  0.750123  1
  C  C20  1  0.250000  0.632854  0.152718  1
  C  C21  1  0.750000  0.367146  0.847282  1
  C  C22  1  0.750000  0.865761  0.654390  1
  C  C23  1  0.250000  0.134239  0.345610  1
  Cl  Cl24  1  0.250000  0.610274  0.559126  1
  Cl  Cl25  1  0.750000  0.389726  0.440874  1
  Cl  Cl26  1  0.750000  0.884521  0.057022  1
  Cl  Cl27  1  0.250000  0.115479  0.942978  1
  Cl  Cl28  1  0.250000  0.623202  0.953300  1
  Cl  Cl29  1  0.750000  0.376798  0.046700  1
  Cl  Cl30  1  0.750000  0.874594  0.450711  1
  Cl  Cl31  1  0.250000  0.125406  0.549289  1
  Cl  Cl32  1  0.250000  0.636693  0.352500  1
  Cl  Cl33  1  0.750000  0.363307  0.647500  1
  Cl  Cl34  1  0.750000  0.864267  0.854554  1
  Cl  Cl35  1  0.250000  0.135733  0.145446  1
