# generated using pymatgen
data_K2PrB2Pt7
_symmetry_space_group_name_H-M   'P 1'
_cell_length_a   8.56676608
_cell_length_b   8.56676570
_cell_length_c   8.56676470
_cell_angle_alpha   38.17667269
_cell_angle_beta   38.17667774
_cell_angle_gamma   38.17667708
_symmetry_Int_Tables_number   1
_chemical_formula_structural   K2PrB2Pt7
_chemical_formula_sum   'K2 Pr1 B2 Pt7'
_cell_volume   215.67401851
_cell_formula_units_Z   1
loop_
 _symmetry_equiv_pos_site_id
 _symmetry_equiv_pos_as_xyz
  1  'x, y, z'
loop_
 _atom_site_type_symbol
 _atom_site_label
 _atom_site_symmetry_multiplicity
 _atom_site_fract_x
 _atom_site_fract_y
 _atom_site_fract_z
 _atom_site_occupancy
  K  K0  1  0.851715  0.851715  0.851715  1
  K  K1  1  0.148285  0.148285  0.148285  1
  Pr  Pr2  1  0.000000  0.000000  0.000000  1
  B  B3  1  0.669264  0.669264  0.669264  1
  B  B4  1  0.330736  0.330736  0.330736  1
  Pt  Pt5  1  0.439593  0.931157  0.439593  1
  Pt  Pt6  1  0.439593  0.439593  0.931157  1
  Pt  Pt7  1  0.931157  0.439593  0.439593  1
  Pt  Pt8  1  0.560407  0.068843  0.560407  1
  Pt  Pt9  1  0.560407  0.560407  0.068843  1
  Pt  Pt10  1  0.068843  0.560407  0.560407  1
  Pt  Pt11  1  0.500000  0.500000  0.500000  1
