# generated using pymatgen
data_Hf12Mn5MoIr6
_symmetry_space_group_name_H-M   'P 1'
_cell_length_a   4.55127100
_cell_length_b   6.46365900
_cell_length_c   13.70676800
_cell_angle_alpha   90.00000000
_cell_angle_beta   89.99934246
_cell_angle_gamma   90.00000000
_symmetry_Int_Tables_number   1
_chemical_formula_structural   Hf12Mn5MoIr6
_chemical_formula_sum   'Hf12 Mn5 Mo1 Ir6'
_cell_volume   403.22383361
_cell_formula_units_Z   1
loop_
 _symmetry_equiv_pos_site_id
 _symmetry_equiv_pos_as_xyz
  1  'x, y, z'
loop_
 _atom_site_type_symbol
 _atom_site_label
 _atom_site_symmetry_multiplicity
 _atom_site_fract_x
 _atom_site_fract_y
 _atom_site_fract_z
 _atom_site_occupancy
  Hf  Hf0  1  0.500000  0.252973  0.000000  1
  Hf  Hf1  1  0.500000  0.747027  0.000000  1
  Hf  Hf2  1  0.999934  0.251128  0.168254  1
  Hf  Hf3  1  0.999934  0.748872  0.168254  1
  Hf  Hf4  1  0.499931  0.249678  0.333556  1
  Hf  Hf5  1  0.499931  0.750322  0.333556  1
  Hf  Hf6  1  0.000000  0.249592  0.500000  1
  Hf  Hf7  1  0.000000  0.750408  0.500000  1
  Hf  Hf8  1  0.500067  0.249678  0.666445  1
  Hf  Hf9  1  0.500067  0.750322  0.666445  1
  Hf  Hf10  1  0.000067  0.251128  0.831745  1
  Hf  Hf11  1  0.000067  0.748872  0.831745  1
  Mn  Mn12  1  0.499927  0.499999  0.168349  1
  Mn  Mn13  1  0.999927  0.000000  0.334890  1
  Mn  Mn14  1  0.500000  0.499999  0.500000  1
  Mn  Mn15  1  0.000074  0.000000  0.665110  1
  Mn  Mn16  1  0.500073  0.499999  0.831652  1
  Mo  Mo17  1  0.000000  0.000000  0.000000  1
  Ir  Ir18  1  0.000000  0.499999  0.000000  1
  Ir  Ir19  1  0.499931  0.000000  0.169022  1
  Ir  Ir20  1  0.999921  0.499999  0.334628  1
  Ir  Ir21  1  0.500000  0.000000  0.500000  1
  Ir  Ir22  1  0.000080  0.499999  0.665372  1
  Ir  Ir23  1  0.500068  0.000000  0.830978  1
