# generated using pymatgen
data_CoSb16
_symmetry_space_group_name_H-M   'P 1'
_cell_length_a   7.49813840
_cell_length_b   7.49813718
_cell_length_c   13.68474200
_cell_angle_alpha   54.18871134
_cell_angle_beta   54.18871810
_cell_angle_gamma   64.79079252
_symmetry_Int_Tables_number   1
_chemical_formula_structural   CoSb16
_chemical_formula_sum   'Co1 Sb16'
_cell_volume   501.87499865
_cell_formula_units_Z   1
loop_
 _symmetry_equiv_pos_site_id
 _symmetry_equiv_pos_as_xyz
  1  'x, y, z'
loop_
 _atom_site_type_symbol
 _atom_site_label
 _atom_site_symmetry_multiplicity
 _atom_site_fract_x
 _atom_site_fract_y
 _atom_site_fract_z
 _atom_site_occupancy
  Co  Co0  1  0.726331  0.726331  0.534854  1
  Sb  Sb1  1  0.852363  0.852363  0.885957  1
  Sb  Sb2  1  0.334481  0.334481  0.905141  1
  Sb  Sb3  1  0.671810  0.181474  0.117103  1
  Sb  Sb4  1  0.181474  0.671810  0.117103  1
  Sb  Sb5  1  0.999474  0.999474  0.357695  1
  Sb  Sb6  1  0.472947  0.472947  0.383715  1
  Sb  Sb7  1  0.536292  0.034103  0.616487  1
  Sb  Sb8  1  0.034103  0.536292  0.616487  1
  Sb  Sb9  1  0.207517  0.207517  0.391579  1
  Sb  Sb10  1  0.733336  0.733336  0.347993  1
  Sb  Sb11  1  0.298673  0.802163  0.619148  1
  Sb  Sb12  1  0.802163  0.298673  0.619148  1
  Sb  Sb13  1  0.069294  0.069294  0.902037  1
  Sb  Sb14  1  0.579484  0.579484  0.881568  1
  Sb  Sb15  1  0.412521  0.899034  0.119192  1
  Sb  Sb16  1  0.899034  0.412521  0.119192  1
