# generated using pymatgen
data_CsRb5Ho2Br12
_symmetry_space_group_name_H-M   'P 1'
_cell_length_a   9.78811278
_cell_length_b   9.77022170
_cell_length_c   8.13713600
_cell_angle_alpha   90.00000000
_cell_angle_beta   90.00000000
_cell_angle_gamma   89.83020155
_symmetry_Int_Tables_number   1
_chemical_formula_structural   CsRb5Ho2Br12
_chemical_formula_sum   'Cs1 Rb5 Ho2 Br12'
_cell_volume   778.16743157
_cell_formula_units_Z   1
loop_
 _symmetry_equiv_pos_site_id
 _symmetry_equiv_pos_as_xyz
  1  'x, y, z'
loop_
 _atom_site_type_symbol
 _atom_site_label
 _atom_site_symmetry_multiplicity
 _atom_site_fract_x
 _atom_site_fract_y
 _atom_site_fract_z
 _atom_site_occupancy
  Cs  Cs0  1  0.000000  0.000000  0.000000  1
  Rb  Rb1  1  0.000000  0.000000  0.500000  1
  Rb  Rb2  1  0.234099  0.570143  0.500000  1
  Rb  Rb3  1  0.765901  0.429857  0.500000  1
  Rb  Rb4  1  0.429557  0.234729  0.000000  1
  Rb  Rb5  1  0.570443  0.765271  0.000000  1
  Ho  Ho6  1  0.500000  0.000000  0.500000  1
  Ho  Ho7  1  0.000000  0.500000  0.000000  1
  Br  Br8  1  0.695462  0.048890  0.744511  1
  Br  Br9  1  0.304538  0.951110  0.744511  1
  Br  Br10  1  0.950205  0.693613  0.247864  1
  Br  Br11  1  0.049795  0.306387  0.247864  1
  Br  Br12  1  0.304538  0.951110  0.255489  1
  Br  Br13  1  0.695462  0.048890  0.255489  1
  Br  Br14  1  0.049795  0.306387  0.752136  1
  Br  Br15  1  0.950205  0.693613  0.752136  1
  Br  Br16  1  0.560250  0.719978  0.500000  1
  Br  Br17  1  0.439750  0.280022  0.500000  1
  Br  Br18  1  0.279820  0.561131  0.000000  1
  Br  Br19  1  0.720180  0.438869  0.000000  1
