# generated using pymatgen
data_Ta16BeCo3Te16
_symmetry_space_group_name_H-M   'P 1'
_cell_length_a   4.82122100
_cell_length_b   10.97510143
_cell_length_c   19.21928642
_cell_angle_alpha   89.94195808
_cell_angle_beta   90.00000000
_cell_angle_gamma   90.00000000
_symmetry_Int_Tables_number   1
_chemical_formula_structural   Ta16BeCo3Te16
_chemical_formula_sum   'Ta16 Be1 Co3 Te16'
_cell_volume   1016.95706665
_cell_formula_units_Z   1
loop_
 _symmetry_equiv_pos_site_id
 _symmetry_equiv_pos_as_xyz
  1  'x, y, z'
loop_
 _atom_site_type_symbol
 _atom_site_label
 _atom_site_symmetry_multiplicity
 _atom_site_fract_x
 _atom_site_fract_y
 _atom_site_fract_z
 _atom_site_occupancy
  Ta  Ta0  1  0.494178  0.562152  0.387666  1
  Ta  Ta1  1  0.494178  0.437848  0.612334  1
  Ta  Ta2  1  0.500737  0.063373  0.114374  1
  Ta  Ta3  1  0.500737  0.936627  0.885626  1
  Ta  Ta4  1  0.492277  0.697654  0.535009  1
  Ta  Ta5  1  0.492277  0.302346  0.464991  1
  Ta  Ta6  1  0.499465  0.200992  0.964140  1
  Ta  Ta7  1  0.499465  0.799008  0.035860  1
  Ta  Ta8  1  0.008553  0.683604  0.445026  1
  Ta  Ta9  1  0.008553  0.316396  0.554974  1
  Ta  Ta10  1  0.000414  0.186855  0.055601  1
  Ta  Ta11  1  0.000414  0.813145  0.944399  1
  Ta  Ta12  1  0.005219  0.404556  0.395808  1
  Ta  Ta13  1  0.005219  0.595444  0.604192  1
  Ta  Ta14  1  0.999001  0.902910  0.106346  1
  Ta  Ta15  1  0.999001  0.097090  0.893654  1
  Be  Be16  1  0.249960  0.500000  0.500000  1
  Co  Co17  1  0.750029  0.000000  0.000000  1
  Co  Co18  1  0.749727  0.500000  0.500000  1
  Co  Co19  1  0.250076  0.000000  0.000000  1
  Te  Te20  1  0.989626  0.844334  0.561458  1
  Te  Te21  1  0.989626  0.155666  0.438542  1
  Te  Te22  1  0.999506  0.346547  0.937340  1
  Te  Te23  1  0.999506  0.653453  0.062660  1
  Te  Te24  1  0.508202  0.333476  0.317892  1
  Te  Te25  1  0.508202  0.666524  0.682108  1
  Te  Te26  1  0.498924  0.832389  0.183530  1
  Te  Te27  1  0.498924  0.167611  0.816470  1
  Te  Te28  1  0.511316  0.820244  0.404168  1
  Te  Te29  1  0.511316  0.179756  0.595832  1
  Te  Te30  1  0.500338  0.322635  0.096119  1
  Te  Te31  1  0.500338  0.677365  0.903881  1
  Te  Te32  1  0.991593  0.607784  0.303391  1
  Te  Te33  1  0.991593  0.392216  0.696609  1
  Te  Te34  1  0.000755  0.108972  0.197715  1
  Te  Te35  1  0.000755  0.891028  0.802285  1
