# generated using pymatgen
data_Nb3SiPtN
_symmetry_space_group_name_H-M   'P 1'
_cell_length_a   7.00330400
_cell_length_b   7.00330400
_cell_length_c   7.00330400
_cell_angle_alpha   90.00000000
_cell_angle_beta   90.00000000
_cell_angle_gamma   90.00000000
_symmetry_Int_Tables_number   1
_chemical_formula_structural   Nb3SiPtN
_chemical_formula_sum   'Nb12 Si4 Pt4 N4'
_cell_volume   343.48591728
_cell_formula_units_Z   4
loop_
 _symmetry_equiv_pos_site_id
 _symmetry_equiv_pos_as_xyz
  1  'x, y, z'
loop_
 _atom_site_type_symbol
 _atom_site_label
 _atom_site_symmetry_multiplicity
 _atom_site_fract_x
 _atom_site_fract_y
 _atom_site_fract_z
 _atom_site_occupancy
  Nb  Nb0  1  0.785566  0.951831  0.381451  1
  Nb  Nb1  1  0.714434  0.048169  0.881451  1
  Nb  Nb2  1  0.214434  0.451831  0.118549  1
  Nb  Nb3  1  0.285566  0.548169  0.618549  1
  Nb  Nb4  1  0.951831  0.381451  0.785566  1
  Nb  Nb5  1  0.048169  0.881451  0.714434  1
  Nb  Nb6  1  0.451831  0.118549  0.214434  1
  Nb  Nb7  1  0.548169  0.618549  0.285566  1
  Nb  Nb8  1  0.381451  0.785566  0.951831  1
  Nb  Nb9  1  0.881451  0.714434  0.048169  1
  Nb  Nb10  1  0.118549  0.214434  0.451831  1
  Nb  Nb11  1  0.618549  0.285566  0.548169  1
  Si  Si12  1  0.572283  0.427717  0.927717  1
  Si  Si13  1  0.427717  0.927717  0.572283  1
  Si  Si14  1  0.927717  0.572283  0.427717  1
  Si  Si15  1  0.072283  0.072283  0.072283  1
  Pt  Pt16  1  0.178851  0.821149  0.321149  1
  Pt  Pt17  1  0.321149  0.178851  0.821149  1
  Pt  Pt18  1  0.821149  0.321149  0.178851  1
  Pt  Pt19  1  0.678851  0.678851  0.678851  1
  N  N20  1  0.874790  0.125210  0.625210  1
  N  N21  1  0.625210  0.874790  0.125210  1
  N  N22  1  0.125210  0.625210  0.874790  1
  N  N23  1  0.374790  0.374790  0.374790  1
