# generated using pymatgen
data_TbY4Zr3(Ni4As3)4
_symmetry_space_group_name_H-M   'P 1'
_cell_length_a   12.75866509
_cell_length_b   12.75866465
_cell_length_c   3.93435100
_cell_angle_alpha   90.00000000
_cell_angle_beta   90.00000000
_cell_angle_gamma   119.98662329
_symmetry_Int_Tables_number   1
_chemical_formula_structural   TbY4Zr3(Ni4As3)4
_chemical_formula_sum   'Tb1 Y4 Zr3 Ni16 As12'
_cell_volume   554.71858718
_cell_formula_units_Z   1
loop_
 _symmetry_equiv_pos_site_id
 _symmetry_equiv_pos_as_xyz
  1  'x, y, z'
loop_
 _atom_site_type_symbol
 _atom_site_label
 _atom_site_symmetry_multiplicity
 _atom_site_fract_x
 _atom_site_fract_y
 _atom_site_fract_z
 _atom_site_occupancy
  Tb  Tb0  1  0.184746  0.184746  0.500000  1
  Y  Y1  1  0.815414  0.000164  0.500000  1
  Y  Y2  1  0.000164  0.815414  0.500000  1
  Y  Y3  1  0.333338  0.666540  0.000000  1
  Y  Y4  1  0.666540  0.333338  0.000000  1
  Zr  Zr5  1  0.564188  0.564188  0.000000  1
  Zr  Zr6  1  0.435726  0.999748  0.000000  1
  Zr  Zr7  1  0.999748  0.435726  0.000000  1
  Ni  Ni8  1  0.724652  0.724652  0.500000  1
  Ni  Ni9  1  0.275537  0.999738  0.500000  1
  Ni  Ni10  1  0.999738  0.275537  0.500000  1
  Ni  Ni11  1  0.184370  0.377375  0.000000  1
  Ni  Ni12  1  0.623149  0.807135  0.000000  1
  Ni  Ni13  1  0.192755  0.815508  0.000000  1
  Ni  Ni14  1  0.807135  0.623149  0.000000  1
  Ni  Ni15  1  0.815508  0.192755  0.000000  1
  Ni  Ni16  1  0.377375  0.184370  0.000000  1
  Ni  Ni17  1  0.362882  0.483545  0.500000  1
  Ni  Ni18  1  0.516062  0.879072  0.500000  1
  Ni  Ni19  1  0.121034  0.637039  0.500000  1
  Ni  Ni20  1  0.879072  0.516062  0.500000  1
  Ni  Ni21  1  0.637039  0.121034  0.500000  1
  Ni  Ni22  1  0.483545  0.362882  0.500000  1
  Ni  Ni23  1  0.000135  0.000135  0.000000  1
  As  As24  1  0.822231  0.822231  0.000000  1
  As  As25  1  0.178195  0.999998  0.000000  1
  As  As26  1  0.999998  0.178195  0.000000  1
  As  As27  1  0.172451  0.478359  0.500000  1
  As  As28  1  0.521498  0.694026  0.500000  1
  As  As29  1  0.305916  0.827276  0.500000  1
  As  As30  1  0.694026  0.521498  0.500000  1
  As  As31  1  0.827276  0.305916  0.500000  1
  As  As32  1  0.478359  0.172451  0.500000  1
  As  As33  1  0.356997  0.356997  0.000000  1
  As  As34  1  0.643236  0.999962  0.000000  1
  As  As35  1  0.999962  0.643236  0.000000  1
