# generated using pymatgen
data_Ac17La3Si15Ag
_symmetry_space_group_name_H-M   'P 1'
_cell_length_a   8.27878038
_cell_length_b   8.25375347
_cell_length_c   16.40850700
_cell_angle_alpha   90.15931416
_cell_angle_beta   90.07112508
_cell_angle_gamma   90.02089136
_symmetry_Int_Tables_number   1
_chemical_formula_structural   Ac17La3Si15Ag
_chemical_formula_sum   'Ac17 La3 Si15 Ag1'
_cell_volume   1121.20461860
_cell_formula_units_Z   1
loop_
 _symmetry_equiv_pos_site_id
 _symmetry_equiv_pos_as_xyz
  1  'x, y, z'
loop_
 _atom_site_type_symbol
 _atom_site_label
 _atom_site_symmetry_multiplicity
 _atom_site_fract_x
 _atom_site_fract_y
 _atom_site_fract_z
 _atom_site_occupancy
  Ac  Ac0  1  0.378607  0.472436  0.370885  1
  Ac  Ac1  1  0.870920  0.034937  0.372745  1
  Ac  Ac2  1  0.974351  0.123873  0.120936  1
  Ac  Ac3  1  0.027128  0.878080  0.624546  1
  Ac  Ac4  1  0.624422  0.525375  0.872603  1
  Ac  Ac5  1  0.476086  0.374010  0.631070  1
  Ac  Ac6  1  0.524891  0.622098  0.126910  1
  Ac  Ac7  1  0.123797  0.975243  0.879854  1
  Ac  Ac8  1  0.987435  0.618285  0.053894  1
  Ac  Ac9  1  0.011816  0.371750  0.558510  1
  Ac  Ac10  1  0.619279  0.986440  0.945635  1
  Ac  Ac11  1  0.119474  0.514015  0.806076  1
  Ac  Ac12  1  0.875825  0.479685  0.297836  1
  Ac  Ac13  1  0.514343  0.119655  0.193521  1
  Ac  Ac14  1  0.488226  0.883568  0.697657  1
  Ac  Ac15  1  0.382345  0.017841  0.444900  1
  Ac  Ac16  1  0.685740  0.691929  0.500069  1
  La  La17  1  0.811346  0.187756  0.751172  1
  La  La18  1  0.187838  0.809487  0.245186  1
  La  La19  1  0.308896  0.309547  0.000094  1
  Si  Si20  1  0.917212  0.287824  0.938391  1
  Si  Si21  1  0.713710  0.083601  0.563226  1
  Si  Si22  1  0.213226  0.418159  0.188346  1
  Si  Si23  1  0.791173  0.580991  0.691384  1
  Si  Si24  1  0.416792  0.213327  0.813426  1
  Si  Si25  1  0.579236  0.790849  0.307501  1
  Si  Si26  1  0.290298  0.918554  0.060352  1
  Si  Si27  1  0.827022  0.809685  0.789654  1
  Si  Si28  1  0.175773  0.190845  0.286590  1
  Si  Si29  1  0.807540  0.825976  0.209438  1
  Si  Si30  1  0.313040  0.673638  0.544887  1
  Si  Si31  1  0.692727  0.327264  0.037324  1
  Si  Si32  1  0.671238  0.305312  0.464104  1
  Si  Si33  1  0.326358  0.689995  0.962122  1
  Si  Si34  1  0.190938  0.175515  0.713499  1
  Ag  Ag35  1  0.080954  0.712455  0.435656  1
