# generated using pymatgen
data_B4O5F2
_symmetry_space_group_name_H-M   'P 1'
_cell_length_a   4.97447910
_cell_length_b   4.35376359
_cell_length_c   6.86692510
_cell_angle_alpha   72.10842358
_cell_angle_beta   73.90009814
_cell_angle_gamma   63.29253087
_symmetry_Int_Tables_number   1
_chemical_formula_structural   B4O5F2
_chemical_formula_sum   'B4 O5 F2'
_cell_volume   124.72281014
_cell_formula_units_Z   1
loop_
 _symmetry_equiv_pos_site_id
 _symmetry_equiv_pos_as_xyz
  1  'x, y, z'
loop_
 _atom_site_type_symbol
 _atom_site_label
 _atom_site_symmetry_multiplicity
 _atom_site_fract_x
 _atom_site_fract_y
 _atom_site_fract_z
 _atom_site_occupancy
  B  B0  1  0.491632  0.099910  0.826259  1
  B  B1  1  0.030637  0.191366  0.121151  1
  B  B2  1  0.209593  0.319340  0.395498  1
  B  B3  1  0.342186  0.674214  0.553317  1
  O  O4  1  0.217739  0.620421  0.417167  1
  O  O5  1  0.485590  0.416960  0.706892  1
  O  O6  1  0.251715  0.056077  0.966804  1
  O  O7  1  0.057646  0.362804  0.245771  1
  O  O8  1  0.336582  0.004150  0.530513  1
  F  F9  1  0.760506  0.818105  0.816298  1
  F  F10  1  0.758273  0.175233  0.143415  1
