# generated using pymatgen
data_Na7Mn(PPd3)4
_symmetry_space_group_name_H-M   'P 1'
_cell_length_a   7.38712167
_cell_length_b   7.38712234
_cell_length_c   7.38712200
_cell_angle_alpha   89.94286804
_cell_angle_beta   89.94286803
_cell_angle_gamma   89.94287315
_symmetry_Int_Tables_number   1
_chemical_formula_structural   Na7Mn(PPd3)4
_chemical_formula_sum   'Na7 Mn1 P4 Pd12'
_cell_volume   403.11148147
_cell_formula_units_Z   1
loop_
 _symmetry_equiv_pos_site_id
 _symmetry_equiv_pos_as_xyz
  1  'x, y, z'
loop_
 _atom_site_type_symbol
 _atom_site_label
 _atom_site_symmetry_multiplicity
 _atom_site_fract_x
 _atom_site_fract_y
 _atom_site_fract_z
 _atom_site_occupancy
  Na  Na0  1  0.034342  0.459963  0.548254  1
  Na  Na1  1  0.548254  0.034342  0.459963  1
  Na  Na2  1  0.459963  0.548254  0.034342  1
  Na  Na3  1  0.208632  0.710829  0.791866  1
  Na  Na4  1  0.958126  0.958126  0.958126  1
  Na  Na5  1  0.791866  0.208632  0.710829  1
  Na  Na6  1  0.710829  0.791866  0.208632  1
  Mn  Mn7  1  0.300269  0.300269  0.300269  1
  P  P8  1  0.868624  0.374893  0.121564  1
  P  P9  1  0.374893  0.121564  0.868624  1
  P  P10  1  0.624404  0.624404  0.624404  1
  P  P11  1  0.121564  0.868624  0.374893  1
  Pd  Pd12  1  0.184605  0.075815  0.612282  1
  Pd  Pd13  1  0.425948  0.369961  0.668704  1
  Pd  Pd14  1  0.075815  0.612282  0.184605  1
  Pd  Pd15  1  0.943603  0.133571  0.315763  1
  Pd  Pd16  1  0.315763  0.943603  0.133571  1
  Pd  Pd17  1  0.668704  0.425948  0.369961  1
  Pd  Pd18  1  0.571189  0.874924  0.821870  1
  Pd  Pd19  1  0.612282  0.184605  0.075815  1
  Pd  Pd20  1  0.369961  0.668704  0.425948  1
  Pd  Pd21  1  0.874924  0.821870  0.571189  1
  Pd  Pd22  1  0.133571  0.315763  0.943603  1
  Pd  Pd23  1  0.821870  0.571189  0.874924  1
