# generated using pymatgen
data_Ce4NiOs7
_symmetry_space_group_name_H-M   'P 1'
_cell_length_a   5.35370527
_cell_length_b   5.35370644
_cell_length_c   8.78765000
_cell_angle_alpha   90.00000000
_cell_angle_beta   90.00000000
_cell_angle_gamma   120.35633248
_symmetry_Int_Tables_number   1
_chemical_formula_structural   Ce4NiOs7
_chemical_formula_sum   'Ce4 Ni1 Os7'
_cell_volume   217.34105675
_cell_formula_units_Z   1
loop_
 _symmetry_equiv_pos_site_id
 _symmetry_equiv_pos_as_xyz
  1  'x, y, z'
loop_
 _atom_site_type_symbol
 _atom_site_label
 _atom_site_symmetry_multiplicity
 _atom_site_fract_x
 _atom_site_fract_y
 _atom_site_fract_z
 _atom_site_occupancy
  Ce  Ce0  1  0.332556  0.667444  0.425604  1
  Ce  Ce1  1  0.671455  0.328545  0.566519  1
  Ce  Ce2  1  0.671455  0.328545  0.933481  1
  Ce  Ce3  1  0.332556  0.667444  0.074396  1
  Ni  Ni4  1  0.829314  0.170686  0.250000  1
  Os  Os5  1  0.002255  0.997745  0.499009  1
  Os  Os6  1  0.002255  0.997745  0.000991  1
  Os  Os7  1  0.822233  0.662925  0.250000  1
  Os  Os8  1  0.337075  0.177767  0.250000  1
  Os  Os9  1  0.168417  0.831583  0.750000  1
  Os  Os10  1  0.174569  0.344140  0.750000  1
  Os  Os11  1  0.655860  0.825431  0.750000  1
