# generated using pymatgen
data_Nd7Ho9Cd4NiRu3
_symmetry_space_group_name_H-M   'P 1'
_cell_length_a   9.68924259
_cell_length_b   9.74746184
_cell_length_c   9.76586600
_cell_angle_alpha   59.93767383
_cell_angle_beta   59.73814390
_cell_angle_gamma   59.67112652
_symmetry_Int_Tables_number   1
_chemical_formula_structural   Nd7Ho9Cd4NiRu3
_chemical_formula_sum   'Nd7 Ho9 Cd4 Ni1 Ru3'
_cell_volume   648.96358019
_cell_formula_units_Z   1
loop_
 _symmetry_equiv_pos_site_id
 _symmetry_equiv_pos_as_xyz
  1  'x, y, z'
loop_
 _atom_site_type_symbol
 _atom_site_label
 _atom_site_symmetry_multiplicity
 _atom_site_fract_x
 _atom_site_fract_y
 _atom_site_fract_z
 _atom_site_occupancy
  Nd  Nd0  1  0.062999  0.063350  0.436825  1
  Nd  Nd1  1  0.192159  0.806078  0.809271  1
  Nd  Nd2  1  0.805552  0.190564  0.189433  1
  Nd  Nd3  1  0.805552  0.190564  0.814450  1
  Nd  Nd4  1  0.192159  0.806078  0.192492  1
  Nd  Nd5  1  0.805485  0.814543  0.189986  1
  Nd  Nd6  1  0.192360  0.192193  0.807723  1
  Ho  Ho7  1  0.598054  0.594920  0.594332  1
  Ho  Ho8  1  0.598053  0.594918  0.212695  1
  Ho  Ho9  1  0.596317  0.214664  0.594508  1
  Ho  Ho10  1  0.215071  0.593866  0.595530  1
  Ho  Ho11  1  0.063123  0.439459  0.436486  1
  Ho  Ho12  1  0.437902  0.062656  0.062002  1
  Ho  Ho13  1  0.437901  0.062659  0.437439  1
  Ho  Ho14  1  0.063120  0.439459  0.060935  1
  Ho  Ho15  1  0.435959  0.436313  0.063866  1
  Cd  Cd16  1  0.827764  0.828252  0.831182  1
  Cd  Cd17  1  0.827764  0.828252  0.512802  1
  Cd  Cd18  1  0.828689  0.511124  0.830094  1
  Cd  Cd19  1  0.510950  0.828832  0.830108  1
  Ni  Ni20  1  0.825317  0.395225  0.389729  1
  Ru  Ru21  1  0.391288  0.389265  0.389454  1
  Ru  Ru22  1  0.391288  0.389265  0.829993  1
  Ru  Ru23  1  0.395175  0.827500  0.388663  1
