# generated using pymatgen
data_Ta2BeBW
_symmetry_space_group_name_H-M   'P 1'
_cell_length_a   6.27680600
_cell_length_b   6.27895400
_cell_length_c   3.27786900
_cell_angle_alpha   90.00000000
_cell_angle_beta   90.00000000
_cell_angle_gamma   90.00000000
_symmetry_Int_Tables_number   1
_chemical_formula_structural   Ta2BeBW
_chemical_formula_sum   'Ta4 Be2 B2 W2'
_cell_volume   129.18663925
_cell_formula_units_Z   2
loop_
 _symmetry_equiv_pos_site_id
 _symmetry_equiv_pos_as_xyz
  1  'x, y, z'
loop_
 _atom_site_type_symbol
 _atom_site_label
 _atom_site_symmetry_multiplicity
 _atom_site_fract_x
 _atom_site_fract_y
 _atom_site_fract_z
 _atom_site_occupancy
  Ta  Ta0  1  0.321255  0.827497  0.500000  1
  Ta  Ta1  1  0.821255  0.672503  0.500000  1
  Ta  Ta2  1  0.179312  0.316141  0.500000  1
  Ta  Ta3  1  0.679312  0.183859  0.500000  1
  Be  Be4  1  0.112831  0.611318  0.000000  1
  Be  Be5  1  0.612831  0.888682  0.000000  1
  B  B6  1  0.386213  0.115040  0.000000  1
  B  B7  1  0.886213  0.384960  0.000000  1
  W  W8  1  0.000390  0.003588  0.000000  1
  W  W9  1  0.500390  0.496412  0.000000  1
