# generated using pymatgen
data_Dy2Ho4CuSi4Ni
_symmetry_space_group_name_H-M   'P 1'
_cell_length_a   4.13359000
_cell_length_b   11.23610100
_cell_length_c   11.24022300
_cell_angle_alpha   90.00000000
_cell_angle_beta   90.00000000
_cell_angle_gamma   90.00000000
_symmetry_Int_Tables_number   1
_chemical_formula_structural   Dy2Ho4CuSi4Ni
_chemical_formula_sum   'Dy4 Ho8 Cu2 Si8 Ni2'
_cell_volume   522.05704373
_cell_formula_units_Z   2
loop_
 _symmetry_equiv_pos_site_id
 _symmetry_equiv_pos_as_xyz
  1  'x, y, z'
loop_
 _atom_site_type_symbol
 _atom_site_label
 _atom_site_symmetry_multiplicity
 _atom_site_fract_x
 _atom_site_fract_y
 _atom_site_fract_z
 _atom_site_occupancy
  Dy  Dy0  1  0.750000  0.873877  0.440610  1
  Dy  Dy1  1  0.750000  0.626123  0.940610  1
  Dy  Dy2  1  0.750000  0.196527  0.290255  1
  Dy  Dy3  1  0.750000  0.303473  0.790255  1
  Ho  Ho4  1  0.250000  0.058827  0.877960  1
  Ho  Ho5  1  0.250000  0.441173  0.377960  1
  Ho  Ho6  1  0.750000  0.936475  0.117082  1
  Ho  Ho7  1  0.750000  0.563525  0.617082  1
  Ho  Ho8  1  0.250000  0.119670  0.558053  1
  Ho  Ho9  1  0.250000  0.380330  0.058053  1
  Ho  Ho10  1  0.250000  0.804329  0.714085  1
  Ho  Ho11  1  0.250000  0.695671  0.214085  1
  Cu  Cu12  1  0.250000  0.364795  0.630416  1
  Cu  Cu13  1  0.250000  0.135205  0.130416  1
  Si  Si14  1  0.250000  0.814964  0.975432  1
  Si  Si15  1  0.250000  0.685036  0.475432  1
  Si  Si16  1  0.750000  0.188162  0.024347  1
  Si  Si17  1  0.750000  0.311838  0.524347  1
  Si  Si18  1  0.250000  0.496209  0.805677  1
  Si  Si19  1  0.250000  0.003791  0.305677  1
  Si  Si20  1  0.750000  0.506923  0.195674  1
  Si  Si21  1  0.750000  0.993077  0.695674  1
  Ni  Ni22  1  0.750000  0.633582  0.370405  1
  Ni  Ni23  1  0.750000  0.866418  0.870405  1
