# generated using pymatgen
data_PrAl2GaAu
_symmetry_space_group_name_H-M   'P 1'
_cell_length_a   4.29614722
_cell_length_b   4.29614772
_cell_length_c   6.33605752
_cell_angle_alpha   70.18260383
_cell_angle_beta   70.18260563
_cell_angle_gamma   90.00000741
_symmetry_Int_Tables_number   1
_chemical_formula_structural   PrAl2GaAu
_chemical_formula_sum   'Pr1 Al2 Ga1 Au1'
_cell_volume   102.62622925
_cell_formula_units_Z   1
loop_
 _symmetry_equiv_pos_site_id
 _symmetry_equiv_pos_as_xyz
  1  'x, y, z'
loop_
 _atom_site_type_symbol
 _atom_site_label
 _atom_site_symmetry_multiplicity
 _atom_site_fract_x
 _atom_site_fract_y
 _atom_site_fract_z
 _atom_site_occupancy
  Pr  Pr0  1  0.984715  0.984715  0.030569  1
  Al  Al1  1  0.748548  0.248548  0.502903  1
  Al  Al2  1  0.248548  0.748548  0.502903  1
  Ga  Ga3  1  0.393692  0.393692  0.212616  1
  Au  Au4  1  0.624496  0.624496  0.751007  1
