# generated using pymatgen
data_DyErNi7B2Pt
_symmetry_space_group_name_H-M   'P 1'
_cell_length_a   5.00121800
_cell_length_b   5.00368105
_cell_length_c   7.08703200
_cell_angle_alpha   90.00000000
_cell_angle_beta   90.00000000
_cell_angle_gamma   119.98473046
_symmetry_Int_Tables_number   1
_chemical_formula_structural   DyErNi7B2Pt
_chemical_formula_sum   'Dy1 Er1 Ni7 B2 Pt1'
_cell_volume   153.61273884
_cell_formula_units_Z   1
loop_
 _symmetry_equiv_pos_site_id
 _symmetry_equiv_pos_as_xyz
  1  'x, y, z'
loop_
 _atom_site_type_symbol
 _atom_site_label
 _atom_site_symmetry_multiplicity
 _atom_site_fract_x
 _atom_site_fract_y
 _atom_site_fract_z
 _atom_site_occupancy
  Dy  Dy0  1  0.500083  0.000168  0.000000  1
  Er  Er1  1  0.500000  0.999988  0.500000  1
  Ni  Ni2  1  0.166629  0.333273  0.000000  1
  Ni  Ni3  1  0.000970  0.001939  0.700005  1
  Ni  Ni4  1  0.498016  0.498981  0.700221  1
  Ni  Ni5  1  0.000963  0.498983  0.700202  1
  Ni  Ni6  1  0.000970  0.001939  0.299995  1
  Ni  Ni7  1  0.498016  0.498981  0.299779  1
  Ni  Ni8  1  0.000963  0.498983  0.299798  1
  B  B9  1  0.833279  0.666569  0.500000  1
  B  B10  1  0.166700  0.333392  0.500000  1
  Pt  Pt11  1  0.833410  0.666806  0.000000  1
