# generated using pymatgen
data_Nd6YIrI12
_symmetry_space_group_name_H-M   'P 1'
_cell_length_a   10.04962833
_cell_length_b   10.04962757
_cell_length_c   10.04962805
_cell_angle_alpha   106.98066666
_cell_angle_beta   106.98066804
_cell_angle_gamma   106.98066048
_symmetry_Int_Tables_number   1
_chemical_formula_structural   Nd6YIrI12
_chemical_formula_sum   'Nd6 Y1 Ir1 I12'
_cell_volume   845.71583548
_cell_formula_units_Z   1
loop_
 _symmetry_equiv_pos_site_id
 _symmetry_equiv_pos_as_xyz
  1  'x, y, z'
loop_
 _atom_site_type_symbol
 _atom_site_label
 _atom_site_symmetry_multiplicity
 _atom_site_fract_x
 _atom_site_fract_y
 _atom_site_fract_z
 _atom_site_occupancy
  Nd  Nd0  1  0.698569  0.976412  0.903251  1
  Nd  Nd1  1  0.976412  0.903251  0.698569  1
  Nd  Nd2  1  0.096749  0.301431  0.023588  1
  Nd  Nd3  1  0.301431  0.023588  0.096749  1
  Nd  Nd4  1  0.903251  0.698569  0.976412  1
  Nd  Nd5  1  0.023588  0.096749  0.301431  1
  Y  Y6  1  0.500000  0.500000  0.500000  1
  Ir  Ir7  1  0.000000  0.000000  0.000000  1
  I  I8  1  0.072522  0.227481  0.679427  1
  I  I9  1  0.389553  0.168681  0.465905  1
  I  I10  1  0.610447  0.831319  0.534095  1
  I  I11  1  0.227481  0.679427  0.072522  1
  I  I12  1  0.772519  0.320573  0.927478  1
  I  I13  1  0.679427  0.072522  0.227481  1
  I  I14  1  0.534095  0.610447  0.831319  1
  I  I15  1  0.831319  0.534095  0.610447  1
  I  I16  1  0.927478  0.772519  0.320573  1
  I  I17  1  0.320573  0.927478  0.772519  1
  I  I18  1  0.465905  0.389553  0.168681  1
  I  I19  1  0.168681  0.465905  0.389553  1
