# generated using pymatgen
data_YbGaCu3Ag
_symmetry_space_group_name_H-M   'P 1'
_cell_length_a   5.09711518
_cell_length_b   5.09711546
_cell_length_c   5.04328242
_cell_angle_alpha   59.64626952
_cell_angle_beta   59.64627241
_cell_angle_gamma   59.99999076
_symmetry_Int_Tables_number   1
_chemical_formula_structural   YbGaCu3Ag
_chemical_formula_sum   'Yb1 Ga1 Cu3 Ag1'
_cell_volume   92.15191525
_cell_formula_units_Z   1
loop_
 _symmetry_equiv_pos_site_id
 _symmetry_equiv_pos_as_xyz
  1  'x, y, z'
loop_
 _atom_site_type_symbol
 _atom_site_label
 _atom_site_symmetry_multiplicity
 _atom_site_fract_x
 _atom_site_fract_y
 _atom_site_fract_z
 _atom_site_occupancy
  Yb  Yb0  1  0.003037  0.003037  0.990888  1
  Ga  Ga1  1  0.621750  0.621750  0.134749  1
  Cu  Cu2  1  0.623908  0.125539  0.626644  1
  Cu  Cu3  1  0.125539  0.623908  0.626644  1
  Cu  Cu4  1  0.623908  0.623908  0.626644  1
  Ag  Ag5  1  0.251857  0.251857  0.244430  1
