# generated using pymatgen
data_Er6Zn18Au5Se
_symmetry_space_group_name_H-M   'P 1'
_cell_length_a   9.07888349
_cell_length_b   9.12111263
_cell_length_c   9.12111300
_cell_angle_alpha   59.99999502
_cell_angle_beta   59.84600964
_cell_angle_gamma   59.84601350
_symmetry_Int_Tables_number   1
_chemical_formula_structural   Er6Zn18Au5Se
_chemical_formula_sum   'Er6 Zn18 Au5 Se1'
_cell_volume   532.84183676
_cell_formula_units_Z   1
loop_
 _symmetry_equiv_pos_site_id
 _symmetry_equiv_pos_as_xyz
  1  'x, y, z'
loop_
 _atom_site_type_symbol
 _atom_site_label
 _atom_site_symmetry_multiplicity
 _atom_site_fract_x
 _atom_site_fract_y
 _atom_site_fract_z
 _atom_site_occupancy
  Er  Er0  1  0.715613  0.283528  0.283528  1
  Er  Er1  1  0.715613  0.283528  0.717332  1
  Er  Er2  1  0.715613  0.717332  0.283528  1
  Er  Er3  1  0.285764  0.717152  0.717152  1
  Er  Er4  1  0.285764  0.717152  0.279931  1
  Er  Er5  1  0.285764  0.279931  0.717152  1
  Zn  Zn6  1  0.875758  0.372347  0.875947  1
  Zn  Zn7  1  0.875758  0.875947  0.372347  1
  Zn  Zn8  1  0.875758  0.875947  0.875947  1
  Zn  Zn9  1  0.504162  0.998989  0.998989  1
  Zn  Zn10  1  0.504162  0.998989  0.497860  1
  Zn  Zn11  1  0.504162  0.497860  0.998989  1
  Zn  Zn12  1  0.998669  0.502572  0.502572  1
  Zn  Zn13  1  0.998669  0.502572  0.996187  1
  Zn  Zn14  1  0.998669  0.996187  0.502572  1
  Zn  Zn15  1  0.999449  0.000184  0.000184  1
  Zn  Zn16  1  0.006508  0.331163  0.331163  1
  Zn  Zn17  1  0.332064  0.005612  0.331161  1
  Zn  Zn18  1  0.332064  0.331161  0.005612  1
  Zn  Zn19  1  0.332064  0.331161  0.331161  1
  Zn  Zn20  1  0.991729  0.669424  0.669424  1
  Zn  Zn21  1  0.668733  0.993249  0.669010  1
  Zn  Zn22  1  0.668733  0.669010  0.993249  1
  Zn  Zn23  1  0.668733  0.669010  0.669010  1
  Au  Au24  1  0.640386  0.119872  0.119872  1
  Au  Au25  1  0.117883  0.636733  0.122693  1
  Au  Au26  1  0.117883  0.122693  0.636733  1
  Au  Au27  1  0.117883  0.122693  0.122693  1
  Au  Au28  1  0.367149  0.877617  0.877617  1
  Se  Se29  1  0.498844  0.500385  0.500385  1
