# generated using pymatgen
data_Zr7TiGa15Rh7
_symmetry_space_group_name_H-M   'P 1'
_cell_length_a   8.86346625
_cell_length_b   8.87267056
_cell_length_c   8.86346600
_cell_angle_alpha   120.15297516
_cell_angle_beta   119.80657849
_cell_angle_gamma   90.00539555
_symmetry_Int_Tables_number   1
_chemical_formula_structural   Zr7TiGa15Rh7
_chemical_formula_sum   'Zr7 Ti1 Ga15 Rh7'
_cell_volume   493.15955658
_cell_formula_units_Z   1
loop_
 _symmetry_equiv_pos_site_id
 _symmetry_equiv_pos_as_xyz
  1  'x, y, z'
loop_
 _atom_site_type_symbol
 _atom_site_label
 _atom_site_symmetry_multiplicity
 _atom_site_fract_x
 _atom_site_fract_y
 _atom_site_fract_z
 _atom_site_occupancy
  Zr  Zr0  1  0.801345  0.289720  0.075689  1
  Zr  Zr1  1  0.214031  0.289720  0.488376  1
  Zr  Zr2  1  0.201128  0.697016  0.495888  1
  Zr  Zr3  1  0.217541  0.725108  0.931935  1
  Zr  Zr4  1  0.793174  0.725108  0.507568  1
  Zr  Zr5  1  0.774807  0.274060  0.499254  1
  Zr  Zr6  1  0.378261  0.122535  0.744273  1
  Ti  Ti7  1  0.378516  0.632265  0.253749  1
  Ga  Ga8  1  0.987682  0.491004  0.503322  1
  Ga  Ga9  1  0.161125  0.344907  0.183782  1
  Ga  Ga10  1  0.155287  0.965710  0.810424  1
  Ga  Ga11  1  0.151782  0.352042  0.804107  1
  Ga  Ga12  1  0.547934  0.352042  0.200258  1
  Ga  Ga13  1  0.844011  0.653364  0.809354  1
  Ga  Ga14  1  0.844480  0.035448  0.190967  1
  Ga  Ga15  1  0.843210  0.655272  0.188475  1
  Ga  Ga16  1  0.466796  0.655272  0.812062  1
  Ga  Ga17  1  0.374989  0.126007  0.250026  1
  Ga  Ga18  1  0.875980  0.126007  0.751018  1
  Ga  Ga19  1  0.620000  0.866926  0.246925  1
  Ga  Ga20  1  0.620126  0.371786  0.751660  1
  Ga  Ga21  1  0.613232  0.873863  0.737027  1
  Ga  Ga22  1  0.136838  0.873863  0.260632  1
  Rh  Rh23  1  0.998271  0.001497  0.502648  1
  Rh  Rh24  1  0.498849  0.001497  0.003226  1
  Rh  Rh25  1  0.496158  0.500031  0.003874  1
  Rh  Rh26  1  0.498775  0.501502  0.497633  1
  Rh  Rh27  1  0.003869  0.501502  0.002729  1
  Rh  Rh28  1  0.999322  0.999536  0.000213  1
  Rh  Rh29  1  0.502476  0.995382  0.492906  1
