# generated using pymatgen
data_Ho3TmPdPt3O14
_symmetry_space_group_name_H-M   'P 1'
_cell_length_a   7.25178510
_cell_length_b   7.23998328
_cell_length_c   7.23998400
_cell_angle_alpha   59.99999673
_cell_angle_beta   60.05381729
_cell_angle_gamma   60.05380772
_symmetry_Int_Tables_number   1
_chemical_formula_structural   Ho3TmPdPt3O14
_chemical_formula_sum   'Ho3 Tm1 Pd1 Pt3 O14'
_cell_volume   269.00345200
_cell_formula_units_Z   1
loop_
 _symmetry_equiv_pos_site_id
 _symmetry_equiv_pos_as_xyz
  1  'x, y, z'
loop_
 _atom_site_type_symbol
 _atom_site_label
 _atom_site_symmetry_multiplicity
 _atom_site_fract_x
 _atom_site_fract_y
 _atom_site_fract_z
 _atom_site_occupancy
  Ho  Ho0  1  0.625000  0.625000  0.125000  1
  Ho  Ho1  1  0.625000  0.625000  0.625000  1
  Ho  Ho2  1  0.625000  0.125000  0.625000  1
  Tm  Tm3  1  0.125000  0.625000  0.625000  1
  Pd  Pd4  1  0.625000  0.125000  0.125000  1
  Pt  Pt5  1  0.125000  0.125000  0.125000  1
  Pt  Pt6  1  0.125000  0.625000  0.125000  1
  Pt  Pt7  1  0.125000  0.125000  0.625000  1
  O  O8  1  0.033914  0.467545  0.467545  1
  O  O9  1  0.784569  0.782098  0.216666  1
  O  O10  1  0.784569  0.216666  0.216666  1
  O  O11  1  0.465431  0.033334  0.467902  1
  O  O12  1  0.033914  0.030996  0.467545  1
  O  O13  1  0.033914  0.467545  0.030996  1
  O  O14  1  0.753217  0.748928  0.748928  1
  O  O15  1  0.496783  0.501072  0.501072  1
  O  O16  1  0.784569  0.216666  0.782098  1
  O  O17  1  0.216086  0.782455  0.219004  1
  O  O18  1  0.216086  0.219004  0.782455  1
  O  O19  1  0.465431  0.033334  0.033334  1
  O  O20  1  0.465431  0.467902  0.033334  1
  O  O21  1  0.216086  0.782455  0.782455  1
