# generated using pymatgen
data_HoCd(NiPt)2
_symmetry_space_group_name_H-M   'P 1'
_cell_length_a   5.04047937
_cell_length_b   5.16504628
_cell_length_c   5.16504584
_cell_angle_alpha   63.12288291
_cell_angle_beta   60.79463239
_cell_angle_gamma   60.79464441
_symmetry_Int_Tables_number   1
_chemical_formula_structural   HoCd(NiPt)2
_chemical_formula_sum   'Ho1 Cd1 Ni2 Pt2'
_cell_volume   98.32935242
_cell_formula_units_Z   1
loop_
 _symmetry_equiv_pos_site_id
 _symmetry_equiv_pos_as_xyz
  1  'x, y, z'
loop_
 _atom_site_type_symbol
 _atom_site_label
 _atom_site_symmetry_multiplicity
 _atom_site_fract_x
 _atom_site_fract_y
 _atom_site_fract_z
 _atom_site_occupancy
  Ho  Ho0  1  0.248208  0.251792  0.251792  1
  Cd  Cd1  1  0.007925  0.992075  0.992075  1
  Ni  Ni2  1  0.121471  0.627615  0.627615  1
  Ni  Ni3  1  0.623300  0.627615  0.627615  1
  Pt  Pt4  1  0.624548  0.626459  0.124446  1
  Pt  Pt5  1  0.624548  0.124446  0.626459  1
