# generated using pymatgen
data_Ba2IrPd2O9
_symmetry_space_group_name_H-M   'P 1'
_cell_length_a   8.30175080
_cell_length_b   8.29041002
_cell_length_c   8.28619748
_cell_angle_alpha   109.54035838
_cell_angle_beta   109.15279468
_cell_angle_gamma   109.71287229
_symmetry_Int_Tables_number   1
_chemical_formula_structural   Ba2IrPd2O9
_chemical_formula_sum   'Ba4 Ir2 Pd4 O18'
_cell_volume   439.04785294
_cell_formula_units_Z   2
loop_
 _symmetry_equiv_pos_site_id
 _symmetry_equiv_pos_as_xyz
  1  'x, y, z'
loop_
 _atom_site_type_symbol
 _atom_site_label
 _atom_site_symmetry_multiplicity
 _atom_site_fract_x
 _atom_site_fract_y
 _atom_site_fract_z
 _atom_site_occupancy
  Ba  Ba0  1  0.008413  0.009416  0.387105  1
  Ba  Ba1  1  0.997429  0.381975  0.998679  1
  Ba  Ba2  1  0.621019  0.615612  0.622422  1
  Ba  Ba3  1  0.374652  0.993939  0.991074  1
  Ir  Ir4  1  0.498591  0.843485  0.343184  1
  Ir  Ir5  1  0.655839  0.499232  0.155631  1
  Pd  Pd6  1  0.341524  0.500379  0.841717  1
  Pd  Pd7  1  0.846172  0.344663  0.501138  1
  Pd  Pd8  1  0.499400  0.157664  0.656570  1
  Pd  Pd9  1  0.156805  0.655345  0.501129  1
  O  O10  1  0.358628  0.993270  0.357653  1
  O  O11  1  0.366941  0.364261  0.006433  1
  O  O12  1  0.001474  0.641085  0.642906  1
  O  O13  1  0.642200  0.635428  0.002807  1
  O  O14  1  0.000660  0.354633  0.354718  1
  O  O15  1  0.640697  0.997431  0.632154  1
  O  O16  1  0.360939  0.314249  0.624369  1
  O  O17  1  0.047068  0.314152  0.688995  1
  O  O18  1  0.737111  0.377591  0.690157  1
  O  O19  1  0.375504  0.688213  0.733438  1
  O  O20  1  0.262766  0.953767  0.640089  1
  O  O21  1  0.629535  0.361950  0.305357  1
  O  O22  1  0.317249  0.635663  0.357079  1
  O  O23  1  0.684418  0.038608  0.321340  1
  O  O24  1  0.940941  0.637233  0.267863  1
  O  O25  1  0.671595  0.721070  0.362310  1
  O  O26  1  0.641671  0.275008  0.958149  1
  O  O27  1  0.320760  0.694678  0.055536  1
