# generated using pymatgen
data_Ca5Nd2Y(Si3Pd)4
_symmetry_space_group_name_H-M   'P 1'
_cell_length_a   8.25197500
_cell_length_b   8.26686188
_cell_length_c   8.36961500
_cell_angle_alpha   90.00000000
_cell_angle_beta   90.00000000
_cell_angle_gamma   119.94044422
_symmetry_Int_Tables_number   1
_chemical_formula_structural   Ca5Nd2Y(Si3Pd)4
_chemical_formula_sum   'Ca5 Nd2 Y1 Si12 Pd4'
_cell_volume   494.76049518
_cell_formula_units_Z   1
loop_
 _symmetry_equiv_pos_site_id
 _symmetry_equiv_pos_as_xyz
  1  'x, y, z'
loop_
 _atom_site_type_symbol
 _atom_site_label
 _atom_site_symmetry_multiplicity
 _atom_site_fract_x
 _atom_site_fract_y
 _atom_site_fract_z
 _atom_site_occupancy
  Ca  Ca0  1  0.499726  0.500232  0.750000  1
  Ca  Ca1  1  0.500281  0.499616  0.250000  1
  Ca  Ca2  1  0.000504  0.500232  0.750000  1
  Ca  Ca3  1  0.999335  0.499616  0.250000  1
  Ca  Ca4  1  0.499717  0.999433  0.750000  1
  Nd  Nd5  1  0.999998  0.999997  0.750000  1
  Nd  Nd6  1  0.000064  0.000128  0.250000  1
  Y  Y7  1  0.500280  0.000560  0.250000  1
  Si  Si8  1  0.834280  0.165076  0.003254  1
  Si  Si9  1  0.165688  0.834915  0.003618  1
  Si  Si10  1  0.330796  0.165076  0.003254  1
  Si  Si11  1  0.165688  0.834915  0.496382  1
  Si  Si12  1  0.669227  0.834915  0.003618  1
  Si  Si13  1  0.834280  0.165076  0.496746  1
  Si  Si14  1  0.834432  0.668865  0.000664  1
  Si  Si15  1  0.669227  0.834915  0.496382  1
  Si  Si16  1  0.165598  0.331196  0.001125  1
  Si  Si17  1  0.330796  0.165076  0.496746  1
  Si  Si18  1  0.165598  0.331196  0.498875  1
  Si  Si19  1  0.834432  0.668865  0.499336  1
  Pd  Pd20  1  0.665675  0.331348  0.003905  1
  Pd  Pd21  1  0.334350  0.668703  0.005805  1
  Pd  Pd22  1  0.334350  0.668703  0.494195  1
  Pd  Pd23  1  0.665675  0.331348  0.496095  1
