# generated using pymatgen
data_Sm8Er11LuSn16
_symmetry_space_group_name_H-M   'P 1'
_cell_length_a   8.04694016
_cell_length_b   8.19702616
_cell_length_c   15.48186500
_cell_angle_alpha   90.00000000
_cell_angle_beta   90.00000000
_cell_angle_gamma   90.02297628
_symmetry_Int_Tables_number   1
_chemical_formula_structural   Sm8Er11LuSn16
_chemical_formula_sum   'Sm8 Er11 Lu1 Sn16'
_cell_volume   1021.19889084
_cell_formula_units_Z   1
loop_
 _symmetry_equiv_pos_site_id
 _symmetry_equiv_pos_as_xyz
  1  'x, y, z'
loop_
 _atom_site_type_symbol
 _atom_site_label
 _atom_site_symmetry_multiplicity
 _atom_site_fract_x
 _atom_site_fract_y
 _atom_site_fract_z
 _atom_site_occupancy
  Sm  Sm0  1  0.518576  0.321410  0.903108  1
  Sm  Sm1  1  0.018536  0.178618  0.596885  1
  Sm  Sm2  1  0.481386  0.678731  0.403085  1
  Sm  Sm3  1  0.981588  0.821488  0.096947  1
  Sm  Sm4  1  0.481386  0.678731  0.096915  1
  Sm  Sm5  1  0.981588  0.821488  0.403053  1
  Sm  Sm6  1  0.518576  0.321410  0.596892  1
  Sm  Sm7  1  0.018536  0.178618  0.903115  1
  Er  Er8  1  0.364361  0.836471  0.877114  1
  Er  Er9  1  0.864330  0.663473  0.622946  1
  Er  Er10  1  0.635405  0.163364  0.377049  1
  Er  Er11  1  0.135774  0.336350  0.122953  1
  Er  Er12  1  0.635405  0.163364  0.122951  1
  Er  Er13  1  0.135774  0.336350  0.377047  1
  Er  Er14  1  0.364361  0.836471  0.622886  1
  Er  Er15  1  0.864330  0.663473  0.877054  1
  Er  Er16  1  0.196551  0.504124  0.750000  1
  Er  Er17  1  0.696493  0.995852  0.750000  1
  Er  Er18  1  0.803550  0.495957  0.250000  1
  Lu  Lu19  1  0.303375  0.004325  0.250000  1
  Sn  Sn20  1  0.298866  0.039335  0.042115  1
  Sn  Sn21  1  0.798898  0.460689  0.458098  1
  Sn  Sn22  1  0.701054  0.960604  0.541858  1
  Sn  Sn23  1  0.201060  0.539321  0.958140  1
  Sn  Sn24  1  0.701054  0.960604  0.958142  1
  Sn  Sn25  1  0.201060  0.539321  0.541860  1
  Sn  Sn26  1  0.298866  0.039335  0.457885  1
  Sn  Sn27  1  0.798898  0.460689  0.041902  1
  Sn  Sn28  1  0.562527  0.622609  0.750000  1
  Sn  Sn29  1  0.062594  0.877424  0.750000  1
  Sn  Sn30  1  0.437289  0.377142  0.250000  1
  Sn  Sn31  1  0.938094  0.122369  0.250000  1
  Sn  Sn32  1  0.327450  0.145328  0.750000  1
  Sn  Sn33  1  0.827615  0.354577  0.750000  1
  Sn  Sn34  1  0.672328  0.854661  0.250000  1
  Sn  Sn35  1  0.172468  0.645925  0.250000  1
