# generated using pymatgen
data_Tb15Tm5Ir11Ru
_symmetry_space_group_name_H-M   'P 1'
_cell_length_a   10.87674648
_cell_length_b   10.87837361
_cell_length_c   6.38988018
_cell_angle_alpha   90.02295440
_cell_angle_beta   89.98519457
_cell_angle_gamma   90.03076800
_symmetry_Int_Tables_number   1
_chemical_formula_structural   Tb15Tm5Ir11Ru
_chemical_formula_sum   'Tb15 Tm5 Ir11 Ru1'
_cell_volume   756.05881110
_cell_formula_units_Z   1
loop_
 _symmetry_equiv_pos_site_id
 _symmetry_equiv_pos_as_xyz
  1  'x, y, z'
loop_
 _atom_site_type_symbol
 _atom_site_label
 _atom_site_symmetry_multiplicity
 _atom_site_fract_x
 _atom_site_fract_y
 _atom_site_fract_z
 _atom_site_occupancy
  Tb  Tb0  1  0.291677  0.913332  0.880882  1
  Tb  Tb1  1  0.708251  0.087132  0.880659  1
  Tb  Tb2  1  0.708461  0.913057  0.377617  1
  Tb  Tb3  1  0.587091  0.791825  0.880593  1
  Tb  Tb4  1  0.586263  0.208334  0.377756  1
  Tb  Tb5  1  0.412727  0.792050  0.377710  1
  Tb  Tb6  1  0.412354  0.207931  0.880680  1
  Tb  Tb7  1  0.210068  0.411499  0.621091  1
  Tb  Tb8  1  0.210065  0.588042  0.120811  1
  Tb  Tb9  1  0.789952  0.411876  0.120824  1
  Tb  Tb10  1  0.789940  0.588270  0.621375  1
  Tb  Tb11  1  0.911937  0.709981  0.120854  1
  Tb  Tb12  1  0.911734  0.289882  0.621425  1
  Tb  Tb13  1  0.088319  0.710142  0.621146  1
  Tb  Tb14  1  0.088594  0.289544  0.121393  1
  Tm  Tm15  1  0.292608  0.086814  0.378998  1
  Tm  Tm16  1  0.000765  0.000349  0.498766  1
  Tm  Tm17  1  0.000122  0.000083  0.999102  1
  Tm  Tm18  1  0.499970  0.499905  0.999098  1
  Tm  Tm19  1  0.499842  0.499970  0.498848  1
  Ir  Ir20  1  0.849052  0.151761  0.249849  1
  Ir  Ir21  1  0.849041  0.848595  0.749610  1
  Ir  Ir22  1  0.151716  0.151005  0.747353  1
  Ir  Ir23  1  0.151468  0.849160  0.250453  1
  Ir  Ir24  1  0.651347  0.349041  0.749497  1
  Ir  Ir25  1  0.651928  0.650956  0.249829  1
  Ir  Ir26  1  0.347905  0.347735  0.250447  1
  Ir  Ir27  1  0.348600  0.650957  0.749606  1
  Ir  Ir28  1  0.498846  0.000441  0.622273  1
  Ir  Ir29  1  0.000077  0.500015  0.878206  1
  Ir  Ir30  1  0.000032  0.499935  0.378416  1
  Ru  Ru31  1  0.499246  0.000379  0.124829  1
