# generated using pymatgen
data_Sr6YTmCr2O12
_symmetry_space_group_name_H-M   'P 1'
_cell_length_a   6.84152913
_cell_length_b   6.84153067
_cell_length_c   6.84153088
_cell_angle_alpha   92.28390839
_cell_angle_beta   92.28390981
_cell_angle_gamma   92.28391141
_symmetry_Int_Tables_number   1
_chemical_formula_structural   Sr6YTmCr2O12
_chemical_formula_sum   'Sr6 Y1 Tm1 Cr2 O12'
_cell_volume   319.44426288
_cell_formula_units_Z   1
loop_
 _symmetry_equiv_pos_site_id
 _symmetry_equiv_pos_as_xyz
  1  'x, y, z'
loop_
 _atom_site_type_symbol
 _atom_site_label
 _atom_site_symmetry_multiplicity
 _atom_site_fract_x
 _atom_site_fract_y
 _atom_site_fract_z
 _atom_site_occupancy
  Sr  Sr0  1  0.250000  0.884240  0.615760  1
  Sr  Sr1  1  0.884240  0.615760  0.250000  1
  Sr  Sr2  1  0.750000  0.114885  0.385115  1
  Sr  Sr3  1  0.385115  0.750000  0.114885  1
  Sr  Sr4  1  0.114885  0.385115  0.750000  1
  Sr  Sr5  1  0.615760  0.250000  0.884240  1
  Y  Y6  1  0.250000  0.250000  0.250000  1
  Tm  Tm7  1  0.750000  0.750000  0.750000  1
  Cr  Cr8  1  0.501105  0.501105  0.501105  1
  Cr  Cr9  1  0.998895  0.998895  0.998895  1
  O  O10  1  0.591600  0.786260  0.459741  1
  O  O11  1  0.459741  0.591600  0.786260  1
  O  O12  1  0.786260  0.459741  0.591600  1
  O  O13  1  0.908400  0.040259  0.713740  1
  O  O14  1  0.713740  0.908400  0.040259  1
  O  O15  1  0.040259  0.713740  0.908400  1
  O  O16  1  0.411639  0.215058  0.544455  1
  O  O17  1  0.544455  0.411639  0.215058  1
  O  O18  1  0.215058  0.544455  0.411639  1
  O  O19  1  0.088361  0.955545  0.284942  1
  O  O20  1  0.955545  0.284942  0.088361  1
  O  O21  1  0.284942  0.088361  0.955545  1
