# generated using pymatgen
data_Ca8Cd4InSn3
_symmetry_space_group_name_H-M   'P 1'
_cell_length_a   7.52378506
_cell_length_b   5.46786500
_cell_length_c   10.99820800
_cell_angle_alpha   90.00000000
_cell_angle_beta   90.00717360
_cell_angle_gamma   90.00000000
_symmetry_Int_Tables_number   1
_chemical_formula_structural   Ca8Cd4InSn3
_chemical_formula_sum   'Ca8 Cd4 In1 Sn3'
_cell_volume   452.45572620
_cell_formula_units_Z   1
loop_
 _symmetry_equiv_pos_site_id
 _symmetry_equiv_pos_as_xyz
  1  'x, y, z'
loop_
 _atom_site_type_symbol
 _atom_site_label
 _atom_site_symmetry_multiplicity
 _atom_site_fract_x
 _atom_site_fract_y
 _atom_site_fract_z
 _atom_site_occupancy
  Ca  Ca0  1  0.004120  0.749999  0.125329  1
  Ca  Ca1  1  0.495838  0.749999  0.125247  1
  Ca  Ca2  1  0.999942  0.249999  0.376063  1
  Ca  Ca3  1  0.500082  0.249999  0.376041  1
  Ca  Ca4  1  0.502700  0.749999  0.625310  1
  Ca  Ca5  1  0.997289  0.749999  0.625256  1
  Ca  Ca6  1  0.500098  0.249999  0.873456  1
  Ca  Ca7  1  0.999871  0.249999  0.873431  1
  Cd  Cd8  1  0.250004  0.249999  0.124612  1
  Cd  Cd9  1  0.749986  0.749999  0.362766  1
  Cd  Cd10  1  0.250020  0.249999  0.624715  1
  Cd  Cd11  1  0.750053  0.749999  0.888124  1
  In  In12  1  0.750057  0.249999  0.124523  1
  Sn  Sn13  1  0.250102  0.749999  0.376209  1
  Sn  Sn14  1  0.749961  0.249999  0.624586  1
  Sn  Sn15  1  0.249880  0.749999  0.874331  1
