# generated using pymatgen
data_Hf8VBi4Ir
_symmetry_space_group_name_H-M   'P 1'
_cell_length_a   8.29482865
_cell_length_b   8.29483274
_cell_length_c   8.29482900
_cell_angle_alpha   95.87282874
_cell_angle_beta   95.87308857
_cell_angle_gamma   142.68863858
_symmetry_Int_Tables_number   1
_chemical_formula_structural   Hf8VBi4Ir
_chemical_formula_sum   'Hf8 V1 Bi4 Ir1'
_cell_volume   327.76299971
_cell_formula_units_Z   1
loop_
 _symmetry_equiv_pos_site_id
 _symmetry_equiv_pos_as_xyz
  1  'x, y, z'
loop_
 _atom_site_type_symbol
 _atom_site_label
 _atom_site_symmetry_multiplicity
 _atom_site_fract_x
 _atom_site_fract_y
 _atom_site_fract_z
 _atom_site_occupancy
  Hf  Hf0  1  0.578770  0.695438  0.284874  1
  Hf  Hf1  1  0.921228  0.206102  0.116668  1
  Hf  Hf2  1  0.293896  0.578776  0.883342  1
  Hf  Hf3  1  0.804566  0.921224  0.715120  1
  Hf  Hf4  1  0.695435  0.410554  0.116658  1
  Hf  Hf5  1  0.089437  0.804562  0.883332  1
  Hf  Hf6  1  0.410565  0.293898  0.715126  1
  Hf  Hf7  1  0.206104  0.089446  0.284881  1
  V  V8  1  0.250000  0.250000  0.000000  1
  Bi  Bi9  1  0.362050  0.862053  0.224092  1
  Bi  Bi10  1  0.137950  0.362040  0.500002  1
  Bi  Bi11  1  0.637961  0.137960  0.775908  1
  Bi  Bi12  1  0.862038  0.637947  0.499998  1
  Ir  Ir13  1  0.750000  0.750000  0.000000  1
