# generated using pymatgen
data_MnV(BMo)4
_symmetry_space_group_name_H-M   'P 1'
_cell_length_a   5.85629000
_cell_length_b   5.85629000
_cell_length_c   3.13015000
_cell_angle_alpha   90.00000000
_cell_angle_beta   90.00000000
_cell_angle_gamma   90.00000000
_symmetry_Int_Tables_number   1
_chemical_formula_structural   MnV(BMo)4
_chemical_formula_sum   'Mn1 V1 B4 Mo4'
_cell_volume   107.35203935
_cell_formula_units_Z   1
loop_
 _symmetry_equiv_pos_site_id
 _symmetry_equiv_pos_as_xyz
  1  'x, y, z'
loop_
 _atom_site_type_symbol
 _atom_site_label
 _atom_site_symmetry_multiplicity
 _atom_site_fract_x
 _atom_site_fract_y
 _atom_site_fract_z
 _atom_site_occupancy
  Mn  Mn0  1  0.000000  0.000000  0.000000  1
  V  V1  1  0.500000  0.500000  0.000000  1
  B  B2  1  0.111433  0.617032  0.000000  1
  B  B3  1  0.888567  0.382968  0.000000  1
  B  B4  1  0.617032  0.888567  0.000000  1
  B  B5  1  0.382968  0.111433  0.000000  1
  Mo  Mo6  1  0.676650  0.177219  0.500000  1
  Mo  Mo7  1  0.323350  0.822781  0.500000  1
  Mo  Mo8  1  0.177219  0.323350  0.500000  1
  Mo  Mo9  1  0.822781  0.676650  0.500000  1
