# generated using pymatgen
data_Er7LuSe12
_symmetry_space_group_name_H-M   'P 1'
_cell_length_a   7.03597274
_cell_length_b   7.02499737
_cell_length_c   12.80812581
_cell_angle_alpha   100.67889156
_cell_angle_beta   100.71346891
_cell_angle_gamma   108.88915263
_symmetry_Int_Tables_number   1
_chemical_formula_structural   Er7LuSe12
_chemical_formula_sum   'Er7 Lu1 Se12'
_cell_volume   567.65207791
_cell_formula_units_Z   1
loop_
 _symmetry_equiv_pos_site_id
 _symmetry_equiv_pos_as_xyz
  1  'x, y, z'
loop_
 _atom_site_type_symbol
 _atom_site_label
 _atom_site_symmetry_multiplicity
 _atom_site_fract_x
 _atom_site_fract_y
 _atom_site_fract_z
 _atom_site_occupancy
  Er  Er0  1  0.622371  0.872370  0.244726  1
  Er  Er1  1  0.127371  0.377384  0.254754  1
  Er  Er2  1  0.208719  0.958720  0.417451  1
  Er  Er3  1  0.791233  0.041225  0.582427  1
  Er  Er4  1  0.872753  0.622749  0.745492  1
  Er  Er5  1  0.377750  0.127752  0.755503  1
  Er  Er6  1  0.958939  0.208944  0.917878  1
  Lu  Lu7  1  0.041406  0.791342  0.082799  1
  Se  Se8  1  0.805578  0.046061  0.087259  1
  Se  Se9  1  0.281747  0.541268  0.087278  1
  Se  Se10  1  0.365615  0.115737  0.248534  1
  Se  Se11  1  0.882807  0.632785  0.248517  1
  Se  Se12  1  0.951415  0.196480  0.412508  1
  Se  Se13  1  0.461110  0.715960  0.412483  1
  Se  Se14  1  0.538817  0.283915  0.587554  1
  Se  Se15  1  0.048706  0.803691  0.587528  1
  Se  Se16  1  0.118139  0.367952  0.750013  1
  Se  Se17  1  0.631936  0.882019  0.749996  1
  Se  Se18  1  0.717985  0.463189  0.913642  1
  Se  Se19  1  0.195603  0.950456  0.913657  1
