# generated using pymatgen
data_TaCr(BRu)2
_symmetry_space_group_name_H-M   'P 1'
_cell_length_a   3.01581000
_cell_length_b   8.84829367
_cell_length_c   8.84843566
_cell_angle_alpha   119.99946867
_cell_angle_beta   90.00000000
_cell_angle_gamma   90.00000000
_symmetry_Int_Tables_number   1
_chemical_formula_structural   TaCr(BRu)2
_chemical_formula_sum   'Ta3 Cr3 B6 Ru6'
_cell_volume   204.48570791
_cell_formula_units_Z   3
loop_
 _symmetry_equiv_pos_site_id
 _symmetry_equiv_pos_as_xyz
  1  'x, y, z'
loop_
 _atom_site_type_symbol
 _atom_site_label
 _atom_site_symmetry_multiplicity
 _atom_site_fract_x
 _atom_site_fract_y
 _atom_site_fract_z
 _atom_site_occupancy
  Ta  Ta0  1  0.000000  0.591727  0.000000  1
  Ta  Ta1  1  0.000000  0.408223  0.408241  1
  Ta  Ta2  1  0.000000  0.999983  0.591759  1
  Cr  Cr3  1  0.000000  0.828522  0.828496  1
  Cr  Cr4  1  0.000000  0.000026  0.171504  1
  Cr  Cr5  1  0.000000  0.171380  0.000000  1
  B  B6  1  0.500000  0.000084  0.000000  1
  B  B7  1  0.500000  0.800820  0.000000  1
  B  B8  1  0.500000  0.199203  0.199110  1
  B  B9  1  0.500000  0.000094  0.800890  1
  B  B10  1  0.000000  0.333317  0.666678  1
  B  B11  1  0.000000  0.666640  0.333322  1
  Ru  Ru12  1  0.500000  0.536938  0.718867  1
  Ru  Ru13  1  0.500000  0.181887  0.463096  1
  Ru  Ru14  1  0.500000  0.281158  0.818124  1
  Ru  Ru15  1  0.500000  0.818072  0.281133  1
  Ru  Ru16  1  0.500000  0.718791  0.536904  1
  Ru  Ru17  1  0.500000  0.463035  0.181876  1
