# generated using pymatgen
data_Tb5SmZn4Pt13
_symmetry_space_group_name_H-M   'P 1'
_cell_length_a   8.29956472
_cell_length_b   8.29955992
_cell_length_c   8.29955900
_cell_angle_alpha   109.50716236
_cell_angle_beta   109.45117672
_cell_angle_gamma   109.45118540
_symmetry_Int_Tables_number   1
_chemical_formula_structural   Tb5SmZn4Pt13
_chemical_formula_sum   'Tb5 Sm1 Zn4 Pt13'
_cell_volume   440.11439822
_cell_formula_units_Z   1
loop_
 _symmetry_equiv_pos_site_id
 _symmetry_equiv_pos_as_xyz
  1  'x, y, z'
loop_
 _atom_site_type_symbol
 _atom_site_label
 _atom_site_symmetry_multiplicity
 _atom_site_fract_x
 _atom_site_fract_y
 _atom_site_fract_z
 _atom_site_occupancy
  Tb  Tb0  1  0.698326  0.698316  0.999945  1
  Tb  Tb1  1  0.301672  0.000047  0.301675  1
  Tb  Tb2  1  0.000067  0.303972  0.303972  1
  Tb  Tb3  1  0.301672  0.301675  0.000047  1
  Tb  Tb4  1  0.698326  0.999945  0.698316  1
  Sm  Sm5  1  0.999927  0.701458  0.701458  1
  Zn  Zn6  1  0.000006  0.999459  0.498273  1
  Zn  Zn7  1  0.000006  0.498273  0.999459  1
  Zn  Zn8  1  0.501182  0.999453  0.999453  1
  Zn  Zn9  1  0.498812  0.498270  0.498270  1
  Pt  Pt10  1  0.331800  0.331951  0.663725  1
  Pt  Pt11  1  0.668356  0.000148  0.331783  1
  Pt  Pt12  1  0.999987  0.670094  0.328982  1
  Pt  Pt13  1  0.668356  0.331783  0.000148  1
  Pt  Pt14  1  0.331800  0.663725  0.331951  1
  Pt  Pt15  1  0.999987  0.328982  0.670094  1
  Pt  Pt16  1  0.333223  0.667048  0.000276  1
  Pt  Pt17  1  0.333223  0.000276  0.667048  1
  Pt  Pt18  1  0.659111  0.329115  0.329115  1
  Pt  Pt19  1  0.666633  0.666925  0.333594  1
  Pt  Pt20  1  0.666633  0.333594  0.666925  1
  Pt  Pt21  1  0.340902  0.669977  0.669977  1
  Pt  Pt22  1  0.999995  0.005513  0.005513  1
