# generated using pymatgen
data_Ho2Pa(AlRh)3
_symmetry_space_group_name_H-M   'P 1'
_cell_length_a   7.16503542
_cell_length_b   7.29976343
_cell_length_c   3.85809200
_cell_angle_alpha   90.00000000
_cell_angle_beta   90.00000000
_cell_angle_gamma   120.62398121
_symmetry_Int_Tables_number   1
_chemical_formula_structural   Ho2Pa(AlRh)3
_chemical_formula_sum   'Ho2 Pa1 Al3 Rh3'
_cell_volume   173.64615170
_cell_formula_units_Z   1
loop_
 _symmetry_equiv_pos_site_id
 _symmetry_equiv_pos_as_xyz
  1  'x, y, z'
loop_
 _atom_site_type_symbol
 _atom_site_label
 _atom_site_symmetry_multiplicity
 _atom_site_fract_x
 _atom_site_fract_y
 _atom_site_fract_z
 _atom_site_occupancy
  Ho  Ho0  1  0.588121  0.582289  0.000000  1
  Ho  Ho1  1  0.411879  0.994169  0.000000  1
  Pa  Pa2  1  0.000000  0.423227  0.000000  1
  Al  Al3  1  0.252265  0.243010  0.500000  1
  Al  Al4  1  0.000000  0.774093  0.500000  1
  Al  Al5  1  0.747735  0.990746  0.500000  1
  Rh  Rh6  1  0.697888  0.336199  0.500000  1
  Rh  Rh7  1  0.302112  0.638312  0.500000  1
  Rh  Rh8  1  0.000000  0.017955  0.000000  1
