# generated using pymatgen
data_PdSe23
_symmetry_space_group_name_H-M   'P 1'
_cell_length_a   5.47981758
_cell_length_b   10.19867034
_cell_length_c   16.83485319
_cell_angle_alpha   90.13933113
_cell_angle_beta   87.65978398
_cell_angle_gamma   90.47880914
_symmetry_Int_Tables_number   1
_chemical_formula_structural   PdSe23
_chemical_formula_sum   'Pd1 Se23'
_cell_volume   940.02739808
_cell_formula_units_Z   1
loop_
 _symmetry_equiv_pos_site_id
 _symmetry_equiv_pos_as_xyz
  1  'x, y, z'
loop_
 _atom_site_type_symbol
 _atom_site_label
 _atom_site_symmetry_multiplicity
 _atom_site_fract_x
 _atom_site_fract_y
 _atom_site_fract_z
 _atom_site_occupancy
  Pd  Pd0  1  0.500313  0.291279  0.424080  1
  Se  Se1  1  0.495232  0.802021  0.385286  1
  Se  Se2  1  0.020836  0.318387  0.115252  1
  Se  Se3  1  0.831800  0.228789  0.511371  1
  Se  Se4  1  0.254861  0.776442  0.505940  1
  Se  Se5  1  0.234038  0.263237  0.995291  1
  Se  Se6  1  0.754631  0.728242  0.003314  1
  Se  Se7  1  0.164941  0.386653  0.349697  1
  Se  Se8  1  0.755184  0.623904  0.377771  1
  Se  Se9  1  0.774556  0.135812  0.154211  1
  Se  Se10  1  0.231754  0.858931  0.141062  1
  Se  Se11  1  0.741601  0.624862  0.627223  1
  Se  Se12  1  0.232118  0.377134  0.627195  1
  Se  Se13  1  0.229219  0.866506  0.856220  1
  Se  Se14  1  0.760961  0.137555  0.854487  1
  Se  Se15  1  0.985029  0.674124  0.113902  1
  Se  Se16  1  0.513127  0.818051  0.612319  1
  Se  Se17  1  0.430896  0.185447  0.554138  1
  Se  Se18  1  0.990586  0.677849  0.886799  1
  Se  Se19  1  0.001841  0.322728  0.886023  1
  Se  Se20  1  0.565566  0.431800  0.306434  1
  Se  Se21  1  0.012253  0.996124  0.231141  1
  Se  Se22  1  0.512691  0.473774  0.709295  1
  Se  Se23  1  0.005964  0.000347  0.771552  1
