# generated using pymatgen
data_Yb10Cd2CuNi2Pd
_symmetry_space_group_name_H-M   'P 1'
_cell_length_a   9.02829544
_cell_length_b   9.02829432
_cell_length_c   8.94431423
_cell_angle_alpha   129.24305466
_cell_angle_beta   129.24305676
_cell_angle_gamma   75.31800818
_symmetry_Int_Tables_number   1
_chemical_formula_structural   Yb10Cd2CuNi2Pd
_chemical_formula_sum   'Yb10 Cd2 Cu1 Ni2 Pd1'
_cell_volume   423.99857156
_cell_formula_units_Z   1
loop_
 _symmetry_equiv_pos_site_id
 _symmetry_equiv_pos_as_xyz
  1  'x, y, z'
loop_
 _atom_site_type_symbol
 _atom_site_label
 _atom_site_symmetry_multiplicity
 _atom_site_fract_x
 _atom_site_fract_y
 _atom_site_fract_z
 _atom_site_occupancy
  Yb  Yb0  1  0.500211  0.501183  0.001394  1
  Yb  Yb1  1  0.998817  0.999789  0.998606  1
  Yb  Yb2  1  0.543153  0.040841  0.846877  1
  Yb  Yb3  1  0.196277  0.693965  0.153123  1
  Yb  Yb4  1  0.028871  0.208989  0.500000  1
  Yb  Yb5  1  0.706004  0.531430  0.500000  1
  Yb  Yb6  1  0.459159  0.956847  0.153123  1
  Yb  Yb7  1  0.806035  0.303723  0.846877  1
  Yb  Yb8  1  0.968570  0.793996  0.500000  1
  Yb  Yb9  1  0.291011  0.471129  0.500000  1
  Cd  Cd10  1  0.250210  0.249790  0.000000  1
  Cd  Cd11  1  0.750210  0.749790  0.000000  1
  Cu  Cu12  1  0.378123  0.121877  0.500000  1
  Ni  Ni13  1  0.116181  0.616736  0.732916  1
  Ni  Ni14  1  0.883264  0.383819  0.267084  1
  Pd  Pd15  1  0.623902  0.876098  0.500000  1
