# generated using pymatgen
data_LuSc18Si16Mo
_symmetry_space_group_name_H-M   'P 1'
_cell_length_a   6.87423354
_cell_length_b   7.19989328
_cell_length_c   13.59620406
_cell_angle_alpha   90.05598000
_cell_angle_beta   89.97118545
_cell_angle_gamma   89.80516257
_symmetry_Int_Tables_number   1
_chemical_formula_structural   LuSc18Si16Mo
_chemical_formula_sum   'Lu1 Sc18 Si16 Mo1'
_cell_volume   672.92279781
_cell_formula_units_Z   1
loop_
 _symmetry_equiv_pos_site_id
 _symmetry_equiv_pos_as_xyz
  1  'x, y, z'
loop_
 _atom_site_type_symbol
 _atom_site_label
 _atom_site_symmetry_multiplicity
 _atom_site_fract_x
 _atom_site_fract_y
 _atom_site_fract_z
 _atom_site_occupancy
  Lu  Lu0  1  0.993008  0.681150  0.597640  1
  Sc  Sc1  1  0.842109  0.007080  0.249787  1
  Sc  Sc2  1  0.340943  0.494191  0.249917  1
  Sc  Sc3  1  0.657084  0.508720  0.750755  1
  Sc  Sc4  1  0.012867  0.319206  0.406142  1
  Sc  Sc5  1  0.512055  0.180574  0.405157  1
  Sc  Sc6  1  0.012904  0.319603  0.093383  1
  Sc  Sc7  1  0.485204  0.822565  0.597683  1
  Sc  Sc8  1  0.992637  0.685170  0.900005  1
  Sc  Sc9  1  0.485412  0.822335  0.902958  1
  Sc  Sc10  1  0.512509  0.180659  0.094533  1
  Sc  Sc11  1  0.330199  0.319231  0.628074  1
  Sc  Sc12  1  0.670026  0.678305  0.374418  1
  Sc  Sc13  1  0.173199  0.827564  0.376397  1
  Sc  Sc14  1  0.670288  0.677980  0.125437  1
  Sc  Sc15  1  0.826457  0.169970  0.628650  1
  Sc  Sc16  1  0.329626  0.319361  0.872946  1
  Sc  Sc17  1  0.826083  0.170190  0.872065  1
  Sc  Sc18  1  0.172683  0.826832  0.122827  1
  Si  Si19  1  0.030662  0.387480  0.750946  1
  Si  Si20  1  0.971642  0.606075  0.249909  1
  Si  Si21  1  0.470005  0.897611  0.249802  1
  Si  Si22  1  0.519115  0.090651  0.750409  1
  Si  Si23  1  0.284050  0.646168  0.751655  1
  Si  Si24  1  0.717912  0.365291  0.249853  1
  Si  Si25  1  0.215427  0.137344  0.249844  1
  Si  Si26  1  0.790904  0.864460  0.751406  1
  Si  Si27  1  0.160365  0.031604  0.546208  1
  Si  Si28  1  0.838885  0.970919  0.461820  1
  Si  Si29  1  0.340607  0.532186  0.462915  1
  Si  Si30  1  0.839300  0.968329  0.037026  1
  Si  Si31  1  0.660084  0.464760  0.537835  1
  Si  Si32  1  0.158329  0.027486  0.952630  1
  Si  Si33  1  0.663925  0.467475  0.961549  1
  Si  Si34  1  0.341104  0.532342  0.036842  1
  Mo  Mo35  1  0.152396  0.999130  0.750574  1
