# generated using pymatgen
data_Na2Li2Hf6FeBr18
_symmetry_space_group_name_H-M   'P 1'
_cell_length_a   10.40228907
_cell_length_b   10.29371319
_cell_length_c   10.36818842
_cell_angle_alpha   112.23069209
_cell_angle_beta   106.25713140
_cell_angle_gamma   99.39769658
_symmetry_Int_Tables_number   1
_chemical_formula_structural   Na2Li2Hf6FeBr18
_chemical_formula_sum   'Na2 Li2 Hf6 Fe1 Br18'
_cell_volume   940.23362230
_cell_formula_units_Z   1
loop_
 _symmetry_equiv_pos_site_id
 _symmetry_equiv_pos_as_xyz
  1  'x, y, z'
loop_
 _atom_site_type_symbol
 _atom_site_label
 _atom_site_symmetry_multiplicity
 _atom_site_fract_x
 _atom_site_fract_y
 _atom_site_fract_z
 _atom_site_occupancy
  Na  Na0  1  0.580573  0.124096  0.391270  1
  Na  Na1  1  0.419427  0.875904  0.608730  1
  Li  Li2  1  0.583123  0.441116  0.125482  1
  Li  Li3  1  0.416877  0.558884  0.874518  1
  Hf  Hf4  1  0.158117  0.048918  0.246695  1
  Hf  Hf5  1  0.841883  0.951082  0.753305  1
  Hf  Hf6  1  0.870881  0.149532  0.119955  1
  Hf  Hf7  1  0.129119  0.850468  0.880045  1
  Hf  Hf8  1  0.147887  0.216337  0.015406  1
  Hf  Hf9  1  0.852113  0.783663  0.984594  1
  Fe  Fe10  1  0.000000  0.000000  0.000000  1
  Br  Br11  1  0.020738  0.405287  0.148227  1
  Br  Br12  1  0.979262  0.594713  0.851773  1
  Br  Br13  1  0.342365  0.297401  0.292642  1
  Br  Br14  1  0.657635  0.702599  0.707358  1
  Br  Br15  1  0.339633  0.472851  0.048334  1
  Br  Br16  1  0.660367  0.527149  0.951666  1
  Br  Br17  1  0.009732  0.813942  0.255476  1
  Br  Br18  1  0.990268  0.186058  0.744524  1
  Br  Br19  1  0.711999  0.315923  0.263874  1
  Br  Br20  1  0.288001  0.684077  0.736126  1
  Br  Br21  1  0.312300  0.076133  0.888197  1
  Br  Br22  1  0.687700  0.923867  0.111803  1
  Br  Br23  1  0.032521  0.220705  0.404007  1
  Br  Br24  1  0.967479  0.779295  0.595993  1
  Br  Br25  1  0.319769  0.883360  0.139689  1
  Br  Br26  1  0.680231  0.116640  0.860311  1
  Br  Br27  1  0.357021  0.110951  0.525835  1
  Br  Br28  1  0.642979  0.889049  0.474165  1
