# generated using pymatgen
data_YHoLu18(Al3Ru)2
_symmetry_space_group_name_H-M   'P 1'
_cell_length_a   9.33198803
_cell_length_b   9.33049710
_cell_length_c   9.44308600
_cell_angle_alpha   90.00000000
_cell_angle_beta   90.00000000
_cell_angle_gamma   120.01273431
_symmetry_Int_Tables_number   1
_chemical_formula_structural   YHoLu18(Al3Ru)2
_chemical_formula_sum   'Y1 Ho1 Lu18 Al6 Ru2'
_cell_volume   711.97999185
_cell_formula_units_Z   1
loop_
 _symmetry_equiv_pos_site_id
 _symmetry_equiv_pos_as_xyz
  1  'x, y, z'
loop_
 _atom_site_type_symbol
 _atom_site_label
 _atom_site_symmetry_multiplicity
 _atom_site_fract_x
 _atom_site_fract_y
 _atom_site_fract_z
 _atom_site_occupancy
  Y  Y0  1  0.079643  0.539119  0.750000  1
  Ho  Ho1  1  0.461219  0.920971  0.750000  1
  Lu  Lu2  1  0.999654  0.000360  0.499779  1
  Lu  Lu3  1  0.999654  0.000360  0.000221  1
  Lu  Lu4  1  0.207044  0.793411  0.439494  1
  Lu  Lu5  1  0.208329  0.414613  0.440024  1
  Lu  Lu6  1  0.585165  0.791808  0.440343  1
  Lu  Lu7  1  0.791606  0.207766  0.558003  1
  Lu  Lu8  1  0.791533  0.584726  0.557944  1
  Lu  Lu9  1  0.415277  0.208158  0.558070  1
  Lu  Lu10  1  0.791606  0.207766  0.941997  1
  Lu  Lu11  1  0.791533  0.584726  0.942056  1
  Lu  Lu12  1  0.415277  0.208158  0.941930  1
  Lu  Lu13  1  0.207044  0.793411  0.060506  1
  Lu  Lu14  1  0.208329  0.414613  0.059976  1
  Lu  Lu15  1  0.585165  0.791808  0.059657  1
  Lu  Lu16  1  0.540464  0.459517  0.250000  1
  Lu  Lu17  1  0.540082  0.079142  0.250000  1
  Lu  Lu18  1  0.920912  0.459952  0.250000  1
  Lu  Lu19  1  0.461455  0.538690  0.750000  1
  Al  Al20  1  0.888712  0.111237  0.250000  1
  Al  Al21  1  0.888194  0.777539  0.250000  1
  Al  Al22  1  0.222447  0.111777  0.250000  1
  Al  Al23  1  0.110205  0.890162  0.750000  1
  Al  Al24  1  0.113172  0.221698  0.750000  1
  Al  Al25  1  0.778024  0.886923  0.750000  1
  Ru  Ru26  1  0.332418  0.667570  0.250000  1
  Ru  Ru27  1  0.665838  0.334018  0.750000  1
