# generated using pymatgen
data_NdEuNi4(SbAs)2
_symmetry_space_group_name_H-M   'P 1'
_cell_length_a   4.34902500
_cell_length_b   4.34902500
_cell_length_c   9.86768000
_cell_angle_alpha   90.00000000
_cell_angle_beta   90.00000000
_cell_angle_gamma   90.00000000
_symmetry_Int_Tables_number   1
_chemical_formula_structural   NdEuNi4(SbAs)2
_chemical_formula_sum   'Nd1 Eu1 Ni4 Sb2 As2'
_cell_volume   186.63748158
_cell_formula_units_Z   1
loop_
 _symmetry_equiv_pos_site_id
 _symmetry_equiv_pos_as_xyz
  1  'x, y, z'
loop_
 _atom_site_type_symbol
 _atom_site_label
 _atom_site_symmetry_multiplicity
 _atom_site_fract_x
 _atom_site_fract_y
 _atom_site_fract_z
 _atom_site_occupancy
  Nd  Nd0  1  0.000000  0.500000  0.263986  1
  Eu  Eu1  1  0.500000  0.000000  0.736525  1
  Ni  Ni2  1  0.500000  0.500000  0.001694  1
  Ni  Ni3  1  0.000000  0.000000  0.001694  1
  Ni  Ni4  1  0.500000  0.000000  0.393688  1
  Ni  Ni5  1  0.000000  0.500000  0.602945  1
  Sb  Sb6  1  0.500000  0.000000  0.135893  1
  Sb  Sb7  1  0.000000  0.500000  0.863139  1
  As  As8  1  0.500000  0.500000  0.500218  1
  As  As9  1  0.000000  0.000000  0.500218  1
