# generated using pymatgen
data_Sc5Si6P6Ir3Rh16
_symmetry_space_group_name_H-M   'P 1'
_cell_length_a   12.64875294
_cell_length_b   12.63919228
_cell_length_c   3.87366200
_cell_angle_alpha   90.00000000
_cell_angle_beta   90.00000000
_cell_angle_gamma   119.94690303
_symmetry_Int_Tables_number   1
_chemical_formula_structural   Sc5Si6P6Ir3Rh16
_chemical_formula_sum   'Sc5 Si6 P6 Ir3 Rh16'
_cell_volume   536.60102994
_cell_formula_units_Z   1
loop_
 _symmetry_equiv_pos_site_id
 _symmetry_equiv_pos_as_xyz
  1  'x, y, z'
loop_
 _atom_site_type_symbol
 _atom_site_label
 _atom_site_symmetry_multiplicity
 _atom_site_fract_x
 _atom_site_fract_y
 _atom_site_fract_z
 _atom_site_occupancy
  Sc  Sc0  1  0.333570  0.666619  0.000000  1
  Sc  Sc1  1  0.666384  0.332989  0.000000  1
  Sc  Sc2  1  0.817116  0.000517  0.500000  1
  Sc  Sc3  1  0.999542  0.817245  0.500000  1
  Sc  Sc4  1  0.183726  0.182776  0.500000  1
  Si  Si5  1  0.165569  0.482478  0.500000  1
  Si  Si6  1  0.517664  0.682917  0.500000  1
  Si  Si7  1  0.316758  0.834014  0.500000  1
  Si  Si8  1  0.683320  0.517865  0.500000  1
  Si  Si9  1  0.834177  0.317117  0.500000  1
  Si  Si10  1  0.482514  0.165911  0.500000  1
  P  P11  1  0.177593  0.999753  0.000000  1
  P  P12  1  0.000257  0.177487  0.000000  1
  P  P13  1  0.821887  0.822280  0.000000  1
  P  P14  1  0.636364  0.999780  0.000000  1
  P  P15  1  0.999894  0.636289  0.000000  1
  P  P16  1  0.363606  0.363875  0.000000  1
  Ir  Ir17  1  0.819180  0.189259  0.000000  1
  Ir  Ir18  1  0.370010  0.180912  0.000000  1
  Ir  Ir19  1  0.999986  0.999605  0.000000  1
  Rh  Rh20  1  0.451904  0.000509  0.000000  1
  Rh  Rh21  1  0.000102  0.451303  0.000000  1
  Rh  Rh22  1  0.548525  0.548506  0.000000  1
  Rh  Rh23  1  0.356207  0.485034  0.500000  1
  Rh  Rh24  1  0.514988  0.871247  0.500000  1
  Rh  Rh25  1  0.128246  0.643464  0.500000  1
  Rh  Rh26  1  0.871378  0.515200  0.500000  1
  Rh  Rh27  1  0.643180  0.129010  0.500000  1
  Rh  Rh28  1  0.485796  0.357008  0.500000  1
  Rh  Rh29  1  0.180895  0.370194  0.000000  1
  Rh  Rh30  1  0.629775  0.810664  0.000000  1
  Rh  Rh31  1  0.189436  0.818901  0.000000  1
  Rh  Rh32  1  0.810423  0.629681  0.000000  1
  Rh  Rh33  1  0.275785  0.999761  0.500000  1
  Rh  Rh34  1  0.000167  0.275840  0.500000  1
  Rh  Rh35  1  0.724077  0.723988  0.500000  1
