# generated using pymatgen
data_Ti8MnV(Si3C)2
_symmetry_space_group_name_H-M   'P 1'
_cell_length_a   7.37720700
_cell_length_b   7.37720753
_cell_length_c   5.05531200
_cell_angle_alpha   90.00000000
_cell_angle_beta   90.00000000
_cell_angle_gamma   120.00000209
_symmetry_Int_Tables_number   1
_chemical_formula_structural   Ti8MnV(Si3C)2
_chemical_formula_sum   'Ti8 Mn1 V1 Si6 C2'
_cell_volume   238.26626535
_cell_formula_units_Z   1
loop_
 _symmetry_equiv_pos_site_id
 _symmetry_equiv_pos_as_xyz
  1  'x, y, z'
loop_
 _atom_site_type_symbol
 _atom_site_label
 _atom_site_symmetry_multiplicity
 _atom_site_fract_x
 _atom_site_fract_y
 _atom_site_fract_z
 _atom_site_occupancy
  Ti  Ti0  1  0.666667  0.333333  0.500000  1
  Ti  Ti1  1  0.333333  0.666667  0.500000  1
  Ti  Ti2  1  0.232594  0.998641  0.253179  1
  Ti  Ti3  1  0.766047  0.998641  0.746821  1
  Ti  Ti4  1  0.001359  0.233953  0.253179  1
  Ti  Ti5  1  0.001359  0.767406  0.746821  1
  Ti  Ti6  1  0.766047  0.767406  0.253179  1
  Ti  Ti7  1  0.232594  0.233953  0.746821  1
  Mn  Mn8  1  0.666667  0.333333  0.000000  1
  V  V9  1  0.333333  0.666667  0.000000  1
  Si  Si10  1  0.593197  0.003334  0.230921  1
  Si  Si11  1  0.410136  0.003334  0.769079  1
  Si  Si12  1  0.996666  0.589864  0.230921  1
  Si  Si13  1  0.996666  0.406803  0.769079  1
  Si  Si14  1  0.410136  0.406803  0.230921  1
  Si  Si15  1  0.593197  0.589864  0.769079  1
  C  C16  1  0.000000  0.000000  0.000000  1
  C  C17  1  0.000000  0.000000  0.500000  1
