# generated using pymatgen
data_Ho2(TmPb)3
_symmetry_space_group_name_H-M   'P 1'
_cell_length_a   8.98410246
_cell_length_b   8.98410049
_cell_length_c   6.54021600
_cell_angle_alpha   89.99992617
_cell_angle_beta   89.99992671
_cell_angle_gamma   120.03659210
_symmetry_Int_Tables_number   1
_chemical_formula_structural   Ho2(TmPb)3
_chemical_formula_sum   'Ho4 Tm6 Pb6'
_cell_volume   456.99533499
_cell_formula_units_Z   2
loop_
 _symmetry_equiv_pos_site_id
 _symmetry_equiv_pos_as_xyz
  1  'x, y, z'
loop_
 _atom_site_type_symbol
 _atom_site_label
 _atom_site_symmetry_multiplicity
 _atom_site_fract_x
 _atom_site_fract_y
 _atom_site_fract_z
 _atom_site_occupancy
  Ho  Ho0  1  0.763123  0.763124  0.249994  1
  Ho  Ho1  1  0.237099  0.999860  0.250000  1
  Ho  Ho2  1  0.999860  0.237100  0.250000  1
  Ho  Ho3  1  0.236765  0.236765  0.749999  1
  Tm  Tm4  1  0.666729  0.333356  0.999913  1
  Tm  Tm5  1  0.333355  0.666729  0.999913  1
  Tm  Tm6  1  0.666736  0.333363  0.500090  1
  Tm  Tm7  1  0.333362  0.666736  0.500090  1
  Tm  Tm8  1  0.763058  0.999850  0.750001  1
  Tm  Tm9  1  0.999850  0.763059  0.750001  1
  Pb  Pb10  1  0.604811  0.999988  0.249997  1
  Pb  Pb11  1  0.999988  0.604811  0.249997  1
  Pb  Pb12  1  0.395127  0.395126  0.250010  1
  Pb  Pb13  1  0.394817  0.999601  0.749997  1
  Pb  Pb14  1  0.999601  0.394817  0.749997  1
  Pb  Pb15  1  0.605714  0.605715  0.750002  1
