# generated using pymatgen
data_Tb2Th(ZnNi)3
_symmetry_space_group_name_H-M   'P 1'
_cell_length_a   7.09655200
_cell_length_b   7.19592264
_cell_length_c   3.77530300
_cell_angle_alpha   90.00000000
_cell_angle_beta   90.00000000
_cell_angle_gamma   120.46429113
_symmetry_Int_Tables_number   1
_chemical_formula_structural   Tb2Th(ZnNi)3
_chemical_formula_sum   'Tb2 Th1 Zn3 Ni3'
_cell_volume   166.17488985
_cell_formula_units_Z   1
loop_
 _symmetry_equiv_pos_site_id
 _symmetry_equiv_pos_as_xyz
  1  'x, y, z'
loop_
 _atom_site_type_symbol
 _atom_site_label
 _atom_site_symmetry_multiplicity
 _atom_site_fract_x
 _atom_site_fract_y
 _atom_site_fract_z
 _atom_site_occupancy
  Tb  Tb0  1  0.407523  0.409895  0.000000  1
  Tb  Tb1  1  0.592477  0.002371  0.000000  1
  Th  Th2  1  0.000000  0.583457  0.000000  1
  Zn  Zn3  1  0.248926  0.007133  0.500000  1
  Zn  Zn4  1  0.751074  0.758207  0.500000  1
  Zn  Zn5  1  0.000000  0.231703  0.500000  1
  Ni  Ni6  1  0.000000  0.995237  0.000000  1
  Ni  Ni7  1  0.676251  0.344124  0.500000  1
  Ni  Ni8  1  0.323749  0.667874  0.500000  1
