# generated using pymatgen
data_Tb4Lu6Sn5Pb3
_symmetry_space_group_name_H-M   'P 1'
_cell_length_a   8.00418200
_cell_length_b   8.12916108
_cell_length_c   15.34829482
_cell_angle_alpha   90.09974011
_cell_angle_beta   90.00000000
_cell_angle_gamma   90.00000000
_symmetry_Int_Tables_number   1
_chemical_formula_structural   Tb4Lu6Sn5Pb3
_chemical_formula_sum   'Tb8 Lu12 Sn10 Pb6'
_cell_volume   998.67035646
_cell_formula_units_Z   2
loop_
 _symmetry_equiv_pos_site_id
 _symmetry_equiv_pos_as_xyz
  1  'x, y, z'
loop_
 _atom_site_type_symbol
 _atom_site_label
 _atom_site_symmetry_multiplicity
 _atom_site_fract_x
 _atom_site_fract_y
 _atom_site_fract_z
 _atom_site_occupancy
  Tb  Tb0  1  0.525619  0.324260  0.901450  1
  Tb  Tb1  1  0.025619  0.175740  0.598550  1
  Tb  Tb2  1  0.475938  0.680647  0.400764  1
  Tb  Tb3  1  0.975938  0.819353  0.099236  1
  Tb  Tb4  1  0.479250  0.675324  0.099207  1
  Tb  Tb5  1  0.979250  0.824676  0.400793  1
  Tb  Tb6  1  0.521899  0.320174  0.598583  1
  Tb  Tb7  1  0.021899  0.179826  0.901417  1
  Lu  Lu8  1  0.364906  0.839703  0.874537  1
  Lu  Lu9  1  0.864906  0.660297  0.625463  1
  Lu  Lu10  1  0.632170  0.160516  0.374846  1
  Lu  Lu11  1  0.132170  0.339484  0.125154  1
  Lu  Lu12  1  0.635363  0.163295  0.124906  1
  Lu  Lu13  1  0.135363  0.336705  0.375094  1
  Lu  Lu14  1  0.364603  0.841234  0.624654  1
  Lu  Lu15  1  0.864603  0.658766  0.875346  1
  Lu  Lu16  1  0.195835  0.504938  0.750167  1
  Lu  Lu17  1  0.695835  0.995062  0.749833  1
  Lu  Lu18  1  0.803606  0.494961  0.248444  1
  Lu  Lu19  1  0.303606  0.005039  0.251556  1
  Sn  Sn20  1  0.295413  0.040661  0.458282  1
  Sn  Sn21  1  0.795413  0.459339  0.041718  1
  Sn  Sn22  1  0.559874  0.622579  0.749435  1
  Sn  Sn23  1  0.059874  0.877421  0.750565  1
  Sn  Sn24  1  0.439111  0.377979  0.250180  1
  Sn  Sn25  1  0.939111  0.122021  0.249820  1
  Sn  Sn26  1  0.331541  0.150542  0.750754  1
  Sn  Sn27  1  0.831541  0.349458  0.749246  1
  Sn  Sn28  1  0.669264  0.850743  0.249965  1
  Sn  Sn29  1  0.169264  0.649257  0.250035  1
  Pb  Pb30  1  0.294865  0.039359  0.042055  1
  Pb  Pb31  1  0.794865  0.460641  0.457945  1
  Pb  Pb32  1  0.705566  0.958861  0.540892  1
  Pb  Pb33  1  0.205566  0.541139  0.959108  1
  Pb  Pb34  1  0.705178  0.959645  0.958734  1
  Pb  Pb35  1  0.205178  0.540355  0.541266  1
