# generated using pymatgen
data_YHoTc3Os
_symmetry_space_group_name_H-M   'P 1'
_cell_length_a   5.29234900
_cell_length_b   5.29234866
_cell_length_c   9.09537600
_cell_angle_alpha   90.00000000
_cell_angle_beta   90.00000000
_cell_angle_gamma   120.00000837
_symmetry_Int_Tables_number   1
_chemical_formula_structural   YHoTc3Os
_chemical_formula_sum   'Y2 Ho2 Tc6 Os2'
_cell_volume   220.62167425
_cell_formula_units_Z   2
loop_
 _symmetry_equiv_pos_site_id
 _symmetry_equiv_pos_as_xyz
  1  'x, y, z'
loop_
 _atom_site_type_symbol
 _atom_site_label
 _atom_site_symmetry_multiplicity
 _atom_site_fract_x
 _atom_site_fract_y
 _atom_site_fract_z
 _atom_site_occupancy
  Y  Y0  1  0.333333  0.666667  0.436467  1
  Y  Y1  1  0.666667  0.333333  0.563533  1
  Ho  Ho2  1  0.666667  0.333333  0.936817  1
  Ho  Ho3  1  0.333333  0.666667  0.063183  1
  Tc  Tc4  1  0.829553  0.170447  0.249380  1
  Tc  Tc5  1  0.829553  0.659107  0.249380  1
  Tc  Tc6  1  0.340893  0.170447  0.249380  1
  Tc  Tc7  1  0.170447  0.829553  0.750620  1
  Tc  Tc8  1  0.170447  0.340893  0.750620  1
  Tc  Tc9  1  0.659107  0.829553  0.750620  1
  Os  Os10  1  0.000000  0.000000  0.500000  1
  Os  Os11  1  0.000000  0.000000  0.000000  1
