# generated using pymatgen
data_Tb15Y3(MgPb8)2
_symmetry_space_group_name_H-M   'P 1'
_cell_length_a   8.20980402
_cell_length_b   8.30123451
_cell_length_c   15.69929400
_cell_angle_alpha   89.99027497
_cell_angle_beta   89.99629418
_cell_angle_gamma   90.01767560
_symmetry_Int_Tables_number   1
_chemical_formula_structural   Tb15Y3(MgPb8)2
_chemical_formula_sum   'Tb15 Y3 Mg2 Pb16'
_cell_volume   1069.93049938
_cell_formula_units_Z   1
loop_
 _symmetry_equiv_pos_site_id
 _symmetry_equiv_pos_as_xyz
  1  'x, y, z'
loop_
 _atom_site_type_symbol
 _atom_site_label
 _atom_site_symmetry_multiplicity
 _atom_site_fract_x
 _atom_site_fract_y
 _atom_site_fract_z
 _atom_site_occupancy
  Tb  Tb0  1  0.469682  0.825122  0.401547  1
  Tb  Tb1  1  0.030092  0.324931  0.901611  1
  Tb  Tb2  1  0.030088  0.324819  0.598291  1
  Tb  Tb3  1  0.873343  0.837338  0.879391  1
  Tb  Tb4  1  0.469736  0.824893  0.098476  1
  Tb  Tb5  1  0.381786  0.656624  0.879041  1
  Tb  Tb6  1  0.626709  0.337298  0.120656  1
  Tb  Tb7  1  0.626528  0.337113  0.379472  1
  Tb  Tb8  1  0.534097  0.180285  0.598165  1
  Tb  Tb9  1  0.381631  0.656540  0.620823  1
  Tb  Tb10  1  0.533942  0.180154  0.901857  1
  Tb  Tb11  1  0.966130  0.680387  0.402016  1
  Tb  Tb12  1  0.966089  0.680057  0.098123  1
  Tb  Tb13  1  0.118345  0.156385  0.120934  1
  Tb  Tb14  1  0.873238  0.837131  0.620645  1
  Y  Y15  1  0.294801  0.495856  0.250177  1
  Y  Y16  1  0.204958  0.995817  0.749858  1
  Y  Y17  1  0.118824  0.156366  0.379067  1
  Mg  Mg18  1  0.792168  0.003654  0.250055  1
  Mg  Mg19  1  0.707766  0.503652  0.749988  1
  Pb  Pb20  1  0.843261  0.152971  0.749992  1
  Pb  Pb21  1  0.716710  0.534455  0.542284  1
  Pb  Pb22  1  0.928395  0.379900  0.249946  1
  Pb  Pb23  1  0.217424  0.966341  0.956232  1
  Pb  Pb24  1  0.282685  0.466284  0.043738  1
  Pb  Pb25  1  0.571585  0.880209  0.749888  1
  Pb  Pb26  1  0.340877  0.347836  0.749989  1
  Pb  Pb27  1  0.067490  0.620078  0.749986  1
  Pb  Pb28  1  0.783732  0.034703  0.457911  1
  Pb  Pb29  1  0.282438  0.466179  0.456345  1
  Pb  Pb30  1  0.159016  0.847668  0.250044  1
  Pb  Pb31  1  0.217342  0.966512  0.543509  1
  Pb  Pb32  1  0.783158  0.034624  0.042089  1
  Pb  Pb33  1  0.656760  0.652992  0.250108  1
  Pb  Pb34  1  0.716753  0.534491  0.957757  1
  Pb  Pb35  1  0.432422  0.120339  0.249986  1
