# generated using pymatgen
data_LaTm2BiO7
_symmetry_space_group_name_H-M   'P 1'
_cell_length_a   6.61237600
_cell_length_b   6.61237609
_cell_length_c   7.77921500
_cell_angle_alpha   90.00000000
_cell_angle_beta   90.00000000
_cell_angle_gamma   109.02775082
_symmetry_Int_Tables_number   1
_chemical_formula_structural   LaTm2BiO7
_chemical_formula_sum   'La2 Tm4 Bi2 O14'
_cell_volume   321.54994669
_cell_formula_units_Z   2
loop_
 _symmetry_equiv_pos_site_id
 _symmetry_equiv_pos_as_xyz
  1  'x, y, z'
loop_
 _atom_site_type_symbol
 _atom_site_label
 _atom_site_symmetry_multiplicity
 _atom_site_fract_x
 _atom_site_fract_y
 _atom_site_fract_z
 _atom_site_occupancy
  La  La0  1  0.500000  0.500000  0.500000  1
  La  La1  1  0.500000  0.500000  0.000000  1
  Tm  Tm2  1  0.530270  0.003851  0.750000  1
  Tm  Tm3  1  0.003851  0.530270  0.250000  1
  Tm  Tm4  1  0.469730  0.996149  0.250000  1
  Tm  Tm5  1  0.996149  0.469730  0.750000  1
  Bi  Bi6  1  0.000000  0.000000  0.500000  1
  Bi  Bi7  1  0.000000  0.000000  0.000000  1
  O  O8  1  0.664331  0.926748  0.469266  1
  O  O9  1  0.926748  0.664331  0.530734  1
  O  O10  1  0.664331  0.926748  0.030734  1
  O  O11  1  0.926748  0.664331  0.969266  1
  O  O12  1  0.335669  0.073252  0.530734  1
  O  O13  1  0.073252  0.335669  0.469266  1
  O  O14  1  0.335669  0.073252  0.969266  1
  O  O15  1  0.073252  0.335669  0.030734  1
  O  O16  1  0.914072  0.085928  0.750000  1
  O  O17  1  0.085928  0.914072  0.250000  1
  O  O18  1  0.359091  0.640909  0.750000  1
  O  O19  1  0.640909  0.359091  0.250000  1
  O  O20  1  0.645792  0.354208  0.750000  1
  O  O21  1  0.354208  0.645792  0.250000  1
