# generated using pymatgen
data_Ce2Mn21VC3
_symmetry_space_group_name_H-M   'P 1'
_cell_length_a   6.52538933
_cell_length_b   7.76978807
_cell_length_c   7.79082834
_cell_angle_alpha   99.02621454
_cell_angle_beta   114.96133925
_cell_angle_gamma   65.37408468
_symmetry_Int_Tables_number   1
_chemical_formula_structural   Ce2Mn21VC3
_chemical_formula_sum   'Ce2 Mn21 V1 C3'
_cell_volume   325.44919172
_cell_formula_units_Z   1
loop_
 _symmetry_equiv_pos_site_id
 _symmetry_equiv_pos_as_xyz
  1  'x, y, z'
loop_
 _atom_site_type_symbol
 _atom_site_label
 _atom_site_symmetry_multiplicity
 _atom_site_fract_x
 _atom_site_fract_y
 _atom_site_fract_z
 _atom_site_occupancy
  Ce  Ce0  1  0.381664  0.749739  0.249739  1
  Ce  Ce1  1  0.620884  0.250355  0.750355  1
  Mn  Mn2  1  0.002204  0.503561  0.003561  1
  Mn  Mn3  1  0.997802  0.503046  0.497176  1
  Mn  Mn4  1  0.503672  0.997176  0.003046  1
  Mn  Mn5  1  0.003656  0.994649  0.494649  1
  Mn  Mn6  1  0.878765  0.752548  0.252548  1
  Mn  Mn7  1  0.175753  0.177875  0.417404  1
  Mn  Mn8  1  0.436224  0.917404  0.677875  1
  Mn  Mn9  1  0.854376  0.821982  0.919388  1
  Mn  Mn10  1  0.256970  0.419388  0.321982  1
  Mn  Mn11  1  0.191291  0.570467  0.834112  1
  Mn  Mn12  1  0.427645  0.334112  0.070467  1
  Mn  Mn13  1  0.846094  0.091333  0.170907  1
  Mn  Mn14  1  0.266519  0.670907  0.591333  1
  Mn  Mn15  1  0.825156  0.823717  0.584394  1
  Mn  Mn16  1  0.564477  0.084394  0.323717  1
  Mn  Mn17  1  0.144831  0.176430  0.079464  1
  Mn  Mn18  1  0.741798  0.579464  0.676430  1
  Mn  Mn19  1  0.811682  0.425270  0.169409  1
  Mn  Mn20  1  0.567542  0.669409  0.925270  1
  Mn  Mn21  1  0.149242  0.910225  0.828522  1
  Mn  Mn22  1  0.730945  0.328522  0.410225  1
  V  V23  1  0.122229  0.247480  0.747480  1
  C  C24  1  0.497439  0.502385  0.498016  1
  C  C25  1  0.001808  0.998016  0.002385  1
  C  C26  1  0.499333  0.000148  0.500148  1
