# generated using pymatgen
data_Ho6ErTm(InAu2)4
_symmetry_space_group_name_H-M   'P 1'
_cell_length_a   8.00298600
_cell_length_b   8.00298712
_cell_length_c   7.29782400
_cell_angle_alpha   90.00000000
_cell_angle_beta   90.00000000
_cell_angle_gamma   89.86482515
_symmetry_Int_Tables_number   1
_chemical_formula_structural   Ho6ErTm(InAu2)4
_chemical_formula_sum   'Ho6 Er1 Tm1 In4 Au8'
_cell_volume   467.40822649
_cell_formula_units_Z   1
loop_
 _symmetry_equiv_pos_site_id
 _symmetry_equiv_pos_as_xyz
  1  'x, y, z'
loop_
 _atom_site_type_symbol
 _atom_site_label
 _atom_site_symmetry_multiplicity
 _atom_site_fract_x
 _atom_site_fract_y
 _atom_site_fract_z
 _atom_site_occupancy
  Ho  Ho0  1  0.841560  0.158440  0.500000  1
  Ho  Ho1  1  0.158176  0.841824  0.500000  1
  Ho  Ho2  1  0.341814  0.341498  0.000000  1
  Ho  Ho3  1  0.658502  0.658186  0.000000  1
  Ho  Ho4  1  0.681762  0.681436  0.500000  1
  Ho  Ho5  1  0.318564  0.318238  0.500000  1
  Er  Er6  1  0.181331  0.818669  0.000000  1
  Tm  Tm7  1  0.818825  0.181175  0.000000  1
  In  In8  1  0.499938  0.999940  0.249869  1
  In  In9  1  0.000060  0.500062  0.750131  1
  In  In10  1  0.499938  0.999940  0.750131  1
  In  In11  1  0.000060  0.500062  0.249869  1
  Au  Au12  1  0.629363  0.370637  0.272184  1
  Au  Au13  1  0.371222  0.628778  0.273292  1
  Au  Au14  1  0.127981  0.128831  0.774533  1
  Au  Au15  1  0.871169  0.872019  0.774533  1
  Au  Au16  1  0.371222  0.628778  0.726708  1
  Au  Au17  1  0.629363  0.370637  0.727816  1
  Au  Au18  1  0.871169  0.872019  0.225467  1
  Au  Au19  1  0.127981  0.128831  0.225467  1
