# generated using pymatgen
data_Dy6HoAu10
_symmetry_space_group_name_H-M   'P 1'
_cell_length_a   8.72610315
_cell_length_b   8.72610450
_cell_length_c   10.41164500
_cell_angle_alpha   90.00000000
_cell_angle_beta   90.00000000
_cell_angle_gamma   106.94929979
_symmetry_Int_Tables_number   1
_chemical_formula_structural   Dy6HoAu10
_chemical_formula_sum   'Dy12 Ho2 Au20'
_cell_volume   758.35704620
_cell_formula_units_Z   2
loop_
 _symmetry_equiv_pos_site_id
 _symmetry_equiv_pos_as_xyz
  1  'x, y, z'
loop_
 _atom_site_type_symbol
 _atom_site_label
 _atom_site_symmetry_multiplicity
 _atom_site_fract_x
 _atom_site_fract_y
 _atom_site_fract_z
 _atom_site_occupancy
  Dy  Dy0  1  0.693567  0.306433  0.000000  1
  Dy  Dy1  1  0.306433  0.693567  0.000000  1
  Dy  Dy2  1  0.806433  0.193567  0.500000  1
  Dy  Dy3  1  0.193567  0.806433  0.500000  1
  Dy  Dy4  1  0.002576  0.502576  0.250000  1
  Dy  Dy5  1  0.997424  0.497424  0.750000  1
  Dy  Dy6  1  0.497424  0.997424  0.750000  1
  Dy  Dy7  1  0.502576  0.002576  0.250000  1
  Dy  Dy8  1  0.312986  0.312986  0.188225  1
  Dy  Dy9  1  0.687014  0.687014  0.811775  1
  Dy  Dy10  1  0.187014  0.187014  0.688225  1
  Dy  Dy11  1  0.812986  0.812986  0.311775  1
  Ho  Ho12  1  0.000000  0.000000  0.000000  1
  Ho  Ho13  1  0.500000  0.500000  0.500000  1
  Au  Au14  1  0.859986  0.149006  0.209201  1
  Au  Au15  1  0.140014  0.850994  0.790799  1
  Au  Au16  1  0.640014  0.350994  0.709201  1
  Au  Au17  1  0.649006  0.359986  0.290799  1
  Au  Au18  1  0.359986  0.649006  0.290799  1
  Au  Au19  1  0.350994  0.640014  0.709201  1
  Au  Au20  1  0.850994  0.140014  0.790799  1
  Au  Au21  1  0.149006  0.859986  0.209201  1
  Au  Au22  1  0.937209  0.645552  0.002269  1
  Au  Au23  1  0.062791  0.354448  0.997731  1
  Au  Au24  1  0.562791  0.854448  0.502269  1
  Au  Au25  1  0.145552  0.437209  0.497731  1
  Au  Au26  1  0.437209  0.145552  0.497731  1
  Au  Au27  1  0.854448  0.562791  0.502269  1
  Au  Au28  1  0.354448  0.062791  0.997731  1
  Au  Au29  1  0.645552  0.937209  0.002269  1
  Au  Au30  1  0.105044  0.105044  0.397259  1
  Au  Au31  1  0.894956  0.894956  0.602741  1
  Au  Au32  1  0.394956  0.394956  0.897259  1
  Au  Au33  1  0.605044  0.605044  0.102741  1
