# generated using pymatgen
data_DyHoTm2(Al8Pt3)3
_symmetry_space_group_name_H-M   'P 1'
_cell_length_a   7.52634983
_cell_length_b   7.54301305
_cell_length_c   13.15749837
_cell_angle_alpha   84.58651041
_cell_angle_beta   79.09828887
_cell_angle_gamma   59.99280312
_symmetry_Int_Tables_number   1
_chemical_formula_structural   DyHoTm2(Al8Pt3)3
_chemical_formula_sum   'Dy1 Ho1 Tm2 Al24 Pt9'
_cell_volume   635.17358555
_cell_formula_units_Z   1
loop_
 _symmetry_equiv_pos_site_id
 _symmetry_equiv_pos_as_xyz
  1  'x, y, z'
loop_
 _atom_site_type_symbol
 _atom_site_label
 _atom_site_symmetry_multiplicity
 _atom_site_fract_x
 _atom_site_fract_y
 _atom_site_fract_z
 _atom_site_occupancy
  Dy  Dy0  1  0.393592  0.168657  0.807788  1
  Ho  Ho1  1  0.606408  0.831328  0.192248  1
  Tm  Tm2  1  0.734200  0.498739  0.807093  1
  Tm  Tm3  1  0.265791  0.501272  0.192906  1
  Al  Al4  1  0.684369  0.833453  0.944135  1
  Al  Al5  1  0.315658  0.166505  0.055900  1
  Al  Al6  1  0.146550  0.832419  0.561498  1
  Al  Al7  1  0.853451  0.167582  0.438504  1
  Al  Al8  1  0.479450  0.166675  0.558603  1
  Al  Al9  1  0.520553  0.833324  0.441383  1
  Al  Al10  1  0.217448  0.165497  0.329181  1
  Al  Al11  1  0.782600  0.834461  0.670804  1
  Al  Al12  1  0.437667  0.506327  0.670951  1
  Al  Al13  1  0.562338  0.493720  0.329032  1
  Al  Al14  1  0.109117  0.160178  0.669851  1
  Al  Al15  1  0.890845  0.839819  0.330128  1
  Al  Al16  1  0.353574  0.499394  0.944402  1
  Al  Al17  1  0.646425  0.500647  0.055612  1
  Al  Al18  1  0.015390  0.168034  0.952317  1
  Al  Al19  1  0.984565  0.831969  0.047699  1
  Al  Al20  1  0.186842  0.499240  0.441271  1
  Al  Al21  1  0.813157  0.500760  0.558732  1
  Al  Al22  1  0.733693  0.164346  0.183361  1
  Al  Al23  1  0.266294  0.835609  0.816640  1
  Al  Al24  1  0.061319  0.631229  0.815525  1
  Al  Al25  1  0.938640  0.368826  0.184475  1
  Al  Al26  1  0.855299  0.042144  0.816069  1
  Al  Al27  1  0.144751  0.957841  0.183932  1
  Pt  Pt28  1  0.119800  0.491709  0.639120  1
  Pt  Pt29  1  0.880166  0.508338  0.360853  1
  Pt  Pt30  1  0.657019  0.171316  0.999885  1
  Pt  Pt31  1  0.342989  0.828674  0.000133  1
  Pt  Pt32  1  0.537727  0.166792  0.360858  1
  Pt  Pt33  1  0.462278  0.833165  0.639119  1
  Pt  Pt34  1  0.778501  0.175413  0.637435  1
  Pt  Pt35  1  0.221546  0.824587  0.362543  1
  Pt  Pt36  1  0.999987  0.500014  0.000009  1
