# generated using pymatgen
data_Dy5Y5(ZnB4)4
_symmetry_space_group_name_H-M   'P 1'
_cell_length_a   7.20601902
_cell_length_b   7.20603302
_cell_length_c   8.41530300
_cell_angle_alpha   90.00211971
_cell_angle_beta   90.00223778
_cell_angle_gamma   89.99160363
_symmetry_Int_Tables_number   1
_chemical_formula_structural   Dy5Y5(ZnB4)4
_chemical_formula_sum   'Dy5 Y5 Zn4 B16'
_cell_volume   436.97984331
_cell_formula_units_Z   1
loop_
 _symmetry_equiv_pos_site_id
 _symmetry_equiv_pos_as_xyz
  1  'x, y, z'
loop_
 _atom_site_type_symbol
 _atom_site_label
 _atom_site_symmetry_multiplicity
 _atom_site_fract_x
 _atom_site_fract_y
 _atom_site_fract_z
 _atom_site_occupancy
  Dy  Dy0  1  0.818023  0.681978  0.212223  1
  Dy  Dy1  1  0.818021  0.681940  0.787784  1
  Dy  Dy2  1  0.681960  0.181961  0.787833  1
  Dy  Dy3  1  0.181942  0.318022  0.787782  1
  Dy  Dy4  1  0.181979  0.318024  0.212223  1
  Y  Y5  1  0.681924  0.181925  0.212467  1
  Y  Y6  1  0.318113  0.818112  0.787573  1
  Y  Y7  1  0.318077  0.818076  0.212453  1
  Y  Y8  1  0.999973  0.000034  0.500046  1
  Y  Y9  1  0.500035  0.499972  0.500047  1
  Zn  Zn10  1  0.117568  0.617568  0.500004  1
  Zn  Zn11  1  0.882387  0.382387  0.500069  1
  Zn  Zn12  1  0.382361  0.117698  0.500059  1
  Zn  Zn13  1  0.617698  0.882361  0.500059  1
  B  B14  1  0.171799  0.040620  0.000001  1
  B  B15  1  0.828153  0.959511  0.999926  1
  B  B16  1  0.959742  0.171933  0.999940  1
  B  B17  1  0.328075  0.540144  0.000023  1
  B  B18  1  0.040144  0.828075  0.000023  1
  B  B19  1  0.671932  0.459742  0.999940  1
  B  B20  1  0.540618  0.671799  0.000001  1
  B  B21  1  0.459511  0.328152  0.999925  1
  B  B22  1  0.090493  0.590493  0.999992  1
  B  B23  1  0.909402  0.409402  0.999875  1
  B  B24  1  0.409273  0.090856  0.999868  1
  B  B25  1  0.590854  0.909273  0.999868  1
  B  B26  1  0.000027  0.999983  0.157261  1
  B  B27  1  0.999859  0.000076  0.842737  1
  B  B28  1  0.500075  0.499858  0.842738  1
  B  B29  1  0.499983  0.500028  0.157260  1
