# generated using pymatgen
data_Er4ScMn3(P3Ir4)4
_symmetry_space_group_name_H-M   'P 1'
_cell_length_a   12.53733810
_cell_length_b   12.53733734
_cell_length_c   3.93478200
_cell_angle_alpha   90.00000000
_cell_angle_beta   90.00000000
_cell_angle_gamma   120.04792278
_symmetry_Int_Tables_number   1
_chemical_formula_structural   Er4ScMn3(P3Ir4)4
_chemical_formula_sum   'Er4 Sc1 Mn3 P12 Ir16'
_cell_volume   535.36753602
_cell_formula_units_Z   1
loop_
 _symmetry_equiv_pos_site_id
 _symmetry_equiv_pos_as_xyz
  1  'x, y, z'
loop_
 _atom_site_type_symbol
 _atom_site_label
 _atom_site_symmetry_multiplicity
 _atom_site_fract_x
 _atom_site_fract_y
 _atom_site_fract_z
 _atom_site_occupancy
  Er  Er0  1  0.666820  0.333390  0.000000  1
  Er  Er1  1  0.333390  0.666820  0.000000  1
  Er  Er2  1  0.179732  0.999766  0.500000  1
  Er  Er3  1  0.999766  0.179732  0.500000  1
  Sc  Sc4  1  0.819982  0.819982  0.500000  1
  Mn  Mn5  1  0.289771  0.289771  0.500000  1
  Mn  Mn6  1  0.710739  0.999491  0.500000  1
  Mn  Mn7  1  0.999491  0.710739  0.500000  1
  P  P8  1  0.688562  0.164408  0.500000  1
  P  P9  1  0.835274  0.524056  0.500000  1
  P  P10  1  0.476333  0.311688  0.500000  1
  P  P11  1  0.164408  0.688562  0.500000  1
  P  P12  1  0.524056  0.835274  0.500000  1
  P  P13  1  0.311688  0.476333  0.500000  1
  P  P14  1  0.642721  0.642721  0.000000  1
  P  P15  1  0.358770  0.999987  0.000000  1
  P  P16  1  0.999987  0.358770  0.000000  1
  P  P17  1  0.181504  0.181504  0.000000  1
  P  P18  1  0.817469  0.999084  0.000000  1
  P  P19  1  0.999084  0.817469  0.000000  1
  Ir  Ir20  1  0.805175  0.179019  0.000000  1
  Ir  Ir21  1  0.820298  0.627399  0.000000  1
  Ir  Ir22  1  0.374007  0.194770  0.000000  1
  Ir  Ir23  1  0.179019  0.805175  0.000000  1
  Ir  Ir24  1  0.627399  0.820298  0.000000  1
  Ir  Ir25  1  0.194770  0.374007  0.000000  1
  Ir  Ir26  1  0.455254  0.455254  0.000000  1
  Ir  Ir27  1  0.545265  0.000068  0.000000  1
  Ir  Ir28  1  0.000068  0.545265  0.000000  1
  Ir  Ir29  1  0.868387  0.361142  0.500000  1
  Ir  Ir30  1  0.639203  0.507785  0.500000  1
  Ir  Ir31  1  0.492695  0.131704  0.500000  1
  Ir  Ir32  1  0.361142  0.868387  0.500000  1
  Ir  Ir33  1  0.507785  0.639203  0.500000  1
  Ir  Ir34  1  0.131704  0.492695  0.500000  1
  Ir  Ir35  1  0.998281  0.998281  0.000000  1
