# generated using pymatgen
data_Rb3Tb3(PS4)4
_symmetry_space_group_name_H-M   'P 1'
_cell_length_a   9.29834267
_cell_length_b   16.33360200
_cell_length_c   18.58064500
_cell_angle_alpha   90.00000000
_cell_angle_beta   95.28439694
_cell_angle_gamma   90.00000000
_symmetry_Int_Tables_number   1
_chemical_formula_structural   Rb3Tb3(PS4)4
_chemical_formula_sum   'Rb12 Tb12 P16 S64'
_cell_volume   2809.94964030
_cell_formula_units_Z   4
loop_
 _symmetry_equiv_pos_site_id
 _symmetry_equiv_pos_as_xyz
  1  'x, y, z'
loop_
 _atom_site_type_symbol
 _atom_site_label
 _atom_site_symmetry_multiplicity
 _atom_site_fract_x
 _atom_site_fract_y
 _atom_site_fract_z
 _atom_site_occupancy
  Rb  Rb0  1  0.099117  0.032770  0.268954  1
  Rb  Rb1  1  0.786498  0.895377  0.066986  1
  Rb  Rb2  1  0.204467  0.492717  0.916882  1
  Rb  Rb3  1  0.713502  0.395377  0.433014  1
  Rb  Rb4  1  0.900883  0.967230  0.731046  1
  Rb  Rb5  1  0.213502  0.104623  0.933014  1
  Rb  Rb6  1  0.599117  0.467230  0.768954  1
  Rb  Rb7  1  0.286498  0.604623  0.566986  1
  Rb  Rb8  1  0.400883  0.532770  0.231046  1
  Rb  Rb9  1  0.704467  0.007283  0.416882  1
  Rb  Rb10  1  0.795533  0.507283  0.083118  1
  Rb  Rb11  1  0.295533  0.992717  0.583118  1
  Tb  Tb12  1  0.311377  0.760423  0.816675  1
  Tb  Tb13  1  0.288828  0.772314  0.337070  1
  Tb  Tb14  1  0.814042  0.725930  0.585263  1
  Tb  Tb15  1  0.811377  0.739577  0.316675  1
  Tb  Tb16  1  0.185958  0.274070  0.414737  1
  Tb  Tb17  1  0.188623  0.260423  0.683325  1
  Tb  Tb18  1  0.788828  0.727686  0.837070  1
  Tb  Tb19  1  0.688623  0.239577  0.183325  1
  Tb  Tb20  1  0.685958  0.225930  0.914737  1
  Tb  Tb21  1  0.211172  0.272314  0.162930  1
  Tb  Tb22  1  0.314042  0.774070  0.085263  1
  Tb  Tb23  1  0.711172  0.227686  0.662930  1
  P  P24  1  0.421477  0.357381  0.581895  1
  P  P25  1  0.939536  0.188757  0.531356  1
  P  P26  1  0.578523  0.642619  0.418105  1
  P  P27  1  0.078523  0.857381  0.918105  1
  P  P28  1  0.060464  0.811243  0.468644  1
  P  P29  1  0.035945  0.703640  0.189199  1
  P  P30  1  0.464055  0.203640  0.310801  1
  P  P31  1  0.439536  0.311243  0.031356  1
  P  P32  1  0.535945  0.796360  0.689199  1
  P  P33  1  0.016201  0.623418  0.731673  1
  P  P34  1  0.921477  0.142619  0.081895  1
  P  P35  1  0.560464  0.688757  0.968644  1
  P  P36  1  0.516201  0.876582  0.231673  1
  P  P37  1  0.964055  0.296360  0.810801  1
  P  P38  1  0.983799  0.376582  0.268327  1
  P  P39  1  0.483799  0.123418  0.768327  1
  S  S40  1  0.984940  0.750951  0.725968  1
  S  S41  1  0.817550  0.705275  0.170305  1
  S  S42  1  0.779273  0.690504  0.984271  1
  S  S43  1  0.366420  0.616064  0.388810  1
  S  S44  1  0.097653  0.730905  0.911615  1
  S  S45  1  0.540713  0.372615  0.954395  1
  S  S46  1  0.139683  0.896927  0.020349  1
  S  S47  1  0.872744  0.180583  0.804117  1
  S  S48  1  0.133580  0.116064  0.111190  1
  S  S49  1  0.959287  0.872615  0.545605  1
  S  S50  1  0.362426  0.141821  0.387421  1
  S  S51  1  0.360317  0.396927  0.479651  1
  S  S52  1  0.040713  0.127385  0.454395  1
  S  S53  1  0.597653  0.769095  0.411615  1
  S  S54  1  0.627256  0.680583  0.695883  1
  S  S55  1  0.127256  0.819417  0.195883  1
  S  S56  1  0.459287  0.627385  0.045605  1
  S  S57  1  0.769866  0.396070  0.238070  1
  S  S58  1  0.702933  0.588327  0.345454  1
  S  S59  1  0.030734  0.304157  0.538502  1
  S  S60  1  0.020167  0.860231  0.365763  1
  S  S61  1  0.637574  0.858179  0.612579  1
  S  S62  1  0.925672  0.346872  0.709218  1
  S  S63  1  0.074328  0.653128  0.290782  1
  S  S64  1  0.720727  0.190504  0.515729  1
  S  S65  1  0.400637  0.924845  0.310908  1
  S  S66  1  0.469266  0.804157  0.961498  1
  S  S67  1  0.425672  0.153128  0.209218  1
  S  S68  1  0.639683  0.603073  0.520349  1
  S  S69  1  0.015060  0.249049  0.274032  1
  S  S70  1  0.402347  0.230905  0.588385  1
  S  S71  1  0.574328  0.846872  0.790782  1
  S  S72  1  0.372744  0.319417  0.304117  1
  S  S73  1  0.269866  0.103930  0.738070  1
  S  S74  1  0.862426  0.358179  0.887421  1
  S  S75  1  0.279273  0.809496  0.484271  1
  S  S76  1  0.530734  0.195843  0.038502  1
  S  S77  1  0.730134  0.896070  0.261930  1
  S  S78  1  0.220727  0.309496  0.015729  1
  S  S79  1  0.947939  0.579575  0.632338  1
  S  S80  1  0.317550  0.794725  0.670305  1
  S  S81  1  0.520167  0.639769  0.865763  1
  S  S82  1  0.860317  0.103073  0.979651  1
  S  S83  1  0.599363  0.075155  0.689091  1
  S  S84  1  0.969266  0.695843  0.461498  1
  S  S85  1  0.979833  0.139769  0.634237  1
  S  S86  1  0.052061  0.420425  0.367662  1
  S  S87  1  0.515060  0.250951  0.774032  1
  S  S88  1  0.552061  0.079575  0.867662  1
  S  S89  1  0.900637  0.575155  0.810909  1
  S  S90  1  0.797067  0.088327  0.154546  1
  S  S91  1  0.447939  0.920425  0.132338  1
  S  S92  1  0.866420  0.883936  0.888810  1
  S  S93  1  0.202933  0.911673  0.845454  1
  S  S94  1  0.099363  0.424845  0.189092  1
  S  S95  1  0.230134  0.603930  0.761930  1
  S  S96  1  0.137574  0.641821  0.112579  1
  S  S97  1  0.633580  0.383936  0.611190  1
  S  S98  1  0.902347  0.269095  0.088385  1
  S  S99  1  0.479833  0.360231  0.134237  1
  S  S100  1  0.182450  0.294725  0.829695  1
  S  S101  1  0.484940  0.749049  0.225968  1
  S  S102  1  0.682450  0.205275  0.329695  1
  S  S103  1  0.297067  0.411673  0.654546  1
