# generated using pymatgen
data_Tb2Y6Hf11Si16Ag
_symmetry_space_group_name_H-M   'P 1'
_cell_length_a   7.29382288
_cell_length_b   7.29287227
_cell_length_c   13.29894805
_cell_angle_alpha   89.85668899
_cell_angle_beta   90.13676548
_cell_angle_gamma   89.85702273
_symmetry_Int_Tables_number   1
_chemical_formula_structural   Tb2Y6Hf11Si16Ag
_chemical_formula_sum   'Tb2 Y6 Hf11 Si16 Ag1'
_cell_volume   707.40342062
_cell_formula_units_Z   1
loop_
 _symmetry_equiv_pos_site_id
 _symmetry_equiv_pos_as_xyz
  1  'x, y, z'
loop_
 _atom_site_type_symbol
 _atom_site_label
 _atom_site_symmetry_multiplicity
 _atom_site_fract_x
 _atom_site_fract_y
 _atom_site_fract_z
 _atom_site_occupancy
  Tb  Tb0  1  0.344693  0.997806  0.788643  1
  Tb  Tb1  1  0.656324  0.004523  0.283677  1
  Y  Y2  1  0.997768  0.344770  0.211444  1
  Y  Y3  1  0.004451  0.656242  0.716345  1
  Y  Y4  1  0.155510  0.495729  0.464844  1
  Y  Y5  1  0.499098  0.847452  0.033182  1
  Y  Y6  1  0.847497  0.499081  0.966763  1
  Y  Y7  1  0.495652  0.155543  0.535147  1
  Hf  Hf8  1  0.824903  0.824847  0.499976  1
  Hf  Hf9  1  0.323921  0.675916  0.249539  1
  Hf  Hf10  1  0.675934  0.323975  0.750457  1
  Hf  Hf11  1  0.146470  0.995679  0.374242  1
  Hf  Hf12  1  0.855886  0.003167  0.877802  1
  Hf  Hf13  1  0.504167  0.647257  0.625875  1
  Hf  Hf14  1  0.354421  0.491868  0.877533  1
  Hf  Hf15  1  0.491838  0.354442  0.122470  1
  Hf  Hf16  1  0.647262  0.504180  0.374148  1
  Hf  Hf17  1  0.995776  0.146427  0.625815  1
  Hf  Hf18  1  0.003122  0.855961  0.122182  1
  Si  Si19  1  0.360412  0.295751  0.316648  1
  Si  Si20  1  0.638687  0.704618  0.819216  1
  Si  Si21  1  0.206607  0.861851  0.568396  1
  Si  Si22  1  0.131860  0.777813  0.928538  1
  Si  Si23  1  0.778027  0.131873  0.071449  1
  Si  Si24  1  0.861830  0.206639  0.431688  1
  Si  Si25  1  0.295722  0.360509  0.683330  1
  Si  Si26  1  0.704689  0.638561  0.180760  1
  Si  Si27  1  0.295941  0.050402  0.189683  1
  Si  Si28  1  0.704664  0.951124  0.686365  1
  Si  Si29  1  0.450731  0.795449  0.435647  1
  Si  Si30  1  0.209991  0.564394  0.064466  1
  Si  Si31  1  0.564512  0.210022  0.935522  1
  Si  Si32  1  0.795494  0.450843  0.564344  1
  Si  Si33  1  0.050365  0.296135  0.810255  1
  Si  Si34  1  0.951214  0.704591  0.313587  1
  Ag  Ag35  1  0.174562  0.174558  0.000020  1
