# generated using pymatgen
data_Hf4Sn2PdRh9
_symmetry_space_group_name_H-M   'P 1'
_cell_length_a   4.17936900
_cell_length_b   5.63128802
_cell_length_c   11.10311847
_cell_angle_alpha   89.48524564
_cell_angle_beta   90.00000000
_cell_angle_gamma   90.00000000
_symmetry_Int_Tables_number   1
_chemical_formula_structural   Hf4Sn2PdRh9
_chemical_formula_sum   'Hf4 Sn2 Pd1 Rh9'
_cell_volume   261.30390747
_cell_formula_units_Z   1
loop_
 _symmetry_equiv_pos_site_id
 _symmetry_equiv_pos_as_xyz
  1  'x, y, z'
loop_
 _atom_site_type_symbol
 _atom_site_label
 _atom_site_symmetry_multiplicity
 _atom_site_fract_x
 _atom_site_fract_y
 _atom_site_fract_z
 _atom_site_occupancy
  Hf  Hf0  1  0.500000  0.166440  0.639899  1
  Hf  Hf1  1  0.500000  0.819581  0.356522  1
  Hf  Hf2  1  0.500000  0.686780  0.861354  1
  Hf  Hf3  1  0.500000  0.323602  0.143171  1
  Sn  Sn4  1  0.000000  0.497171  0.497911  1
  Sn  Sn5  1  0.000000  0.006855  0.000345  1
  Pd  Pd6  1  0.000000  0.434870  0.747652  1
  Rh  Rh7  1  0.500000  0.206694  0.885207  1
  Rh  Rh8  1  0.500000  0.800063  0.113747  1
  Rh  Rh9  1  0.500000  0.696467  0.614629  1
  Rh  Rh10  1  0.500000  0.294527  0.386492  1
  Rh  Rh11  1  0.000000  0.564790  0.252590  1
  Rh  Rh12  1  0.000000  0.996985  0.500613  1
  Rh  Rh13  1  0.000000  0.506389  0.999428  1
  Rh  Rh14  1  0.000000  0.064760  0.246981  1
  Rh  Rh15  1  0.000000  0.934028  0.753459  1
