# generated using pymatgen
data_PuClO3
_symmetry_space_group_name_H-M   'P 1'
_cell_length_a   9.47228600
_cell_length_b   6.29155129
_cell_length_c   8.20873313
_cell_angle_alpha   70.81446016
_cell_angle_beta   90.00000000
_cell_angle_gamma   90.00000000
_symmetry_Int_Tables_number   1
_chemical_formula_structural   PuClO3
_chemical_formula_sum   'Pu4 Cl4 O12'
_cell_volume   462.03188335
_cell_formula_units_Z   4
loop_
 _symmetry_equiv_pos_site_id
 _symmetry_equiv_pos_as_xyz
  1  'x, y, z'
loop_
 _atom_site_type_symbol
 _atom_site_label
 _atom_site_symmetry_multiplicity
 _atom_site_fract_x
 _atom_site_fract_y
 _atom_site_fract_z
 _atom_site_occupancy
  Pu  Pu0  1  0.250442  0.504428  0.737071  1
  Pu  Pu1  1  0.750442  0.495572  0.762929  1
  Pu  Pu2  1  0.749558  0.495572  0.262929  1
  Pu  Pu3  1  0.249558  0.504428  0.237071  1
  Cl  Cl4  1  0.500445  0.283375  0.768752  1
  Cl  Cl5  1  0.000445  0.716625  0.731248  1
  Cl  Cl6  1  0.499555  0.716625  0.231248  1
  Cl  Cl7  1  0.999555  0.283375  0.268752  1
  O  O8  1  0.276632  0.505249  0.985732  1
  O  O9  1  0.776632  0.494751  0.514268  1
  O  O10  1  0.723368  0.494751  0.014268  1
  O  O11  1  0.223368  0.505249  0.485732  1
  O  O12  1  0.162930  0.243175  0.813557  1
  O  O13  1  0.662930  0.756825  0.686443  1
  O  O14  1  0.837070  0.756825  0.186443  1
  O  O15  1  0.337070  0.243175  0.313557  1
  O  O16  1  0.337595  0.765858  0.657890  1
  O  O17  1  0.837595  0.234142  0.842110  1
  O  O18  1  0.662405  0.234142  0.342110  1
  O  O19  1  0.162405  0.765858  0.157890  1
