# generated using pymatgen
data_Sc2FeSi4Os3
_symmetry_space_group_name_H-M   'P 1'
_cell_length_a   7.70989700
_cell_length_b   7.38680000
_cell_length_c   5.14297800
_cell_angle_alpha   90.00000000
_cell_angle_beta   90.00000000
_cell_angle_gamma   90.00000000
_symmetry_Int_Tables_number   1
_chemical_formula_structural   Sc2FeSi4Os3
_chemical_formula_sum   'Sc4 Fe2 Si8 Os6'
_cell_volume   292.90014267
_cell_formula_units_Z   2
loop_
 _symmetry_equiv_pos_site_id
 _symmetry_equiv_pos_as_xyz
  1  'x, y, z'
loop_
 _atom_site_type_symbol
 _atom_site_label
 _atom_site_symmetry_multiplicity
 _atom_site_fract_x
 _atom_site_fract_y
 _atom_site_fract_z
 _atom_site_occupancy
  Sc  Sc0  1  0.258656  0.101896  0.246492  1
  Sc  Sc1  1  0.741343  0.898104  0.746492  1
  Sc  Sc2  1  0.258656  0.398106  0.753508  1
  Sc  Sc3  1  0.741343  0.601895  0.253508  1
  Fe  Fe4  1  0.381048  0.750000  0.000000  1
  Fe  Fe5  1  0.618953  0.250001  0.500000  1
  Si  Si6  1  0.423027  0.449008  0.253023  1
  Si  Si7  1  0.576973  0.550993  0.753023  1
  Si  Si8  1  0.423027  0.050992  0.746977  1
  Si  Si9  1  0.576973  0.949007  0.246977  1
  Si  Si10  1  0.957504  0.250001  0.000000  1
  Si  Si11  1  0.042496  0.750000  0.500000  1
  Si  Si12  1  0.039669  0.750000  0.000000  1
  Si  Si13  1  0.960331  0.250001  0.500000  1
  Os  Os14  1  0.612354  0.250001  0.000000  1
  Os  Os15  1  0.387647  0.750000  0.500000  1
  Os  Os16  1  0.120507  0.487909  0.249652  1
  Os  Os17  1  0.879494  0.512091  0.749652  1
  Os  Os18  1  0.120507  0.012092  0.750348  1
  Os  Os19  1  0.879494  0.987909  0.250348  1
