# generated using pymatgen
data_YHoInGa2
_symmetry_space_group_name_H-M   'P 1'
_cell_length_a   7.21450800
_cell_length_b   7.21472100
_cell_length_c   4.43664700
_cell_angle_alpha   90.00000000
_cell_angle_beta   90.00000000
_cell_angle_gamma   90.00000000
_symmetry_Int_Tables_number   1
_chemical_formula_structural   YHoInGa2
_chemical_formula_sum   'Y2 Ho2 In2 Ga4'
_cell_volume   230.93041506
_cell_formula_units_Z   2
loop_
 _symmetry_equiv_pos_site_id
 _symmetry_equiv_pos_as_xyz
  1  'x, y, z'
loop_
 _atom_site_type_symbol
 _atom_site_label
 _atom_site_symmetry_multiplicity
 _atom_site_fract_x
 _atom_site_fract_y
 _atom_site_fract_z
 _atom_site_occupancy
  Y  Y0  1  0.327571  0.827648  0.500000  1
  Y  Y1  1  0.827571  0.672352  0.500000  1
  Ho  Ho2  1  0.172413  0.327504  0.500000  1
  Ho  Ho3  1  0.672413  0.172496  0.500000  1
  In  In4  1  0.999936  0.000162  0.000000  1
  In  In5  1  0.499936  0.499838  0.000000  1
  Ga  Ga6  1  0.125891  0.625566  0.000000  1
  Ga  Ga7  1  0.625891  0.874434  0.000000  1
  Ga  Ga8  1  0.374188  0.126136  0.000000  1
  Ga  Ga9  1  0.874188  0.373864  0.000000  1
