# generated using pymatgen
data_DyYGa9Ni2Ru
_symmetry_space_group_name_H-M   'P 1'
_cell_length_a   7.44385701
_cell_length_b   7.44366563
_cell_length_c   9.42709701
_cell_angle_alpha   89.99752887
_cell_angle_beta   89.99826547
_cell_angle_gamma   119.99991572
_symmetry_Int_Tables_number   1
_chemical_formula_structural   DyYGa9Ni2Ru
_chemical_formula_sum   'Dy2 Y2 Ga18 Ni4 Ru2'
_cell_volume   452.37006044
_cell_formula_units_Z   2
loop_
 _symmetry_equiv_pos_site_id
 _symmetry_equiv_pos_as_xyz
  1  'x, y, z'
loop_
 _atom_site_type_symbol
 _atom_site_label
 _atom_site_symmetry_multiplicity
 _atom_site_fract_x
 _atom_site_fract_y
 _atom_site_fract_z
 _atom_site_occupancy
  Dy  Dy0  1  0.004265  0.333873  0.750665  1
  Dy  Dy1  1  0.995729  0.666126  0.250614  1
  Y  Y2  1  0.333837  0.004295  0.749361  1
  Y  Y3  1  0.666156  0.995695  0.249333  1
  Ga  Ga4  1  0.879918  0.880109  0.749965  1
  Ga  Ga5  1  0.120091  0.119892  0.250012  1
  Ga  Ga6  1  0.668539  0.669124  0.438313  1
  Ga  Ga7  1  0.331477  0.330872  0.938303  1
  Ga  Ga8  1  0.669264  0.668385  0.061653  1
  Ga  Ga9  1  0.330721  0.331605  0.561654  1
  Ga  Ga10  1  0.453892  0.662950  0.751729  1
  Ga  Ga11  1  0.546120  0.337068  0.251734  1
  Ga  Ga12  1  0.663388  0.454148  0.748293  1
  Ga  Ga13  1  0.336613  0.545847  0.248289  1
  Ga  Ga14  1  0.004287  0.332948  0.075232  1
  Ga  Ga15  1  0.995714  0.667047  0.575223  1
  Ga  Ga16  1  0.332600  0.004057  0.424653  1
  Ga  Ga17  1  0.667394  0.995945  0.924624  1
  Ga  Ga18  1  0.005005  0.669265  0.925258  1
  Ga  Ga19  1  0.994976  0.330728  0.425268  1
  Ga  Ga20  1  0.669589  0.005150  0.574898  1
  Ga  Ga21  1  0.330434  0.994865  0.074896  1
  Ni  Ni22  1  0.999907  0.000128  0.500002  1
  Ni  Ni23  1  0.000101  0.999884  0.999999  1
  Ni  Ni24  1  0.669460  0.330635  0.500029  1
  Ni  Ni25  1  0.330535  0.669363  0.000003  1
  Ru  Ru26  1  0.327387  0.672541  0.500000  1
  Ru  Ru27  1  0.672603  0.327452  0.999996  1
