# generated using pymatgen
data_TmSc3Cd2(Ni7B2)2
_symmetry_space_group_name_H-M   'P 1'
_cell_length_a   4.92933034
_cell_length_b   4.92948350
_cell_length_c   14.00992395
_cell_angle_alpha   89.97973383
_cell_angle_beta   90.04226740
_cell_angle_gamma   119.99404688
_symmetry_Int_Tables_number   1
_chemical_formula_structural   TmSc3Cd2(Ni7B2)2
_chemical_formula_sum   'Tm1 Sc3 Cd2 Ni14 B4'
_cell_volume   294.83679460
_cell_formula_units_Z   1
loop_
 _symmetry_equiv_pos_site_id
 _symmetry_equiv_pos_as_xyz
  1  'x, y, z'
loop_
 _atom_site_type_symbol
 _atom_site_label
 _atom_site_symmetry_multiplicity
 _atom_site_fract_x
 _atom_site_fract_y
 _atom_site_fract_z
 _atom_site_occupancy
  Tm  Tm0  1  0.666094  0.332385  0.245142  1
  Sc  Sc1  1  0.666329  0.332829  0.472628  1
  Sc  Sc2  1  0.333680  0.666927  0.967675  1
  Sc  Sc3  1  0.333567  0.667459  0.744960  1
  Cd  Cd4  1  0.333210  0.666819  0.534470  1
  Cd  Cd5  1  0.666692  0.332982  0.029429  1
  Ni  Ni6  1  0.001353  0.000733  0.999591  1
  Ni  Ni7  1  0.998716  0.998509  0.501195  1
  Ni  Ni8  1  0.165169  0.331724  0.145537  1
  Ni  Ni9  1  0.833252  0.668267  0.648310  1
  Ni  Ni10  1  0.666834  0.832553  0.145336  1
  Ni  Ni11  1  0.165434  0.832863  0.145356  1
  Ni  Ni12  1  0.833793  0.167549  0.647976  1
  Ni  Ni13  1  0.332712  0.167823  0.648060  1
  Ni  Ni14  1  0.835336  0.669338  0.851909  1
  Ni  Ni15  1  0.834990  0.167159  0.852089  1
  Ni  Ni16  1  0.333041  0.167532  0.851977  1
  Ni  Ni17  1  0.667314  0.832546  0.354375  1
  Ni  Ni18  1  0.165723  0.832292  0.354453  1
  Ni  Ni19  1  0.166378  0.331614  0.354377  1
  B  B20  1  0.333100  0.666214  0.250203  1
  B  B21  1  0.667191  0.333857  0.750598  1
  B  B22  1  0.999828  0.999428  0.252208  1
  B  B23  1  0.000264  0.000599  0.752148  1
