# generated using pymatgen
data_Sc8Mn7Si14Os
_symmetry_space_group_name_H-M   'P 1'
_cell_length_a   5.14614523
_cell_length_b   9.65812933
_cell_length_c   9.64514582
_cell_angle_alpha   85.87652826
_cell_angle_beta   74.52762078
_cell_angle_gamma   74.36315999
_symmetry_Int_Tables_number   1
_chemical_formula_structural   Sc8Mn7Si14Os
_chemical_formula_sum   'Sc8 Mn7 Si14 Os1'
_cell_volume   444.91178390
_cell_formula_units_Z   1
loop_
 _symmetry_equiv_pos_site_id
 _symmetry_equiv_pos_as_xyz
  1  'x, y, z'
loop_
 _atom_site_type_symbol
 _atom_site_label
 _atom_site_symmetry_multiplicity
 _atom_site_fract_x
 _atom_site_fract_y
 _atom_site_fract_z
 _atom_site_occupancy
  Sc  Sc0  1  0.199218  0.804192  0.802333  1
  Sc  Sc1  1  0.802453  0.195951  0.196633  1
  Sc  Sc2  1  0.998450  0.195808  0.802333  1
  Sc  Sc3  1  0.000915  0.804049  0.196633  1
  Sc  Sc4  1  0.361720  0.000000  0.276562  1
  Sc  Sc5  1  0.638749  0.000000  0.722499  1
  Sc  Sc6  1  0.642636  0.723516  0.999566  1
  Sc  Sc7  1  0.357799  0.276484  0.999566  1
  Mn  Mn8  1  0.603782  0.500000  0.792435  1
  Mn  Mn9  1  0.100725  0.500000  0.798549  1
  Mn  Mn10  1  0.601248  0.796671  0.502045  1
  Mn  Mn11  1  0.900648  0.500000  0.198705  1
  Mn  Mn12  1  0.397521  0.204069  0.499362  1
  Mn  Mn13  1  0.896707  0.203329  0.502045  1
  Mn  Mn14  1  0.103117  0.795931  0.499362  1
  Si  Si15  1  0.404573  0.591970  0.590327  1
  Si  Si16  1  0.601458  0.406880  0.415087  1
  Si  Si17  1  0.005101  0.408030  0.590327  1
  Si  Si18  1  0.983455  0.593120  0.415087  1
  Si  Si19  1  0.249760  0.999517  0.999531  1
  Si  Si20  1  0.750709  0.000483  0.999531  1
  Si  Si21  1  0.195707  0.292275  0.298617  1
  Si  Si22  1  0.800919  0.702717  0.702683  1
  Si  Si23  1  0.505676  0.707725  0.298617  1
  Si  Si24  1  0.496398  0.297283  0.702683  1
  Si  Si25  1  0.209590  0.000000  0.580822  1
  Si  Si26  1  0.790280  0.000000  0.419440  1
  Si  Si27  1  0.785937  0.415554  0.994825  1
  Si  Si28  1  0.219238  0.584446  0.994825  1
  Os  Os29  1  0.395513  0.500000  0.208974  1
