# generated using pymatgen
data_Na4Y2(PtO4)3
_symmetry_space_group_name_H-M   'P 1'
_cell_length_a   9.55314300
_cell_length_b   9.55314316
_cell_length_c   3.19543500
_cell_angle_alpha   90.00000000
_cell_angle_beta   90.00000000
_cell_angle_gamma   119.99999598
_symmetry_Int_Tables_number   1
_chemical_formula_structural   Na4Y2(PtO4)3
_chemical_formula_sum   'Na4 Y2 Pt3 O12'
_cell_volume   252.55338969
_cell_formula_units_Z   1
loop_
 _symmetry_equiv_pos_site_id
 _symmetry_equiv_pos_as_xyz
  1  'x, y, z'
loop_
 _atom_site_type_symbol
 _atom_site_label
 _atom_site_symmetry_multiplicity
 _atom_site_fract_x
 _atom_site_fract_y
 _atom_site_fract_z
 _atom_site_occupancy
  Na  Na0  1  0.000000  0.000000  0.000000  1
  Na  Na1  1  0.698054  0.000000  0.500000  1
  Na  Na2  1  0.000000  0.698054  0.500000  1
  Na  Na3  1  0.301946  0.301946  0.500000  1
  Y  Y4  1  0.333333  0.666667  0.500000  1
  Y  Y5  1  0.666667  0.333333  0.500000  1
  Pt  Pt6  1  0.330001  0.000000  0.000000  1
  Pt  Pt7  1  0.000000  0.330001  0.000000  1
  Pt  Pt8  1  0.669999  0.669999  0.000000  1
  O  O9  1  0.194006  0.000000  0.500000  1
  O  O10  1  0.000000  0.194006  0.500000  1
  O  O11  1  0.805994  0.805994  0.500000  1
  O  O12  1  0.459788  0.000000  0.500000  1
  O  O13  1  0.000000  0.459788  0.500000  1
  O  O14  1  0.540212  0.540212  0.500000  1
  O  O15  1  0.244232  0.461048  0.000000  1
  O  O16  1  0.538952  0.783184  0.000000  1
  O  O17  1  0.461048  0.244232  0.000000  1
  O  O18  1  0.216816  0.755768  0.000000  1
  O  O19  1  0.783184  0.538952  0.000000  1
  O  O20  1  0.755768  0.216816  0.000000  1
