# generated using pymatgen
data_Hf7Th8Ta5Si16
_symmetry_space_group_name_H-M   'P 1'
_cell_length_a   7.29628536
_cell_length_b   7.30031322
_cell_length_c   13.51760900
_cell_angle_alpha   89.86383891
_cell_angle_beta   89.93217741
_cell_angle_gamma   90.01851090
_symmetry_Int_Tables_number   1
_chemical_formula_structural   Hf7Th8Ta5Si16
_chemical_formula_sum   'Hf7 Th8 Ta5 Si16'
_cell_volume   720.01514448
_cell_formula_units_Z   1
loop_
 _symmetry_equiv_pos_site_id
 _symmetry_equiv_pos_as_xyz
  1  'x, y, z'
loop_
 _atom_site_type_symbol
 _atom_site_label
 _atom_site_symmetry_multiplicity
 _atom_site_fract_x
 _atom_site_fract_y
 _atom_site_fract_z
 _atom_site_occupancy
  Hf  Hf0  1  0.154383  0.995739  0.374001  1
  Hf  Hf1  1  0.844299  0.005028  0.873796  1
  Hf  Hf2  1  0.505196  0.655079  0.623972  1
  Hf  Hf3  1  0.344178  0.495745  0.877257  1
  Hf  Hf4  1  0.494032  0.345102  0.123448  1
  Hf  Hf5  1  0.656089  0.507312  0.375395  1
  Hf  Hf6  1  0.994590  0.154851  0.626402  1
  Th  Th7  1  0.999797  0.339824  0.216379  1
  Th  Th8  1  0.000569  0.659394  0.716928  1
  Th  Th9  1  0.158893  0.500896  0.466003  1
  Th  Th10  1  0.501332  0.840159  0.033501  1
  Th  Th11  1  0.840453  0.499977  0.968107  1
  Th  Th12  1  0.498670  0.160280  0.533125  1
  Th  Th13  1  0.339178  0.997969  0.784608  1
  Th  Th14  1  0.660728  0.001300  0.281908  1
  Ta  Ta15  1  0.168915  0.166919  0.001401  1
  Ta  Ta16  1  0.829629  0.829866  0.498885  1
  Ta  Ta17  1  0.327276  0.672939  0.248399  1
  Ta  Ta18  1  0.670369  0.328413  0.750069  1
  Ta  Ta19  1  0.007625  0.845715  0.126709  1
  Si  Si20  1  0.289541  0.040444  0.183777  1
  Si  Si21  1  0.706610  0.956743  0.684059  1
  Si  Si22  1  0.456781  0.793497  0.433468  1
  Si  Si23  1  0.206463  0.547890  0.066432  1
  Si  Si24  1  0.543491  0.207550  0.934139  1
  Si  Si25  1  0.793011  0.457042  0.565617  1
  Si  Si26  1  0.043002  0.292392  0.816207  1
  Si  Si27  1  0.958417  0.708571  0.312347  1
  Si  Si28  1  0.369624  0.300785  0.314882  1
  Si  Si29  1  0.630938  0.698243  0.815557  1
  Si  Si30  1  0.199251  0.868704  0.564709  1
  Si  Si31  1  0.128996  0.800370  0.938456  1
  Si  Si32  1  0.803235  0.125476  0.066582  1
  Si  Si33  1  0.868675  0.200171  0.434650  1
  Si  Si34  1  0.299856  0.368573  0.685461  1
  Si  Si35  1  0.705907  0.631040  0.183361  1
