# generated using pymatgen
data_LiPa2Ni11As7
_symmetry_space_group_name_H-M   'P 1'
_cell_length_a   3.85821200
_cell_length_b   9.37674214
_cell_length_c   9.44532500
_cell_angle_alpha   120.55341645
_cell_angle_beta   90.00000000
_cell_angle_gamma   90.00000000
_symmetry_Int_Tables_number   1
_chemical_formula_structural   LiPa2Ni11As7
_chemical_formula_sum   'Li1 Pa2 Ni11 As7'
_cell_volume   294.26363974
_cell_formula_units_Z   1
loop_
 _symmetry_equiv_pos_site_id
 _symmetry_equiv_pos_as_xyz
  1  'x, y, z'
loop_
 _atom_site_type_symbol
 _atom_site_label
 _atom_site_symmetry_multiplicity
 _atom_site_fract_x
 _atom_site_fract_y
 _atom_site_fract_z
 _atom_site_occupancy
  Li  Li0  1  0.500000  0.102482  0.893091  1
  Pa  Pa1  1  0.500000  0.332461  0.663357  1
  Pa  Pa2  1  0.000000  0.671273  0.339229  1
  Ni  Ni3  1  0.000000  0.871278  0.721343  1
  Ni  Ni4  1  0.000000  0.284973  0.153236  1
  Ni  Ni5  1  0.000000  0.842778  0.129841  1
  Ni  Ni6  1  0.500000  0.951658  0.563103  1
  Ni  Ni7  1  0.500000  0.433691  0.386959  1
  Ni  Ni8  1  0.500000  0.612180  0.041203  1
  Ni  Ni9  1  0.000000  0.379408  0.942379  1
  Ni  Ni10  1  0.000000  0.058199  0.436684  1
  Ni  Ni11  1  0.000000  0.559940  0.615945  1
  Ni  Ni12  1  0.500000  0.100018  0.213692  1
  Ni  Ni13  1  0.500000  0.795933  0.897584  1
  As  As14  1  0.500000  0.711707  0.604743  1
  As  As15  1  0.500000  0.411267  0.116030  1
  As  As16  1  0.500000  0.889150  0.289667  1
  As  As17  1  0.000000  0.997255  0.005001  1
  As  As18  1  0.000000  0.111804  0.706091  1
  As  As19  1  0.000000  0.286166  0.398660  1
  As  As20  1  0.000000  0.596377  0.882161  1
