# generated using pymatgen
data_Th8Si15Ag
_symmetry_space_group_name_H-M   'P 1'
_cell_length_a   8.32245200
_cell_length_b   8.32245076
_cell_length_c   8.31302400
_cell_angle_alpha   90.00000000
_cell_angle_beta   90.00000000
_cell_angle_gamma   119.99999698
_symmetry_Int_Tables_number   1
_chemical_formula_structural   Th8Si15Ag
_chemical_formula_sum   'Th8 Si15 Ag1'
_cell_volume   498.64585422
_cell_formula_units_Z   1
loop_
 _symmetry_equiv_pos_site_id
 _symmetry_equiv_pos_as_xyz
  1  'x, y, z'
loop_
 _atom_site_type_symbol
 _atom_site_label
 _atom_site_symmetry_multiplicity
 _atom_site_fract_x
 _atom_site_fract_y
 _atom_site_fract_z
 _atom_site_occupancy
  Th  Th0  1  0.000000  0.000000  0.746342  1
  Th  Th1  1  0.000000  0.000000  0.253807  1
  Th  Th2  1  0.494711  0.505289  0.743136  1
  Th  Th3  1  0.494711  0.989423  0.743136  1
  Th  Th4  1  0.010577  0.505289  0.743136  1
  Th  Th5  1  0.495805  0.504195  0.256860  1
  Th  Th6  1  0.008391  0.504195  0.256860  1
  Th  Th7  1  0.495805  0.991609  0.256860  1
  Si  Si8  1  0.839476  0.160524  0.000334  1
  Si  Si9  1  0.839476  0.678952  0.000334  1
  Si  Si10  1  0.321048  0.160524  0.000334  1
  Si  Si11  1  0.833938  0.166062  0.500320  1
  Si  Si12  1  0.833938  0.667878  0.500320  1
  Si  Si13  1  0.332122  0.166062  0.500320  1
  Si  Si14  1  0.167581  0.832419  0.499762  1
  Si  Si15  1  0.664838  0.832419  0.499762  1
  Si  Si16  1  0.167581  0.335162  0.499762  1
  Si  Si17  1  0.169675  0.830325  0.000021  1
  Si  Si18  1  0.660649  0.830325  0.000021  1
  Si  Si19  1  0.169675  0.339351  0.000021  1
  Si  Si20  1  0.666667  0.333333  0.501530  1
  Si  Si21  1  0.333333  0.666667  0.498631  1
  Si  Si22  1  0.333333  0.666667  0.001057  1
  Ag  Ag23  1  0.666667  0.333333  0.997337  1
