# generated using pymatgen
data_Tm2Sc8GaBi5
_symmetry_space_group_name_H-M   'P 1'
_cell_length_a   7.78065448
_cell_length_b   8.98210500
_cell_length_c   11.44446203
_cell_angle_alpha   90.00000000
_cell_angle_beta   89.53325115
_cell_angle_gamma   90.00000000
_symmetry_Int_Tables_number   1
_chemical_formula_structural   Tm2Sc8GaBi5
_chemical_formula_sum   'Tm4 Sc16 Ga2 Bi10'
_cell_volume   799.78863654
_cell_formula_units_Z   2
loop_
 _symmetry_equiv_pos_site_id
 _symmetry_equiv_pos_as_xyz
  1  'x, y, z'
loop_
 _atom_site_type_symbol
 _atom_site_label
 _atom_site_symmetry_multiplicity
 _atom_site_fract_x
 _atom_site_fract_y
 _atom_site_fract_z
 _atom_site_occupancy
  Tm  Tm0  1  0.192489  0.250000  0.776001  1
  Tm  Tm1  1  0.807511  0.750000  0.223999  1
  Tm  Tm2  1  0.327812  0.750000  0.290372  1
  Tm  Tm3  1  0.672188  0.250000  0.709628  1
  Sc  Sc4  1  0.030308  0.250000  0.509483  1
  Sc  Sc5  1  0.969692  0.750000  0.490517  1
  Sc  Sc6  1  0.480622  0.750000  0.012084  1
  Sc  Sc7  1  0.519378  0.250000  0.987916  1
  Sc  Sc8  1  0.347827  0.250000  0.292873  1
  Sc  Sc9  1  0.652173  0.750000  0.707127  1
  Sc  Sc10  1  0.152392  0.750000  0.779796  1
  Sc  Sc11  1  0.847608  0.250000  0.220204  1
  Sc  Sc12  1  0.194220  0.067087  0.063673  1
  Sc  Sc13  1  0.805780  0.932913  0.936327  1
  Sc  Sc14  1  0.318998  0.940778  0.556087  1
  Sc  Sc15  1  0.805780  0.567087  0.936327  1
  Sc  Sc16  1  0.681002  0.059222  0.443913  1
  Sc  Sc17  1  0.194220  0.432913  0.063673  1
  Sc  Sc18  1  0.681002  0.440778  0.443913  1
  Sc  Sc19  1  0.318998  0.559222  0.556087  1
  Ga  Ga20  1  0.402653  0.250000  0.533272  1
  Ga  Ga21  1  0.597347  0.750000  0.466728  1
  Bi  Bi22  1  0.095915  0.750000  0.037582  1
  Bi  Bi23  1  0.904085  0.250000  0.962418  1
  Bi  Bi24  1  0.060431  0.006504  0.327597  1
  Bi  Bi25  1  0.939569  0.993496  0.672403  1
  Bi  Bi26  1  0.438216  0.989743  0.826067  1
  Bi  Bi27  1  0.939569  0.506504  0.672403  1
  Bi  Bi28  1  0.561784  0.010257  0.173933  1
  Bi  Bi29  1  0.060431  0.493496  0.327597  1
  Bi  Bi30  1  0.561784  0.489743  0.173933  1
  Bi  Bi31  1  0.438216  0.510257  0.826067  1
