# generated using pymatgen
data_CaLuNi12As7
_symmetry_space_group_name_H-M   'P 1'
_cell_length_a   9.37255700
_cell_length_b   9.37255735
_cell_length_c   3.81911600
_cell_angle_alpha   90.00000000
_cell_angle_beta   90.00000000
_cell_angle_gamma   120.00000935
_symmetry_Int_Tables_number   1
_chemical_formula_structural   CaLuNi12As7
_chemical_formula_sum   'Ca1 Lu1 Ni12 As7'
_cell_volume   290.54247869
_cell_formula_units_Z   1
loop_
 _symmetry_equiv_pos_site_id
 _symmetry_equiv_pos_as_xyz
  1  'x, y, z'
loop_
 _atom_site_type_symbol
 _atom_site_label
 _atom_site_symmetry_multiplicity
 _atom_site_fract_x
 _atom_site_fract_y
 _atom_site_fract_z
 _atom_site_occupancy
  Ca  Ca0  1  0.666667  0.333333  0.500000  1
  Lu  Lu1  1  0.000000  0.000000  0.000000  1
  Ni  Ni2  1  0.387255  0.283726  0.000000  1
  Ni  Ni3  1  0.896470  0.612745  0.000000  1
  Ni  Ni4  1  0.716274  0.103530  0.000000  1
  Ni  Ni5  1  0.614485  0.795327  0.000000  1
  Ni  Ni6  1  0.180842  0.385515  0.000000  1
  Ni  Ni7  1  0.204673  0.819158  0.000000  1
  Ni  Ni8  1  0.759374  0.717893  0.500000  1
  Ni  Ni9  1  0.958519  0.240626  0.500000  1
  Ni  Ni10  1  0.282107  0.041481  0.500000  1
  Ni  Ni11  1  0.429544  0.553019  0.500000  1
  Ni  Ni12  1  0.123474  0.570456  0.500000  1
  Ni  Ni13  1  0.446981  0.876526  0.500000  1
  As  As14  1  0.619891  0.549189  0.000000  1
  As  As15  1  0.929297  0.380109  0.000000  1
  As  As16  1  0.450811  0.070703  0.000000  1
  As  As17  1  0.741093  0.965485  0.500000  1
  As  As18  1  0.224392  0.258907  0.500000  1
  As  As19  1  0.034515  0.775608  0.500000  1
  As  As20  1  0.333333  0.666667  0.000000  1
