# generated using pymatgen
data_Cs9Rb5(CoSe2)8
_symmetry_space_group_name_H-M   'P 1'
_cell_length_a   10.71394805
_cell_length_b   10.67476113
_cell_length_c   17.22401330
_cell_angle_alpha   65.12040621
_cell_angle_beta   65.10606777
_cell_angle_gamma   47.92341993
_symmetry_Int_Tables_number   1
_chemical_formula_structural   Cs9Rb5(CoSe2)8
_chemical_formula_sum   'Cs9 Rb5 Co8 Se16'
_cell_volume   1297.88105437
_cell_formula_units_Z   1
loop_
 _symmetry_equiv_pos_site_id
 _symmetry_equiv_pos_as_xyz
  1  'x, y, z'
loop_
 _atom_site_type_symbol
 _atom_site_label
 _atom_site_symmetry_multiplicity
 _atom_site_fract_x
 _atom_site_fract_y
 _atom_site_fract_z
 _atom_site_occupancy
  Cs  Cs0  1  0.746043  0.247545  0.489046  1
  Cs  Cs1  1  0.998421  0.523365  0.612820  1
  Cs  Cs2  1  0.476983  0.000431  0.887527  1
  Cs  Cs3  1  0.001115  0.477486  0.387163  1
  Cs  Cs4  1  0.523365  0.998795  0.112667  1
  Cs  Cs5  1  0.007217  0.509297  0.862935  1
  Cs  Cs6  1  0.490065  0.992622  0.637905  1
  Cs  Cs7  1  0.992948  0.490591  0.137075  1
  Cs  Cs8  1  0.510485  0.006401  0.362173  1
  Rb  Rb9  1  0.231432  0.768488  0.750245  1
  Rb  Rb10  1  0.768408  0.231591  0.249085  1
  Rb  Rb11  1  0.244799  0.745825  0.993033  1
  Rb  Rb12  1  0.254161  0.755456  0.507044  1
  Rb  Rb13  1  0.755152  0.254212  0.007113  1
  Co  Co14  1  0.679535  0.428598  0.669525  1
  Co  Co15  1  0.571785  0.320403  0.831921  1
  Co  Co16  1  0.319722  0.571787  0.331010  1
  Co  Co17  1  0.428043  0.679545  0.168665  1
  Co  Co18  1  0.890711  0.213984  0.777779  1
  Co  Co19  1  0.786456  0.108298  0.723957  1
  Co  Co20  1  0.109374  0.786172  0.222712  1
  Co  Co21  1  0.214195  0.890924  0.276748  1
  Se  Se22  1  0.651256  0.507978  0.791874  1
  Se  Se23  1  0.493230  0.347885  0.709817  1
  Se  Se24  1  0.348491  0.492542  0.208118  1
  Se  Se25  1  0.507039  0.651112  0.291387  1
  Se  Se26  1  0.973633  0.188104  0.628861  1
  Se  Se27  1  0.811668  0.025989  0.872963  1
  Se  Se28  1  0.025718  0.812860  0.372077  1
  Se  Se29  1  0.188274  0.974017  0.127488  1
  Se  Se30  1  0.665020  0.602755  0.050390  1
  Se  Se31  1  0.389810  0.335787  0.449586  1
  Se  Se32  1  0.334876  0.397110  0.949922  1
  Se  Se33  1  0.602672  0.665112  0.550590  1
  Se  Se34  1  0.871627  0.873124  0.681909  1
  Se  Se35  1  0.124810  0.129055  0.819685  1
  Se  Se36  1  0.135804  0.123940  0.316798  1
  Se  Se37  1  0.875659  0.870815  0.180386  1
