# generated using pymatgen
data_Nb4Al4V3Pd
_symmetry_space_group_name_H-M   'P 1'
_cell_length_a   5.00271677
_cell_length_b   5.12976269
_cell_length_c   8.57176100
_cell_angle_alpha   90.00000000
_cell_angle_beta   90.00000000
_cell_angle_gamma   120.84214232
_symmetry_Int_Tables_number   1
_chemical_formula_structural   Nb4Al4V3Pd
_chemical_formula_sum   'Nb4 Al4 V3 Pd1'
_cell_volume   188.86676956
_cell_formula_units_Z   1
loop_
 _symmetry_equiv_pos_site_id
 _symmetry_equiv_pos_as_xyz
  1  'x, y, z'
loop_
 _atom_site_type_symbol
 _atom_site_label
 _atom_site_symmetry_multiplicity
 _atom_site_fract_x
 _atom_site_fract_y
 _atom_site_fract_z
 _atom_site_occupancy
  Nb  Nb0  1  0.673491  0.336745  0.552057  1
  Nb  Nb1  1  0.320647  0.660303  0.435138  1
  Nb  Nb2  1  0.320647  0.660303  0.064862  1
  Nb  Nb3  1  0.673491  0.336745  0.947943  1
  Al  Al4  1  0.991859  0.995988  0.499164  1
  Al  Al5  1  0.991859  0.995988  0.000836  1
  Al  Al6  1  0.184717  0.348868  0.750000  1
  Al  Al7  1  0.184625  0.835842  0.750000  1
  V  V8  1  0.821020  0.652452  0.250000  1
  V  V9  1  0.820973  0.168473  0.250000  1
  V  V10  1  0.339571  0.169704  0.250000  1
  Pd  Pd11  1  0.677099  0.838590  0.750000  1
