# generated using pymatgen
data_Pr3(EuIr)2
_symmetry_space_group_name_H-M   'P 1'
_cell_length_a   9.19425910
_cell_length_b   9.19426025
_cell_length_c   7.36437700
_cell_angle_alpha   84.19352885
_cell_angle_beta   84.19352812
_cell_angle_gamma   43.16153031
_symmetry_Int_Tables_number   1
_chemical_formula_structural   Pr3(EuIr)2
_chemical_formula_sum   'Pr6 Eu4 Ir4'
_cell_volume   423.32759851
_cell_formula_units_Z   2
loop_
 _symmetry_equiv_pos_site_id
 _symmetry_equiv_pos_as_xyz
  1  'x, y, z'
loop_
 _atom_site_type_symbol
 _atom_site_label
 _atom_site_symmetry_multiplicity
 _atom_site_fract_x
 _atom_site_fract_y
 _atom_site_fract_z
 _atom_site_occupancy
  Pr  Pr0  1  0.352664  0.214985  0.816744  1
  Pr  Pr1  1  0.785015  0.647336  0.683256  1
  Pr  Pr2  1  0.647336  0.785015  0.183256  1
  Pr  Pr3  1  0.214985  0.352664  0.316744  1
  Pr  Pr4  1  0.565395  0.434605  0.750000  1
  Pr  Pr5  1  0.434605  0.565395  0.250000  1
  Eu  Eu6  1  0.012189  0.802005  0.918299  1
  Eu  Eu7  1  0.197995  0.987811  0.581701  1
  Eu  Eu8  1  0.987811  0.197995  0.081701  1
  Eu  Eu9  1  0.802005  0.012189  0.418299  1
  Ir  Ir10  1  0.187240  0.586161  0.572675  1
  Ir  Ir11  1  0.413839  0.812760  0.927325  1
  Ir  Ir12  1  0.812760  0.413839  0.427325  1
  Ir  Ir13  1  0.586161  0.187240  0.072675  1
