# generated using pymatgen
data_Hf3Ga3(Ru2Pt)2
_symmetry_space_group_name_H-M   'P 1'
_cell_length_a   4.47036900
_cell_length_b   6.43825000
_cell_length_c   13.26644700
_cell_angle_alpha   90.00013166
_cell_angle_beta   90.00203163
_cell_angle_gamma   90.00000000
_symmetry_Int_Tables_number   1
_chemical_formula_structural   Hf3Ga3(Ru2Pt)2
_chemical_formula_sum   'Hf6 Ga6 Ru8 Pt4'
_cell_volume   381.82629688
_cell_formula_units_Z   2
loop_
 _symmetry_equiv_pos_site_id
 _symmetry_equiv_pos_as_xyz
  1  'x, y, z'
loop_
 _atom_site_type_symbol
 _atom_site_label
 _atom_site_symmetry_multiplicity
 _atom_site_fract_x
 _atom_site_fract_y
 _atom_site_fract_z
 _atom_site_occupancy
  Hf  Hf0  1  0.000015  0.500000  0.995263  1
  Hf  Hf1  1  0.499974  0.999996  0.171408  1
  Hf  Hf2  1  0.999982  0.500007  0.339930  1
  Hf  Hf3  1  0.499998  0.999992  0.501922  1
  Hf  Hf4  1  0.000008  0.499997  0.664735  1
  Hf  Hf5  1  0.500019  0.000006  0.826710  1
  Ga  Ga6  1  0.000013  0.000004  0.993531  1
  Ga  Ga7  1  0.499975  0.499999  0.173140  1
  Ga  Ga8  1  0.999984  0.999997  0.342675  1
  Ga  Ga9  1  0.499998  0.499990  0.501921  1
  Ga  Ga10  1  0.000010  0.000003  0.664719  1
  Ga  Ga11  1  0.500019  0.499992  0.823965  1
  Ru  Ru12  1  0.499986  0.249702  0.330044  1
  Ru  Ru13  1  0.499978  0.750296  0.330034  1
  Ru  Ru14  1  0.999995  0.250158  0.499053  1
  Ru  Ru15  1  0.999996  0.749844  0.499047  1
  Ru  Ru16  1  0.500010  0.249831  0.667635  1
  Ru  Ru17  1  0.500010  0.750162  0.667638  1
  Ru  Ru18  1  0.000027  0.250296  0.836679  1
  Ru  Ru19  1  0.000023  0.749714  0.836678  1
  Pt  Pt20  1  0.500020  0.254339  0.000365  1
  Pt  Pt21  1  0.500018  0.745667  0.000364  1
  Pt  Pt22  1  0.999970  0.245667  0.166272  1
  Pt  Pt23  1  0.999973  0.754340  0.166273  1
