# generated using pymatgen
data_Dy2Y(CdHg2)3
_symmetry_space_group_name_H-M   'P 1'
_cell_length_a   5.11986100
_cell_length_b   7.08793700
_cell_length_c   15.54195900
_cell_angle_alpha   90.00000000
_cell_angle_beta   89.99992956
_cell_angle_gamma   90.00000000
_symmetry_Int_Tables_number   1
_chemical_formula_structural   Dy2Y(CdHg2)3
_chemical_formula_sum   'Dy4 Y2 Cd6 Hg12'
_cell_volume   564.00607009
_cell_formula_units_Z   2
loop_
 _symmetry_equiv_pos_site_id
 _symmetry_equiv_pos_as_xyz
  1  'x, y, z'
loop_
 _atom_site_type_symbol
 _atom_site_label
 _atom_site_symmetry_multiplicity
 _atom_site_fract_x
 _atom_site_fract_y
 _atom_site_fract_z
 _atom_site_occupancy
  Dy  Dy0  1  0.999995  0.000000  0.999888  1
  Dy  Dy1  1  0.499899  0.500000  0.166391  1
  Dy  Dy2  1  0.999907  0.000000  0.333611  1
  Dy  Dy3  1  0.500003  0.500000  0.500087  1
  Y  Y4  1  0.000096  0.000000  0.666482  1
  Y  Y5  1  0.500099  0.500000  0.833530  1
  Cd  Cd6  1  0.000004  0.500000  0.999926  1
  Cd  Cd7  1  0.499898  0.000000  0.166747  1
  Cd  Cd8  1  0.999946  0.500000  0.333206  1
  Cd  Cd9  1  0.499998  0.000000  0.500116  1
  Cd  Cd10  1  0.000059  0.500000  0.666886  1
  Cd  Cd11  1  0.500093  0.000000  0.833120  1
  Hg  Hg12  1  0.500002  0.251242  0.000343  1
  Hg  Hg13  1  0.500002  0.748757  0.000343  1
  Hg  Hg14  1  0.999901  0.248516  0.166599  1
  Hg  Hg15  1  0.999901  0.751485  0.166599  1
  Hg  Hg16  1  0.499916  0.251581  0.333362  1
  Hg  Hg17  1  0.499916  0.748420  0.333362  1
  Hg  Hg18  1  0.999999  0.248764  0.499715  1
  Hg  Hg19  1  0.999999  0.751237  0.499715  1
  Hg  Hg20  1  0.500083  0.251903  0.666287  1
  Hg  Hg21  1  0.500083  0.748098  0.666287  1
  Hg  Hg22  1  0.000101  0.248049  0.833700  1
  Hg  Hg23  1  0.000101  0.751952  0.833700  1
