# generated using pymatgen
data_Li2Tb3ZnIr2Pd
_symmetry_space_group_name_H-M   'P 1'
_cell_length_a   7.16730400
_cell_length_b   7.14568080
_cell_length_c   3.96701400
_cell_angle_alpha   90.00000000
_cell_angle_beta   90.00000000
_cell_angle_gamma   120.10014228
_symmetry_Int_Tables_number   1
_chemical_formula_structural   Li2Tb3ZnIr2Pd
_chemical_formula_sum   'Li2 Tb3 Zn1 Ir2 Pd1'
_cell_volume   175.77401426
_cell_formula_units_Z   1
loop_
 _symmetry_equiv_pos_site_id
 _symmetry_equiv_pos_as_xyz
  1  'x, y, z'
loop_
 _atom_site_type_symbol
 _atom_site_label
 _atom_site_symmetry_multiplicity
 _atom_site_fract_x
 _atom_site_fract_y
 _atom_site_fract_z
 _atom_site_occupancy
  Li  Li0  1  0.999172  0.759806  0.500000  1
  Li  Li1  1  0.239367  0.240194  0.500000  1
  Tb  Tb2  1  0.998129  0.413438  0.000000  1
  Tb  Tb3  1  0.584691  0.586562  0.000000  1
  Tb  Tb4  1  0.419340  0.000000  0.000000  1
  Zn  Zn5  1  0.756101  0.000000  0.500000  1
  Ir  Ir6  1  0.338649  0.670403  0.500000  1
  Ir  Ir7  1  0.668247  0.329597  0.500000  1
  Pd  Pd8  1  0.996303  0.000000  0.000000  1
