# generated using pymatgen
data_Yb4Ge4Pd7Pt
_symmetry_space_group_name_H-M   'P 1'
_cell_length_a   5.58927635
_cell_length_b   7.13096395
_cell_length_c   7.44933437
_cell_angle_alpha   89.94733290
_cell_angle_beta   90.00695579
_cell_angle_gamma   90.30893211
_symmetry_Int_Tables_number   1
_chemical_formula_structural   Yb4Ge4Pd7Pt
_chemical_formula_sum   'Yb4 Ge4 Pd7 Pt1'
_cell_volume   296.90314114
_cell_formula_units_Z   1
loop_
 _symmetry_equiv_pos_site_id
 _symmetry_equiv_pos_as_xyz
  1  'x, y, z'
loop_
 _atom_site_type_symbol
 _atom_site_label
 _atom_site_symmetry_multiplicity
 _atom_site_fract_x
 _atom_site_fract_y
 _atom_site_fract_z
 _atom_site_occupancy
  Yb  Yb0  1  0.132549  0.751205  0.480370  1
  Yb  Yb1  1  0.367070  0.752160  0.977623  1
  Yb  Yb2  1  0.631443  0.249646  0.020151  1
  Yb  Yb3  1  0.867365  0.247355  0.521861  1
  Ge  Ge4  1  0.125954  0.248031  0.876212  1
  Ge  Ge5  1  0.371195  0.250089  0.377073  1
  Ge  Ge6  1  0.630639  0.752147  0.622891  1
  Ge  Ge7  1  0.871100  0.750402  0.123972  1
  Pd  Pd8  1  0.104840  0.053176  0.173569  1
  Pd  Pd9  1  0.103399  0.448832  0.172918  1
  Pd  Pd10  1  0.396924  0.053426  0.672529  1
  Pd  Pd11  1  0.396588  0.448829  0.673250  1
  Pd  Pd12  1  0.602890  0.552357  0.327551  1
  Pd  Pd13  1  0.600928  0.947495  0.326219  1
  Pd  Pd14  1  0.899675  0.549448  0.825905  1
  Pt  Pt15  1  0.897445  0.945405  0.827903  1
