# generated using pymatgen
data_CaEu9Si5Sn
_symmetry_space_group_name_H-M   'P 1'
_cell_length_a   9.35887687
_cell_length_b   9.35887723
_cell_length_c   9.35887665
_cell_angle_alpha   130.65634825
_cell_angle_beta   130.65635215
_cell_angle_gamma   72.35964115
_symmetry_Int_Tables_number   1
_chemical_formula_structural   CaEu9Si5Sn
_chemical_formula_sum   'Ca1 Eu9 Si5 Sn1'
_cell_volume   461.15013683
_cell_formula_units_Z   1
loop_
 _symmetry_equiv_pos_site_id
 _symmetry_equiv_pos_as_xyz
  1  'x, y, z'
loop_
 _atom_site_type_symbol
 _atom_site_label
 _atom_site_symmetry_multiplicity
 _atom_site_fract_x
 _atom_site_fract_y
 _atom_site_fract_z
 _atom_site_occupancy
  Ca  Ca0  1  0.510619  0.510619  0.000000  1
  Eu  Eu1  1  0.827281  0.309921  0.853545  1
  Eu  Eu2  1  0.190898  0.672176  0.146642  1
  Eu  Eu3  1  0.456377  0.973736  0.146455  1
  Eu  Eu4  1  0.309921  0.456377  0.482640  1
  Eu  Eu5  1  0.044254  0.190898  0.518722  1
  Eu  Eu6  1  0.525534  0.044254  0.853358  1
  Eu  Eu7  1  0.672176  0.525534  0.481278  1
  Eu  Eu8  1  0.973736  0.827281  0.517360  1
  Eu  Eu9  1  0.988736  0.988736  0.000000  1
  Si  Si10  1  0.112072  0.610569  0.722271  1
  Si  Si11  1  0.888299  0.389802  0.277729  1
  Si  Si12  1  0.610569  0.888299  0.498497  1
  Si  Si13  1  0.389802  0.112072  0.501503  1
  Si  Si14  1  0.250363  0.250363  0.000000  1
  Sn  Sn15  1  0.749364  0.749364  0.000000  1
