# generated using pymatgen
data_YbThNbIr3
_symmetry_space_group_name_H-M   'P 1'
_cell_length_a   5.72457582
_cell_length_b   5.72457663
_cell_length_c   5.28597630
_cell_angle_alpha   57.21507266
_cell_angle_beta   57.21508022
_cell_angle_gamma   60.00000580
_symmetry_Int_Tables_number   1
_chemical_formula_structural   YbThNbIr3
_chemical_formula_sum   'Yb1 Th1 Nb1 Ir3'
_cell_volume   117.07686175
_cell_formula_units_Z   1
loop_
 _symmetry_equiv_pos_site_id
 _symmetry_equiv_pos_as_xyz
  1  'x, y, z'
loop_
 _atom_site_type_symbol
 _atom_site_label
 _atom_site_symmetry_multiplicity
 _atom_site_fract_x
 _atom_site_fract_y
 _atom_site_fract_z
 _atom_site_occupancy
  Yb  Yb0  1  0.752545  0.752545  0.742363  1
  Th  Th1  1  0.500798  0.500798  0.497606  1
  Nb  Nb2  1  0.124563  0.124563  0.626312  1
  Ir  Ir3  1  0.625564  0.123265  0.127906  1
  Ir  Ir4  1  0.123265  0.123265  0.127906  1
  Ir  Ir5  1  0.123265  0.625564  0.127906  1
