# generated using pymatgen
data_Y3Fe4Co4P6W
_symmetry_space_group_name_H-M   'P 1'
_cell_length_a   3.75092900
_cell_length_b   10.63886100
_cell_length_c   12.22276100
_cell_angle_alpha   90.00000000
_cell_angle_beta   90.00000000
_cell_angle_gamma   90.00000000
_symmetry_Int_Tables_number   1
_chemical_formula_structural   Y3Fe4Co4P6W
_chemical_formula_sum   'Y6 Fe8 Co8 P12 W2'
_cell_volume   487.75676111
_cell_formula_units_Z   2
loop_
 _symmetry_equiv_pos_site_id
 _symmetry_equiv_pos_as_xyz
  1  'x, y, z'
loop_
 _atom_site_type_symbol
 _atom_site_label
 _atom_site_symmetry_multiplicity
 _atom_site_fract_x
 _atom_site_fract_y
 _atom_site_fract_z
 _atom_site_occupancy
  Y  Y0  1  0.000000  0.500000  0.524901  1
  Y  Y1  1  0.500000  0.000000  0.474620  1
  Y  Y2  1  0.500000  0.821531  0.204710  1
  Y  Y3  1  0.500000  0.178469  0.204710  1
  Y  Y4  1  0.000000  0.678824  0.795429  1
  Y  Y5  1  0.000000  0.321176  0.795429  1
  Fe  Fe6  1  0.000000  0.500000  0.988038  1
  Fe  Fe7  1  0.500000  0.000000  0.011982  1
  Fe  Fe8  1  0.500000  0.330431  0.995711  1
  Fe  Fe9  1  0.500000  0.669569  0.995711  1
  Fe  Fe10  1  0.000000  0.169682  0.004005  1
  Fe  Fe11  1  0.000000  0.830318  0.004005  1
  Fe  Fe12  1  0.500000  0.296442  0.431096  1
  Fe  Fe13  1  0.500000  0.703558  0.431096  1
  Co  Co14  1  0.500000  0.500000  0.700927  1
  Co  Co15  1  0.000000  0.000000  0.299582  1
  Co  Co16  1  0.000000  0.203271  0.570090  1
  Co  Co17  1  0.000000  0.796729  0.570090  1
  Co  Co18  1  0.500000  0.879231  0.707324  1
  Co  Co19  1  0.500000  0.120769  0.707324  1
  Co  Co20  1  0.000000  0.620511  0.292223  1
  Co  Co21  1  0.000000  0.379489  0.292223  1
  P  P22  1  0.500000  0.500000  0.886348  1
  P  P23  1  0.000000  0.000000  0.113880  1
  P  P24  1  0.500000  0.500000  0.350247  1
  P  P25  1  0.000000  0.000000  0.650250  1
  P  P26  1  0.500000  0.308418  0.614548  1
  P  P27  1  0.500000  0.691582  0.614548  1
  P  P28  1  0.000000  0.193188  0.384733  1
  P  P29  1  0.000000  0.806812  0.384733  1
  P  P30  1  0.500000  0.843921  0.894612  1
  P  P31  1  0.500000  0.156079  0.894612  1
  P  P32  1  0.000000  0.656162  0.105469  1
  P  P33  1  0.000000  0.343838  0.105469  1
  W  W34  1  0.500000  0.500000  0.152165  1
  W  W35  1  0.000000  0.000000  0.847161  1
