# generated using pymatgen
data_HfSc5(Ta2Si3)2
_symmetry_space_group_name_H-M   'P 1'
_cell_length_a   7.79635435
_cell_length_b   7.79635383
_cell_length_c   5.42159100
_cell_angle_alpha   90.00000000
_cell_angle_beta   90.00000000
_cell_angle_gamma   120.01933416
_symmetry_Int_Tables_number   1
_chemical_formula_structural   HfSc5(Ta2Si3)2
_chemical_formula_sum   'Hf1 Sc5 Ta4 Si6'
_cell_volume   285.33552790
_cell_formula_units_Z   1
loop_
 _symmetry_equiv_pos_site_id
 _symmetry_equiv_pos_as_xyz
  1  'x, y, z'
loop_
 _atom_site_type_symbol
 _atom_site_label
 _atom_site_symmetry_multiplicity
 _atom_site_fract_x
 _atom_site_fract_y
 _atom_site_fract_z
 _atom_site_occupancy
  Hf  Hf0  1  0.249893  0.249893  0.000000  1
  Sc  Sc1  1  0.001106  0.753032  0.000000  1
  Sc  Sc2  1  0.753032  0.001106  0.000000  1
  Sc  Sc3  1  0.752113  0.752113  0.500000  1
  Sc  Sc4  1  0.999958  0.247717  0.500000  1
  Sc  Sc5  1  0.247717  0.999958  0.500000  1
  Ta  Ta6  1  0.665288  0.333068  0.250132  1
  Ta  Ta7  1  0.333068  0.665288  0.250132  1
  Ta  Ta8  1  0.333068  0.665288  0.749868  1
  Ta  Ta9  1  0.665288  0.333068  0.749868  1
  Si  Si10  1  0.602391  0.602391  0.000000  1
  Si  Si11  1  0.999879  0.398037  0.000000  1
  Si  Si12  1  0.398037  0.999879  0.000000  1
  Si  Si13  1  0.397759  0.397759  0.500000  1
  Si  Si14  1  0.000204  0.601236  0.500000  1
  Si  Si15  1  0.601236  0.000204  0.500000  1
