# generated using pymatgen
data_TmTh2CoSn3Ir2
_symmetry_space_group_name_H-M   'P 1'
_cell_length_a   7.50579300
_cell_length_b   7.51139591
_cell_length_c   4.00477300
_cell_angle_alpha   90.00000000
_cell_angle_beta   90.00000000
_cell_angle_gamma   119.97533261
_symmetry_Int_Tables_number   1
_chemical_formula_structural   TmTh2CoSn3Ir2
_chemical_formula_sum   'Tm1 Th2 Co1 Sn3 Ir2'
_cell_volume   195.58415534
_cell_formula_units_Z   1
loop_
 _symmetry_equiv_pos_site_id
 _symmetry_equiv_pos_as_xyz
  1  'x, y, z'
loop_
 _atom_site_type_symbol
 _atom_site_label
 _atom_site_symmetry_multiplicity
 _atom_site_fract_x
 _atom_site_fract_y
 _atom_site_fract_z
 _atom_site_occupancy
  Tm  Tm0  1  0.405470  0.000000  0.500000  1
  Th  Th1  1  0.000176  0.410894  0.500000  1
  Th  Th2  1  0.589281  0.589106  0.500000  1
  Co  Co3  1  0.995893  0.000000  0.500000  1
  Sn  Sn4  1  0.010760  0.763816  0.000000  1
  Sn  Sn5  1  0.246943  0.236184  0.000000  1
  Sn  Sn6  1  0.745706  0.000000  0.000000  1
  Ir  Ir7  1  0.332485  0.659199  0.000000  1
  Ir  Ir8  1  0.673287  0.340801  0.000000  1
