# generated using pymatgen
data_TbMn2(CoP)3
_symmetry_space_group_name_H-M   'P 1'
_cell_length_a   3.62683200
_cell_length_b   10.37112100
_cell_length_c   12.09393200
_cell_angle_alpha   90.00000000
_cell_angle_beta   90.00000000
_cell_angle_gamma   90.00000000
_symmetry_Int_Tables_number   1
_chemical_formula_structural   TbMn2(CoP)3
_chemical_formula_sum   'Tb4 Mn8 Co12 P12'
_cell_volume   454.90494992
_cell_formula_units_Z   4
loop_
 _symmetry_equiv_pos_site_id
 _symmetry_equiv_pos_as_xyz
  1  'x, y, z'
loop_
 _atom_site_type_symbol
 _atom_site_label
 _atom_site_symmetry_multiplicity
 _atom_site_fract_x
 _atom_site_fract_y
 _atom_site_fract_z
 _atom_site_occupancy
  Tb  Tb0  1  0.250000  0.583020  0.709223  1
  Tb  Tb1  1  0.250000  0.916980  0.209223  1
  Tb  Tb2  1  0.750000  0.416980  0.290777  1
  Tb  Tb3  1  0.750000  0.083020  0.790777  1
  Mn  Mn4  1  0.250000  0.712470  0.991241  1
  Mn  Mn5  1  0.250000  0.787530  0.491241  1
  Mn  Mn6  1  0.750000  0.287530  0.008759  1
  Mn  Mn7  1  0.750000  0.212470  0.508759  1
  Mn  Mn8  1  0.250000  0.407034  0.491413  1
  Mn  Mn9  1  0.250000  0.092966  0.991413  1
  Mn  Mn10  1  0.750000  0.592966  0.508587  1
  Mn  Mn11  1  0.750000  0.907034  0.008587  1
  Co  Co12  1  0.250000  0.221246  0.176643  1
  Co  Co13  1  0.250000  0.278754  0.676643  1
  Co  Co14  1  0.750000  0.778754  0.823357  1
  Co  Co15  1  0.750000  0.721246  0.323357  1
  Co  Co16  1  0.250000  0.882477  0.695821  1
  Co  Co17  1  0.250000  0.617523  0.195821  1
  Co  Co18  1  0.750000  0.117523  0.304179  1
  Co  Co19  1  0.750000  0.382477  0.804179  1
  Co  Co20  1  0.250000  0.465778  0.933983  1
  Co  Co21  1  0.250000  0.034222  0.433983  1
  Co  Co22  1  0.750000  0.534222  0.066017  1
  Co  Co23  1  0.750000  0.965778  0.566017  1
  P  P24  1  0.250000  0.419136  0.110930  1
  P  P25  1  0.250000  0.080864  0.610930  1
  P  P26  1  0.750000  0.580864  0.889070  1
  P  P27  1  0.750000  0.919136  0.389070  1
  P  P28  1  0.250000  0.270147  0.867004  1
  P  P29  1  0.250000  0.229853  0.367004  1
  P  P30  1  0.750000  0.729853  0.132996  1
  P  P31  1  0.750000  0.770147  0.632996  1
  P  P32  1  0.250000  0.600621  0.383428  1
  P  P33  1  0.250000  0.899379  0.883428  1
  P  P34  1  0.750000  0.399379  0.616572  1
  P  P35  1  0.750000  0.100621  0.116572  1
