# generated using pymatgen
data_Ho5AsRhO12
_symmetry_space_group_name_H-M   'P 1'
_cell_length_a   6.80716423
_cell_length_b   6.80716367
_cell_length_c   7.19100050
_cell_angle_alpha   74.54737615
_cell_angle_beta   74.54738772
_cell_angle_gamma   50.89287640
_symmetry_Int_Tables_number   1
_chemical_formula_structural   Ho5AsRhO12
_chemical_formula_sum   'Ho5 As1 Rh1 O12'
_cell_volume   247.05044705
_cell_formula_units_Z   1
loop_
 _symmetry_equiv_pos_site_id
 _symmetry_equiv_pos_as_xyz
  1  'x, y, z'
loop_
 _atom_site_type_symbol
 _atom_site_label
 _atom_site_symmetry_multiplicity
 _atom_site_fract_x
 _atom_site_fract_y
 _atom_site_fract_z
 _atom_site_occupancy
  Ho  Ho0  1  0.305360  0.297421  0.359977  1
  Ho  Ho1  1  0.702579  0.694640  0.640023  1
  Ho  Ho2  1  0.308349  0.303731  0.832528  1
  Ho  Ho3  1  0.696269  0.691651  0.167472  1
  Ho  Ho4  1  0.009824  0.990176  0.500000  1
  As  As5  1  0.239328  0.760672  0.000000  1
  Rh  Rh6  1  0.748558  0.251442  0.000000  1
  O  O7  1  0.904253  0.432858  0.917291  1
  O  O8  1  0.415338  0.898842  0.918924  1
  O  O9  1  0.101158  0.584662  0.081076  1
  O  O10  1  0.567142  0.095747  0.082709  1
  O  O11  1  0.102360  0.593106  0.572496  1
  O  O12  1  0.603103  0.092144  0.576273  1
  O  O13  1  0.907856  0.396897  0.423727  1
  O  O14  1  0.406894  0.897640  0.427504  1
  O  O15  1  0.011771  0.987688  0.821313  1
  O  O16  1  0.012312  0.988229  0.178687  1
  O  O17  1  0.478548  0.521001  0.818852  1
  O  O18  1  0.478999  0.521452  0.181148  1
