# generated using pymatgen
data_La4Cd2CuIrPd2
_symmetry_space_group_name_H-M   'P 1'
_cell_length_a   7.87313457
_cell_length_b   7.87313458
_cell_length_c   3.99965700
_cell_angle_alpha   90.00000000
_cell_angle_beta   90.00000000
_cell_angle_gamma   90.50480482
_symmetry_Int_Tables_number   1
_chemical_formula_structural   La4Cd2CuIrPd2
_chemical_formula_sum   'La4 Cd2 Cu1 Ir1 Pd2'
_cell_volume   247.91410842
_cell_formula_units_Z   1
loop_
 _symmetry_equiv_pos_site_id
 _symmetry_equiv_pos_as_xyz
  1  'x, y, z'
loop_
 _atom_site_type_symbol
 _atom_site_label
 _atom_site_symmetry_multiplicity
 _atom_site_fract_x
 _atom_site_fract_y
 _atom_site_fract_z
 _atom_site_occupancy
  La  La0  1  0.667096  0.167096  0.500000  1
  La  La1  1  0.315431  0.815431  0.500000  1
  La  La2  1  0.179041  0.339201  0.500000  1
  La  La3  1  0.839201  0.679041  0.500000  1
  Cd  Cd4  1  0.998907  0.008410  0.000000  1
  Cd  Cd5  1  0.508410  0.498907  0.000000  1
  Cu  Cu6  1  0.875411  0.375411  0.000000  1
  Ir  Ir7  1  0.118298  0.618298  0.000000  1
  Pd  Pd8  1  0.627986  0.870217  0.000000  1
  Pd  Pd9  1  0.370217  0.127986  0.000000  1
