# generated using pymatgen
data_Tb2Sm3(CoB3)2
_symmetry_space_group_name_H-M   'P 1'
_cell_length_a   5.40923392
_cell_length_b   5.40923472
_cell_length_c   8.54460242
_cell_angle_alpha   71.54683545
_cell_angle_beta   71.54683044
_cell_angle_gamma   59.99998604
_symmetry_Int_Tables_number   1
_chemical_formula_structural   Tb2Sm3(CoB3)2
_chemical_formula_sum   'Tb2 Sm3 Co2 B6'
_cell_volume   201.53770107
_cell_formula_units_Z   1
loop_
 _symmetry_equiv_pos_site_id
 _symmetry_equiv_pos_as_xyz
  1  'x, y, z'
loop_
 _atom_site_type_symbol
 _atom_site_label
 _atom_site_symmetry_multiplicity
 _atom_site_fract_x
 _atom_site_fract_y
 _atom_site_fract_z
 _atom_site_occupancy
  Tb  Tb0  1  0.418436  0.418436  0.744693  1
  Tb  Tb1  1  0.581564  0.581564  0.255307  1
  Sm  Sm2  1  0.000000  0.000000  0.000000  1
  Sm  Sm3  1  0.252149  0.252149  0.243553  1
  Sm  Sm4  1  0.747851  0.747851  0.756447  1
  Co  Co5  1  0.120927  0.120927  0.637219  1
  Co  Co6  1  0.879073  0.879073  0.362781  1
  B  B7  1  0.168014  0.831986  0.500000  1
  B  B8  1  0.831986  0.500000  0.500000  1
  B  B9  1  0.500000  0.168014  0.500000  1
  B  B10  1  0.168014  0.500000  0.500000  1
  B  B11  1  0.500000  0.831986  0.500000  1
  B  B12  1  0.831986  0.168014  0.500000  1
