# generated using pymatgen
data_NdEu3Ti2O10
_symmetry_space_group_name_H-M   'P 1'
_cell_length_a   3.81864000
_cell_length_b   10.76403900
_cell_length_c   11.41171200
_cell_angle_alpha   90.00000000
_cell_angle_beta   90.00000000
_cell_angle_gamma   90.00000000
_symmetry_Int_Tables_number   1
_chemical_formula_structural   NdEu3Ti2O10
_chemical_formula_sum   'Nd2 Eu6 Ti4 O20'
_cell_volume   469.06689464
_cell_formula_units_Z   2
loop_
 _symmetry_equiv_pos_site_id
 _symmetry_equiv_pos_as_xyz
  1  'x, y, z'
loop_
 _atom_site_type_symbol
 _atom_site_label
 _atom_site_symmetry_multiplicity
 _atom_site_fract_x
 _atom_site_fract_y
 _atom_site_fract_z
 _atom_site_occupancy
  Nd  Nd0  1  0.250000  0.634968  0.558757  1
  Nd  Nd1  1  0.250000  0.134968  0.941243  1
  Eu  Eu2  1  0.750000  0.362620  0.438563  1
  Eu  Eu3  1  0.750000  0.862620  0.061437  1
  Eu  Eu4  1  0.750000  0.894518  0.720161  1
  Eu  Eu5  1  0.750000  0.394518  0.779839  1
  Eu  Eu6  1  0.250000  0.106599  0.281375  1
  Eu  Eu7  1  0.250000  0.606599  0.218625  1
  Ti  Ti8  1  0.250000  0.683147  0.877110  1
  Ti  Ti9  1  0.250000  0.183147  0.622890  1
  Ti  Ti10  1  0.750000  0.318062  0.122453  1
  Ti  Ti11  1  0.750000  0.818062  0.377547  1
  O  O12  1  0.750000  0.505028  0.602438  1
  O  O13  1  0.750000  0.005028  0.897562  1
  O  O14  1  0.250000  0.491293  0.394750  1
  O  O15  1  0.250000  0.991293  0.105250  1
  O  O16  1  0.750000  0.776663  0.540103  1
  O  O17  1  0.750000  0.276663  0.959897  1
  O  O18  1  0.250000  0.227909  0.458646  1
  O  O19  1  0.250000  0.727909  0.041354  1
  O  O20  1  0.750000  0.733045  0.882770  1
  O  O21  1  0.750000  0.233045  0.617230  1
  O  O22  1  0.250000  0.263622  0.119335  1
  O  O23  1  0.250000  0.763622  0.380665  1
  O  O24  1  0.250000  0.768753  0.731570  1
  O  O25  1  0.250000  0.268753  0.768430  1
  O  O26  1  0.750000  0.232254  0.270138  1
  O  O27  1  0.750000  0.732254  0.229862  1
  O  O28  1  0.250000  0.522366  0.837680  1
  O  O29  1  0.250000  0.022366  0.662320  1
  O  O30  1  0.750000  0.479153  0.158447  1
  O  O31  1  0.750000  0.979153  0.341553  1
