# generated using pymatgen
data_La11Pr7(NdIr6)2
_symmetry_space_group_name_H-M   'P 1'
_cell_length_a   11.33638088
_cell_length_b   11.33536889
_cell_length_c   6.73505575
_cell_angle_alpha   90.26763862
_cell_angle_beta   89.87587906
_cell_angle_gamma   90.01680740
_symmetry_Int_Tables_number   1
_chemical_formula_structural   La11Pr7(NdIr6)2
_chemical_formula_sum   'La11 Pr7 Nd2 Ir12'
_cell_volume   865.45702483
_cell_formula_units_Z   1
loop_
 _symmetry_equiv_pos_site_id
 _symmetry_equiv_pos_as_xyz
  1  'x, y, z'
loop_
 _atom_site_type_symbol
 _atom_site_label
 _atom_site_symmetry_multiplicity
 _atom_site_fract_x
 _atom_site_fract_y
 _atom_site_fract_z
 _atom_site_occupancy
  La  La0  1  0.092288  0.291598  0.111790  1
  La  La1  1  0.791175  0.407945  0.112688  1
  La  La2  1  0.208307  0.592818  0.111171  1
  La  La3  1  0.906720  0.708487  0.111065  1
  La  La4  1  0.408710  0.791911  0.388489  1
  La  La5  1  0.592656  0.208559  0.388833  1
  La  La6  1  0.291565  0.092697  0.388967  1
  La  La7  1  0.707680  0.906807  0.388729  1
  La  La8  1  0.408008  0.208745  0.887492  1
  La  La9  1  0.708310  0.090439  0.887458  1
  La  La10  1  0.292355  0.907535  0.887907  1
  Pr  Pr11  1  0.591340  0.790752  0.885676  1
  Pr  Pr12  1  0.088928  0.707369  0.611460  1
  Pr  Pr13  1  0.910722  0.292995  0.612102  1
  Pr  Pr14  1  0.207147  0.411214  0.611782  1
  Pr  Pr15  1  0.792372  0.589452  0.613053  1
  Pr  Pr16  1  0.000085  0.999368  0.999094  1
  Pr  Pr17  1  0.500371  0.500673  0.999882  1
  Nd  Nd18  1  0.499796  0.500031  0.501561  1
  Nd  Nd19  1  0.000139  0.000198  0.499826  1
  Ir  Ir20  1  0.154570  0.847484  0.249782  1
  Ir  Ir21  1  0.347791  0.345803  0.249894  1
  Ir  Ir22  1  0.652897  0.653013  0.251742  1
  Ir  Ir23  1  0.845280  0.151588  0.250013  1
  Ir  Ir24  1  0.346982  0.654149  0.749278  1
  Ir  Ir25  1  0.152910  0.154404  0.749035  1
  Ir  Ir26  1  0.847385  0.845958  0.746720  1
  Ir  Ir27  1  0.654018  0.346603  0.749430  1
  Ir  Ir28  1  0.000663  0.499457  0.369380  1
  Ir  Ir29  1  0.500554  0.999014  0.125575  1
  Ir  Ir30  1  0.499184  0.002310  0.622513  1
  Ir  Ir31  1  0.999091  0.500625  0.887615  1
