# generated using pymatgen
data_Pu2TaWN6
_symmetry_space_group_name_H-M   'P 1'
_cell_length_a   5.51934293
_cell_length_b   5.74771703
_cell_length_c   9.60193538
_cell_angle_alpha   90.00993464
_cell_angle_beta   125.23911106
_cell_angle_gamma   89.98826239
_symmetry_Int_Tables_number   1
_chemical_formula_structural   Pu2TaWN6
_chemical_formula_sum   'Pu4 Ta2 W2 N12'
_cell_volume   248.78908430
_cell_formula_units_Z   2
loop_
 _symmetry_equiv_pos_site_id
 _symmetry_equiv_pos_as_xyz
  1  'x, y, z'
loop_
 _atom_site_type_symbol
 _atom_site_label
 _atom_site_symmetry_multiplicity
 _atom_site_fract_x
 _atom_site_fract_y
 _atom_site_fract_z
 _atom_site_occupancy
  Pu  Pu0  1  0.258034  0.065457  0.248538  1
  Pu  Pu1  1  0.751991  0.555495  0.253239  1
  Pu  Pu2  1  0.258050  0.434911  0.748506  1
  Pu  Pu3  1  0.751841  0.944728  0.752985  1
  Ta  Ta4  1  0.019075  0.505289  0.002741  1
  Ta  Ta5  1  0.018848  0.995344  0.502653  1
  W  W6  1  0.515939  0.990154  0.997117  1
  W  W7  1  0.515561  0.510155  0.497184  1
  N  N8  1  0.233916  0.812912  0.048656  1
  N  N9  1  0.355582  0.308338  0.047773  1
  N  N10  1  0.834878  0.970265  0.246597  1
  N  N11  1  0.146738  0.461408  0.253037  1
  N  N12  1  0.628600  0.801394  0.447666  1
  N  N13  1  0.755821  0.309721  0.454994  1
  N  N14  1  0.233743  0.687061  0.548387  1
  N  N15  1  0.355199  0.191566  0.547397  1
  N  N16  1  0.834471  0.529134  0.746647  1
  N  N17  1  0.147070  0.038227  0.753047  1
  N  N18  1  0.628468  0.698430  0.947619  1
  N  N19  1  0.756173  0.190014  0.955216  1
