# generated using pymatgen
data_Be7V3SiMo
_symmetry_space_group_name_H-M   'P 1'
_cell_length_a   4.41117900
_cell_length_b   4.41117919
_cell_length_c   7.26764800
_cell_angle_alpha   90.00000000
_cell_angle_beta   90.00000000
_cell_angle_gamma   120.00000611
_symmetry_Int_Tables_number   1
_chemical_formula_structural   Be7V3SiMo
_chemical_formula_sum   'Be7 V3 Si1 Mo1'
_cell_volume   122.47117099
_cell_formula_units_Z   1
loop_
 _symmetry_equiv_pos_site_id
 _symmetry_equiv_pos_as_xyz
  1  'x, y, z'
loop_
 _atom_site_type_symbol
 _atom_site_label
 _atom_site_symmetry_multiplicity
 _atom_site_fract_x
 _atom_site_fract_y
 _atom_site_fract_z
 _atom_site_occupancy
  Be  Be0  1  0.000000  0.000000  0.999198  1
  Be  Be1  1  0.827710  0.172290  0.244264  1
  Be  Be2  1  0.827710  0.655419  0.244264  1
  Be  Be3  1  0.344581  0.172290  0.244264  1
  Be  Be4  1  0.172207  0.827793  0.755930  1
  Be  Be5  1  0.172207  0.344414  0.755930  1
  Be  Be6  1  0.655586  0.827793  0.755930  1
  V  V7  1  0.333333  0.666667  0.435757  1
  V  V8  1  0.666667  0.333333  0.563831  1
  V  V9  1  0.666667  0.333333  0.934267  1
  Si  Si10  1  0.000000  0.000000  0.502438  1
  Mo  Mo11  1  0.333333  0.666667  0.063926  1
