# generated using pymatgen
data_Pr3Nd7C4I15
_symmetry_space_group_name_H-M   'P 1'
_cell_length_a   9.78841387
_cell_length_b   10.66913857
_cell_length_c   11.80387175
_cell_angle_alpha   93.84302269
_cell_angle_beta   114.29812620
_cell_angle_gamma   109.30301576
_symmetry_Int_Tables_number   1
_chemical_formula_structural   Pr3Nd7C4I15
_chemical_formula_sum   'Pr3 Nd7 C4 I15'
_cell_volume   1030.40059732
_cell_formula_units_Z   1
loop_
 _symmetry_equiv_pos_site_id
 _symmetry_equiv_pos_as_xyz
  1  'x, y, z'
loop_
 _atom_site_type_symbol
 _atom_site_label
 _atom_site_symmetry_multiplicity
 _atom_site_fract_x
 _atom_site_fract_y
 _atom_site_fract_z
 _atom_site_occupancy
  Pr  Pr0  1  0.704866  0.567655  0.044448  1
  Pr  Pr1  1  0.295220  0.432499  0.955558  1
  Pr  Pr2  1  0.657131  0.253794  0.835362  1
  Nd  Nd3  1  0.596763  0.541946  0.341691  1
  Nd  Nd4  1  0.345388  0.745970  0.164508  1
  Nd  Nd5  1  0.776288  0.882946  0.257228  1
  Nd  Nd6  1  0.527893  0.184944  0.101619  1
  Nd  Nd7  1  0.224382  0.116798  0.743230  1
  Nd  Nd8  1  0.402834  0.458071  0.658245  1
  Nd  Nd9  1  0.471677  0.815109  0.898181  1
  C  C10  1  0.482228  0.300028  0.937931  1
  C  C11  1  0.517709  0.700365  0.062098  1
  C  C12  1  0.452906  0.362378  0.834332  1
  C  C13  1  0.546886  0.637765  0.165669  1
  I  I14  1  0.206614  0.906142  0.937465  1
  I  I15  1  0.104843  0.188231  0.468781  1
  I  I16  1  0.152046  0.556824  0.702301  1
  I  I17  1  0.403919  0.968119  0.647002  1
  I  I18  1  0.711871  0.734782  0.819808  1
  I  I19  1  0.287525  0.265348  0.180059  1
  I  I20  1  0.847314  0.442985  0.297722  1
  I  I21  1  0.895023  0.811579  0.531754  1
  I  I22  1  0.358748  0.630577  0.412071  1
  I  I23  1  0.053937  0.834910  0.221367  1
  I  I24  1  0.793422  0.093235  0.063901  1
  I  I25  1  0.640558  0.370387  0.586285  1
  I  I26  1  0.946094  0.164754  0.778531  1
  I  I27  1  0.594110  0.030275  0.352038  1
  I  I28  1  0.001805  0.501583  0.000816  1
