# generated using pymatgen
data_TbHo15In4RuRh3
_symmetry_space_group_name_H-M   'P 1'
_cell_length_a   9.61605186
_cell_length_b   9.62432771
_cell_length_c   9.61749200
_cell_angle_alpha   60.02349909
_cell_angle_beta   59.99505261
_cell_angle_gamma   60.02755390
_symmetry_Int_Tables_number   1
_chemical_formula_structural   TbHo15In4RuRh3
_chemical_formula_sum   'Tb1 Ho15 In4 Ru1 Rh3'
_cell_volume   629.60075231
_cell_formula_units_Z   1
loop_
 _symmetry_equiv_pos_site_id
 _symmetry_equiv_pos_as_xyz
  1  'x, y, z'
loop_
 _atom_site_type_symbol
 _atom_site_label
 _atom_site_symmetry_multiplicity
 _atom_site_fract_x
 _atom_site_fract_y
 _atom_site_fract_z
 _atom_site_occupancy
  Tb  Tb0  1  0.187814  0.188611  0.811787  1
  Ho  Ho1  1  0.599051  0.600377  0.203089  1
  Ho  Ho2  1  0.439202  0.057620  0.439923  1
  Ho  Ho3  1  0.439429  0.439808  0.060381  1
  Ho  Ho4  1  0.811505  0.188492  0.811988  1
  Ho  Ho5  1  0.189357  0.812416  0.189824  1
  Ho  Ho6  1  0.439202  0.057620  0.063256  1
  Ho  Ho7  1  0.189357  0.812416  0.808404  1
  Ho  Ho8  1  0.059723  0.439449  0.060939  1
  Ho  Ho9  1  0.809248  0.813372  0.188690  1
  Ho  Ho10  1  0.201356  0.601449  0.598597  1
  Ho  Ho11  1  0.059723  0.439449  0.439889  1
  Ho  Ho12  1  0.062554  0.058155  0.439646  1
  Ho  Ho13  1  0.811505  0.188492  0.188014  1
  Ho  Ho14  1  0.600967  0.200484  0.599275  1
  Ho  Ho15  1  0.599051  0.600377  0.597482  1
  In  In16  1  0.833046  0.833214  0.833075  1
  In  In17  1  0.833046  0.833214  0.500668  1
  In  In18  1  0.501400  0.832706  0.832948  1
  In  In19  1  0.831509  0.503358  0.832567  1
  Ru  Ru20  1  0.392276  0.823755  0.391984  1
  Rh  Rh21  1  0.392445  0.391761  0.391413  1
  Rh  Rh22  1  0.824787  0.391649  0.391781  1
  Rh  Rh23  1  0.392445  0.391761  0.824380  1
