# generated using pymatgen
data_ZrNb5Fe2(BRu2)4
_symmetry_space_group_name_H-M   'P 1'
_cell_length_a   9.34575026
_cell_length_b   9.34575052
_cell_length_c   3.04687500
_cell_angle_alpha   90.00000000
_cell_angle_beta   90.00000000
_cell_angle_gamma   90.06376520
_symmetry_Int_Tables_number   1
_chemical_formula_structural   ZrNb5Fe2(BRu2)4
_chemical_formula_sum   'Zr1 Nb5 Fe2 B4 Ru8'
_cell_volume   266.12319172
_cell_formula_units_Z   1
loop_
 _symmetry_equiv_pos_site_id
 _symmetry_equiv_pos_as_xyz
  1  'x, y, z'
loop_
 _atom_site_type_symbol
 _atom_site_label
 _atom_site_symmetry_multiplicity
 _atom_site_fract_x
 _atom_site_fract_y
 _atom_site_fract_z
 _atom_site_occupancy
  Zr  Zr0  1  0.826774  0.673226  0.000000  1
  Nb  Nb1  1  0.172327  0.327673  0.000000  1
  Nb  Nb2  1  0.327463  0.828100  0.000000  1
  Nb  Nb3  1  0.671900  0.172537  0.000000  1
  Nb  Nb4  1  0.500280  0.499814  0.000000  1
  Nb  Nb5  1  0.000186  0.999720  0.000000  1
  Fe  Fe6  1  0.498681  0.001319  0.500000  1
  Fe  Fe7  1  0.003421  0.496579  0.500000  1
  B  B8  1  0.611129  0.888871  0.000000  1
  B  B9  1  0.388001  0.111999  0.000000  1
  B  B10  1  0.113200  0.610784  0.000000  1
  B  B11  1  0.889216  0.386800  0.000000  1
  Ru  Ru12  1  0.562933  0.725285  0.500000  1
  Ru  Ru13  1  0.431263  0.277116  0.500000  1
  Ru  Ru14  1  0.072531  0.777582  0.500000  1
  Ru  Ru15  1  0.932745  0.222070  0.500000  1
  Ru  Ru16  1  0.277930  0.567255  0.500000  1
  Ru  Ru17  1  0.722418  0.427469  0.500000  1
  Ru  Ru18  1  0.222884  0.068737  0.500000  1
  Ru  Ru19  1  0.774715  0.937067  0.500000  1
