# generated using pymatgen
data_Tm10NiHg3
_symmetry_space_group_name_H-M   'P 1'
_cell_length_a   9.53163700
_cell_length_b   9.53163644
_cell_length_c   9.34989100
_cell_angle_alpha   90.00000000
_cell_angle_beta   90.00000000
_cell_angle_gamma   119.99999154
_symmetry_Int_Tables_number   1
_chemical_formula_structural   Tm10NiHg3
_chemical_formula_sum   'Tm20 Ni2 Hg6'
_cell_volume   735.65159348
_cell_formula_units_Z   2
loop_
 _symmetry_equiv_pos_site_id
 _symmetry_equiv_pos_as_xyz
  1  'x, y, z'
loop_
 _atom_site_type_symbol
 _atom_site_label
 _atom_site_symmetry_multiplicity
 _atom_site_fract_x
 _atom_site_fract_y
 _atom_site_fract_z
 _atom_site_occupancy
  Tm  Tm0  1  0.000000  0.000000  0.500000  1
  Tm  Tm1  1  0.000000  0.000000  0.000000  1
  Tm  Tm2  1  0.543167  0.456833  0.250000  1
  Tm  Tm3  1  0.543167  0.086335  0.250000  1
  Tm  Tm4  1  0.913665  0.456833  0.250000  1
  Tm  Tm5  1  0.456833  0.543167  0.750000  1
  Tm  Tm6  1  0.456833  0.913665  0.750000  1
  Tm  Tm7  1  0.086335  0.543167  0.750000  1
  Tm  Tm8  1  0.209538  0.790462  0.435914  1
  Tm  Tm9  1  0.209538  0.419078  0.435914  1
  Tm  Tm10  1  0.580922  0.790462  0.435914  1
  Tm  Tm11  1  0.790462  0.209538  0.564086  1
  Tm  Tm12  1  0.790462  0.580922  0.564086  1
  Tm  Tm13  1  0.419078  0.209538  0.564086  1
  Tm  Tm14  1  0.790462  0.209538  0.935914  1
  Tm  Tm15  1  0.790462  0.580922  0.935914  1
  Tm  Tm16  1  0.419078  0.209538  0.935914  1
  Tm  Tm17  1  0.209538  0.790462  0.064086  1
  Tm  Tm18  1  0.209538  0.419078  0.064086  1
  Tm  Tm19  1  0.580922  0.790462  0.064086  1
  Ni  Ni20  1  0.333333  0.666667  0.250000  1
  Ni  Ni21  1  0.666667  0.333333  0.750000  1
  Hg  Hg22  1  0.879061  0.120939  0.250000  1
  Hg  Hg23  1  0.879061  0.758122  0.250000  1
  Hg  Hg24  1  0.241878  0.120939  0.250000  1
  Hg  Hg25  1  0.120939  0.879061  0.750000  1
  Hg  Hg26  1  0.120939  0.241878  0.750000  1
  Hg  Hg27  1  0.758122  0.879061  0.750000  1
