# generated using pymatgen
data_Ho4ErOsRu
_symmetry_space_group_name_H-M   'P 1'
_cell_length_a   6.32425893
_cell_length_b   7.29494907
_cell_length_c   8.40910267
_cell_angle_alpha   96.84640303
_cell_angle_beta   112.08838536
_cell_angle_gamma   89.99999514
_symmetry_Int_Tables_number   1
_chemical_formula_structural   Ho4ErOsRu
_chemical_formula_sum   'Ho8 Er2 Os2 Ru2'
_cell_volume   356.49388281
_cell_formula_units_Z   2
loop_
 _symmetry_equiv_pos_site_id
 _symmetry_equiv_pos_as_xyz
  1  'x, y, z'
loop_
 _atom_site_type_symbol
 _atom_site_label
 _atom_site_symmetry_multiplicity
 _atom_site_fract_x
 _atom_site_fract_y
 _atom_site_fract_z
 _atom_site_occupancy
  Ho  Ho0  1  0.793294  0.583715  0.815862  1
  Ho  Ho1  1  0.977432  0.916285  0.184138  1
  Ho  Ho2  1  0.208016  0.415373  0.185736  1
  Ho  Ho3  1  0.022280  0.084627  0.814264  1
  Ho  Ho4  1  0.205228  0.684349  0.565144  1
  Ho  Ho5  1  0.640085  0.815651  0.434856  1
  Ho  Ho6  1  0.794280  0.315407  0.434364  1
  Ho  Ho7  1  0.359915  0.184593  0.565636  1
  Er  Er8  1  0.422669  0.750000  0.000000  1
  Er  Er9  1  0.579027  0.250000  0.000000  1
  Os  Os10  1  0.602602  0.924043  0.780700  1
  Os  Os11  1  0.821900  0.575957  0.219300  1
  Ru  Ru12  1  0.396550  0.076439  0.219830  1
  Ru  Ru13  1  0.176722  0.423561  0.780170  1
