# generated using pymatgen
data_NaDy9S10
_symmetry_space_group_name_H-M   'P 1'
_cell_length_a   6.77587213
_cell_length_b   7.76590229
_cell_length_c   8.78693500
_cell_angle_alpha   103.22842293
_cell_angle_beta   96.96109298
_cell_angle_gamma   106.89857353
_symmetry_Int_Tables_number   1
_chemical_formula_structural   NaDy9S10
_chemical_formula_sum   'Na1 Dy9 S10'
_cell_volume   421.83464810
_cell_formula_units_Z   1
loop_
 _symmetry_equiv_pos_site_id
 _symmetry_equiv_pos_as_xyz
  1  'x, y, z'
loop_
 _atom_site_type_symbol
 _atom_site_label
 _atom_site_symmetry_multiplicity
 _atom_site_fract_x
 _atom_site_fract_y
 _atom_site_fract_z
 _atom_site_occupancy
  Na  Na0  1  0.000000  0.500000  0.000000  1
  Dy  Dy1  1  0.798734  0.600822  0.600651  1
  Dy  Dy2  1  0.604517  0.201718  0.205911  1
  Dy  Dy3  1  0.395483  0.798282  0.794089  1
  Dy  Dy4  1  0.601095  0.703377  0.204644  1
  Dy  Dy5  1  0.201266  0.399178  0.399349  1
  Dy  Dy6  1  0.398905  0.296623  0.795356  1
  Dy  Dy7  1  0.000000  0.000000  0.000000  1
  Dy  Dy8  1  0.201481  0.901904  0.404270  1
  Dy  Dy9  1  0.798519  0.098096  0.595730  1
  S  S10  1  0.696576  0.650589  0.901588  1
  S  S11  1  0.500922  0.251125  0.499866  1
  S  S12  1  0.698552  0.149225  0.901134  1
  S  S13  1  0.301448  0.850775  0.098866  1
  S  S14  1  0.499078  0.748875  0.500134  1
  S  S15  1  0.098087  0.448988  0.699556  1
  S  S16  1  0.303424  0.349411  0.098412  1
  S  S17  1  0.903279  0.049922  0.298923  1
  S  S18  1  0.096721  0.950078  0.701077  1
  S  S19  1  0.901913  0.551012  0.300444  1
