# generated using pymatgen
data_Hf3ZrPa4(NbGe4)2
_symmetry_space_group_name_H-M   'P 1'
_cell_length_a   7.16581100
_cell_length_b   7.27724703
_cell_length_c   13.93333806
_cell_angle_alpha   90.01036978
_cell_angle_beta   90.00000000
_cell_angle_gamma   90.00000000
_symmetry_Int_Tables_number   1
_chemical_formula_structural   Hf3ZrPa4(NbGe4)2
_chemical_formula_sum   'Hf6 Zr2 Pa8 Nb4 Ge16'
_cell_volume   726.58701806
_cell_formula_units_Z   2
loop_
 _symmetry_equiv_pos_site_id
 _symmetry_equiv_pos_as_xyz
  1  'x, y, z'
loop_
 _atom_site_type_symbol
 _atom_site_label
 _atom_site_symmetry_multiplicity
 _atom_site_fract_x
 _atom_site_fract_y
 _atom_site_fract_z
 _atom_site_occupancy
  Hf  Hf0  1  0.846595  0.667457  0.124369  1
  Hf  Hf1  1  0.346595  0.832543  0.375631  1
  Hf  Hf2  1  0.653459  0.167708  0.875705  1
  Hf  Hf3  1  0.153459  0.332292  0.624295  1
  Hf  Hf4  1  0.153205  0.332490  0.875387  1
  Hf  Hf5  1  0.653205  0.167510  0.624613  1
  Zr  Zr6  1  0.346585  0.832603  0.123826  1
  Zr  Zr7  1  0.846585  0.667397  0.376174  1
  Pa  Pa8  1  0.007708  0.175148  0.095331  1
  Pa  Pa9  1  0.507708  0.324852  0.404669  1
  Pa  Pa10  1  0.492263  0.674960  0.904370  1
  Pa  Pa11  1  0.992263  0.825040  0.595630  1
  Pa  Pa12  1  0.992495  0.825090  0.904454  1
  Pa  Pa13  1  0.492495  0.674910  0.595546  1
  Pa  Pa14  1  0.507708  0.324637  0.095221  1
  Pa  Pa15  1  0.007708  0.175363  0.404779  1
  Nb  Nb16  1  0.674240  0.002676  0.250160  1
  Nb  Nb17  1  0.174240  0.497324  0.249840  1
  Nb  Nb18  1  0.825819  0.502042  0.750067  1
  Nb  Nb19  1  0.325819  0.997958  0.749933  1
  Ge  Ge20  1  0.809820  0.361127  0.249636  1
  Ge  Ge21  1  0.309820  0.138873  0.250364  1
  Ge  Ge22  1  0.690017  0.861713  0.749971  1
  Ge  Ge23  1  0.190017  0.638287  0.750029  1
  Ge  Ge24  1  0.044100  0.878190  0.249987  1
  Ge  Ge25  1  0.544100  0.621810  0.250013  1
  Ge  Ge26  1  0.455561  0.377243  0.749974  1
  Ge  Ge27  1  0.955561  0.122757  0.750026  1
  Ge  Ge28  1  0.816372  0.458630  0.957411  1
  Ge  Ge29  1  0.316372  0.041370  0.542589  1
  Ge  Ge30  1  0.685186  0.958882  0.042230  1
  Ge  Ge31  1  0.185186  0.541118  0.457770  1
  Ge  Ge32  1  0.182600  0.539856  0.042152  1
  Ge  Ge33  1  0.682600  0.960144  0.457848  1
  Ge  Ge34  1  0.316268  0.041901  0.956517  1
  Ge  Ge35  1  0.816268  0.458099  0.543483  1
