# generated using pymatgen
data_TbDyLu8(CoSb2)2
_symmetry_space_group_name_H-M   'P 1'
_cell_length_a   7.70512500
_cell_length_b   8.72801700
_cell_length_c   11.97035300
_cell_angle_alpha   90.00000000
_cell_angle_beta   90.00000000
_cell_angle_gamma   90.00000000
_symmetry_Int_Tables_number   1
_chemical_formula_structural   TbDyLu8(CoSb2)2
_chemical_formula_sum   'Tb2 Dy2 Lu16 Co4 Sb8'
_cell_volume   805.01176940
_cell_formula_units_Z   2
loop_
 _symmetry_equiv_pos_site_id
 _symmetry_equiv_pos_as_xyz
  1  'x, y, z'
loop_
 _atom_site_type_symbol
 _atom_site_label
 _atom_site_symmetry_multiplicity
 _atom_site_fract_x
 _atom_site_fract_y
 _atom_site_fract_z
 _atom_site_occupancy
  Tb  Tb0  1  0.377755  0.250000  0.693111  1
  Tb  Tb1  1  0.877755  0.750000  0.806889  1
  Dy  Dy2  1  0.622184  0.750000  0.306951  1
  Dy  Dy3  1  0.122184  0.250000  0.193049  1
  Lu  Lu4  1  0.154808  0.750000  0.203712  1
  Lu  Lu5  1  0.654808  0.250000  0.296288  1
  Lu  Lu6  1  0.845217  0.250000  0.796267  1
  Lu  Lu7  1  0.345217  0.750000  0.703733  1
  Lu  Lu8  1  0.446870  0.750000  0.997598  1
  Lu  Lu9  1  0.946870  0.250000  0.502402  1
  Lu  Lu10  1  0.553132  0.250000  0.002417  1
  Lu  Lu11  1  0.053132  0.750000  0.497583  1
  Lu  Lu12  1  0.823744  0.962244  0.065326  1
  Lu  Lu13  1  0.323744  0.037756  0.434674  1
  Lu  Lu14  1  0.176269  0.462105  0.934745  1
  Lu  Lu15  1  0.676269  0.537895  0.565255  1
  Lu  Lu16  1  0.176269  0.037895  0.934745  1
  Lu  Lu17  1  0.676269  0.962105  0.565255  1
  Lu  Lu18  1  0.823744  0.537756  0.065326  1
  Lu  Lu19  1  0.323744  0.462244  0.434674  1
  Co  Co20  1  0.431124  0.750000  0.491469  1
  Co  Co21  1  0.931124  0.250000  0.008531  1
  Co  Co22  1  0.568939  0.250000  0.508451  1
  Co  Co23  1  0.068939  0.750000  0.991549  1
  Sb  Sb24  1  0.931042  0.991586  0.329108  1
  Sb  Sb25  1  0.431042  0.008414  0.170892  1
  Sb  Sb26  1  0.068930  0.491565  0.670850  1
  Sb  Sb27  1  0.568930  0.508435  0.829150  1
  Sb  Sb28  1  0.068930  0.008435  0.670850  1
  Sb  Sb29  1  0.568930  0.991565  0.829150  1
  Sb  Sb30  1  0.931042  0.508414  0.329108  1
  Sb  Sb31  1  0.431042  0.491586  0.170892  1
