# generated using pymatgen
data_Tm8Zr3In9Ir4
_symmetry_space_group_name_H-M   'P 1'
_cell_length_a   3.59891600
_cell_length_b   12.65674561
_cell_length_c   12.65674600
_cell_angle_alpha   111.25697478
_cell_angle_beta   90.00000000
_cell_angle_gamma   90.00000000
_symmetry_Int_Tables_number   1
_chemical_formula_structural   Tm8Zr3In9Ir4
_chemical_formula_sum   'Tm8 Zr3 In9 Ir4'
_cell_volume   537.29752804
_cell_formula_units_Z   1
loop_
 _symmetry_equiv_pos_site_id
 _symmetry_equiv_pos_as_xyz
  1  'x, y, z'
loop_
 _atom_site_type_symbol
 _atom_site_label
 _atom_site_symmetry_multiplicity
 _atom_site_fract_x
 _atom_site_fract_y
 _atom_site_fract_z
 _atom_site_occupancy
  Tm  Tm0  1  0.000000  0.924155  0.585609  1
  Tm  Tm1  1  0.000000  0.075845  0.414391  1
  Tm  Tm2  1  0.000000  0.585609  0.924155  1
  Tm  Tm3  1  0.000000  0.414391  0.075845  1
  Tm  Tm4  1  0.000000  0.156423  0.843577  1
  Tm  Tm5  1  0.000000  0.843577  0.156423  1
  Tm  Tm6  1  0.000000  0.373312  0.626688  1
  Tm  Tm7  1  0.000000  0.626688  0.373312  1
  Zr  Zr8  1  0.000000  0.686063  0.686063  1
  Zr  Zr9  1  0.000000  0.313937  0.313937  1
  Zr  Zr10  1  0.000000  0.000000  0.000000  1
  In  In11  1  0.500000  0.156046  0.632601  1
  In  In12  1  0.500000  0.843954  0.367399  1
  In  In13  1  0.500000  0.632601  0.156046  1
  In  In14  1  0.500000  0.367399  0.843954  1
  In  In15  1  0.500000  0.926593  0.786638  1
  In  In16  1  0.500000  0.073407  0.213362  1
  In  In17  1  0.500000  0.786638  0.926593  1
  In  In18  1  0.500000  0.213362  0.073407  1
  In  In19  1  0.500000  0.500000  0.500000  1
  Ir  Ir20  1  0.500000  0.752726  0.557893  1
  Ir  Ir21  1  0.500000  0.247274  0.442107  1
  Ir  Ir22  1  0.500000  0.557893  0.752726  1
  Ir  Ir23  1  0.500000  0.442107  0.247274  1
