# generated using pymatgen
data_Ga3Cu9(Mo3N)4
_symmetry_space_group_name_H-M   'P 1'
_cell_length_a   7.94526104
_cell_length_b   7.94525570
_cell_length_c   7.94526232
_cell_angle_alpha   59.84324350
_cell_angle_beta   59.84327296
_cell_angle_gamma   59.84341259
_symmetry_Int_Tables_number   1
_chemical_formula_structural   Ga3Cu9(Mo3N)4
_chemical_formula_sum   'Ga3 Cu9 Mo12 N4'
_cell_volume   353.39643781
_cell_formula_units_Z   1
loop_
 _symmetry_equiv_pos_site_id
 _symmetry_equiv_pos_as_xyz
  1  'x, y, z'
loop_
 _atom_site_type_symbol
 _atom_site_label
 _atom_site_symmetry_multiplicity
 _atom_site_fract_x
 _atom_site_fract_y
 _atom_site_fract_z
 _atom_site_occupancy
  Ga  Ga0  1  0.625000  0.125000  0.625000  1
  Ga  Ga1  1  0.625000  0.625000  0.125000  1
  Ga  Ga2  1  0.125000  0.625000  0.625000  1
  Cu  Cu3  1  0.625000  0.625000  0.625000  1
  Cu  Cu4  1  0.832389  0.501002  0.832390  1
  Cu  Cu5  1  0.417606  0.417606  0.749001  1
  Cu  Cu6  1  0.748998  0.417609  0.417608  1
  Cu  Cu7  1  0.415476  0.415475  0.415476  1
  Cu  Cu8  1  0.501002  0.832391  0.832392  1
  Cu  Cu9  1  0.834524  0.834525  0.834524  1
  Cu  Cu10  1  0.832394  0.832394  0.500999  1
  Cu  Cu11  1  0.417611  0.748998  0.417610  1
  Mo  Mo12  1  0.190727  0.190727  0.808876  1
  Mo  Mo13  1  0.441125  0.059273  0.059273  1
  Mo  Mo14  1  0.056190  0.441606  0.441608  1
  Mo  Mo15  1  0.441608  0.441606  0.056190  1
  Mo  Mo16  1  0.441608  0.056190  0.441607  1
  Mo  Mo17  1  0.059274  0.441123  0.059274  1
  Mo  Mo18  1  0.808392  0.193810  0.808393  1
  Mo  Mo19  1  0.808875  0.190727  0.190727  1
  Mo  Mo20  1  0.193810  0.808394  0.808392  1
  Mo  Mo21  1  0.190726  0.808877  0.190726  1
  Mo  Mo22  1  0.059273  0.059273  0.441124  1
  Mo  Mo23  1  0.808392  0.808394  0.193810  1
  N  N24  1  0.125000  0.625000  0.125000  1
  N  N25  1  0.125000  0.125000  0.625000  1
  N  N26  1  0.625000  0.125000  0.125000  1
  N  N27  1  0.125000  0.125000  0.125000  1
