# generated using pymatgen
data_Y2Lu3Zr2Nb(Co4As3)4
_symmetry_space_group_name_H-M   'P 1'
_cell_length_a   12.71635100
_cell_length_b   12.71634988
_cell_length_c   3.81842500
_cell_angle_alpha   90.00000000
_cell_angle_beta   90.00000000
_cell_angle_gamma   120.00000032
_symmetry_Int_Tables_number   1
_chemical_formula_structural   Y2Lu3Zr2Nb(Co4As3)4
_chemical_formula_sum   'Y2 Lu3 Zr2 Nb1 Co16 As12'
_cell_volume   534.73655092
_cell_formula_units_Z   1
loop_
 _symmetry_equiv_pos_site_id
 _symmetry_equiv_pos_as_xyz
  1  'x, y, z'
loop_
 _atom_site_type_symbol
 _atom_site_label
 _atom_site_symmetry_multiplicity
 _atom_site_fract_x
 _atom_site_fract_y
 _atom_site_fract_z
 _atom_site_occupancy
  Y  Y0  1  0.334008  0.666265  0.000000  1
  Y  Y1  1  0.666265  0.334008  0.000000  1
  Lu  Lu2  1  0.182251  0.182251  0.500000  1
  Lu  Lu3  1  0.818901  0.999961  0.500000  1
  Lu  Lu4  1  0.999961  0.818901  0.500000  1
  Zr  Zr5  1  0.440879  0.999989  0.000000  1
  Zr  Zr6  1  0.999989  0.440879  0.000000  1
  Nb  Nb7  1  0.558277  0.558277  0.000000  1
  Co  Co8  1  0.719444  0.719444  0.500000  1
  Co  Co9  1  0.279338  0.000632  0.500000  1
  Co  Co10  1  0.000632  0.279338  0.500000  1
  Co  Co11  1  0.178507  0.372392  0.000000  1
  Co  Co12  1  0.628219  0.801882  0.000000  1
  Co  Co13  1  0.194597  0.823169  0.000000  1
  Co  Co14  1  0.801882  0.628219  0.000000  1
  Co  Co15  1  0.823169  0.194597  0.000000  1
  Co  Co16  1  0.372392  0.178507  0.000000  1
  Co  Co17  1  0.358039  0.480152  0.500000  1
  Co  Co18  1  0.521749  0.875409  0.500000  1
  Co  Co19  1  0.121968  0.643904  0.500000  1
  Co  Co20  1  0.875409  0.521749  0.500000  1
  Co  Co21  1  0.643904  0.121968  0.500000  1
  Co  Co22  1  0.480152  0.358039  0.500000  1
  Co  Co23  1  0.999850  0.999850  0.000000  1
  As  As24  1  0.823921  0.823921  0.000000  1
  As  As25  1  0.176084  0.000465  0.000000  1
  As  As26  1  0.000465  0.176084  0.000000  1
  As  As27  1  0.172959  0.481265  0.500000  1
  As  As28  1  0.519406  0.687963  0.500000  1
  As  As29  1  0.308467  0.827232  0.500000  1
  As  As30  1  0.687963  0.519406  0.500000  1
  As  As31  1  0.827232  0.308467  0.500000  1
  As  As32  1  0.481265  0.172959  0.500000  1
  As  As33  1  0.353865  0.353865  0.000000  1
  As  As34  1  0.650161  0.998429  0.000000  1
  As  As35  1  0.998429  0.650161  0.000000  1
