# generated using pymatgen
data_Yb4AlZn2Os5
_symmetry_space_group_name_H-M   'P 1'
_cell_length_a   5.30973600
_cell_length_b   5.30973636
_cell_length_c   8.82672100
_cell_angle_alpha   90.00000000
_cell_angle_beta   90.00000000
_cell_angle_gamma   119.71185306
_symmetry_Int_Tables_number   1
_chemical_formula_structural   Yb4AlZn2Os5
_chemical_formula_sum   'Yb4 Al1 Zn2 Os5'
_cell_volume   216.13724371
_cell_formula_units_Z   1
loop_
 _symmetry_equiv_pos_site_id
 _symmetry_equiv_pos_as_xyz
  1  'x, y, z'
loop_
 _atom_site_type_symbol
 _atom_site_label
 _atom_site_symmetry_multiplicity
 _atom_site_fract_x
 _atom_site_fract_y
 _atom_site_fract_z
 _atom_site_occupancy
  Yb  Yb0  1  0.337333  0.662667  0.438538  1
  Yb  Yb1  1  0.666596  0.333404  0.561459  1
  Yb  Yb2  1  0.666596  0.333404  0.938541  1
  Yb  Yb3  1  0.337333  0.662667  0.061462  1
  Al  Al4  1  0.835958  0.164042  0.250000  1
  Zn  Zn5  1  0.151329  0.351048  0.750000  1
  Zn  Zn6  1  0.648952  0.848671  0.750000  1
  Os  Os7  1  0.019349  0.980651  0.499975  1
  Os  Os8  1  0.019349  0.980651  0.000025  1
  Os  Os9  1  0.822332  0.653255  0.250000  1
  Os  Os10  1  0.346745  0.177668  0.250000  1
  Os  Os11  1  0.148125  0.851875  0.750000  1
