# generated using pymatgen
data_Tb3Yb(NiPt3)2
_symmetry_space_group_name_H-M   'P 1'
_cell_length_a   5.23351557
_cell_length_b   5.44323684
_cell_length_c   9.34641708
_cell_angle_alpha   73.07055902
_cell_angle_beta   92.68950740
_cell_angle_gamma   121.33470124
_symmetry_Int_Tables_number   1
_chemical_formula_structural   Tb3Yb(NiPt3)2
_chemical_formula_sum   'Tb3 Yb1 Ni2 Pt6'
_cell_volume   215.77698889
_cell_formula_units_Z   1
loop_
 _symmetry_equiv_pos_site_id
 _symmetry_equiv_pos_as_xyz
  1  'x, y, z'
loop_
 _atom_site_type_symbol
 _atom_site_label
 _atom_site_symmetry_multiplicity
 _atom_site_fract_x
 _atom_site_fract_y
 _atom_site_fract_z
 _atom_site_occupancy
  Tb  Tb0  1  0.816381  0.124972  0.566438  1
  Tb  Tb1  1  0.186130  0.878494  0.429140  1
  Tb  Tb2  1  0.681610  0.868640  0.944329  1
  Yb  Yb3  1  0.318390  0.129385  0.059620  1
  Ni  Ni4  1  0.248230  0.498836  0.250559  1
  Ni  Ni5  1  0.749987  0.500311  0.749364  1
  Pt  Pt6  1  0.999547  0.499383  0.000783  1
  Pt  Pt7  1  0.499985  0.499945  0.500097  1
  Pt  Pt8  1  0.750752  0.001519  0.250546  1
  Pt  Pt9  1  0.249117  0.999237  0.749291  1
  Pt  Pt10  1  0.750752  0.498688  0.250546  1
  Pt  Pt11  1  0.249117  0.500590  0.749291  1
