# generated using pymatgen
data_Hf8In4Cu7Ir
_symmetry_space_group_name_H-M   'P 1'
_cell_length_a   7.25729445
_cell_length_b   7.25729445
_cell_length_c   6.80849101
_cell_angle_alpha   90.13139439
_cell_angle_beta   90.13139439
_cell_angle_gamma   90.11568032
_symmetry_Int_Tables_number   1
_chemical_formula_structural   Hf8In4Cu7Ir
_chemical_formula_sum   'Hf8 In4 Cu7 Ir1'
_cell_volume   358.58918151
_cell_formula_units_Z   1
loop_
 _symmetry_equiv_pos_site_id
 _symmetry_equiv_pos_as_xyz
  1  'x, y, z'
loop_
 _atom_site_type_symbol
 _atom_site_label
 _atom_site_symmetry_multiplicity
 _atom_site_fract_x
 _atom_site_fract_y
 _atom_site_fract_z
 _atom_site_occupancy
  Hf  Hf0  1  0.153863  0.153863  0.003957  1
  Hf  Hf1  1  0.851191  0.851191  0.995696  1
  Hf  Hf2  1  0.647096  0.344778  0.494830  1
  Hf  Hf3  1  0.344778  0.647096  0.494830  1
  Hf  Hf4  1  0.684952  0.308980  0.003471  1
  Hf  Hf5  1  0.308980  0.684952  0.003471  1
  Hf  Hf6  1  0.811533  0.811533  0.500890  1
  Hf  Hf7  1  0.192524  0.192524  0.497211  1
  In  In8  1  0.503289  0.993022  0.248444  1
  In  In9  1  0.499755  0.996096  0.748879  1
  In  In10  1  0.993022  0.503289  0.248444  1
  In  In11  1  0.996096  0.499755  0.748879  1
  Cu  Cu12  1  0.622714  0.622714  0.787992  1
  Cu  Cu13  1  0.632710  0.632710  0.204845  1
  Cu  Cu14  1  0.877683  0.125504  0.708337  1
  Cu  Cu15  1  0.877970  0.123408  0.292761  1
  Cu  Cu16  1  0.376191  0.376191  0.794444  1
  Cu  Cu17  1  0.123408  0.877970  0.292761  1
  Cu  Cu18  1  0.125504  0.877683  0.708337  1
  Ir  Ir19  1  0.376741  0.376741  0.221521  1
