# generated using pymatgen
data_Tb6Ti2Fe9Co7P12
_symmetry_space_group_name_H-M   'P 1'
_cell_length_a   3.74164000
_cell_length_b   10.61693059
_cell_length_c   12.27935114
_cell_angle_alpha   90.09417936
_cell_angle_beta   90.00000000
_cell_angle_gamma   90.00000000
_symmetry_Int_Tables_number   1
_chemical_formula_structural   Tb6Ti2Fe9Co7P12
_chemical_formula_sum   'Tb6 Ti2 Fe9 Co7 P12'
_cell_volume   487.79327640
_cell_formula_units_Z   1
loop_
 _symmetry_equiv_pos_site_id
 _symmetry_equiv_pos_as_xyz
  1  'x, y, z'
loop_
 _atom_site_type_symbol
 _atom_site_label
 _atom_site_symmetry_multiplicity
 _atom_site_fract_x
 _atom_site_fract_y
 _atom_site_fract_z
 _atom_site_occupancy
  Tb  Tb0  1  0.000000  0.500036  0.526346  1
  Tb  Tb1  1  0.500000  0.998709  0.473833  1
  Tb  Tb2  1  0.500000  0.823902  0.206625  1
  Tb  Tb3  1  0.500000  0.176634  0.207602  1
  Tb  Tb4  1  0.000000  0.676742  0.793011  1
  Tb  Tb5  1  0.000000  0.323099  0.792349  1
  Ti  Ti6  1  0.500000  0.500444  0.151846  1
  Ti  Ti7  1  0.000000  0.999234  0.848052  1
  Fe  Fe8  1  0.000000  0.499207  0.989962  1
  Fe  Fe9  1  0.500000  0.000515  0.010021  1
  Fe  Fe10  1  0.500000  0.326370  0.998405  1
  Fe  Fe11  1  0.500000  0.672727  0.998335  1
  Fe  Fe12  1  0.000000  0.173441  0.001574  1
  Fe  Fe13  1  0.000000  0.826835  0.001505  1
  Fe  Fe14  1  0.500000  0.297580  0.430861  1
  Fe  Fe15  1  0.500000  0.702880  0.431489  1
  Fe  Fe16  1  0.000000  0.202937  0.569129  1
  Co  Co17  1  0.500000  0.499959  0.703390  1
  Co  Co18  1  0.000000  0.000581  0.296822  1
  Co  Co19  1  0.000000  0.797884  0.569500  1
  Co  Co20  1  0.500000  0.878884  0.705593  1
  Co  Co21  1  0.500000  0.118976  0.705049  1
  Co  Co22  1  0.000000  0.620313  0.294414  1
  Co  Co23  1  0.000000  0.380778  0.294905  1
  P  P24  1  0.500000  0.499737  0.889382  1
  P  P25  1  0.000000  0.000160  0.110425  1
  P  P26  1  0.500000  0.500045  0.352024  1
  P  P27  1  0.000000  0.002563  0.648001  1
  P  P28  1  0.500000  0.306260  0.613182  1
  P  P29  1  0.500000  0.692350  0.613864  1
  P  P30  1  0.000000  0.193969  0.386695  1
  P  P31  1  0.000000  0.806664  0.385352  1
  P  P32  1  0.500000  0.843301  0.890722  1
  P  P33  1  0.500000  0.156010  0.889676  1
  P  P34  1  0.000000  0.656583  0.109585  1
  P  P35  1  0.000000  0.343694  0.110471  1
