# generated using pymatgen
data_Cs2MnVS4
_symmetry_space_group_name_H-M   'P 1'
_cell_length_a   14.51535262
_cell_length_b   12.88961856
_cell_length_c   7.75052586
_cell_angle_alpha   85.54569447
_cell_angle_beta   62.29054385
_cell_angle_gamma   32.16376071
_symmetry_Int_Tables_number   1
_chemical_formula_structural   Cs2MnVS4
_chemical_formula_sum   'Cs4 Mn2 V2 S8'
_cell_volume   507.08508428
_cell_formula_units_Z   2
loop_
 _symmetry_equiv_pos_site_id
 _symmetry_equiv_pos_as_xyz
  1  'x, y, z'
loop_
 _atom_site_type_symbol
 _atom_site_label
 _atom_site_symmetry_multiplicity
 _atom_site_fract_x
 _atom_site_fract_y
 _atom_site_fract_z
 _atom_site_occupancy
  Cs  Cs0  1  0.573092  0.573092  0.926908  1
  Cs  Cs1  1  0.926908  0.926908  0.573092  1
  Cs  Cs2  1  0.323092  0.323092  0.676908  1
  Cs  Cs3  1  0.676908  0.676908  0.323092  1
  Mn  Mn4  1  0.000000  0.000000  0.000000  1
  Mn  Mn5  1  0.250000  0.250000  0.250000  1
  V  V6  1  0.750000  0.750000  0.750000  1
  V  V7  1  0.500000  0.500000  0.500000  1
  S  S8  1  0.230691  0.869549  0.591125  1
  S  S9  1  0.308635  0.591125  0.869549  1
  S  S10  1  0.591125  0.308635  0.230691  1
  S  S11  1  0.869549  0.230691  0.308635  1
  S  S12  1  0.380451  0.019309  0.941365  1
  S  S13  1  0.941365  0.658875  0.380451  1
  S  S14  1  0.658875  0.941365  0.019309  1
  S  S15  1  0.019309  0.380451  0.658875  1
