# generated using pymatgen
data_NdAg6CO11
_symmetry_space_group_name_H-M   'P 1'
_cell_length_a   7.15641516
_cell_length_b   7.15641544
_cell_length_c   7.15641671
_cell_angle_alpha   60.97837612
_cell_angle_beta   60.97837136
_cell_angle_gamma   60.97836728
_symmetry_Int_Tables_number   1
_chemical_formula_structural   NdAg6CO11
_chemical_formula_sum   'Nd1 Ag6 C1 O11'
_cell_volume   264.87439578
_cell_formula_units_Z   1
loop_
 _symmetry_equiv_pos_site_id
 _symmetry_equiv_pos_as_xyz
  1  'x, y, z'
loop_
 _atom_site_type_symbol
 _atom_site_label
 _atom_site_symmetry_multiplicity
 _atom_site_fract_x
 _atom_site_fract_y
 _atom_site_fract_z
 _atom_site_occupancy
  Nd  Nd0  1  0.998800  0.998800  0.998800  1
  Ag  Ag1  1  0.499538  0.000271  0.000271  1
  Ag  Ag2  1  0.500401  0.500401  0.000725  1
  Ag  Ag3  1  0.500401  0.000725  0.500401  1
  Ag  Ag4  1  0.000271  0.000271  0.499538  1
  Ag  Ag5  1  0.000725  0.500401  0.500401  1
  Ag  Ag6  1  0.000271  0.499538  0.000271  1
  C  C7  1  0.500100  0.500100  0.500100  1
  O  O8  1  0.578897  0.145443  0.145443  1
  O  O9  1  0.145443  0.578897  0.145443  1
  O  O10  1  0.141409  0.141409  0.141409  1
  O  O11  1  0.145443  0.145443  0.578897  1
  O  O12  1  0.602636  0.602636  0.294823  1
  O  O13  1  0.602636  0.294823  0.602636  1
  O  O14  1  0.294823  0.602636  0.602636  1
  O  O15  1  0.855779  0.855779  0.418720  1
  O  O16  1  0.855779  0.418720  0.855779  1
  O  O17  1  0.857925  0.857925  0.857925  1
  O  O18  1  0.418720  0.855779  0.855779  1
