# generated using pymatgen
data_RbAlP2O7
_symmetry_space_group_name_H-M   'P 1'
_cell_length_a   9.80714600
_cell_length_b   7.59925127
_cell_length_c   8.25149200
_cell_angle_alpha   74.92716851
_cell_angle_beta   90.00000000
_cell_angle_gamma   90.00000000
_symmetry_Int_Tables_number   1
_chemical_formula_structural   RbAlP2O7
_chemical_formula_sum   'Rb4 Al4 P8 O28'
_cell_volume   593.80166141
_cell_formula_units_Z   4
loop_
 _symmetry_equiv_pos_site_id
 _symmetry_equiv_pos_as_xyz
  1  'x, y, z'
loop_
 _atom_site_type_symbol
 _atom_site_label
 _atom_site_symmetry_multiplicity
 _atom_site_fract_x
 _atom_site_fract_y
 _atom_site_fract_z
 _atom_site_occupancy
  Rb  Rb0  1  0.198733  0.802283  0.042700  1
  Rb  Rb1  1  0.801267  0.197717  0.957300  1
  Rb  Rb2  1  0.301267  0.802283  0.542700  1
  Rb  Rb3  1  0.698733  0.197717  0.457300  1
  Al  Al4  1  0.400002  0.241684  0.743252  1
  Al  Al5  1  0.900002  0.758316  0.756748  1
  Al  Al6  1  0.599998  0.758316  0.256748  1
  Al  Al7  1  0.099998  0.241684  0.243252  1
  P  P8  1  0.598934  0.878626  0.832511  1
  P  P9  1  0.901066  0.878626  0.332511  1
  P  P10  1  0.125704  0.424133  0.819087  1
  P  P11  1  0.401066  0.121374  0.167489  1
  P  P12  1  0.374296  0.424133  0.319087  1
  P  P13  1  0.874296  0.575867  0.180913  1
  P  P14  1  0.625704  0.575867  0.680913  1
  P  P15  1  0.098934  0.121374  0.667489  1
  O  O16  1  0.936991  0.385307  0.237203  1
  O  O17  1  0.042181  0.304935  0.711940  1
  O  O18  1  0.724333  0.567465  0.236750  1
  O  O19  1  0.563009  0.385307  0.737203  1
  O  O20  1  0.101089  0.326049  0.001998  1
  O  O21  1  0.588835  0.844532  0.020528  1
  O  O22  1  0.898911  0.673951  0.998002  1
  O  O23  1  0.601089  0.673951  0.498002  1
  O  O24  1  0.009094  0.966273  0.767482  1
  O  O25  1  0.775667  0.567465  0.736750  1
  O  O26  1  0.745530  0.910324  0.765227  1
  O  O27  1  0.088835  0.155468  0.479472  1
  O  O28  1  0.254470  0.089676  0.234773  1
  O  O29  1  0.063009  0.614693  0.762797  1
  O  O30  1  0.398911  0.326049  0.501998  1
  O  O31  1  0.957819  0.695065  0.288060  1
  O  O32  1  0.457819  0.304935  0.211940  1
  O  O33  1  0.990906  0.033727  0.232518  1
  O  O34  1  0.509094  0.033727  0.732518  1
  O  O35  1  0.224333  0.432535  0.263250  1
  O  O36  1  0.542181  0.695065  0.788060  1
  O  O37  1  0.436991  0.614693  0.262797  1
  O  O38  1  0.245530  0.089676  0.734773  1
  O  O39  1  0.490906  0.966273  0.267482  1
  O  O40  1  0.411165  0.155468  0.979472  1
  O  O41  1  0.911165  0.844532  0.520528  1
  O  O42  1  0.754470  0.910324  0.265227  1
  O  O43  1  0.275667  0.432535  0.763250  1
