# generated using pymatgen
data_Gd3Ga5Ni
_symmetry_space_group_name_H-M   'P 1'
_cell_length_a   6.94460000
_cell_length_b   6.94460063
_cell_length_c   4.26186000
_cell_angle_alpha   90.00000000
_cell_angle_beta   90.00000000
_cell_angle_gamma   120.00027329
_symmetry_Int_Tables_number   1
_chemical_formula_structural   Gd3Ga5Ni
_chemical_formula_sum   'Gd3 Ga5 Ni1'
_cell_volume   178.00128035
_cell_formula_units_Z   1
loop_
 _symmetry_equiv_pos_site_id
 _symmetry_equiv_pos_as_xyz
  1  'x, y, z'
loop_
 _atom_site_type_symbol
 _atom_site_label
 _atom_site_symmetry_multiplicity
 _atom_site_fract_x
 _atom_site_fract_y
 _atom_site_fract_z
 _atom_site_occupancy
  Gd  Gd0  1  0.594188  0.999558  0.500001  1
  Gd  Gd1  1  0.405591  0.405591  0.500001  1
  Gd  Gd2  1  0.999558  0.594189  0.500001  1
  Ga  Ga3  1  0.233523  0.999857  0.000000  1
  Ga  Ga4  1  0.999858  0.233523  0.000000  1
  Ga  Ga5  1  0.666532  0.333390  0.000000  1
  Ga  Ga6  1  0.333391  0.666532  0.000000  1
  Ga  Ga7  1  0.766147  0.766147  0.000000  1
  Ni  Ni8  1  0.001313  0.001312  0.500001  1
