# generated using pymatgen
data_Tb3Er2In4CoPt
_symmetry_space_group_name_H-M   'P 1'
_cell_length_a   3.60711500
_cell_length_b   8.13087780
_cell_length_c   18.17360056
_cell_angle_alpha   89.92200115
_cell_angle_beta   90.00000000
_cell_angle_gamma   90.00000000
_symmetry_Int_Tables_number   1
_chemical_formula_structural   Tb3Er2In4CoPt
_chemical_formula_sum   'Tb6 Er4 In8 Co2 Pt2'
_cell_volume   533.01324209
_cell_formula_units_Z   2
loop_
 _symmetry_equiv_pos_site_id
 _symmetry_equiv_pos_as_xyz
  1  'x, y, z'
loop_
 _atom_site_type_symbol
 _atom_site_label
 _atom_site_symmetry_multiplicity
 _atom_site_fract_x
 _atom_site_fract_y
 _atom_site_fract_z
 _atom_site_occupancy
  Tb  Tb0  1  0.000000  0.232628  0.223898  1
  Tb  Tb1  1  0.000000  0.767372  0.776102  1
  Tb  Tb2  1  0.000000  0.244064  0.719460  1
  Tb  Tb3  1  0.000000  0.755936  0.280540  1
  Tb  Tb4  1  0.000000  0.000000  0.000000  1
  Tb  Tb5  1  0.000000  0.500000  0.500000  1
  Er  Er6  1  0.000000  0.112970  0.409625  1
  Er  Er7  1  0.000000  0.887030  0.590375  1
  Er  Er8  1  0.000000  0.382061  0.912985  1
  Er  Er9  1  0.000000  0.617939  0.087015  1
  In  In10  1  0.500000  0.422149  0.351131  1
  In  In11  1  0.500000  0.577851  0.648869  1
  In  In12  1  0.500000  0.071772  0.847889  1
  In  In13  1  0.500000  0.928228  0.152111  1
  In  In14  1  0.500000  0.294180  0.067146  1
  In  In15  1  0.500000  0.705820  0.932854  1
  In  In16  1  0.500000  0.202147  0.568161  1
  In  In17  1  0.500000  0.797853  0.431839  1
  Co  Co18  1  0.500000  0.018139  0.306110  1
  Co  Co19  1  0.500000  0.981861  0.693890  1
  Pt  Pt20  1  0.500000  0.478258  0.803404  1
  Pt  Pt21  1  0.500000  0.521742  0.196596  1
