# generated using pymatgen
data_Zr6Al16Os4Au3
_symmetry_space_group_name_H-M   'P 1'
_cell_length_a   8.84180398
_cell_length_b   8.81345866
_cell_length_c   8.84180368
_cell_angle_alpha   60.10600061
_cell_angle_beta   59.78802272
_cell_angle_gamma   60.10600243
_symmetry_Int_Tables_number   1
_chemical_formula_structural   Zr6Al16Os4Au3
_chemical_formula_sum   'Zr6 Al16 Os4 Au3'
_cell_volume   487.19666886
_cell_formula_units_Z   1
loop_
 _symmetry_equiv_pos_site_id
 _symmetry_equiv_pos_as_xyz
  1  'x, y, z'
loop_
 _atom_site_type_symbol
 _atom_site_label
 _atom_site_symmetry_multiplicity
 _atom_site_fract_x
 _atom_site_fract_y
 _atom_site_fract_z
 _atom_site_occupancy
  Zr  Zr0  1  0.700280  0.700280  0.299720  1
  Zr  Zr1  1  0.335286  0.664714  0.335286  1
  Zr  Zr2  1  0.700280  0.299720  0.299720  1
  Zr  Zr3  1  0.299720  0.299720  0.700280  1
  Zr  Zr4  1  0.664714  0.335286  0.664714  1
  Zr  Zr5  1  0.299720  0.700280  0.700280  1
  Al  Al6  1  0.898540  0.865918  0.369624  1
  Al  Al7  1  0.865918  0.369624  0.865918  1
  Al  Al8  1  0.369624  0.865918  0.898540  1
  Al  Al9  1  0.865918  0.898540  0.865918  1
  Al  Al10  1  0.101460  0.134082  0.630376  1
  Al  Al11  1  0.134082  0.630376  0.134082  1
  Al  Al12  1  0.630376  0.134082  0.101460  1
  Al  Al13  1  0.134082  0.101460  0.134082  1
  Al  Al14  1  0.658620  0.662066  0.017249  1
  Al  Al15  1  0.662066  0.017249  0.662066  1
  Al  Al16  1  0.017249  0.662066  0.658620  1
  Al  Al17  1  0.662066  0.658620  0.662066  1
  Al  Al18  1  0.341380  0.337934  0.982751  1
  Al  Al19  1  0.337934  0.982751  0.337934  1
  Al  Al20  1  0.982751  0.337934  0.341380  1
  Al  Al21  1  0.337934  0.341380  0.337934  1
  Os  Os22  1  0.000000  0.000000  0.500000  1
  Os  Os23  1  0.000000  0.500000  0.500000  1
  Os  Os24  1  0.500000  0.500000  0.000000  1
  Os  Os25  1  0.500000  0.000000  0.000000  1
  Au  Au26  1  0.000000  0.000000  0.000000  1
  Au  Au27  1  0.500000  0.000000  0.500000  1
  Au  Au28  1  0.000000  0.500000  0.000000  1
