# generated using pymatgen
data_Sc4Al24Ir2Pt7
_symmetry_space_group_name_H-M   'P 1'
_cell_length_a   7.44218948
_cell_length_b   7.44301431
_cell_length_c   13.05159570
_cell_angle_alpha   84.50670557
_cell_angle_beta   100.86963384
_cell_angle_gamma   119.81202089
_symmetry_Int_Tables_number   1
_chemical_formula_structural   Sc4Al24Ir2Pt7
_chemical_formula_sum   'Sc4 Al24 Ir2 Pt7'
_cell_volume   616.02688806
_cell_formula_units_Z   1
loop_
 _symmetry_equiv_pos_site_id
 _symmetry_equiv_pos_as_xyz
  1  'x, y, z'
loop_
 _atom_site_type_symbol
 _atom_site_label
 _atom_site_symmetry_multiplicity
 _atom_site_fract_x
 _atom_site_fract_y
 _atom_site_fract_z
 _atom_site_occupancy
  Sc  Sc0  1  0.731661  0.998355  0.188746  1
  Sc  Sc1  1  0.267099  0.001230  0.811072  1
  Sc  Sc2  1  0.062269  0.669744  0.189240  1
  Sc  Sc3  1  0.938671  0.331156  0.811036  1
  Al  Al4  1  0.814286  0.874646  0.817847  1
  Al  Al5  1  0.186142  0.124605  0.182137  1
  Al  Al6  1  0.986966  0.669146  0.943495  1
  Al  Al7  1  0.018351  0.334359  0.055991  1
  Al  Al8  1  0.391981  0.662699  0.819043  1
  Al  Al9  1  0.606142  0.336309  0.182361  1
  Al  Al10  1  0.887267  0.664999  0.679028  1
  Al  Al11  1  0.112755  0.334695  0.320239  1
  Al  Al12  1  0.602543  0.453856  0.817203  1
  Al  Al13  1  0.397855  0.548365  0.181374  1
  Al  Al14  1  0.229744  0.337135  0.676807  1
  Al  Al15  1  0.770543  0.662817  0.323185  1
  Al  Al16  1  0.853759  0.333481  0.560585  1
  Al  Al17  1  0.187307  0.999568  0.560541  1
  Al  Al18  1  0.813549  0.999918  0.439496  1
  Al  Al19  1  0.349641  0.993874  0.056503  1
  Al  Al20  1  0.647126  0.000637  0.944225  1
  Al  Al21  1  0.558761  0.995153  0.679566  1
  Al  Al22  1  0.441635  0.004524  0.320841  1
  Al  Al23  1  0.522302  0.668254  0.563101  1
  Al  Al24  1  0.477830  0.331875  0.436745  1
  Al  Al25  1  0.685693  0.673499  0.046784  1
  Al  Al26  1  0.310706  0.329960  0.953244  1
  Al  Al27  1  0.146633  0.665668  0.439640  1
  Ir  Ir28  1  0.328487  0.671443  0.000047  1
  Ir  Ir29  1  0.999732  0.000254  0.999999  1
  Pt  Pt30  1  0.546021  0.324201  0.637348  1
  Pt  Pt31  1  0.454073  0.675362  0.362320  1
  Pt  Pt32  1  0.888508  0.008616  0.638967  1
  Pt  Pt33  1  0.111679  0.991184  0.361029  1
  Pt  Pt34  1  0.671686  0.328476  0.999950  1
  Pt  Pt35  1  0.203979  0.667023  0.639132  1
  Pt  Pt36  1  0.796619  0.332910  0.361134  1
