# generated using pymatgen
data_Ce3Sn3Ir2Os
_symmetry_space_group_name_H-M   'P 1'
_cell_length_a   7.47910100
_cell_length_b   7.47910121
_cell_length_c   4.10287500
_cell_angle_alpha   90.00000000
_cell_angle_beta   90.00000000
_cell_angle_gamma   119.99999463
_symmetry_Int_Tables_number   1
_chemical_formula_structural   Ce3Sn3Ir2Os
_chemical_formula_sum   'Ce3 Sn3 Ir2 Os1'
_cell_volume   198.75485667
_cell_formula_units_Z   1
loop_
 _symmetry_equiv_pos_site_id
 _symmetry_equiv_pos_as_xyz
  1  'x, y, z'
loop_
 _atom_site_type_symbol
 _atom_site_label
 _atom_site_symmetry_multiplicity
 _atom_site_fract_x
 _atom_site_fract_y
 _atom_site_fract_z
 _atom_site_occupancy
  Ce  Ce0  1  0.410968  0.410968  0.000000  1
  Ce  Ce1  1  0.589032  0.000000  0.000000  1
  Ce  Ce2  1  0.000000  0.589032  0.000000  1
  Sn  Sn3  1  0.000000  0.251465  0.500000  1
  Sn  Sn4  1  0.748535  0.748535  0.500000  1
  Sn  Sn5  1  0.251465  0.000000  0.500000  1
  Ir  Ir6  1  0.666667  0.333333  0.500000  1
  Ir  Ir7  1  0.333333  0.666667  0.500000  1
  Os  Os8  1  0.000000  0.000000  0.000000  1
