# generated using pymatgen
data_Ta6Ti3Ga6B2Ru
_symmetry_space_group_name_H-M   'P 1'
_cell_length_a   7.76883000
_cell_length_b   7.76882951
_cell_length_c   5.17984300
_cell_angle_alpha   90.00000000
_cell_angle_beta   90.00000000
_cell_angle_gamma   120.00001058
_symmetry_Int_Tables_number   1
_chemical_formula_structural   Ta6Ti3Ga6B2Ru
_chemical_formula_sum   'Ta6 Ti3 Ga6 B2 Ru1'
_cell_volume   270.74371962
_cell_formula_units_Z   1
loop_
 _symmetry_equiv_pos_site_id
 _symmetry_equiv_pos_as_xyz
  1  'x, y, z'
loop_
 _atom_site_type_symbol
 _atom_site_label
 _atom_site_symmetry_multiplicity
 _atom_site_fract_x
 _atom_site_fract_y
 _atom_site_fract_z
 _atom_site_occupancy
  Ta  Ta0  1  0.241541  0.001630  0.252519  1
  Ta  Ta1  1  0.760089  0.001630  0.747481  1
  Ta  Ta2  1  0.998370  0.239911  0.252519  1
  Ta  Ta3  1  0.998370  0.758459  0.747481  1
  Ta  Ta4  1  0.760089  0.758459  0.252519  1
  Ta  Ta5  1  0.241541  0.239911  0.747481  1
  Ti  Ti6  1  0.666667  0.333333  0.000000  1
  Ti  Ti7  1  0.666667  0.333333  0.500000  1
  Ti  Ti8  1  0.333333  0.666667  0.500000  1
  Ga  Ga9  1  0.593411  0.997351  0.246496  1
  Ga  Ga10  1  0.403940  0.997351  0.753504  1
  Ga  Ga11  1  0.002649  0.596060  0.246496  1
  Ga  Ga12  1  0.002649  0.406589  0.753504  1
  Ga  Ga13  1  0.403940  0.406589  0.246496  1
  Ga  Ga14  1  0.593411  0.596060  0.753504  1
  B  B15  1  0.000000  0.000000  0.000000  1
  B  B16  1  0.000000  0.000000  0.500000  1
  Ru  Ru17  1  0.333333  0.666667  0.000000  1
