# generated using pymatgen
data_CeSmEr6(Si3Ir)4
_symmetry_space_group_name_H-M   'P 1'
_cell_length_a   8.17146700
_cell_length_b   8.17146674
_cell_length_c   7.93297300
_cell_angle_alpha   90.00000000
_cell_angle_beta   90.00000000
_cell_angle_gamma   119.99999699
_symmetry_Int_Tables_number   1
_chemical_formula_structural   CeSmEr6(Si3Ir)4
_chemical_formula_sum   'Ce1 Sm1 Er6 Si12 Ir4'
_cell_volume   458.74006280
_cell_formula_units_Z   1
loop_
 _symmetry_equiv_pos_site_id
 _symmetry_equiv_pos_as_xyz
  1  'x, y, z'
loop_
 _atom_site_type_symbol
 _atom_site_label
 _atom_site_symmetry_multiplicity
 _atom_site_fract_x
 _atom_site_fract_y
 _atom_site_fract_z
 _atom_site_occupancy
  Ce  Ce0  1  0.000000  0.000000  0.250000  1
  Sm  Sm1  1  0.000000  0.000000  0.750000  1
  Er  Er2  1  0.491696  0.508304  0.250000  1
  Er  Er3  1  0.491696  0.983393  0.250000  1
  Er  Er4  1  0.016607  0.508304  0.250000  1
  Er  Er5  1  0.509461  0.490539  0.750000  1
  Er  Er6  1  0.981078  0.490539  0.750000  1
  Er  Er7  1  0.509461  0.018922  0.750000  1
  Si  Si8  1  0.832856  0.167144  0.499757  1
  Si  Si9  1  0.832856  0.665712  0.499757  1
  Si  Si10  1  0.334288  0.167144  0.499757  1
  Si  Si11  1  0.832856  0.167144  0.000243  1
  Si  Si12  1  0.832856  0.665712  0.000243  1
  Si  Si13  1  0.334288  0.167144  0.000243  1
  Si  Si14  1  0.167928  0.832072  0.002503  1
  Si  Si15  1  0.664146  0.832072  0.002503  1
  Si  Si16  1  0.167928  0.335854  0.002503  1
  Si  Si17  1  0.167928  0.832072  0.497497  1
  Si  Si18  1  0.664146  0.832072  0.497497  1
  Si  Si19  1  0.167928  0.335854  0.497497  1
  Ir  Ir20  1  0.666667  0.333333  0.468702  1
  Ir  Ir21  1  0.666667  0.333333  0.031298  1
  Ir  Ir22  1  0.333333  0.666667  0.963268  1
  Ir  Ir23  1  0.333333  0.666667  0.536732  1
