# generated using pymatgen
data_TbDyEr2(WO6)2
_symmetry_space_group_name_H-M   'P 1'
_cell_length_a   5.39353200
_cell_length_b   7.69469344
_cell_length_c   11.43977082
_cell_angle_alpha   75.45212521
_cell_angle_beta   90.00000000
_cell_angle_gamma   90.00000000
_symmetry_Int_Tables_number   1
_chemical_formula_structural   TbDyEr2(WO6)2
_chemical_formula_sum   'Tb2 Dy2 Er4 W4 O24'
_cell_volume   459.54652539
_cell_formula_units_Z   2
loop_
 _symmetry_equiv_pos_site_id
 _symmetry_equiv_pos_as_xyz
  1  'x, y, z'
loop_
 _atom_site_type_symbol
 _atom_site_label
 _atom_site_symmetry_multiplicity
 _atom_site_fract_x
 _atom_site_fract_y
 _atom_site_fract_z
 _atom_site_occupancy
  Tb  Tb0  1  0.684273  0.500000  0.250000  1
  Tb  Tb1  1  0.315727  0.500000  0.750000  1
  Dy  Dy2  1  0.741295  0.000000  0.250000  1
  Dy  Dy3  1  0.258705  0.000000  0.750000  1
  Er  Er4  1  0.183676  0.205483  0.422011  1
  Er  Er5  1  0.183676  0.794517  0.077989  1
  Er  Er6  1  0.816324  0.794517  0.577989  1
  Er  Er7  1  0.816324  0.205483  0.922011  1
  W  W8  1  0.255824  0.275860  0.114799  1
  W  W9  1  0.255824  0.724140  0.385201  1
  W  W10  1  0.744176  0.724140  0.885201  1
  W  W11  1  0.744176  0.275860  0.614799  1
  O  O12  1  0.456652  0.208404  0.273739  1
  O  O13  1  0.456652  0.791596  0.226261  1
  O  O14  1  0.543348  0.791596  0.726261  1
  O  O15  1  0.543348  0.208404  0.773739  1
  O  O16  1  0.045235  0.059663  0.103585  1
  O  O17  1  0.045235  0.940337  0.396415  1
  O  O18  1  0.954765  0.940337  0.896415  1
  O  O19  1  0.954765  0.059663  0.603585  1
  O  O20  1  0.981929  0.287651  0.229337  1
  O  O21  1  0.981929  0.712349  0.270663  1
  O  O22  1  0.018071  0.712349  0.770663  1
  O  O23  1  0.018071  0.287651  0.729337  1
  O  O24  1  0.850644  0.364533  0.451693  1
  O  O25  1  0.850644  0.635467  0.048307  1
  O  O26  1  0.149356  0.635467  0.548307  1
  O  O27  1  0.149356  0.364533  0.951693  1
  O  O28  1  0.641712  0.510392  0.613901  1
  O  O29  1  0.641712  0.489608  0.886099  1
  O  O30  1  0.358288  0.489608  0.386099  1
  O  O31  1  0.358288  0.510392  0.113901  1
  O  O32  1  0.464318  0.154231  0.568807  1
  O  O33  1  0.464318  0.845769  0.931193  1
  O  O34  1  0.535682  0.845769  0.431193  1
  O  O35  1  0.535682  0.154231  0.068807  1
