# generated using pymatgen
data_Er4TmIr3
_symmetry_space_group_name_H-M   'P 1'
_cell_length_a   10.78114300
_cell_length_b   10.78114300
_cell_length_c   6.32072700
_cell_angle_alpha   90.00000000
_cell_angle_beta   90.00000000
_cell_angle_gamma   90.00000000
_symmetry_Int_Tables_number   1
_chemical_formula_structural   Er4TmIr3
_chemical_formula_sum   'Er16 Tm4 Ir12'
_cell_volume   734.67734195
_cell_formula_units_Z   4
loop_
 _symmetry_equiv_pos_site_id
 _symmetry_equiv_pos_as_xyz
  1  'x, y, z'
loop_
 _atom_site_type_symbol
 _atom_site_label
 _atom_site_symmetry_multiplicity
 _atom_site_fract_x
 _atom_site_fract_y
 _atom_site_fract_z
 _atom_site_occupancy
  Er  Er0  1  0.291037  0.087726  0.377157  1
  Er  Er1  1  0.291037  0.912274  0.877157  1
  Er  Er2  1  0.708963  0.087726  0.877157  1
  Er  Er3  1  0.708963  0.912274  0.377157  1
  Er  Er4  1  0.587726  0.791037  0.877157  1
  Er  Er5  1  0.587726  0.208963  0.377157  1
  Er  Er6  1  0.412274  0.791037  0.377157  1
  Er  Er7  1  0.412274  0.208963  0.877157  1
  Er  Er8  1  0.208963  0.412274  0.622843  1
  Er  Er9  1  0.208963  0.587726  0.122843  1
  Er  Er10  1  0.791037  0.412274  0.122843  1
  Er  Er11  1  0.791037  0.587726  0.622843  1
  Er  Er12  1  0.912274  0.708963  0.122843  1
  Er  Er13  1  0.912274  0.291037  0.622843  1
  Er  Er14  1  0.087726  0.708963  0.622843  1
  Er  Er15  1  0.087726  0.291037  0.122843  1
  Tm  Tm16  1  0.000000  0.000000  0.500000  1
  Tm  Tm17  1  0.000000  0.000000  0.000000  1
  Tm  Tm18  1  0.500000  0.500000  0.000000  1
  Tm  Tm19  1  0.500000  0.500000  0.500000  1
  Ir  Ir20  1  0.846635  0.153365  0.250000  1
  Ir  Ir21  1  0.846635  0.846635  0.750000  1
  Ir  Ir22  1  0.153365  0.153365  0.750000  1
  Ir  Ir23  1  0.153365  0.846635  0.250000  1
  Ir  Ir24  1  0.653365  0.346635  0.750000  1
  Ir  Ir25  1  0.653365  0.653365  0.250000  1
  Ir  Ir26  1  0.346635  0.346635  0.250000  1
  Ir  Ir27  1  0.346635  0.653365  0.750000  1
  Ir  Ir28  1  0.500000  0.000000  0.121550  1
  Ir  Ir29  1  0.500000  0.000000  0.621550  1
  Ir  Ir30  1  0.000000  0.500000  0.878450  1
  Ir  Ir31  1  0.000000  0.500000  0.378450  1
