# generated using pymatgen
data_In5Sn2Ir3
_symmetry_space_group_name_H-M   'P 1'
_cell_length_a   8.26007602
_cell_length_b   8.24723079
_cell_length_c   8.26007617
_cell_angle_alpha   110.63112179
_cell_angle_beta   108.88600351
_cell_angle_gamma   108.96660222
_symmetry_Int_Tables_number   1
_chemical_formula_structural   In5Sn2Ir3
_chemical_formula_sum   'In10 Sn4 Ir6'
_cell_volume   432.69465602
_cell_formula_units_Z   2
loop_
 _symmetry_equiv_pos_site_id
 _symmetry_equiv_pos_as_xyz
  1  'x, y, z'
loop_
 _atom_site_type_symbol
 _atom_site_label
 _atom_site_symmetry_multiplicity
 _atom_site_fract_x
 _atom_site_fract_y
 _atom_site_fract_z
 _atom_site_occupancy
  In  In0  1  0.001203  0.998883  0.679738  1
  In  In1  1  0.319144  0.998883  0.997680  1
  In  In2  1  0.684464  0.679196  0.678179  1
  In  In3  1  0.002866  0.320614  0.000405  1
  In  In4  1  0.320208  0.320614  0.317748  1
  In  In5  1  0.001017  0.679196  0.994732  1
  In  In6  1  0.247811  0.745977  0.498166  1
  In  In7  1  0.746574  0.249257  0.502683  1
  In  In8  1  0.749397  0.499520  0.249057  1
  In  In9  1  0.250463  0.499520  0.750123  1
  Sn  Sn10  1  0.498483  0.751596  0.253113  1
  Sn  Sn11  1  0.502237  0.255132  0.752896  1
  Sn  Sn12  1  0.002640  0.000688  0.324911  1
  Sn  Sn13  1  0.675777  0.000688  0.998048  1
  Ir  Ir14  1  0.651641  0.999734  0.658074  1
  Ir  Ir15  1  0.660192  0.666445  0.006253  1
  Ir  Ir16  1  0.350282  0.351198  0.000916  1
  Ir  Ir17  1  0.999882  0.648045  0.648163  1
  Ir  Ir18  1  0.994060  0.335082  0.341021  1
  Ir  Ir19  1  0.341659  0.999734  0.348093  1
