# generated using pymatgen
data_LaNd2ThTe6
_symmetry_space_group_name_H-M   'P 1'
_cell_length_a   4.42889200
_cell_length_b   12.05579490
_cell_length_c   12.35276854
_cell_angle_alpha   89.85969700
_cell_angle_beta   90.00000000
_cell_angle_gamma   90.00000000
_symmetry_Int_Tables_number   1
_chemical_formula_structural   LaNd2ThTe6
_chemical_formula_sum   'La2 Nd4 Th2 Te12'
_cell_volume   659.55944304
_cell_formula_units_Z   2
loop_
 _symmetry_equiv_pos_site_id
 _symmetry_equiv_pos_as_xyz
  1  'x, y, z'
loop_
 _atom_site_type_symbol
 _atom_site_label
 _atom_site_symmetry_multiplicity
 _atom_site_fract_x
 _atom_site_fract_y
 _atom_site_fract_z
 _atom_site_occupancy
  La  La0  1  0.750000  0.005622  0.804533  1
  La  La1  1  0.250000  0.994378  0.195467  1
  Nd  Nd2  1  0.250000  0.185406  0.517708  1
  Nd  Nd3  1  0.750000  0.814594  0.482292  1
  Nd  Nd4  1  0.750000  0.690437  0.978888  1
  Nd  Nd5  1  0.250000  0.309563  0.021112  1
  Th  Th6  1  0.250000  0.488819  0.697704  1
  Th  Th7  1  0.750000  0.511181  0.302296  1
  Te  Te8  1  0.250000  0.875044  0.952095  1
  Te  Te9  1  0.750000  0.124956  0.047905  1
  Te  Te10  1  0.750000  0.378278  0.540806  1
  Te  Te11  1  0.250000  0.621722  0.459194  1
  Te  Te12  1  0.250000  0.211268  0.772434  1
  Te  Te13  1  0.750000  0.788732  0.227566  1
  Te  Te14  1  0.750000  0.688229  0.718111  1
  Te  Te15  1  0.250000  0.311771  0.281889  1
  Te  Te16  1  0.250000  0.555210  0.116176  1
  Te  Te17  1  0.750000  0.444790  0.883824  1
  Te  Te18  1  0.750000  0.057653  0.379062  1
  Te  Te19  1  0.250000  0.942347  0.620938  1
