# generated using pymatgen
data_Cs(TaTe2)3
_symmetry_space_group_name_H-M   'P 1'
_cell_length_a   6.46229700
_cell_length_b   6.46229730
_cell_length_c   20.25323700
_cell_angle_alpha   90.00000000
_cell_angle_beta   90.00000000
_cell_angle_gamma   119.99999336
_symmetry_Int_Tables_number   1
_chemical_formula_structural   Cs(TaTe2)3
_chemical_formula_sum   'Cs2 Ta6 Te12'
_cell_volume   732.48536699
_cell_formula_units_Z   2
loop_
 _symmetry_equiv_pos_site_id
 _symmetry_equiv_pos_as_xyz
  1  'x, y, z'
loop_
 _atom_site_type_symbol
 _atom_site_label
 _atom_site_symmetry_multiplicity
 _atom_site_fract_x
 _atom_site_fract_y
 _atom_site_fract_z
 _atom_site_occupancy
  Cs  Cs0  1  0.000000  0.000000  0.500000  1
  Cs  Cs1  1  0.000000  0.000000  0.000000  1
  Ta  Ta2  1  0.000000  0.000000  0.250000  1
  Ta  Ta3  1  0.000000  0.000000  0.750000  1
  Ta  Ta4  1  0.333333  0.666667  0.250000  1
  Ta  Ta5  1  0.666667  0.333333  0.750000  1
  Ta  Ta6  1  0.666667  0.333333  0.250000  1
  Ta  Ta7  1  0.333333  0.666667  0.750000  1
  Te  Te8  1  0.335033  0.000000  0.160493  1
  Te  Te9  1  0.000000  0.335033  0.160493  1
  Te  Te10  1  0.664967  0.664967  0.160493  1
  Te  Te11  1  0.335033  0.335033  0.660493  1
  Te  Te12  1  0.664967  0.664967  0.339507  1
  Te  Te13  1  0.664967  0.000000  0.660493  1
  Te  Te14  1  0.000000  0.664967  0.660493  1
  Te  Te15  1  0.000000  0.664967  0.839507  1
  Te  Te16  1  0.335033  0.335033  0.839507  1
  Te  Te17  1  0.000000  0.335033  0.339507  1
  Te  Te18  1  0.335033  0.000000  0.339507  1
  Te  Te19  1  0.664967  0.000000  0.839507  1
