# generated using pymatgen
data_Rb2Zr(SeO4)3
_symmetry_space_group_name_H-M   'P 1'
_cell_length_a   5.11344430
_cell_length_b   8.28595264
_cell_length_c   9.97692555
_cell_angle_alpha   114.55144474
_cell_angle_beta   107.56148862
_cell_angle_gamma   89.97340675
_symmetry_Int_Tables_number   1
_chemical_formula_structural   Rb2Zr(SeO4)3
_chemical_formula_sum   'Rb2 Zr1 Se3 O12'
_cell_volume   362.75847801
_cell_formula_units_Z   1
loop_
 _symmetry_equiv_pos_site_id
 _symmetry_equiv_pos_as_xyz
  1  'x, y, z'
loop_
 _atom_site_type_symbol
 _atom_site_label
 _atom_site_symmetry_multiplicity
 _atom_site_fract_x
 _atom_site_fract_y
 _atom_site_fract_z
 _atom_site_occupancy
  Rb  Rb0  1  0.556526  0.821906  0.824656  1
  Rb  Rb1  1  0.255359  0.457365  0.095483  1
  Zr  Zr2  1  0.906361  0.040304  0.460013  1
  Se  Se3  1  0.553775  0.272650  0.743419  1
  Se  Se4  1  0.258882  0.989440  0.176704  1
  Se  Se5  1  0.905945  0.681756  0.460055  1
  O  O6  1  0.317986  0.793831  0.061552  1
  O  O7  1  0.955603  0.505865  0.318827  1
  O  O8  1  0.036458  0.954808  0.262978  1
  O  O9  1  0.684485  0.485497  0.835113  1
  O  O10  1  0.776333  0.151929  0.657072  1
  O  O11  1  0.556599  0.107500  0.329127  1
  O  O12  1  0.255909  0.238329  0.590985  1
  O  O13  1  0.652036  0.786728  0.380899  1
  O  O14  1  0.160133  0.865573  0.538934  1
  O  O15  1  0.127698  0.110743  0.085246  1
  O  O16  1  0.494786  0.192022  0.858432  1
  O  O17  1  0.856224  0.647944  0.601685  1
