# generated using pymatgen
data_RbTbCeSe6
_symmetry_space_group_name_H-M   'P 1'
_cell_length_a   11.78737189
_cell_length_b   11.78737203
_cell_length_c   11.78737091
_cell_angle_alpha   159.32253849
_cell_angle_beta   152.19536453
_cell_angle_gamma   34.90256754
_symmetry_Int_Tables_number   1
_chemical_formula_structural   RbTbCeSe6
_chemical_formula_sum   'Rb1 Tb1 Ce1 Se6'
_cell_volume   269.48003344
_cell_formula_units_Z   1
loop_
 _symmetry_equiv_pos_site_id
 _symmetry_equiv_pos_as_xyz
  1  'x, y, z'
loop_
 _atom_site_type_symbol
 _atom_site_label
 _atom_site_symmetry_multiplicity
 _atom_site_fract_x
 _atom_site_fract_y
 _atom_site_fract_z
 _atom_site_occupancy
  Rb  Rb0  1  0.995948  0.995948  0.000000  1
  Tb  Tb1  1  0.315874  0.815874  0.500000  1
  Ce  Ce2  1  0.688308  0.188308  0.500000  1
  Se  Se3  1  0.178625  0.392285  0.786340  1
  Se  Se4  1  0.224467  0.224467  0.000000  1
  Se  Se5  1  0.397619  0.608026  0.789595  1
  Se  Se6  1  0.605946  0.392285  0.213660  1
  Se  Se7  1  0.818432  0.608026  0.210405  1
  Se  Se8  1  0.774782  0.774782  0.000000  1
