# generated using pymatgen
data_Ba10Tc3OsO20
_symmetry_space_group_name_H-M   'P 1'
_cell_length_a   6.14208966
_cell_length_b   6.14208969
_cell_length_c   17.82832677
_cell_angle_alpha   90.02926325
_cell_angle_beta   89.97073682
_cell_angle_gamma   120.66633175
_symmetry_Int_Tables_number   1
_chemical_formula_structural   Ba10Tc3OsO20
_chemical_formula_sum   'Ba10 Tc3 Os1 O20'
_cell_volume   578.51961096
_cell_formula_units_Z   1
loop_
 _symmetry_equiv_pos_site_id
 _symmetry_equiv_pos_as_xyz
  1  'x, y, z'
loop_
 _atom_site_type_symbol
 _atom_site_label
 _atom_site_symmetry_multiplicity
 _atom_site_fract_x
 _atom_site_fract_y
 _atom_site_fract_z
 _atom_site_occupancy
  Ba  Ba0  1  0.833545  0.166455  0.749871  1
  Ba  Ba1  1  0.815470  0.184530  0.983638  1
  Ba  Ba2  1  0.500078  0.499922  0.865392  1
  Ba  Ba3  1  0.499197  0.500803  0.635233  1
  Ba  Ba4  1  0.499576  0.500424  0.366504  1
  Ba  Ba5  1  0.501545  0.498455  0.135075  1
  Ba  Ba6  1  0.847710  0.152290  0.516126  1
  Ba  Ba7  1  0.184839  0.815161  0.483636  1
  Ba  Ba8  1  0.165351  0.834649  0.251282  1
  Ba  Ba9  1  0.152895  0.847105  0.016632  1
  Tc  Tc10  1  0.835879  0.164121  0.177359  1
  Tc  Tc11  1  0.169866  0.830134  0.821815  1
  Tc  Tc12  1  0.164128  0.835872  0.678037  1
  Os  Os13  1  0.830253  0.169747  0.320330  1
  O  O14  1  0.571852  0.428148  0.000228  1
  O  O15  1  0.971736  0.476652  0.379914  1
  O  O16  1  0.002332  0.467771  0.118819  1
  O  O17  1  0.679286  0.320714  0.247461  1
  O  O18  1  0.142070  0.315198  0.251891  1
  O  O19  1  0.523348  0.028264  0.379914  1
  O  O20  1  0.532229  0.997668  0.118819  1
  O  O21  1  0.684802  0.857930  0.251891  1
  O  O22  1  0.979140  0.020860  0.383686  1
  O  O23  1  0.990308  0.009692  0.119357  1
  O  O24  1  0.008781  0.991219  0.620535  1
  O  O25  1  0.020865  0.979135  0.883129  1
  O  O26  1  0.316666  0.140295  0.751639  1
  O  O27  1  0.477857  0.971818  0.879280  1
  O  O28  1  0.859705  0.683334  0.751639  1
  O  O29  1  0.466988  0.003417  0.619191  1
  O  O30  1  0.320036  0.679964  0.746727  1
  O  O31  1  0.028182  0.522143  0.879280  1
  O  O32  1  0.996583  0.533012  0.619191  1
  O  O33  1  0.426901  0.573099  0.501045  1
