# generated using pymatgen
data_Y2Co9Si4(AsRu)3
_symmetry_space_group_name_H-M   'P 1'
_cell_length_a   3.77187500
_cell_length_b   9.26177078
_cell_length_c   9.26177100
_cell_angle_alpha   119.99999723
_cell_angle_beta   90.00000000
_cell_angle_gamma   90.00000000
_symmetry_Int_Tables_number   1
_chemical_formula_structural   Y2Co9Si4(AsRu)3
_chemical_formula_sum   'Y2 Co9 Si4 As3 Ru3'
_cell_volume   280.20507869
_cell_formula_units_Z   1
loop_
 _symmetry_equiv_pos_site_id
 _symmetry_equiv_pos_as_xyz
  1  'x, y, z'
loop_
 _atom_site_type_symbol
 _atom_site_label
 _atom_site_symmetry_multiplicity
 _atom_site_fract_x
 _atom_site_fract_y
 _atom_site_fract_z
 _atom_site_occupancy
  Y  Y0  1  0.000000  0.666667  0.333333  1
  Y  Y1  1  0.500000  0.333333  0.666667  1
  Co  Co2  1  0.000000  0.572514  0.946961  1
  Co  Co3  1  0.000000  0.374447  0.427486  1
  Co  Co4  1  0.000000  0.053039  0.625553  1
  Co  Co5  1  0.000000  0.872549  0.155266  1
  Co  Co6  1  0.000000  0.282717  0.127451  1
  Co  Co7  1  0.000000  0.844734  0.717283  1
  Co  Co8  1  0.500000  0.944868  0.382454  1
  Co  Co9  1  0.500000  0.437586  0.055132  1
  Co  Co10  1  0.500000  0.617546  0.562414  1
  Si  Si11  1  0.000000  0.000000  0.000000  1
  Si  Si12  1  0.500000  0.709283  0.114700  1
  Si  Si13  1  0.500000  0.405417  0.290717  1
  Si  Si14  1  0.500000  0.885300  0.594583  1
  As  As15  1  0.000000  0.591040  0.702626  1
  As  As16  1  0.000000  0.111587  0.408960  1
  As  As17  1  0.000000  0.297374  0.888413  1
  Ru  Ru18  1  0.500000  0.786406  0.903896  1
  Ru  Ru19  1  0.500000  0.117489  0.213594  1
  Ru  Ru20  1  0.500000  0.096104  0.882511  1
