# generated using pymatgen
data_Gd3(Cd2Ga)2
_symmetry_space_group_name_H-M   'P 1'
_cell_length_a   4.50552600
_cell_length_b   7.40487091
_cell_length_c   7.40487100
_cell_angle_alpha   120.00000489
_cell_angle_beta   90.00000000
_cell_angle_gamma   90.00000000
_symmetry_Int_Tables_number   1
_chemical_formula_structural   Gd3(Cd2Ga)2
_chemical_formula_sum   'Gd3 Cd4 Ga2'
_cell_volume   213.94941294
_cell_formula_units_Z   1
loop_
 _symmetry_equiv_pos_site_id
 _symmetry_equiv_pos_as_xyz
  1  'x, y, z'
loop_
 _atom_site_type_symbol
 _atom_site_label
 _atom_site_symmetry_multiplicity
 _atom_site_fract_x
 _atom_site_fract_y
 _atom_site_fract_z
 _atom_site_occupancy
  Gd  Gd0  1  0.000000  0.430006  0.430006  1
  Gd  Gd1  1  0.000000  0.000000  0.569994  1
  Gd  Gd2  1  0.000000  0.569994  0.000000  1
  Cd  Cd3  1  0.500000  0.748100  0.748100  1
  Cd  Cd4  1  0.500000  0.000000  0.251900  1
  Cd  Cd5  1  0.500000  0.251900  0.000000  1
  Cd  Cd6  1  0.000000  0.000000  0.000000  1
  Ga  Ga7  1  0.500000  0.666667  0.333333  1
  Ga  Ga8  1  0.500000  0.333333  0.666667  1
