# generated using pymatgen
data_Ca4CdPd4Pb
_symmetry_space_group_name_H-M   'P 1'
_cell_length_a   5.89920700
_cell_length_b   5.89920801
_cell_length_c   8.32789525
_cell_angle_alpha   76.81938972
_cell_angle_beta   76.81938661
_cell_angle_gamma   58.20655778
_symmetry_Int_Tables_number   1
_chemical_formula_structural   Ca4CdPd4Pb
_chemical_formula_sum   'Ca4 Cd1 Pd4 Pb1'
_cell_volume   237.79399038
_cell_formula_units_Z   1
loop_
 _symmetry_equiv_pos_site_id
 _symmetry_equiv_pos_as_xyz
  1  'x, y, z'
loop_
 _atom_site_type_symbol
 _atom_site_label
 _atom_site_symmetry_multiplicity
 _atom_site_fract_x
 _atom_site_fract_y
 _atom_site_fract_z
 _atom_site_occupancy
  Ca  Ca0  1  0.502547  0.796353  0.349636  1
  Ca  Ca1  1  0.203647  0.497453  0.150364  1
  Ca  Ca2  1  0.499026  0.201199  0.649538  1
  Ca  Ca3  1  0.798801  0.500974  0.850462  1
  Cd  Cd4  1  0.158822  0.841178  0.750000  1
  Pd  Pd5  1  0.725656  0.001879  0.998668  1
  Pd  Pd6  1  0.998121  0.274344  0.501332  1
  Pd  Pd7  1  0.273657  0.995555  0.995515  1
  Pd  Pd8  1  0.004445  0.726343  0.504485  1
  Pb  Pb9  1  0.835280  0.164720  0.250000  1
