# generated using pymatgen
data_Li4Ca8Al3Pb
_symmetry_space_group_name_H-M   'P 1'
_cell_length_a   7.52607800
_cell_length_b   5.43117900
_cell_length_c   10.86878300
_cell_angle_alpha   90.00000000
_cell_angle_beta   90.00056165
_cell_angle_gamma   90.00000000
_symmetry_Int_Tables_number   1
_chemical_formula_structural   Li4Ca8Al3Pb
_chemical_formula_sum   'Li4 Ca8 Al3 Pb1'
_cell_volume   444.26668720
_cell_formula_units_Z   1
loop_
 _symmetry_equiv_pos_site_id
 _symmetry_equiv_pos_as_xyz
  1  'x, y, z'
loop_
 _atom_site_type_symbol
 _atom_site_label
 _atom_site_symmetry_multiplicity
 _atom_site_fract_x
 _atom_site_fract_y
 _atom_site_fract_z
 _atom_site_occupancy
  Li  Li0  1  0.250199  0.249999  0.122664  1
  Li  Li1  1  0.750195  0.750000  0.379651  1
  Li  Li2  1  0.249795  0.249999  0.622696  1
  Li  Li3  1  0.749789  0.750000  0.874955  1
  Ca  Ca4  1  0.007934  0.750000  0.125757  1
  Ca  Ca5  1  0.492094  0.750000  0.125848  1
  Ca  Ca6  1  0.003594  0.249999  0.377435  1
  Ca  Ca7  1  0.496455  0.249999  0.377525  1
  Ca  Ca8  1  0.500241  0.750000  0.625656  1
  Ca  Ca9  1  0.999708  0.750000  0.625752  1
  Ca  Ca10  1  0.496290  0.249999  0.870989  1
  Ca  Ca11  1  0.003680  0.249999  0.871081  1
  Al  Al12  1  0.249922  0.750000  0.374424  1
  Al  Al13  1  0.750073  0.249999  0.623743  1
  Al  Al14  1  0.250092  0.750000  0.878082  1
  Pb  Pb15  1  0.749939  0.249999  0.123745  1
