# generated using pymatgen
data_Gd2NbRu3
_symmetry_space_group_name_H-M   'P 1'
_cell_length_a   5.71058735
_cell_length_b   5.71058748
_cell_length_c   5.24937381
_cell_angle_alpha   57.04840873
_cell_angle_beta   57.04840678
_cell_angle_gamma   59.99999949
_symmetry_Int_Tables_number   1
_chemical_formula_structural   Gd2NbRu3
_chemical_formula_sum   'Gd2 Nb1 Ru3'
_cell_volume   115.36229276
_cell_formula_units_Z   1
loop_
 _symmetry_equiv_pos_site_id
 _symmetry_equiv_pos_as_xyz
  1  'x, y, z'
loop_
 _atom_site_type_symbol
 _atom_site_label
 _atom_site_symmetry_multiplicity
 _atom_site_fract_x
 _atom_site_fract_y
 _atom_site_fract_z
 _atom_site_occupancy
  Gd  Gd0  1  0.253103  0.253103  0.240689  1
  Gd  Gd1  1  0.996897  0.996897  0.009311  1
  Nb  Nb2  1  0.625000  0.625000  0.125000  1
  Ru  Ru3  1  0.125000  0.625000  0.625000  1
  Ru  Ru4  1  0.625000  0.625000  0.625000  1
  Ru  Ru5  1  0.625000  0.125000  0.625000  1
