# generated using pymatgen
data_Dy5Nb2P12Ir9Ru8
_symmetry_space_group_name_H-M   'P 1'
_cell_length_a   12.72608974
_cell_length_b   12.61104811
_cell_length_c   3.97180900
_cell_angle_alpha   90.00000000
_cell_angle_beta   90.00000000
_cell_angle_gamma   119.66952257
_symmetry_Int_Tables_number   1
_chemical_formula_structural   Dy5Nb2P12Ir9Ru8
_chemical_formula_sum   'Dy5 Nb2 P12 Ir9 Ru8'
_cell_volume   553.86227874
_cell_formula_units_Z   1
loop_
 _symmetry_equiv_pos_site_id
 _symmetry_equiv_pos_as_xyz
  1  'x, y, z'
loop_
 _atom_site_type_symbol
 _atom_site_label
 _atom_site_symmetry_multiplicity
 _atom_site_fract_x
 _atom_site_fract_y
 _atom_site_fract_z
 _atom_site_occupancy
  Dy  Dy0  1  0.665706  0.332113  0.000000  1
  Dy  Dy1  1  0.334854  0.667778  0.000000  1
  Dy  Dy2  1  0.813284  0.000690  0.500000  1
  Dy  Dy3  1  0.184447  0.187068  0.500000  1
  Dy  Dy4  1  0.000631  0.813224  0.500000  1
  Nb  Nb5  1  0.442866  0.999601  0.000000  1
  Nb  Nb6  1  0.557641  0.554328  0.000000  1
  P  P7  1  0.638078  0.000784  0.000000  1
  P  P8  1  0.357978  0.366918  0.000000  1
  P  P9  1  0.005897  0.634435  0.000000  1
  P  P10  1  0.689589  0.519208  0.500000  1
  P  P11  1  0.830319  0.306955  0.500000  1
  P  P12  1  0.314104  0.830272  0.500000  1
  P  P13  1  0.519543  0.684450  0.500000  1
  P  P14  1  0.179212  0.000917  0.000000  1
  P  P15  1  0.821125  0.819116  0.000000  1
  P  P16  1  0.996634  0.183488  0.000000  1
  P  P17  1  0.477416  0.164865  0.500000  1
  P  P18  1  0.169099  0.482877  0.500000  1
  Ir  Ir19  1  0.628812  0.807598  0.000000  1
  Ir  Ir20  1  0.177586  0.376971  0.000000  1
  Ir  Ir21  1  0.369434  0.183956  0.000000  1
  Ir  Ir22  1  0.192835  0.818490  0.000000  1
  Ir  Ir23  1  0.813064  0.625221  0.000000  1
  Ir  Ir24  1  0.868706  0.504506  0.500000  1
  Ir  Ir25  1  0.495499  0.359048  0.500000  1
  Ir  Ir26  1  0.639249  0.128964  0.500000  1
  Ir  Ir27  1  0.999006  0.002274  0.000000  1
  Ru  Ru28  1  0.126188  0.638649  0.500000  1
  Ru  Ru29  1  0.357578  0.484080  0.500000  1
  Ru  Ru30  1  0.513352  0.869480  0.500000  1
  Ru  Ru31  1  0.721955  0.717944  0.500000  1
  Ru  Ru32  1  0.000598  0.287170  0.500000  1
  Ru  Ru33  1  0.998556  0.450006  0.000000  1
  Ru  Ru34  1  0.819582  0.196551  0.000000  1
  Ru  Ru35  1  0.279573  0.000006  0.500000  1
