# generated using pymatgen
data_Ho9Zn(Co2Au)2
_symmetry_space_group_name_H-M   'P 1'
_cell_length_a   8.45033199
_cell_length_b   8.45038294
_cell_length_c   8.44934652
_cell_angle_alpha   129.03719054
_cell_angle_beta   129.02296505
_cell_angle_gamma   74.97290087
_symmetry_Int_Tables_number   1
_chemical_formula_structural   Ho9Zn(Co2Au)2
_chemical_formula_sum   'Ho9 Zn1 Co4 Au2'
_cell_volume   354.54326891
_cell_formula_units_Z   1
loop_
 _symmetry_equiv_pos_site_id
 _symmetry_equiv_pos_as_xyz
  1  'x, y, z'
loop_
 _atom_site_type_symbol
 _atom_site_label
 _atom_site_symmetry_multiplicity
 _atom_site_fract_x
 _atom_site_fract_y
 _atom_site_fract_z
 _atom_site_occupancy
  Ho  Ho0  1  0.683733  0.525520  0.470823  1
  Ho  Ho1  1  0.474396  0.945256  0.158156  1
  Ho  Ho2  1  0.787158  0.316259  0.841937  1
  Ho  Ho3  1  0.525604  0.054744  0.841844  1
  Ho  Ho4  1  0.000000  0.000000  0.000000  1
  Ho  Ho5  1  0.054666  0.212902  0.529121  1
  Ho  Ho6  1  0.316267  0.474480  0.529177  1
  Ho  Ho7  1  0.212842  0.683741  0.158063  1
  Ho  Ho8  1  0.945334  0.787098  0.470879  1
  Zn  Zn9  1  0.500000  0.500000  0.000000  1
  Co  Co10  1  0.125064  0.626525  0.751574  1
  Co  Co11  1  0.874936  0.373475  0.248426  1
  Co  Co12  1  0.626645  0.874784  0.501421  1
  Co  Co13  1  0.373355  0.125216  0.498579  1
  Au  Au14  1  0.239717  0.239722  0.000014  1
  Au  Au15  1  0.760283  0.760278  0.999986  1
