# generated using pymatgen
data_Tb3Lu17(SiSb2)4
_symmetry_space_group_name_H-M   'P 1'
_cell_length_a   7.82391266
_cell_length_b   8.89220900
_cell_length_c   11.71279800
_cell_angle_alpha   90.00000000
_cell_angle_beta   90.05545099
_cell_angle_gamma   90.00000000
_symmetry_Int_Tables_number   1
_chemical_formula_structural   Tb3Lu17(SiSb2)4
_chemical_formula_sum   'Tb3 Lu17 Si4 Sb8'
_cell_volume   814.88083842
_cell_formula_units_Z   1
loop_
 _symmetry_equiv_pos_site_id
 _symmetry_equiv_pos_as_xyz
  1  'x, y, z'
loop_
 _atom_site_type_symbol
 _atom_site_label
 _atom_site_symmetry_multiplicity
 _atom_site_fract_x
 _atom_site_fract_y
 _atom_site_fract_z
 _atom_site_occupancy
  Tb  Tb0  1  0.138447  0.250000  0.206320  1
  Tb  Tb1  1  0.361922  0.250000  0.706405  1
  Tb  Tb2  1  0.638684  0.750000  0.293673  1
  Lu  Lu3  1  0.335157  0.750000  0.715111  1
  Lu  Lu4  1  0.664492  0.250000  0.285200  1
  Lu  Lu5  1  0.835228  0.250000  0.785073  1
  Lu  Lu6  1  0.163715  0.750000  0.214079  1
  Lu  Lu7  1  0.038928  0.750000  0.502395  1
  Lu  Lu8  1  0.960478  0.250000  0.498839  1
  Lu  Lu9  1  0.539660  0.250000  0.998275  1
  Lu  Lu10  1  0.460357  0.750000  0.001674  1
  Lu  Lu11  1  0.861188  0.750000  0.793497  1
  Lu  Lu12  1  0.683319  0.552388  0.565910  1
  Lu  Lu13  1  0.316858  0.448395  0.434428  1
  Lu  Lu14  1  0.183443  0.448151  0.934426  1
  Lu  Lu15  1  0.316858  0.051605  0.434428  1
  Lu  Lu16  1  0.816846  0.551916  0.064939  1
  Lu  Lu17  1  0.683319  0.947612  0.565910  1
  Lu  Lu18  1  0.816846  0.948084  0.064939  1
  Lu  Lu19  1  0.183443  0.051849  0.934426  1
  Si  Si20  1  0.083955  0.750000  0.979775  1
  Si  Si21  1  0.914036  0.250000  0.017774  1
  Si  Si22  1  0.586039  0.250000  0.518006  1
  Si  Si23  1  0.414002  0.750000  0.482364  1
  Sb  Sb24  1  0.570621  0.512014  0.827844  1
  Sb  Sb25  1  0.431613  0.489563  0.172158  1
  Sb  Sb26  1  0.067318  0.490482  0.673281  1
  Sb  Sb27  1  0.431613  0.010437  0.172158  1
  Sb  Sb28  1  0.931838  0.510803  0.327785  1
  Sb  Sb29  1  0.570621  0.987986  0.827844  1
  Sb  Sb30  1  0.931838  0.989197  0.327785  1
  Sb  Sb31  1  0.067318  0.009518  0.673281  1
