# generated using pymatgen
data_Nd3Y2(Hg2Pd)2
_symmetry_space_group_name_H-M   'P 1'
_cell_length_a   3.76149700
_cell_length_b   8.15118100
_cell_length_c   18.36028000
_cell_angle_alpha   90.00000000
_cell_angle_beta   90.00000000
_cell_angle_gamma   90.00000000
_symmetry_Int_Tables_number   1
_chemical_formula_structural   Nd3Y2(Hg2Pd)2
_chemical_formula_sum   'Nd6 Y4 Hg8 Pd4'
_cell_volume   562.93798822
_cell_formula_units_Z   2
loop_
 _symmetry_equiv_pos_site_id
 _symmetry_equiv_pos_as_xyz
  1  'x, y, z'
loop_
 _atom_site_type_symbol
 _atom_site_label
 _atom_site_symmetry_multiplicity
 _atom_site_fract_x
 _atom_site_fract_y
 _atom_site_fract_z
 _atom_site_occupancy
  Nd  Nd0  1  0.500000  0.231688  0.787544  1
  Nd  Nd1  1  0.500000  0.768312  0.212456  1
  Nd  Nd2  1  0.500000  0.268312  0.287544  1
  Nd  Nd3  1  0.500000  0.731688  0.712456  1
  Nd  Nd4  1  0.500000  0.000000  0.000000  1
  Nd  Nd5  1  0.500000  0.500000  0.500000  1
  Y  Y6  1  0.500000  0.116629  0.585363  1
  Y  Y7  1  0.500000  0.883371  0.414637  1
  Y  Y8  1  0.500000  0.383371  0.085363  1
  Y  Y9  1  0.500000  0.616629  0.914637  1
  Hg  Hg10  1  0.000000  0.087805  0.149269  1
  Hg  Hg11  1  0.000000  0.912195  0.850731  1
  Hg  Hg12  1  0.000000  0.412195  0.649269  1
  Hg  Hg13  1  0.000000  0.587805  0.350731  1
  Hg  Hg14  1  0.000000  0.201648  0.438973  1
  Hg  Hg15  1  0.000000  0.798352  0.561027  1
  Hg  Hg16  1  0.000000  0.298352  0.938973  1
  Hg  Hg17  1  0.000000  0.701648  0.061027  1
  Pd  Pd18  1  0.000000  0.025165  0.695094  1
  Pd  Pd19  1  0.000000  0.974835  0.304906  1
  Pd  Pd20  1  0.000000  0.474835  0.195094  1
  Pd  Pd21  1  0.000000  0.525165  0.804906  1
