# generated using pymatgen
data_Tb2Dy5Y(CdPt)2
_symmetry_space_group_name_H-M   'P 1'
_cell_length_a   9.70783884
_cell_length_b   9.70783851
_cell_length_c   9.70878900
_cell_angle_alpha   59.99676453
_cell_angle_beta   59.99676566
_cell_angle_gamma   60.00647672
_symmetry_Int_Tables_number   1
_chemical_formula_structural   Tb2Dy5Y(CdPt)2
_chemical_formula_sum   'Tb4 Dy10 Y2 Cd4 Pt4'
_cell_volume   646.98644282
_cell_formula_units_Z   2
loop_
 _symmetry_equiv_pos_site_id
 _symmetry_equiv_pos_as_xyz
  1  'x, y, z'
loop_
 _atom_site_type_symbol
 _atom_site_label
 _atom_site_symmetry_multiplicity
 _atom_site_fract_x
 _atom_site_fract_y
 _atom_site_fract_z
 _atom_site_occupancy
  Tb  Tb0  1  0.935961  0.564039  0.564039  1
  Tb  Tb1  1  0.564039  0.935961  0.935961  1
  Tb  Tb2  1  0.564039  0.935961  0.564039  1
  Tb  Tb3  1  0.935961  0.564039  0.935961  1
  Dy  Dy4  1  0.352216  0.352216  0.352294  1
  Dy  Dy5  1  0.352216  0.352216  0.943274  1
  Dy  Dy6  1  0.352294  0.943274  0.352216  1
  Dy  Dy7  1  0.943274  0.352294  0.352216  1
  Dy  Dy8  1  0.810307  0.189693  0.189693  1
  Dy  Dy9  1  0.189693  0.810307  0.810307  1
  Dy  Dy10  1  0.189693  0.810307  0.189693  1
  Dy  Dy11  1  0.810307  0.189693  0.810307  1
  Dy  Dy12  1  0.189693  0.189693  0.810307  1
  Dy  Dy13  1  0.810307  0.810307  0.189693  1
  Y  Y14  1  0.564061  0.564061  0.935939  1
  Y  Y15  1  0.935939  0.935939  0.564061  1
  Cd  Cd16  1  0.581809  0.581809  0.581859  1
  Cd  Cd17  1  0.581809  0.581809  0.254525  1
  Cd  Cd18  1  0.581859  0.254525  0.581809  1
  Cd  Cd19  1  0.254525  0.581859  0.581809  1
  Pt  Pt20  1  0.143492  0.143492  0.143556  1
  Pt  Pt21  1  0.143492  0.143492  0.569459  1
  Pt  Pt22  1  0.143556  0.569459  0.143492  1
  Pt  Pt23  1  0.569459  0.143556  0.143492  1
