# generated using pymatgen
data_TlInH8(NCl4)2
_symmetry_space_group_name_H-M   'P 1'
_cell_length_a   9.29384692
_cell_length_b   9.29384578
_cell_length_c   9.29384626
_cell_angle_alpha   133.83849311
_cell_angle_beta   133.83849439
_cell_angle_gamma   67.34037066
_symmetry_Int_Tables_number   1
_chemical_formula_structural   TlInH8(NCl4)2
_chemical_formula_sum   'Tl1 In1 H8 N2 Cl8'
_cell_volume   410.70583470
_cell_formula_units_Z   1
loop_
 _symmetry_equiv_pos_site_id
 _symmetry_equiv_pos_as_xyz
  1  'x, y, z'
loop_
 _atom_site_type_symbol
 _atom_site_label
 _atom_site_symmetry_multiplicity
 _atom_site_fract_x
 _atom_site_fract_y
 _atom_site_fract_z
 _atom_site_occupancy
  Tl  Tl0  1  0.375001  0.125000  0.250001  1
  In  In1  1  0.625001  0.875000  0.750001  1
  H  H2  1  0.799284  0.676782  0.148294  1
  H  H3  1  0.028489  0.650989  0.351706  1
  H  H4  1  0.177279  0.528446  0.877745  1
  H  H5  1  0.150702  0.299535  0.622256  1
  H  H6  1  0.200464  0.322722  0.851168  1
  H  H7  1  0.971555  0.349298  0.648832  1
  H  H8  1  0.823219  0.471511  0.122501  1
  H  H9  1  0.849012  0.700717  0.377501  1
  N  N10  1  0.875001  0.625000  0.250001  1
  N  N11  1  0.125001  0.375000  0.750001  1
  Cl  Cl12  1  0.309308  0.638052  0.367899  1
  Cl  Cl13  1  0.558592  0.190693  0.828745  1
  Cl  Cl14  1  0.861949  0.729847  0.671257  1
  Cl  Cl15  1  0.223960  0.055552  0.854738  1
  Cl  Cl16  1  0.700814  0.369221  0.645263  1
  Cl  Cl17  1  0.770153  0.941410  0.132101  1
  Cl  Cl18  1  0.130778  0.276041  0.331592  1
  Cl  Cl19  1  0.444449  0.799186  0.168408  1
