# generated using pymatgen
data_Ca2GdPaH12
_symmetry_space_group_name_H-M   'P 1'
_cell_length_a   6.66021300
_cell_length_b   6.84204900
_cell_length_c   6.66021300
_cell_angle_alpha   90.00000000
_cell_angle_beta   90.00000000
_cell_angle_gamma   90.00000000
_symmetry_Int_Tables_number   1
_chemical_formula_structural   Ca2GdPaH12
_chemical_formula_sum   'Ca4 Gd2 Pa2 H24'
_cell_volume   303.50260092
_cell_formula_units_Z   2
loop_
 _symmetry_equiv_pos_site_id
 _symmetry_equiv_pos_as_xyz
  1  'x, y, z'
loop_
 _atom_site_type_symbol
 _atom_site_label
 _atom_site_symmetry_multiplicity
 _atom_site_fract_x
 _atom_site_fract_y
 _atom_site_fract_z
 _atom_site_occupancy
  Ca  Ca0  1  0.246846  0.000000  0.500000  1
  Ca  Ca1  1  0.753154  0.000000  0.500000  1
  Ca  Ca2  1  0.000000  0.500000  0.253154  1
  Ca  Ca3  1  0.000000  0.500000  0.746846  1
  Gd  Gd4  1  0.500000  0.750000  0.000000  1
  Gd  Gd5  1  0.500000  0.250000  0.000000  1
  Pa  Pa6  1  0.000000  0.000000  0.000000  1
  Pa  Pa7  1  0.500000  0.500000  0.500000  1
  H  H8  1  0.000000  0.150976  0.286930  1
  H  H9  1  0.500000  0.220477  0.658602  1
  H  H10  1  0.500000  0.779523  0.341398  1
  H  H11  1  0.786930  0.650976  0.500000  1
  H  H12  1  0.213070  0.650976  0.500000  1
  H  H13  1  0.351362  0.500000  0.804013  1
  H  H14  1  0.648638  0.500000  0.804013  1
  H  H15  1  0.304013  0.000000  0.148638  1
  H  H16  1  0.158602  0.279523  0.000000  1
  H  H17  1  0.841398  0.720477  0.000000  1
  H  H18  1  0.304013  0.000000  0.851362  1
  H  H19  1  0.841398  0.279523  0.000000  1
  H  H20  1  0.695987  0.000000  0.148638  1
  H  H21  1  0.695987  0.000000  0.851362  1
  H  H22  1  0.158602  0.720477  0.000000  1
  H  H23  1  0.000000  0.849024  0.713070  1
  H  H24  1  0.000000  0.150976  0.713070  1
  H  H25  1  0.000000  0.849024  0.286930  1
  H  H26  1  0.648638  0.500000  0.195987  1
  H  H27  1  0.351362  0.500000  0.195987  1
  H  H28  1  0.786930  0.349024  0.500000  1
  H  H29  1  0.213070  0.349024  0.500000  1
  H  H30  1  0.500000  0.779523  0.658602  1
  H  H31  1  0.500000  0.220477  0.341398  1
