# generated using pymatgen
data_TbHo5CoCl10
_symmetry_space_group_name_H-M   'P 1'
_cell_length_a   7.07924991
_cell_length_b   8.72482155
_cell_length_c   8.89030460
_cell_angle_alpha   108.73029592
_cell_angle_beta   96.74281571
_cell_angle_gamma   105.64257731
_symmetry_Int_Tables_number   1
_chemical_formula_structural   TbHo5CoCl10
_chemical_formula_sum   'Tb1 Ho5 Co1 Cl10'
_cell_volume   488.08087120
_cell_formula_units_Z   1
loop_
 _symmetry_equiv_pos_site_id
 _symmetry_equiv_pos_as_xyz
  1  'x, y, z'
loop_
 _atom_site_type_symbol
 _atom_site_label
 _atom_site_symmetry_multiplicity
 _atom_site_fract_x
 _atom_site_fract_y
 _atom_site_fract_z
 _atom_site_occupancy
  Tb  Tb0  1  0.366597  0.945001  0.245631  1
  Ho  Ho1  1  0.861944  0.138607  0.187260  1
  Ho  Ho2  1  0.137722  0.861502  0.813512  1
  Ho  Ho3  1  0.529734  0.704925  0.905389  1
  Ho  Ho4  1  0.470243  0.294780  0.092889  1
  Ho  Ho5  1  0.632492  0.054551  0.757379  1
  Co  Co6  1  0.499758  0.999642  0.000500  1
  Cl  Cl7  1  0.743465  0.083242  0.455557  1
  Cl  Cl8  1  0.260013  0.918101  0.548587  1
  Cl  Cl9  1  0.950122  0.825035  0.076015  1
  Cl  Cl10  1  0.047842  0.174177  0.922460  1
  Cl  Cl11  1  0.283493  0.251856  0.338846  1
  Cl  Cl12  1  0.715524  0.751429  0.659716  1
  Cl  Cl13  1  0.589669  0.373133  0.836264  1
  Cl  Cl14  1  0.411917  0.624085  0.160801  1
  Cl  Cl15  1  0.845362  0.451212  0.275108  1
  Cl  Cl16  1  0.154102  0.548723  0.724087  1
