# generated using pymatgen
data_MgPdBr6
_symmetry_space_group_name_H-M   'P 1'
_cell_length_a   6.62332937
_cell_length_b   6.62332960
_cell_length_c   6.99273300
_cell_angle_alpha   80.89517367
_cell_angle_beta   80.89517538
_cell_angle_gamma   119.81537587
_symmetry_Int_Tables_number   1
_chemical_formula_structural   MgPdBr6
_chemical_formula_sum   'Mg1 Pd1 Br6'
_cell_volume   252.55260991
_cell_formula_units_Z   1
loop_
 _symmetry_equiv_pos_site_id
 _symmetry_equiv_pos_as_xyz
  1  'x, y, z'
loop_
 _atom_site_type_symbol
 _atom_site_label
 _atom_site_symmetry_multiplicity
 _atom_site_fract_x
 _atom_site_fract_y
 _atom_site_fract_z
 _atom_site_occupancy
  Mg  Mg0  1  0.167109  0.832891  0.000000  1
  Pd  Pd1  1  0.833284  0.166716  0.000000  1
  Br  Br2  1  0.445476  0.078605  0.222901  1
  Br  Br3  1  0.593227  0.941166  0.778039  1
  Br  Br4  1  0.921395  0.554524  0.777099  1
  Br  Br5  1  0.058834  0.406773  0.221961  1
  Br  Br6  1  0.773581  0.792906  0.222848  1
  Br  Br7  1  0.207094  0.226419  0.777152  1
