# generated using pymatgen
data_NaTaSe2O7
_symmetry_space_group_name_H-M   'P 1'
_cell_length_a   6.87923700
_cell_length_b   6.87923641
_cell_length_c   7.39471600
_cell_angle_alpha   90.00000000
_cell_angle_beta   90.00000000
_cell_angle_gamma   110.33703733
_symmetry_Int_Tables_number   1
_chemical_formula_structural   NaTaSe2O7
_chemical_formula_sum   'Na2 Ta2 Se4 O14'
_cell_volume   328.13266514
_cell_formula_units_Z   2
loop_
 _symmetry_equiv_pos_site_id
 _symmetry_equiv_pos_as_xyz
  1  'x, y, z'
loop_
 _atom_site_type_symbol
 _atom_site_label
 _atom_site_symmetry_multiplicity
 _atom_site_fract_x
 _atom_site_fract_y
 _atom_site_fract_z
 _atom_site_occupancy
  Na  Na0  1  0.978733  0.978733  0.365682  1
  Na  Na1  1  0.021267  0.021267  0.865682  1
  Ta  Ta2  1  0.507036  0.507036  0.886782  1
  Ta  Ta3  1  0.492964  0.492964  0.386782  1
  Se  Se4  1  0.565123  0.966905  0.627105  1
  Se  Se5  1  0.966905  0.565123  0.627105  1
  Se  Se6  1  0.434877  0.033095  0.127105  1
  Se  Se7  1  0.033095  0.434877  0.127105  1
  O  O8  1  0.549579  0.800161  0.816509  1
  O  O9  1  0.800161  0.549579  0.816509  1
  O  O10  1  0.450421  0.199839  0.316509  1
  O  O11  1  0.199839  0.450421  0.316509  1
  O  O12  1  0.544859  0.794954  0.442230  1
  O  O13  1  0.794954  0.544859  0.442230  1
  O  O14  1  0.455141  0.205046  0.942230  1
  O  O15  1  0.205046  0.455141  0.942230  1
  O  O16  1  0.819997  0.099125  0.622675  1
  O  O17  1  0.099125  0.819997  0.622675  1
  O  O18  1  0.180003  0.900875  0.122675  1
  O  O19  1  0.900875  0.180003  0.122675  1
  O  O20  1  0.419652  0.419652  0.633437  1
  O  O21  1  0.580348  0.580348  0.133437  1
