# generated using pymatgen
data_Zr2TcBr12
_symmetry_space_group_name_H-M   'P 1'
_cell_length_a   9.55214083
_cell_length_b   9.55214079
_cell_length_c   7.31564754
_cell_angle_alpha   71.04996666
_cell_angle_beta   71.04997130
_cell_angle_gamma   81.86008789
_symmetry_Int_Tables_number   1
_chemical_formula_structural   Zr2TcBr12
_chemical_formula_sum   'Zr2 Tc1 Br12'
_cell_volume   596.62332488
_cell_formula_units_Z   1
loop_
 _symmetry_equiv_pos_site_id
 _symmetry_equiv_pos_as_xyz
  1  'x, y, z'
loop_
 _atom_site_type_symbol
 _atom_site_label
 _atom_site_symmetry_multiplicity
 _atom_site_fract_x
 _atom_site_fract_y
 _atom_site_fract_z
 _atom_site_occupancy
  Zr  Zr0  1  0.272422  0.272422  0.734594  1
  Zr  Zr1  1  0.727578  0.727578  0.265406  1
  Tc  Tc2  1  0.000000  0.000000  0.000000  1
  Br  Br3  1  0.970481  0.251093  0.752780  1
  Br  Br4  1  0.251093  0.970481  0.752780  1
  Br  Br5  1  0.029519  0.748907  0.247220  1
  Br  Br6  1  0.748907  0.029519  0.247220  1
  Br  Br7  1  0.209425  0.519990  0.796895  1
  Br  Br8  1  0.519990  0.209425  0.796895  1
  Br  Br9  1  0.790575  0.480010  0.203105  1
  Br  Br10  1  0.480010  0.790575  0.203105  1
  Br  Br11  1  0.127566  0.127566  0.153428  1
  Br  Br12  1  0.872434  0.872434  0.846572  1
  Br  Br13  1  0.654689  0.654689  0.644777  1
  Br  Br14  1  0.345311  0.345311  0.355223  1
