# generated using pymatgen
data_Yb3Be2(PPd5)4
_symmetry_space_group_name_H-M   'P 1'
_cell_length_a   8.65345771
_cell_length_b   8.58052973
_cell_length_c   8.58052900
_cell_angle_alpha   60.56310599
_cell_angle_beta   59.71844505
_cell_angle_gamma   59.71845221
_symmetry_Int_Tables_number   1
_chemical_formula_structural   Yb3Be2(PPd5)4
_chemical_formula_sum   'Yb3 Be2 P4 Pd20'
_cell_volume   450.44271179
_cell_formula_units_Z   1
loop_
 _symmetry_equiv_pos_site_id
 _symmetry_equiv_pos_as_xyz
  1  'x, y, z'
loop_
 _atom_site_type_symbol
 _atom_site_label
 _atom_site_symmetry_multiplicity
 _atom_site_fract_x
 _atom_site_fract_y
 _atom_site_fract_z
 _atom_site_occupancy
  Yb  Yb0  1  0.250000  0.250000  0.250000  1
  Yb  Yb1  1  0.750000  0.750000  0.750000  1
  Yb  Yb2  1  0.000000  0.000000  0.000000  1
  Be  Be3  1  0.729220  0.270780  0.270780  1
  Be  Be4  1  0.270780  0.729220  0.729220  1
  P  P5  1  0.267679  0.732321  0.267679  1
  P  P6  1  0.732321  0.267679  0.732321  1
  P  P7  1  0.267679  0.267679  0.732321  1
  P  P8  1  0.732321  0.732321  0.267679  1
  Pd  Pd9  1  0.387050  0.382691  0.382691  1
  Pd  Pd10  1  0.612950  0.617309  0.617309  1
  Pd  Pd11  1  0.382691  0.387050  0.847569  1
  Pd  Pd12  1  0.382691  0.847569  0.387050  1
  Pd  Pd13  1  0.617309  0.612950  0.152431  1
  Pd  Pd14  1  0.617309  0.152431  0.612950  1
  Pd  Pd15  1  0.847569  0.382691  0.382691  1
  Pd  Pd16  1  0.152431  0.617309  0.617309  1
  Pd  Pd17  1  0.342757  0.000000  0.000000  1
  Pd  Pd18  1  0.657243  0.000000  0.000000  1
  Pd  Pd19  1  0.000000  0.342757  0.657243  1
  Pd  Pd20  1  0.000000  0.657243  0.342757  1
  Pd  Pd21  1  0.996264  0.342129  0.003736  1
  Pd  Pd22  1  0.657871  0.003736  0.342129  1
  Pd  Pd23  1  0.003736  0.657871  0.996264  1
  Pd  Pd24  1  0.342129  0.996264  0.657871  1
  Pd  Pd25  1  0.996264  0.003736  0.342129  1
  Pd  Pd26  1  0.003736  0.996264  0.657871  1
  Pd  Pd27  1  0.657871  0.342129  0.003736  1
  Pd  Pd28  1  0.342129  0.657871  0.996264  1
