# generated using pymatgen
data_Y4Tm8CdCo5
_symmetry_space_group_name_H-M   'P 1'
_cell_length_a   8.19374999
_cell_length_b   8.19374893
_cell_length_c   8.19374876
_cell_angle_alpha   110.92188080
_cell_angle_beta   110.12792284
_cell_angle_gamma   107.38480990
_symmetry_Int_Tables_number   1
_chemical_formula_structural   Y4Tm8CdCo5
_chemical_formula_sum   'Y4 Tm8 Cd1 Co5'
_cell_volume   423.03305860
_cell_formula_units_Z   1
loop_
 _symmetry_equiv_pos_site_id
 _symmetry_equiv_pos_as_xyz
  1  'x, y, z'
loop_
 _atom_site_type_symbol
 _atom_site_label
 _atom_site_symmetry_multiplicity
 _atom_site_fract_x
 _atom_site_fract_y
 _atom_site_fract_z
 _atom_site_occupancy
  Y  Y0  1  0.287371  0.186249  0.473619  1
  Y  Y1  1  0.712629  0.813751  0.526381  1
  Y  Y2  1  0.287371  0.813751  0.101122  1
  Y  Y3  1  0.712629  0.186249  0.898878  1
  Tm  Tm4  1  0.621355  0.315147  0.306209  1
  Tm  Tm5  1  0.378645  0.684853  0.693791  1
  Tm  Tm6  1  0.008938  0.315147  0.693791  1
  Tm  Tm7  1  0.991062  0.684853  0.306209  1
  Tm  Tm8  1  0.212445  0.404706  0.192263  1
  Tm  Tm9  1  0.787555  0.595294  0.807737  1
  Tm  Tm10  1  0.212445  0.020181  0.807737  1
  Tm  Tm11  1  0.787555  0.979819  0.192263  1
  Cd  Cd12  1  0.500000  0.500000  0.000000  1
  Co  Co13  1  0.000000  0.377119  0.377119  1
  Co  Co14  1  0.000000  0.622881  0.622881  1
  Co  Co15  1  0.385909  0.885909  0.500000  1
  Co  Co16  1  0.614091  0.114091  0.500000  1
  Co  Co17  1  0.000000  0.000000  0.000000  1
