# generated using pymatgen
data_Ce4MgSiAgRh10
_symmetry_space_group_name_H-M   'P 1'
_cell_length_a   7.26500122
_cell_length_b   7.30482487
_cell_length_c   7.30482433
_cell_angle_alpha   107.62758244
_cell_angle_beta   109.87680690
_cell_angle_gamma   111.16124576
_symmetry_Int_Tables_number   1
_chemical_formula_structural   Ce4MgSiAgRh10
_chemical_formula_sum   'Ce4 Mg1 Si1 Ag1 Rh10'
_cell_volume   297.27573733
_cell_formula_units_Z   1
loop_
 _symmetry_equiv_pos_site_id
 _symmetry_equiv_pos_as_xyz
  1  'x, y, z'
loop_
 _atom_site_type_symbol
 _atom_site_label
 _atom_site_symmetry_multiplicity
 _atom_site_fract_x
 _atom_site_fract_y
 _atom_site_fract_z
 _atom_site_occupancy
  Ce  Ce0  1  0.027456  0.008622  0.512119  1
  Ce  Ce1  1  0.027456  0.515336  0.018834  1
  Ce  Ce2  1  0.475572  0.967706  0.964344  1
  Ce  Ce3  1  0.475572  0.511229  0.507867  1
  Mg  Mg4  1  0.746449  0.249701  0.496747  1
  Si  Si5  1  0.002197  0.000809  0.001387  1
  Ag  Ag6  1  0.745997  0.493725  0.252273  1
  Rh  Rh7  1  0.511931  0.256775  0.752724  1
  Rh  Rh8  1  0.237506  0.492328  0.745178  1
  Rh  Rh9  1  0.245612  0.748174  0.497438  1
  Rh  Rh10  1  0.511931  0.759206  0.255156  1
  Rh  Rh11  1  0.728876  0.722532  0.006344  1
  Rh  Rh12  1  0.288396  0.009562  0.278834  1
  Rh  Rh13  1  0.978160  0.256492  0.263679  1
  Rh  Rh14  1  0.280412  0.279225  0.001188  1
  Rh  Rh15  1  0.738309  0.014094  0.724214  1
  Rh  Rh16  1  0.978160  0.714482  0.721669  1
