# generated using pymatgen
data_Ga3FeI12
_symmetry_space_group_name_H-M   'P 1'
_cell_length_a   6.72069909
_cell_length_b   10.15606874
_cell_length_c   12.69655397
_cell_angle_alpha   71.69078842
_cell_angle_beta   90.32772989
_cell_angle_gamma   89.95544121
_symmetry_Int_Tables_number   1
_chemical_formula_structural   Ga3FeI12
_chemical_formula_sum   'Ga3 Fe1 I12'
_cell_volume   822.72563287
_cell_formula_units_Z   1
loop_
 _symmetry_equiv_pos_site_id
 _symmetry_equiv_pos_as_xyz
  1  'x, y, z'
loop_
 _atom_site_type_symbol
 _atom_site_label
 _atom_site_symmetry_multiplicity
 _atom_site_fract_x
 _atom_site_fract_y
 _atom_site_fract_z
 _atom_site_occupancy
  Ga  Ga0  1  0.503770  0.808521  0.547067  1
  Ga  Ga1  1  0.996609  0.812849  0.045932  1
  Ga  Ga2  1  0.496229  0.191032  0.452927  1
  Fe  Fe3  1  0.003384  0.180908  0.955657  1
  I  I4  1  0.787237  0.324234  0.802983  1
  I  I5  1  0.279265  0.676077  0.701857  1
  I  I6  1  0.221227  0.677988  0.202049  1
  I  I7  1  0.720090  0.324381  0.298170  1
  I  I8  1  0.224783  0.318297  0.039701  1
  I  I9  1  0.732908  0.682923  0.455116  1
  I  I10  1  0.767727  0.684741  0.954035  1
  I  I11  1  0.267621  0.317615  0.544556  1
  I  I12  1  0.787010  0.001255  0.110892  1
  I  I13  1  0.288331  0.999210  0.389270  1
  I  I14  1  0.212507  0.999141  0.889040  1
  I  I15  1  0.711302  0.000828  0.610748  1
