# generated using pymatgen
data_Nb3Co5Ni4
_symmetry_space_group_name_H-M   'P 1'
_cell_length_a   6.96012888
_cell_length_b   6.96012796
_cell_length_c   6.95108759
_cell_angle_alpha   43.69503750
_cell_angle_beta   43.69504199
_cell_angle_gamma   43.97367938
_symmetry_Int_Tables_number   1
_chemical_formula_structural   Nb3Co5Ni4
_chemical_formula_sum   'Nb3 Co5 Ni4'
_cell_volume   146.38623327
_cell_formula_units_Z   1
loop_
 _symmetry_equiv_pos_site_id
 _symmetry_equiv_pos_as_xyz
  1  'x, y, z'
loop_
 _atom_site_type_symbol
 _atom_site_label
 _atom_site_symmetry_multiplicity
 _atom_site_fract_x
 _atom_site_fract_y
 _atom_site_fract_z
 _atom_site_occupancy
  Nb  Nb0  1  0.002472  0.002472  0.000350  1
  Nb  Nb1  1  0.213013  0.213013  0.218699  1
  Nb  Nb2  1  0.785749  0.785749  0.778732  1
  Co  Co3  1  0.286373  0.759100  0.284128  1
  Co  Co4  1  0.759100  0.286373  0.284128  1
  Co  Co5  1  0.238987  0.713641  0.717198  1
  Co  Co6  1  0.713641  0.238987  0.717198  1
  Co  Co7  1  0.286369  0.286369  0.758273  1
  Ni  Ni8  1  0.500073  0.500073  0.998838  1
  Ni  Ni9  1  0.714949  0.714949  0.241903  1
  Ni  Ni10  1  0.498346  0.000930  0.500277  1
  Ni  Ni11  1  0.000930  0.498346  0.500277  1
