# generated using pymatgen
data_ErPa3SnPd4Pb
_symmetry_space_group_name_H-M   'P 1'
_cell_length_a   7.80261759
_cell_length_b   7.81788039
_cell_length_c   3.68475600
_cell_angle_alpha   90.00000000
_cell_angle_beta   90.00000000
_cell_angle_gamma   89.76055537
_symmetry_Int_Tables_number   1
_chemical_formula_structural   ErPa3SnPd4Pb
_chemical_formula_sum   'Er1 Pa3 Sn1 Pd4 Pb1'
_cell_volume   224.76789924
_cell_formula_units_Z   1
loop_
 _symmetry_equiv_pos_site_id
 _symmetry_equiv_pos_as_xyz
  1  'x, y, z'
loop_
 _atom_site_type_symbol
 _atom_site_label
 _atom_site_symmetry_multiplicity
 _atom_site_fract_x
 _atom_site_fract_y
 _atom_site_fract_z
 _atom_site_occupancy
  Er  Er0  1  0.322714  0.828010  0.500000  1
  Pa  Pa1  1  0.674506  0.170031  0.500000  1
  Pa  Pa2  1  0.172467  0.322286  0.500000  1
  Pa  Pa3  1  0.828852  0.677949  0.500000  1
  Sn  Sn4  1  0.007389  0.996325  0.000000  1
  Pd  Pd5  1  0.374548  0.131198  0.000000  1
  Pd  Pd6  1  0.116934  0.621161  0.000000  1
  Pd  Pd7  1  0.635391  0.879051  0.000000  1
  Pd  Pd8  1  0.870943  0.366320  0.000000  1
  Pb  Pb9  1  0.496255  0.507668  0.000000  1
