# generated using pymatgen
data_Tb4Dy(GeB4)2
_symmetry_space_group_name_H-M   'P 1'
_cell_length_a   7.28284600
_cell_length_b   7.28284600
_cell_length_c   8.18332800
_cell_angle_alpha   90.00000000
_cell_angle_beta   90.00000000
_cell_angle_gamma   90.00000000
_symmetry_Int_Tables_number   1
_chemical_formula_structural   Tb4Dy(GeB4)2
_chemical_formula_sum   'Tb8 Dy2 Ge4 B16'
_cell_volume   434.04245574
_cell_formula_units_Z   2
loop_
 _symmetry_equiv_pos_site_id
 _symmetry_equiv_pos_as_xyz
  1  'x, y, z'
loop_
 _atom_site_type_symbol
 _atom_site_label
 _atom_site_symmetry_multiplicity
 _atom_site_fract_x
 _atom_site_fract_y
 _atom_site_fract_z
 _atom_site_occupancy
  Tb  Tb0  1  0.680428  0.180428  0.221844  1
  Tb  Tb1  1  0.319572  0.819572  0.778156  1
  Tb  Tb2  1  0.319572  0.819572  0.221844  1
  Tb  Tb3  1  0.819572  0.680428  0.221844  1
  Tb  Tb4  1  0.819572  0.680428  0.778156  1
  Tb  Tb5  1  0.680428  0.180428  0.778156  1
  Tb  Tb6  1  0.180428  0.319572  0.778156  1
  Tb  Tb7  1  0.180428  0.319572  0.221844  1
  Dy  Dy8  1  0.000000  0.000000  0.500000  1
  Dy  Dy9  1  0.500000  0.500000  0.500000  1
  Ge  Ge10  1  0.119906  0.619906  0.500000  1
  Ge  Ge11  1  0.880094  0.380094  0.500000  1
  Ge  Ge12  1  0.380094  0.119906  0.500000  1
  Ge  Ge13  1  0.619906  0.880094  0.500000  1
  B  B14  1  0.171855  0.039213  0.000000  1
  B  B15  1  0.828145  0.960787  0.000000  1
  B  B16  1  0.960787  0.171855  0.000000  1
  B  B17  1  0.328145  0.539213  0.000000  1
  B  B18  1  0.039213  0.828145  0.000000  1
  B  B19  1  0.671855  0.460787  0.000000  1
  B  B20  1  0.539213  0.671855  0.000000  1
  B  B21  1  0.460787  0.328145  0.000000  1
  B  B22  1  0.090492  0.590492  0.000000  1
  B  B23  1  0.909508  0.409508  0.000000  1
  B  B24  1  0.409508  0.090492  0.000000  1
  B  B25  1  0.590492  0.909508  0.000000  1
  B  B26  1  0.000000  0.000000  0.160928  1
  B  B27  1  0.000000  0.000000  0.839072  1
  B  B28  1  0.500000  0.500000  0.839072  1
  B  B29  1  0.500000  0.500000  0.160928  1
