# generated using pymatgen
data_Sm2Mn3Ni7P7W2
_symmetry_space_group_name_H-M   'P 1'
_cell_length_a   9.18183431
_cell_length_b   9.20625446
_cell_length_c   3.74336200
_cell_angle_alpha   90.00000000
_cell_angle_beta   90.00000000
_cell_angle_gamma   119.94843031
_symmetry_Int_Tables_number   1
_chemical_formula_structural   Sm2Mn3Ni7P7W2
_chemical_formula_sum   'Sm2 Mn3 Ni7 P7 W2'
_cell_volume   274.17656544
_cell_formula_units_Z   1
loop_
 _symmetry_equiv_pos_site_id
 _symmetry_equiv_pos_as_xyz
  1  'x, y, z'
loop_
 _atom_site_type_symbol
 _atom_site_label
 _atom_site_symmetry_multiplicity
 _atom_site_fract_x
 _atom_site_fract_y
 _atom_site_fract_z
 _atom_site_occupancy
  Sm  Sm0  1  0.666304  0.333650  0.000000  1
  Sm  Sm1  1  0.336064  0.669007  0.500000  1
  Mn  Mn2  1  0.728782  0.879615  0.500000  1
  Mn  Mn3  1  0.119536  0.842622  0.500000  1
  Mn  Mn4  1  0.879541  0.779585  0.000000  1
  Ni  Ni5  1  0.432156  0.063969  0.500000  1
  Ni  Ni6  1  0.938333  0.369666  0.500000  1
  Ni  Ni7  1  0.633098  0.569702  0.500000  1
  Ni  Ni8  1  0.155364  0.282947  0.500000  1
  Ni  Ni9  1  0.384874  0.438889  0.000000  1
  Ni  Ni10  1  0.560400  0.945004  0.000000  1
  Ni  Ni11  1  0.047319  0.611890  0.000000  1
  P  P12  1  0.114567  0.405768  0.000000  1
  P  P13  1  0.599520  0.712339  0.000000  1
  P  P14  1  0.284719  0.882281  0.000000  1
  P  P15  1  0.002327  0.995228  0.500000  1
  P  P16  1  0.410612  0.302006  0.500000  1
  P  P17  1  0.698923  0.107205  0.500000  1
  P  P18  1  0.891860  0.594371  0.500000  1
  W  W19  1  0.215600  0.101233  0.000000  1
  W  W20  1  0.900098  0.113019  0.000000  1
