# generated using pymatgen
data_Tm7CoBr12
_symmetry_space_group_name_H-M   'P 1'
_cell_length_a   9.12735754
_cell_length_b   9.12735836
_cell_length_c   9.12735903
_cell_angle_alpha   106.78480058
_cell_angle_beta   106.78480173
_cell_angle_gamma   106.78481157
_symmetry_Int_Tables_number   1
_chemical_formula_structural   Tm7CoBr12
_chemical_formula_sum   'Tm7 Co1 Br12'
_cell_volume   636.93931721
_cell_formula_units_Z   1
loop_
 _symmetry_equiv_pos_site_id
 _symmetry_equiv_pos_as_xyz
  1  'x, y, z'
loop_
 _atom_site_type_symbol
 _atom_site_label
 _atom_site_symmetry_multiplicity
 _atom_site_fract_x
 _atom_site_fract_y
 _atom_site_fract_z
 _atom_site_occupancy
  Tm  Tm0  1  0.297525  0.094747  0.021587  1
  Tm  Tm1  1  0.094747  0.021587  0.297525  1
  Tm  Tm2  1  0.021587  0.297525  0.094747  1
  Tm  Tm3  1  0.702475  0.905253  0.978413  1
  Tm  Tm4  1  0.905253  0.978413  0.702475  1
  Tm  Tm5  1  0.978413  0.702475  0.905253  1
  Tm  Tm6  1  0.500000  0.500000  0.500000  1
  Co  Co7  1  0.000000  0.000000  0.000000  1
  Br  Br8  1  0.220194  0.069853  0.676871  1
  Br  Br9  1  0.069853  0.676871  0.220194  1
  Br  Br10  1  0.676871  0.220194  0.069853  1
  Br  Br11  1  0.779806  0.930147  0.323129  1
  Br  Br12  1  0.930147  0.323129  0.779806  1
  Br  Br13  1  0.323129  0.779806  0.930147  1
  Br  Br14  1  0.387675  0.460901  0.168051  1
  Br  Br15  1  0.460901  0.168051  0.387675  1
  Br  Br16  1  0.168051  0.387675  0.460901  1
  Br  Br17  1  0.612325  0.539099  0.831949  1
  Br  Br18  1  0.539099  0.831949  0.612325  1
  Br  Br19  1  0.831949  0.612325  0.539099  1
