# generated using pymatgen
data_ZnHg6Pd12Au5
_symmetry_space_group_name_H-M   'P 1'
_cell_length_a   4.31861600
_cell_length_b   7.34782100
_cell_length_c   13.08755200
_cell_angle_alpha   89.99997127
_cell_angle_beta   89.99926038
_cell_angle_gamma   89.99999220
_symmetry_Int_Tables_number   1
_chemical_formula_structural   ZnHg6Pd12Au5
_chemical_formula_sum   'Zn1 Hg6 Pd12 Au5'
_cell_volume   415.29966195
_cell_formula_units_Z   1
loop_
 _symmetry_equiv_pos_site_id
 _symmetry_equiv_pos_as_xyz
  1  'x, y, z'
loop_
 _atom_site_type_symbol
 _atom_site_label
 _atom_site_symmetry_multiplicity
 _atom_site_fract_x
 _atom_site_fract_y
 _atom_site_fract_z
 _atom_site_occupancy
  Zn  Zn0  1  0.000000  0.500000  0.000000  1
  Hg  Hg1  1  0.000000  0.000000  0.000000  1
  Hg  Hg2  1  0.499965  0.500000  0.170584  1
  Hg  Hg3  1  0.999979  0.000000  0.329500  1
  Hg  Hg4  1  0.500000  0.500000  0.500000  1
  Hg  Hg5  1  0.000021  0.000000  0.670500  1
  Hg  Hg6  1  0.500035  0.500000  0.829416  1
  Pd  Pd7  1  0.500001  0.267372  0.000000  1
  Pd  Pd8  1  0.500001  0.732627  0.000000  1
  Pd  Pd9  1  0.000016  0.256890  0.159504  1
  Pd  Pd10  1  0.000016  0.743111  0.159504  1
  Pd  Pd11  1  0.499975  0.247128  0.333207  1
  Pd  Pd12  1  0.499975  0.752872  0.333207  1
  Pd  Pd13  1  0.000000  0.249458  0.500000  1
  Pd  Pd14  1  0.000000  0.750542  0.500000  1
  Pd  Pd15  1  0.500024  0.247129  0.666793  1
  Pd  Pd16  1  0.500024  0.752873  0.666793  1
  Pd  Pd17  1  0.999983  0.256890  0.840496  1
  Pd  Pd18  1  0.999983  0.743111  0.840496  1
  Au  Au19  1  0.499987  0.000000  0.163140  1
  Au  Au20  1  0.999988  0.500000  0.332230  1
  Au  Au21  1  0.500000  0.000000  0.500000  1
  Au  Au22  1  0.000012  0.500000  0.667770  1
  Au  Au23  1  0.500013  0.000000  0.836860  1
