# generated using pymatgen
data_GaCo2Ni(Mo3N)2
_symmetry_space_group_name_H-M   'P 1'
_cell_length_a   6.71134480
_cell_length_b   6.71194225
_cell_length_c   6.70417632
_cell_angle_alpha   90.52124025
_cell_angle_beta   89.93272040
_cell_angle_gamma   90.05065090
_symmetry_Int_Tables_number   1
_chemical_formula_structural   GaCo2Ni(Mo3N)2
_chemical_formula_sum   'Ga2 Co4 Ni2 Mo12 N4'
_cell_volume   301.98457018
_cell_formula_units_Z   2
loop_
 _symmetry_equiv_pos_site_id
 _symmetry_equiv_pos_as_xyz
  1  'x, y, z'
loop_
 _atom_site_type_symbol
 _atom_site_label
 _atom_site_symmetry_multiplicity
 _atom_site_fract_x
 _atom_site_fract_y
 _atom_site_fract_z
 _atom_site_occupancy
  Ga  Ga0  1  0.317993  0.824134  0.932248  1
  Ga  Ga1  1  0.818458  0.177128  0.069443  1
  Co  Co2  1  0.183086  0.318135  0.568168  1
  Co  Co3  1  0.684054  0.683382  0.431425  1
  Co  Co4  1  0.934793  0.434263  0.316195  1
  Co  Co5  1  0.569810  0.928437  0.182760  1
  Ni  Ni6  1  0.434454  0.568396  0.685441  1
  Ni  Ni7  1  0.067468  0.069412  0.817404  1
  Mo  Mo8  1  0.380075  0.952582  0.539901  1
  Mo  Mo9  1  0.878643  0.047345  0.455382  1
  Mo  Mo10  1  0.128535  0.453180  0.946391  1
  Mo  Mo11  1  0.628672  0.547105  0.056174  1
  Mo  Mo12  1  0.800288  0.378188  0.693232  1
  Mo  Mo13  1  0.700495  0.871393  0.787972  1
  Mo  Mo14  1  0.201110  0.129226  0.213607  1
  Mo  Mo15  1  0.298723  0.621614  0.304692  1
  Mo  Mo16  1  0.944838  0.788312  0.134995  1
  Mo  Mo17  1  0.040843  0.692990  0.617836  1
  Mo  Mo18  1  0.448249  0.210074  0.867448  1
  Mo  Mo19  1  0.542879  0.304093  0.379630  1
  N  N20  1  0.625507  0.126625  0.622326  1
  N  N21  1  0.124543  0.873087  0.377495  1
  N  N22  1  0.873053  0.625463  0.874606  1
  N  N23  1  0.373431  0.375437  0.125229  1
