# generated using pymatgen
data_Li4Ac3TmPb4
_symmetry_space_group_name_H-M   'P 1'
_cell_length_a   4.90525000
_cell_length_b   8.07812077
_cell_length_c   8.47117100
_cell_angle_alpha   89.82020656
_cell_angle_beta   90.00000000
_cell_angle_gamma   90.00000000
_symmetry_Int_Tables_number   1
_chemical_formula_structural   Li4Ac3TmPb4
_chemical_formula_sum   'Li4 Ac3 Tm1 Pb4'
_cell_volume   335.67020869
_cell_formula_units_Z   1
loop_
 _symmetry_equiv_pos_site_id
 _symmetry_equiv_pos_as_xyz
  1  'x, y, z'
loop_
 _atom_site_type_symbol
 _atom_site_label
 _atom_site_symmetry_multiplicity
 _atom_site_fract_x
 _atom_site_fract_y
 _atom_site_fract_z
 _atom_site_occupancy
  Li  Li0  1  0.250000  0.704233  0.075995  1
  Li  Li1  1  0.250000  0.164591  0.429204  1
  Li  Li2  1  0.750000  0.833988  0.581754  1
  Li  Li3  1  0.750000  0.310703  0.919121  1
  Ac  Ac4  1  0.750000  0.000584  0.208215  1
  Ac  Ac5  1  0.750000  0.497517  0.285067  1
  Ac  Ac6  1  0.250000  0.499047  0.720202  1
  Tm  Tm7  1  0.250000  0.000692  0.776976  1
  Pb  Pb8  1  0.250000  0.270485  0.083597  1
  Pb  Pb9  1  0.250000  0.781489  0.417751  1
  Pb  Pb10  1  0.750000  0.205543  0.600736  1
  Pb  Pb11  1  0.750000  0.731130  0.901384  1
