# generated using pymatgen
data_ReHg3(SeF3)2
_symmetry_space_group_name_H-M   'P 1'
_cell_length_a   7.90384776
_cell_length_b   7.90158086
_cell_length_c   4.99998535
_cell_angle_alpha   90.00000578
_cell_angle_beta   90.18021044
_cell_angle_gamma   119.99051044
_symmetry_Int_Tables_number   1
_chemical_formula_structural   ReHg3(SeF3)2
_chemical_formula_sum   'Re1 Hg3 Se2 F6'
_cell_volume   270.45223524
_cell_formula_units_Z   1
loop_
 _symmetry_equiv_pos_site_id
 _symmetry_equiv_pos_as_xyz
  1  'x, y, z'
loop_
 _atom_site_type_symbol
 _atom_site_label
 _atom_site_symmetry_multiplicity
 _atom_site_fract_x
 _atom_site_fract_y
 _atom_site_fract_z
 _atom_site_occupancy
  Re  Re0  1  0.000000  0.000000  0.499999  1
  Hg  Hg1  1  0.500000  0.000000  0.000000  1
  Hg  Hg2  1  0.000000  0.500000  0.000000  1
  Hg  Hg3  1  0.500000  0.500000  0.000000  1
  Se  Se4  1  0.333819  0.666910  0.221848  1
  Se  Se5  1  0.666181  0.333090  0.778153  1
  F  F6  1  0.119016  0.238486  0.279944  1
  F  F7  1  0.119016  0.880530  0.279944  1
  F  F8  1  0.760769  0.880385  0.279183  1
  F  F9  1  0.239229  0.119615  0.720818  1
  F  F10  1  0.880984  0.119470  0.720057  1
  F  F11  1  0.880984  0.761514  0.720057  1
