# generated using pymatgen
data_Tm7Zr(Nb3Si4)4
_symmetry_space_group_name_H-M   'P 1'
_cell_length_a   7.01668268
_cell_length_b   7.01785467
_cell_length_c   12.96199378
_cell_angle_alpha   90.03678618
_cell_angle_beta   90.15313742
_cell_angle_gamma   89.92447607
_symmetry_Int_Tables_number   1
_chemical_formula_structural   Tm7Zr(Nb3Si4)4
_chemical_formula_sum   'Tm7 Zr1 Nb12 Si16'
_cell_volume   638.27230168
_cell_formula_units_Z   1
loop_
 _symmetry_equiv_pos_site_id
 _symmetry_equiv_pos_as_xyz
  1  'x, y, z'
loop_
 _atom_site_type_symbol
 _atom_site_label
 _atom_site_symmetry_multiplicity
 _atom_site_fract_x
 _atom_site_fract_y
 _atom_site_fract_z
 _atom_site_occupancy
  Tm  Tm0  1  0.996783  0.339547  0.218859  1
  Tm  Tm1  1  0.001542  0.658934  0.717867  1
  Tm  Tm2  1  0.158943  0.498878  0.467207  1
  Tm  Tm3  1  0.501318  0.841408  0.031729  1
  Tm  Tm4  1  0.841362  0.501383  0.968858  1
  Tm  Tm5  1  0.498592  0.159063  0.530890  1
  Tm  Tm6  1  0.340974  0.998445  0.781879  1
  Zr  Zr7  1  0.654488  0.995672  0.283194  1
  Nb  Nb8  1  0.171917  0.170778  0.001148  1
  Nb  Nb9  1  0.828025  0.829656  0.499162  1
  Nb  Nb10  1  0.331530  0.672438  0.250311  1
  Nb  Nb11  1  0.671470  0.328634  0.750003  1
  Nb  Nb12  1  0.152732  0.995106  0.375196  1
  Nb  Nb13  1  0.846621  0.007046  0.876175  1
  Nb  Nb14  1  0.506012  0.653110  0.625744  1
  Nb  Nb15  1  0.347893  0.493947  0.873998  1
  Nb  Nb16  1  0.495798  0.346429  0.126873  1
  Nb  Nb17  1  0.653545  0.506518  0.372842  1
  Nb  Nb18  1  0.992249  0.153462  0.623232  1
  Nb  Nb19  1  0.005199  0.849376  0.124907  1
  Si  Si20  1  0.298144  0.044849  0.187002  1
  Si  Si21  1  0.704315  0.955190  0.686335  1
  Si  Si22  1  0.455372  0.795850  0.435977  1
  Si  Si23  1  0.205486  0.545527  0.064174  1
  Si  Si24  1  0.545010  0.204387  0.936919  1
  Si  Si25  1  0.795517  0.455372  0.562600  1
  Si  Si26  1  0.045176  0.295521  0.813804  1
  Si  Si27  1  0.954215  0.706007  0.313248  1
  Si  Si28  1  0.368049  0.291748  0.319226  1
  Si  Si29  1  0.635013  0.704271  0.818406  1
  Si  Si30  1  0.204585  0.866394  0.567988  1
  Si  Si31  1  0.134185  0.795414  0.931970  1
  Si  Si32  1  0.793843  0.134236  0.070480  1
  Si  Si33  1  0.863459  0.203105  0.428603  1
  Si  Si34  1  0.295320  0.365363  0.681466  1
  Si  Si35  1  0.705318  0.636934  0.181729  1
