# generated using pymatgen
data_Hf3Nb(SiRh)4
_symmetry_space_group_name_H-M   'P 1'
_cell_length_a   3.88820400
_cell_length_b   6.49961385
_cell_length_c   7.44177224
_cell_angle_alpha   90.27489401
_cell_angle_beta   90.00000000
_cell_angle_gamma   90.00000000
_symmetry_Int_Tables_number   1
_chemical_formula_structural   Hf3Nb(SiRh)4
_chemical_formula_sum   'Hf3 Nb1 Si4 Rh4'
_cell_volume   188.06499808
_cell_formula_units_Z   1
loop_
 _symmetry_equiv_pos_site_id
 _symmetry_equiv_pos_as_xyz
  1  'x, y, z'
loop_
 _atom_site_type_symbol
 _atom_site_label
 _atom_site_symmetry_multiplicity
 _atom_site_fract_x
 _atom_site_fract_y
 _atom_site_fract_z
 _atom_site_occupancy
  Hf  Hf0  1  0.750000  0.478667  0.320723  1
  Hf  Hf1  1  0.250000  0.021409  0.814121  1
  Hf  Hf2  1  0.750000  0.975530  0.183079  1
  Nb  Nb3  1  0.250000  0.521525  0.678875  1
  Si  Si4  1  0.250000  0.272622  0.118965  1
  Si  Si5  1  0.250000  0.770679  0.387758  1
  Si  Si6  1  0.750000  0.718747  0.873652  1
  Si  Si7  1  0.750000  0.235902  0.621141  1
  Rh  Rh8  1  0.250000  0.651169  0.063869  1
  Rh  Rh9  1  0.250000  0.149974  0.433841  1
  Rh  Rh10  1  0.750000  0.855835  0.564588  1
  Rh  Rh11  1  0.750000  0.347943  0.939389  1
