# generated using pymatgen
data_Ba4Ga2Te2S5
_symmetry_space_group_name_H-M   'P 1'
_cell_length_a   8.45237600
_cell_length_b   8.45237600
_cell_length_c   10.75763600
_cell_angle_alpha   90.00000000
_cell_angle_beta   90.00000000
_cell_angle_gamma   90.00000000
_symmetry_Int_Tables_number   1
_chemical_formula_structural   Ba4Ga2Te2S5
_chemical_formula_sum   'Ba8 Ga4 Te4 S10'
_cell_volume   768.55413164
_cell_formula_units_Z   2
loop_
 _symmetry_equiv_pos_site_id
 _symmetry_equiv_pos_as_xyz
  1  'x, y, z'
loop_
 _atom_site_type_symbol
 _atom_site_label
 _atom_site_symmetry_multiplicity
 _atom_site_fract_x
 _atom_site_fract_y
 _atom_site_fract_z
 _atom_site_occupancy
  Ba  Ba0  1  0.660598  0.160598  0.000000  1
  Ba  Ba1  1  0.339402  0.839402  0.000000  1
  Ba  Ba2  1  0.839402  0.660598  0.000000  1
  Ba  Ba3  1  0.160598  0.339402  0.000000  1
  Ba  Ba4  1  0.500000  0.500000  0.711161  1
  Ba  Ba5  1  0.000000  0.000000  0.711161  1
  Ba  Ba6  1  0.500000  0.500000  0.288839  1
  Ba  Ba7  1  0.000000  0.000000  0.288839  1
  Ga  Ga8  1  0.500000  0.000000  0.662653  1
  Ga  Ga9  1  0.000000  0.500000  0.662653  1
  Ga  Ga10  1  0.500000  0.000000  0.337347  1
  Ga  Ga11  1  0.000000  0.500000  0.337347  1
  Te  Te12  1  0.671282  0.171282  0.500000  1
  Te  Te13  1  0.328718  0.828718  0.500000  1
  Te  Te14  1  0.828718  0.671282  0.500000  1
  Te  Te15  1  0.171282  0.328718  0.500000  1
  S  S16  1  0.648643  0.851357  0.796713  1
  S  S17  1  0.351357  0.148643  0.796713  1
  S  S18  1  0.851357  0.351357  0.796713  1
  S  S19  1  0.148643  0.648643  0.796713  1
  S  S20  1  0.351357  0.148643  0.203287  1
  S  S21  1  0.648643  0.851357  0.203287  1
  S  S22  1  0.148643  0.648643  0.203287  1
  S  S23  1  0.851357  0.351357  0.203287  1
  S  S24  1  0.500000  0.500000  0.000000  1
  S  S25  1  0.000000  0.000000  0.000000  1
