# generated using pymatgen
data_HoTm(Tc2Ge)4
_symmetry_space_group_name_H-M   'P 1'
_cell_length_a   7.24054704
_cell_length_b   7.61752420
_cell_length_c   4.20886000
_cell_angle_alpha   90.00000000
_cell_angle_beta   90.00000000
_cell_angle_gamma   89.89497089
_symmetry_Int_Tables_number   1
_chemical_formula_structural   HoTm(Tc2Ge)4
_chemical_formula_sum   'Ho1 Tm1 Tc8 Ge4'
_cell_volume   232.13946133
_cell_formula_units_Z   1
loop_
 _symmetry_equiv_pos_site_id
 _symmetry_equiv_pos_as_xyz
  1  'x, y, z'
loop_
 _atom_site_type_symbol
 _atom_site_label
 _atom_site_symmetry_multiplicity
 _atom_site_fract_x
 _atom_site_fract_y
 _atom_site_fract_z
 _atom_site_occupancy
  Ho  Ho0  1  0.500000  0.500000  0.000000  1
  Tm  Tm1  1  0.000000  0.000000  0.500000  1
  Tc  Tc2  1  0.853050  0.394344  0.500000  1
  Tc  Tc3  1  0.146950  0.605656  0.500000  1
  Tc  Tc4  1  0.647570  0.894689  0.000000  1
  Tc  Tc5  1  0.352430  0.105311  0.000000  1
  Tc  Tc6  1  0.587647  0.152983  0.500000  1
  Tc  Tc7  1  0.412353  0.847017  0.500000  1
  Tc  Tc8  1  0.912862  0.653561  0.000000  1
  Tc  Tc9  1  0.087138  0.346439  0.000000  1
  Ge  Ge10  1  0.284730  0.304639  0.500000  1
  Ge  Ge11  1  0.715270  0.695361  0.500000  1
  Ge  Ge12  1  0.214724  0.805227  0.000000  1
  Ge  Ge13  1  0.785276  0.194773  0.000000  1
