# generated using pymatgen
data_YbLu3(Ge4Mo3)2
_symmetry_space_group_name_H-M   'P 1'
_cell_length_a   6.85644000
_cell_length_b   7.03572755
_cell_length_c   13.08902344
_cell_angle_alpha   89.86973596
_cell_angle_beta   90.00000000
_cell_angle_gamma   90.00000000
_symmetry_Int_Tables_number   1
_chemical_formula_structural   YbLu3(Ge4Mo3)2
_chemical_formula_sum   'Yb2 Lu6 Ge16 Mo12'
_cell_volume   631.41343266
_cell_formula_units_Z   2
loop_
 _symmetry_equiv_pos_site_id
 _symmetry_equiv_pos_as_xyz
  1  'x, y, z'
loop_
 _atom_site_type_symbol
 _atom_site_label
 _atom_site_symmetry_multiplicity
 _atom_site_fract_x
 _atom_site_fract_y
 _atom_site_fract_z
 _atom_site_occupancy
  Yb  Yb0  1  0.492013  0.328956  0.090836  1
  Yb  Yb1  1  0.992013  0.171044  0.409164  1
  Lu  Lu2  1  0.509754  0.671345  0.591523  1
  Lu  Lu3  1  0.009754  0.828655  0.908477  1
  Lu  Lu4  1  0.509810  0.671178  0.908801  1
  Lu  Lu5  1  0.009810  0.828822  0.591199  1
  Lu  Lu6  1  0.491525  0.327686  0.407834  1
  Lu  Lu7  1  0.991525  0.172314  0.092166  1
  Ge  Ge8  1  0.671052  0.043793  0.546613  1
  Ge  Ge9  1  0.171052  0.456207  0.953387  1
  Ge  Ge10  1  0.328657  0.957796  0.047202  1
  Ge  Ge11  1  0.828657  0.542204  0.452798  1
  Ge  Ge12  1  0.328576  0.957514  0.453124  1
  Ge  Ge13  1  0.828576  0.542486  0.046876  1
  Ge  Ge14  1  0.671180  0.043581  0.952997  1
  Ge  Ge15  1  0.171180  0.456419  0.547003  1
  Ge  Ge16  1  0.528594  0.370796  0.750498  1
  Ge  Ge17  1  0.028594  0.129204  0.749502  1
  Ge  Ge18  1  0.470604  0.627406  0.249469  1
  Ge  Ge19  1  0.970604  0.872594  0.250531  1
  Ge  Ge20  1  0.809041  0.646269  0.749970  1
  Ge  Ge21  1  0.309041  0.853731  0.750030  1
  Ge  Ge22  1  0.191517  0.354023  0.250025  1
  Ge  Ge23  1  0.691517  0.145977  0.249975  1
  Mo  Mo24  1  0.828407  0.344136  0.627262  1
  Mo  Mo25  1  0.328407  0.155864  0.872738  1
  Mo  Mo26  1  0.167949  0.660071  0.126284  1
  Mo  Mo27  1  0.667949  0.839929  0.373716  1
  Mo  Mo28  1  0.169717  0.658770  0.373319  1
  Mo  Mo29  1  0.669717  0.841230  0.126681  1
  Mo  Mo30  1  0.830160  0.343263  0.873610  1
  Mo  Mo31  1  0.330160  0.156737  0.626390  1
  Mo  Mo32  1  0.664712  0.003433  0.750137  1
  Mo  Mo33  1  0.164712  0.496567  0.749863  1
  Mo  Mo34  1  0.336734  0.992751  0.250082  1
  Mo  Mo35  1  0.836734  0.507249  0.249918  1
