# generated using pymatgen
data_SmY6P12Pd17
_symmetry_space_group_name_H-M   'P 1'
_cell_length_a   12.33294218
_cell_length_b   12.33294275
_cell_length_c   13.60987600
_cell_angle_alpha   68.24436614
_cell_angle_beta   68.24436508
_cell_angle_gamma   18.77655041
_symmetry_Int_Tables_number   1
_chemical_formula_structural   SmY6P12Pd17
_chemical_formula_sum   'Sm1 Y6 P12 Pd17'
_cell_volume   617.50626364
_cell_formula_units_Z   1
loop_
 _symmetry_equiv_pos_site_id
 _symmetry_equiv_pos_as_xyz
  1  'x, y, z'
loop_
 _atom_site_type_symbol
 _atom_site_label
 _atom_site_symmetry_multiplicity
 _atom_site_fract_x
 _atom_site_fract_y
 _atom_site_fract_z
 _atom_site_occupancy
  Sm  Sm0  1  0.581479  0.581479  0.738591  1
  Y  Y1  1  0.500095  0.500095  0.499635  1
  Y  Y2  1  0.364828  0.364828  0.001370  1
  Y  Y3  1  0.634994  0.634994  0.999936  1
  Y  Y4  1  0.234070  0.234070  0.312887  1
  Y  Y5  1  0.766176  0.766176  0.686311  1
  Y  Y6  1  0.418414  0.418414  0.260971  1
  P  P7  1  0.061979  0.061979  0.924749  1
  P  P8  1  0.937983  0.937983  0.076709  1
  P  P9  1  0.887144  0.887144  0.829336  1
  P  P10  1  0.112969  0.112969  0.170517  1
  P  P11  1  0.189053  0.189053  0.621811  1
  P  P12  1  0.811427  0.811427  0.377878  1
  P  P13  1  0.364843  0.364843  0.581138  1
  P  P14  1  0.635569  0.635569  0.418543  1
  P  P15  1  0.011695  0.011695  0.665851  1
  P  P16  1  0.987526  0.987526  0.331797  1
  P  P17  1  0.231369  0.231369  0.882866  1
  P  P18  1  0.768758  0.768758  0.118323  1
  Pd  Pd19  1  0.839317  0.839317  0.194191  1
  Pd  Pd20  1  0.161406  0.161406  0.806687  1
  Pd  Pd21  1  0.026228  0.026228  0.124800  1
  Pd  Pd22  1  0.972732  0.972732  0.877421  1
  Pd  Pd23  1  0.888551  0.888551  0.455877  1
  Pd  Pd24  1  0.111774  0.111774  0.541289  1
  Pd  Pd25  1  0.499759  0.499759  0.001476  1
  Pd  Pd26  1  0.545651  0.545651  0.255063  1
  Pd  Pd27  1  0.453372  0.453372  0.745646  1
  Pd  Pd28  1  0.296595  0.296595  0.489701  1
  Pd  Pd29  1  0.704724  0.704724  0.508775  1
  Pd  Pd30  1  0.667819  0.667819  0.225360  1
  Pd  Pd31  1  0.331982  0.331982  0.774593  1
  Pd  Pd32  1  0.909119  0.909119  0.640863  1
  Pd  Pd33  1  0.090341  0.090341  0.357977  1
  Pd  Pd34  1  0.216139  0.216139  0.069028  1
  Pd  Pd35  1  0.784116  0.784116  0.932033  1
