# generated using pymatgen
data_Na2MgCd(H6Ir)2
_symmetry_space_group_name_H-M   'P 1'
_cell_length_a   7.03194400
_cell_length_b   7.03194400
_cell_length_c   6.99437800
_cell_angle_alpha   90.00000000
_cell_angle_beta   90.00000000
_cell_angle_gamma   90.00000000
_symmetry_Int_Tables_number   1
_chemical_formula_structural   Na2MgCd(H6Ir)2
_chemical_formula_sum   'Na4 Mg2 Cd2 H24 Ir4'
_cell_volume   345.85965695
_cell_formula_units_Z   2
loop_
 _symmetry_equiv_pos_site_id
 _symmetry_equiv_pos_as_xyz
  1  'x, y, z'
loop_
 _atom_site_type_symbol
 _atom_site_label
 _atom_site_symmetry_multiplicity
 _atom_site_fract_x
 _atom_site_fract_y
 _atom_site_fract_z
 _atom_site_occupancy
  Na  Na0  1  0.000000  0.000000  0.500000  1
  Na  Na1  1  0.000000  0.500000  0.000000  1
  Na  Na2  1  0.500000  0.000000  0.000000  1
  Na  Na3  1  0.000000  0.000000  0.000000  1
  Mg  Mg4  1  0.500000  0.500000  0.500000  1
  Mg  Mg5  1  0.500000  0.500000  0.000000  1
  Cd  Cd6  1  0.000000  0.500000  0.500000  1
  Cd  Cd7  1  0.500000  0.000000  0.500000  1
  H  H8  1  0.738887  0.738887  0.501875  1
  H  H9  1  0.261113  0.261113  0.501875  1
  H  H10  1  0.030977  0.743607  0.745388  1
  H  H11  1  0.256393  0.969023  0.745388  1
  H  H12  1  0.743607  0.030977  0.745388  1
  H  H13  1  0.969023  0.256393  0.745388  1
  H  H14  1  0.732569  0.505318  0.750146  1
  H  H15  1  0.505318  0.732569  0.750146  1
  H  H16  1  0.494682  0.267431  0.750146  1
  H  H17  1  0.267431  0.494682  0.750146  1
  H  H18  1  0.263703  0.736297  0.975933  1
  H  H19  1  0.736297  0.263703  0.975933  1
  H  H20  1  0.736297  0.736297  0.024067  1
  H  H21  1  0.263703  0.263703  0.024067  1
  H  H22  1  0.267431  0.505318  0.249854  1
  H  H23  1  0.494682  0.732569  0.249854  1
  H  H24  1  0.505318  0.267431  0.249854  1
  H  H25  1  0.732569  0.494682  0.249854  1
  H  H26  1  0.969023  0.743607  0.254612  1
  H  H27  1  0.743607  0.969023  0.254612  1
  H  H28  1  0.256393  0.030977  0.254612  1
  H  H29  1  0.030977  0.256393  0.254612  1
  H  H30  1  0.261113  0.738887  0.498125  1
  H  H31  1  0.738887  0.261113  0.498125  1
  Ir  Ir32  1  0.269084  0.730916  0.736287  1
  Ir  Ir33  1  0.730916  0.269084  0.736287  1
  Ir  Ir34  1  0.730916  0.730916  0.263713  1
  Ir  Ir35  1  0.269084  0.269084  0.263713  1
