# generated using pymatgen
data_TbZrMo3P7Rh9
_symmetry_space_group_name_H-M   'P 1'
_cell_length_a   3.93061144
_cell_length_b   9.49638049
_cell_length_c   9.49987134
_cell_angle_alpha   120.00222110
_cell_angle_beta   90.07684541
_cell_angle_gamma   89.89978970
_symmetry_Int_Tables_number   1
_chemical_formula_structural   TbZrMo3P7Rh9
_chemical_formula_sum   'Tb1 Zr1 Mo3 P7 Rh9'
_cell_volume   307.08325011
_cell_formula_units_Z   1
loop_
 _symmetry_equiv_pos_site_id
 _symmetry_equiv_pos_as_xyz
  1  'x, y, z'
loop_
 _atom_site_type_symbol
 _atom_site_label
 _atom_site_symmetry_multiplicity
 _atom_site_fract_x
 _atom_site_fract_y
 _atom_site_fract_z
 _atom_site_occupancy
  Tb  Tb0  1  0.261794  0.666653  0.333304  1
  Zr  Zr1  1  0.761972  0.333337  0.666675  1
  Mo  Mo2  1  0.761948  0.090135  0.872062  1
  Mo  Mo3  1  0.761986  0.128001  0.218243  1
  Mo  Mo4  1  0.761991  0.781759  0.909684  1
  P  P5  1  0.261908  0.000012  0.999986  1
  P  P6  1  0.761819  0.880396  0.594372  1
  P  P7  1  0.761896  0.405622  0.286010  1
  P  P8  1  0.761858  0.714004  0.119586  1
  P  P9  1  0.261879  0.117657  0.414643  1
  P  P10  1  0.261918  0.585410  0.703075  1
  P  P11  1  0.261947  0.296964  0.882341  1
  Rh  Rh12  1  0.261863  0.883070  0.161019  1
  Rh  Rh13  1  0.261859  0.838959  0.721969  1
  Rh  Rh14  1  0.261881  0.278046  0.117100  1
  Rh  Rh15  1  0.761870  0.608449  0.559066  1
  Rh  Rh16  1  0.761879  0.440857  0.049335  1
  Rh  Rh17  1  0.761965  0.950619  0.391504  1
  Rh  Rh18  1  0.261986  0.366890  0.441337  1
  Rh  Rh19  1  0.261863  0.558750  0.925591  1
  Rh  Rh20  1  0.261919  0.074408  0.633099  1
