# generated using pymatgen
data_YbU8O18
_symmetry_space_group_name_H-M   'P 1'
_cell_length_a   6.60362411
_cell_length_b   6.59189732
_cell_length_c   8.52998484
_cell_angle_alpha   82.67465089
_cell_angle_beta   75.09687100
_cell_angle_gamma   80.45776860
_symmetry_Int_Tables_number   1
_chemical_formula_structural   YbU8O18
_chemical_formula_sum   'Yb1 U8 O18'
_cell_volume   352.45273605
_cell_formula_units_Z   1
loop_
 _symmetry_equiv_pos_site_id
 _symmetry_equiv_pos_as_xyz
  1  'x, y, z'
loop_
 _atom_site_type_symbol
 _atom_site_label
 _atom_site_symmetry_multiplicity
 _atom_site_fract_x
 _atom_site_fract_y
 _atom_site_fract_z
 _atom_site_occupancy
  Yb  Yb0  1  0.000000  0.000000  0.500000  1
  U  U1  1  0.332493  0.670329  0.169158  1
  U  U2  1  0.781212  0.554483  0.390660  1
  U  U3  1  0.111089  0.221251  0.059451  1
  U  U4  1  0.667507  0.329671  0.830842  1
  U  U5  1  0.218788  0.445517  0.609340  1
  U  U6  1  0.556071  0.109904  0.281104  1
  U  U7  1  0.888911  0.778749  0.940549  1
  U  U8  1  0.443929  0.890096  0.718896  1
  O  O9  1  0.581030  0.665071  0.914402  1
  O  O10  1  0.031254  0.557554  0.134770  1
  O  O11  1  0.418970  0.334929  0.085598  1
  O  O12  1  0.087138  0.657365  0.411220  1
  O  O13  1  0.806497  0.108815  0.028955  1
  O  O14  1  0.473690  0.449506  0.361223  1
  O  O15  1  0.857581  0.229808  0.301674  1
  O  O16  1  0.526310  0.550494  0.638777  1
  O  O17  1  0.260008  0.999888  0.244297  1
  O  O18  1  0.912862  0.342635  0.588780  1
  O  O19  1  0.193503  0.891185  0.971045  1
  O  O20  1  0.739992  0.000112  0.755703  1
  O  O21  1  0.685794  0.880585  0.470555  1
  O  O22  1  0.356210  0.225115  0.809762  1
  O  O23  1  0.643790  0.774885  0.190238  1
  O  O24  1  0.314206  0.119415  0.529445  1
  O  O25  1  0.968746  0.442446  0.865230  1
  O  O26  1  0.142419  0.770192  0.698326  1
