# generated using pymatgen
data_TbNd8HoIr4
_symmetry_space_group_name_H-M   'P 1'
_cell_length_a   6.66517395
_cell_length_b   7.27135446
_cell_length_c   8.89336316
_cell_angle_alpha   96.25827907
_cell_angle_beta   112.00746114
_cell_angle_gamma   89.99999445
_symmetry_Int_Tables_number   1
_chemical_formula_structural   TbNd8HoIr4
_chemical_formula_sum   'Tb1 Nd8 Ho1 Ir4'
_cell_volume   396.83771071
_cell_formula_units_Z   1
loop_
 _symmetry_equiv_pos_site_id
 _symmetry_equiv_pos_as_xyz
  1  'x, y, z'
loop_
 _atom_site_type_symbol
 _atom_site_label
 _atom_site_symmetry_multiplicity
 _atom_site_fract_x
 _atom_site_fract_y
 _atom_site_fract_z
 _atom_site_occupancy
  Tb  Tb0  1  0.436378  0.750000  0.000000  1
  Nd  Nd1  1  0.974610  0.922980  0.181551  1
  Nd  Nd2  1  0.793060  0.577020  0.818449  1
  Nd  Nd3  1  0.025280  0.077496  0.818710  1
  Nd  Nd4  1  0.206569  0.422504  0.181290  1
  Nd  Nd5  1  0.648565  0.813538  0.433079  1
  Nd  Nd6  1  0.215487  0.686462  0.566921  1
  Nd  Nd7  1  0.351960  0.186545  0.567386  1
  Nd  Nd8  1  0.784574  0.313455  0.432614  1
  Ho  Ho9  1  0.563186  0.250000  0.000000  1
  Ir  Ir10  1  0.812378  0.569826  0.212094  1
  Ir  Ir11  1  0.600285  0.930174  0.787906  1
  Ir  Ir12  1  0.187753  0.429088  0.787837  1
  Ir  Ir13  1  0.399914  0.070912  0.212163  1
