# generated using pymatgen
data_Pr6Nd2DyRh6
_symmetry_space_group_name_H-M   'P 1'
_cell_length_a   7.65754987
_cell_length_b   7.65754882
_cell_length_c   7.65754901
_cell_angle_alpha   71.21828111
_cell_angle_beta   71.21828648
_cell_angle_gamma   71.21827975
_symmetry_Int_Tables_number   1
_chemical_formula_structural   Pr6Nd2DyRh6
_chemical_formula_sum   'Pr6 Nd2 Dy1 Rh6'
_cell_volume   390.35854247
_cell_formula_units_Z   1
loop_
 _symmetry_equiv_pos_site_id
 _symmetry_equiv_pos_as_xyz
  1  'x, y, z'
loop_
 _atom_site_type_symbol
 _atom_site_label
 _atom_site_symmetry_multiplicity
 _atom_site_fract_x
 _atom_site_fract_y
 _atom_site_fract_z
 _atom_site_occupancy
  Pr  Pr0  1  0.162697  0.389817  0.667415  1
  Pr  Pr1  1  0.667415  0.162697  0.389817  1
  Pr  Pr2  1  0.389817  0.667415  0.162697  1
  Pr  Pr3  1  0.837303  0.610183  0.332585  1
  Pr  Pr4  1  0.332585  0.837303  0.610183  1
  Pr  Pr5  1  0.610183  0.332585  0.837303  1
  Nd  Nd6  1  0.799253  0.799253  0.799253  1
  Nd  Nd7  1  0.200747  0.200747  0.200747  1
  Dy  Dy8  1  0.000000  0.000000  0.000000  1
  Rh  Rh9  1  0.959903  0.157018  0.595988  1
  Rh  Rh10  1  0.595988  0.959903  0.157018  1
  Rh  Rh11  1  0.157018  0.595988  0.959903  1
  Rh  Rh12  1  0.040097  0.842982  0.404012  1
  Rh  Rh13  1  0.404012  0.040097  0.842982  1
  Rh  Rh14  1  0.842982  0.404012  0.040097  1
