# generated using pymatgen
data_NdErTmRh9
_symmetry_space_group_name_H-M   'P 1'
_cell_length_a   5.28906319
_cell_length_b   5.28897915
_cell_length_c   17.46362100
_cell_angle_alpha   90.00000000
_cell_angle_beta   90.00000000
_cell_angle_gamma   119.98502407
_symmetry_Int_Tables_number   1
_chemical_formula_structural   NdErTmRh9
_chemical_formula_sum   'Nd2 Er2 Tm2 Rh18'
_cell_volume   423.13705477
_cell_formula_units_Z   2
loop_
 _symmetry_equiv_pos_site_id
 _symmetry_equiv_pos_as_xyz
  1  'x, y, z'
loop_
 _atom_site_type_symbol
 _atom_site_label
 _atom_site_symmetry_multiplicity
 _atom_site_fract_x
 _atom_site_fract_y
 _atom_site_fract_z
 _atom_site_occupancy
  Nd  Nd0  1  0.333331  0.666684  0.750050  1
  Nd  Nd1  1  0.666669  0.333316  0.250050  1
  Er  Er2  1  0.333330  0.666715  0.541006  1
  Er  Er3  1  0.666670  0.333285  0.041006  1
  Tm  Tm4  1  0.666701  0.333319  0.458900  1
  Tm  Tm5  1  0.333299  0.666681  0.958900  1
  Rh  Rh6  1  0.167571  0.335105  0.124362  1
  Rh  Rh7  1  0.832429  0.664895  0.624362  1
  Rh  Rh8  1  0.664903  0.832425  0.124348  1
  Rh  Rh9  1  0.167591  0.832413  0.124379  1
  Rh  Rh10  1  0.832409  0.167587  0.624379  1
  Rh  Rh11  1  0.335097  0.167575  0.624348  1
  Rh  Rh12  1  0.832431  0.664930  0.875680  1
  Rh  Rh13  1  0.832426  0.167571  0.875665  1
  Rh  Rh14  1  0.335069  0.167563  0.875698  1
  Rh  Rh15  1  0.664931  0.832437  0.375698  1
  Rh  Rh16  1  0.167574  0.832429  0.375665  1
  Rh  Rh17  1  0.167569  0.335070  0.375680  1
  Rh  Rh18  1  0.999854  0.000005  0.249955  1
  Rh  Rh19  1  0.000146  0.999995  0.749955  1
  Rh  Rh20  1  0.333527  0.666623  0.250007  1
  Rh  Rh21  1  0.666473  0.333377  0.750007  1
  Rh  Rh22  1  0.000000  0.999993  0.999949  1
  Rh  Rh23  1  0.000000  0.000007  0.499949  1
