# generated using pymatgen
data_Sc2Pa6SnBi9
_symmetry_space_group_name_H-M   'P 1'
_cell_length_a   9.53186900
_cell_length_b   9.53186951
_cell_length_c   6.36931600
_cell_angle_alpha   90.00000000
_cell_angle_beta   90.00000000
_cell_angle_gamma   120.00000170
_symmetry_Int_Tables_number   1
_chemical_formula_structural   Sc2Pa6SnBi9
_chemical_formula_sum   'Sc2 Pa6 Sn1 Bi9'
_cell_volume   501.16366159
_cell_formula_units_Z   1
loop_
 _symmetry_equiv_pos_site_id
 _symmetry_equiv_pos_as_xyz
  1  'x, y, z'
loop_
 _atom_site_type_symbol
 _atom_site_label
 _atom_site_symmetry_multiplicity
 _atom_site_fract_x
 _atom_site_fract_y
 _atom_site_fract_z
 _atom_site_occupancy
  Sc  Sc0  1  0.000000  0.000000  0.000000  1
  Sc  Sc1  1  0.000000  0.000000  0.500000  1
  Pa  Pa2  1  0.004818  0.612342  0.253728  1
  Pa  Pa3  1  0.387658  0.392476  0.253728  1
  Pa  Pa4  1  0.387658  0.995182  0.746272  1
  Pa  Pa5  1  0.607524  0.612342  0.746272  1
  Pa  Pa6  1  0.607524  0.995182  0.253728  1
  Pa  Pa7  1  0.004818  0.392476  0.746272  1
  Sn  Sn8  1  0.333333  0.666667  0.500000  1
  Bi  Bi9  1  0.999331  0.268601  0.249947  1
  Bi  Bi10  1  0.666667  0.333333  0.000000  1
  Bi  Bi11  1  0.333333  0.666667  0.000000  1
  Bi  Bi12  1  0.269270  0.268601  0.750053  1
  Bi  Bi13  1  0.731399  0.000669  0.750053  1
  Bi  Bi14  1  0.999331  0.730730  0.750053  1
  Bi  Bi15  1  0.731399  0.730730  0.249947  1
  Bi  Bi16  1  0.269270  0.000669  0.249947  1
  Bi  Bi17  1  0.666667  0.333333  0.500000  1
