# generated using pymatgen
data_Y4AlTcIr6
_symmetry_space_group_name_H-M   'P 1'
_cell_length_a   5.47287300
_cell_length_b   5.47287407
_cell_length_c   8.37262600
_cell_angle_alpha   90.00000000
_cell_angle_beta   90.00000000
_cell_angle_gamma   119.99999956
_symmetry_Int_Tables_number   1
_chemical_formula_structural   Y4AlTcIr6
_chemical_formula_sum   'Y4 Al1 Tc1 Ir6'
_cell_volume   217.18166153
_cell_formula_units_Z   1
loop_
 _symmetry_equiv_pos_site_id
 _symmetry_equiv_pos_as_xyz
  1  'x, y, z'
loop_
 _atom_site_type_symbol
 _atom_site_label
 _atom_site_symmetry_multiplicity
 _atom_site_fract_x
 _atom_site_fract_y
 _atom_site_fract_z
 _atom_site_occupancy
  Y  Y0  1  0.333333  0.666667  0.440005  1
  Y  Y1  1  0.666667  0.333333  0.559995  1
  Y  Y2  1  0.666667  0.333333  0.931141  1
  Y  Y3  1  0.333333  0.666667  0.068859  1
  Al  Al4  1  0.000000  0.000000  0.000000  1
  Tc  Tc5  1  0.000000  0.000000  0.500000  1
  Ir  Ir6  1  0.169279  0.338560  0.751712  1
  Ir  Ir7  1  0.169279  0.830721  0.751712  1
  Ir  Ir8  1  0.338560  0.169279  0.248288  1
  Ir  Ir9  1  0.830721  0.661440  0.248288  1
  Ir  Ir10  1  0.661440  0.830721  0.751712  1
  Ir  Ir11  1  0.830721  0.169279  0.248288  1
