# generated using pymatgen
data_Pr15ThMg3CdIr4
_symmetry_space_group_name_H-M   'P 1'
_cell_length_a   10.08519680
_cell_length_b   10.09054104
_cell_length_c   10.09054096
_cell_angle_alpha   60.02233803
_cell_angle_beta   59.90685396
_cell_angle_gamma   59.90685318
_symmetry_Int_Tables_number   1
_chemical_formula_structural   Pr15ThMg3CdIr4
_chemical_formula_sum   'Pr15 Th1 Mg3 Cd1 Ir4'
_cell_volume   725.20110152
_cell_formula_units_Z   1
loop_
 _symmetry_equiv_pos_site_id
 _symmetry_equiv_pos_as_xyz
  1  'x, y, z'
loop_
 _atom_site_type_symbol
 _atom_site_label
 _atom_site_symmetry_multiplicity
 _atom_site_fract_x
 _atom_site_fract_y
 _atom_site_fract_z
 _atom_site_occupancy
  Pr  Pr0  1  0.347277  0.347957  0.956979  1
  Pr  Pr1  1  0.347277  0.956979  0.347957  1
  Pr  Pr2  1  0.958061  0.347295  0.347295  1
  Pr  Pr3  1  0.811350  0.188685  0.188685  1
  Pr  Pr4  1  0.189501  0.809647  0.809647  1
  Pr  Pr5  1  0.189834  0.810306  0.189616  1
  Pr  Pr6  1  0.811170  0.188018  0.810912  1
  Pr  Pr7  1  0.189834  0.189616  0.810306  1
  Pr  Pr8  1  0.811170  0.810912  0.188018  1
  Pr  Pr9  1  0.941920  0.561847  0.561847  1
  Pr  Pr10  1  0.559959  0.938794  0.938794  1
  Pr  Pr11  1  0.562254  0.940170  0.562103  1
  Pr  Pr12  1  0.940213  0.559925  0.937597  1
  Pr  Pr13  1  0.562254  0.562103  0.940170  1
  Pr  Pr14  1  0.940213  0.937597  0.559925  1
  Th  Th15  1  0.343390  0.343023  0.343023  1
  Mg  Mg16  1  0.576575  0.578648  0.578648  1
  Mg  Mg17  1  0.575322  0.577665  0.265002  1
  Mg  Mg18  1  0.575322  0.265002  0.577665  1
  Cd  Cd19  1  0.259435  0.578972  0.578972  1
  Ir  Ir20  1  0.142397  0.141783  0.141783  1
  Ir  Ir21  1  0.147321  0.147319  0.570692  1
  Ir  Ir22  1  0.147321  0.570692  0.147319  1
  Ir  Ir23  1  0.570629  0.147041  0.147041  1
