# generated using pymatgen
data_YbY3(Si2Os)2
_symmetry_space_group_name_H-M   'P 1'
_cell_length_a   5.78599677
_cell_length_b   5.78599627
_cell_length_c   10.08026625
_cell_angle_alpha   116.99846840
_cell_angle_beta   116.99847689
_cell_angle_gamma   42.96168242
_symmetry_Int_Tables_number   1
_chemical_formula_structural   YbY3(Si2Os)2
_chemical_formula_sum   'Yb1 Y3 Si4 Os2'
_cell_volume   200.76006781
_cell_formula_units_Z   1
loop_
 _symmetry_equiv_pos_site_id
 _symmetry_equiv_pos_as_xyz
  1  'x, y, z'
loop_
 _atom_site_type_symbol
 _atom_site_label
 _atom_site_symmetry_multiplicity
 _atom_site_fract_x
 _atom_site_fract_y
 _atom_site_fract_z
 _atom_site_occupancy
  Yb  Yb0  1  0.189676  0.189676  0.106687  1
  Y  Y1  1  0.991009  0.991009  0.319959  1
  Y  Y2  1  0.008018  0.008018  0.678709  1
  Y  Y3  1  0.818950  0.818950  0.890747  1
  Si  Si4  1  0.503733  0.503733  0.126145  1
  Si  Si5  1  0.350342  0.350342  0.439146  1
  Si  Si6  1  0.642532  0.642532  0.561358  1
  Si  Si7  1  0.500712  0.500712  0.872918  1
  Os  Os8  1  0.727333  0.727333  0.376928  1
  Os  Os9  1  0.267695  0.267695  0.627406  1
