# generated using pymatgen
data_Hf2Fe3Co9As7
_symmetry_space_group_name_H-M   'P 1'
_cell_length_a   3.69990300
_cell_length_b   9.25481051
_cell_length_c   9.25481000
_cell_angle_alpha   120.00000010
_cell_angle_beta   90.00000000
_cell_angle_gamma   90.00000000
_symmetry_Int_Tables_number   1
_chemical_formula_structural   Hf2Fe3Co9As7
_chemical_formula_sum   'Hf2 Fe3 Co9 As7'
_cell_volume   274.44543281
_cell_formula_units_Z   1
loop_
 _symmetry_equiv_pos_site_id
 _symmetry_equiv_pos_as_xyz
  1  'x, y, z'
loop_
 _atom_site_type_symbol
 _atom_site_label
 _atom_site_symmetry_multiplicity
 _atom_site_fract_x
 _atom_site_fract_y
 _atom_site_fract_z
 _atom_site_occupancy
  Hf  Hf0  1  0.000000  0.666667  0.333333  1
  Hf  Hf1  1  0.500000  0.333333  0.666667  1
  Fe  Fe2  1  0.500000  0.782163  0.905005  1
  Fe  Fe3  1  0.500000  0.122842  0.217837  1
  Fe  Fe4  1  0.500000  0.094995  0.877158  1
  Co  Co5  1  0.000000  0.562361  0.937248  1
  Co  Co6  1  0.000000  0.374887  0.437639  1
  Co  Co7  1  0.000000  0.062752  0.625113  1
  Co  Co8  1  0.000000  0.878357  0.159700  1
  Co  Co9  1  0.000000  0.281342  0.121643  1
  Co  Co10  1  0.000000  0.840300  0.718658  1
  Co  Co11  1  0.500000  0.947891  0.383741  1
  Co  Co12  1  0.500000  0.435850  0.052109  1
  Co  Co13  1  0.500000  0.616259  0.564150  1
  As  As14  1  0.000000  0.000000  0.000000  1
  As  As15  1  0.500000  0.708487  0.118397  1
  As  As16  1  0.500000  0.409909  0.291513  1
  As  As17  1  0.500000  0.881603  0.590091  1
  As  As18  1  0.000000  0.587626  0.707408  1
  As  As19  1  0.000000  0.119782  0.412374  1
  As  As20  1  0.000000  0.292592  0.880218  1
