# generated using pymatgen
data_Hf2V3Co9As7
_symmetry_space_group_name_H-M   'P 1'
_cell_length_a   3.70958700
_cell_length_b   9.34863030
_cell_length_c   9.34863100
_cell_angle_alpha   119.99999184
_cell_angle_beta   90.00000000
_cell_angle_gamma   90.00000000
_symmetry_Int_Tables_number   1
_chemical_formula_structural   Hf2V3Co9As7
_chemical_formula_sum   'Hf2 V3 Co9 As7'
_cell_volume   280.77098926
_cell_formula_units_Z   1
loop_
 _symmetry_equiv_pos_site_id
 _symmetry_equiv_pos_as_xyz
  1  'x, y, z'
loop_
 _atom_site_type_symbol
 _atom_site_label
 _atom_site_symmetry_multiplicity
 _atom_site_fract_x
 _atom_site_fract_y
 _atom_site_fract_z
 _atom_site_occupancy
  Hf  Hf0  1  0.000000  0.666667  0.333333  1
  Hf  Hf1  1  0.500000  0.333333  0.666667  1
  V  V2  1  0.500000  0.780242  0.902700  1
  V  V3  1  0.500000  0.122459  0.219758  1
  V  V4  1  0.500000  0.097300  0.877541  1
  Co  Co5  1  0.000000  0.563950  0.935461  1
  Co  Co6  1  0.000000  0.371509  0.436050  1
  Co  Co7  1  0.000000  0.064539  0.628491  1
  Co  Co8  1  0.000000  0.877168  0.160735  1
  Co  Co9  1  0.000000  0.283568  0.122832  1
  Co  Co10  1  0.000000  0.839265  0.716432  1
  Co  Co11  1  0.500000  0.947590  0.384896  1
  Co  Co12  1  0.500000  0.437305  0.052410  1
  Co  Co13  1  0.500000  0.615104  0.562695  1
  As  As14  1  0.000000  0.000000  0.000000  1
  As  As15  1  0.500000  0.709032  0.121317  1
  As  As16  1  0.500000  0.412285  0.290968  1
  As  As17  1  0.500000  0.878683  0.587715  1
  As  As18  1  0.000000  0.584893  0.703300  1
  As  As19  1  0.000000  0.118409  0.415107  1
  As  As20  1  0.000000  0.296700  0.881591  1
