# generated using pymatgen
data_Nd4Hg2Pd3Rh
_symmetry_space_group_name_H-M   'P 1'
_cell_length_a   7.80551128
_cell_length_b   7.80551102
_cell_length_c   3.91153500
_cell_angle_alpha   90.00000000
_cell_angle_beta   90.00000000
_cell_angle_gamma   90.25375286
_symmetry_Int_Tables_number   1
_chemical_formula_structural   Nd4Hg2Pd3Rh
_chemical_formula_sum   'Nd4 Hg2 Pd3 Rh1'
_cell_volume   238.31186086
_cell_formula_units_Z   1
loop_
 _symmetry_equiv_pos_site_id
 _symmetry_equiv_pos_as_xyz
  1  'x, y, z'
loop_
 _atom_site_type_symbol
 _atom_site_label
 _atom_site_symmetry_multiplicity
 _atom_site_fract_x
 _atom_site_fract_y
 _atom_site_fract_z
 _atom_site_occupancy
  Nd  Nd0  1  0.834117  0.678332  0.500000  1
  Nd  Nd1  1  0.316311  0.816311  0.500000  1
  Nd  Nd2  1  0.673008  0.173008  0.500000  1
  Nd  Nd3  1  0.178332  0.334117  0.500000  1
  Hg  Hg4  1  0.000394  0.002583  0.000000  1
  Hg  Hg5  1  0.502583  0.500394  0.000000  1
  Pd  Pd6  1  0.871456  0.371456  0.000000  1
  Pd  Pd7  1  0.371448  0.124642  0.000000  1
  Pd  Pd8  1  0.624642  0.871448  0.000000  1
  Rh  Rh9  1  0.127709  0.627709  0.000000  1
