# generated using pymatgen
data_Dy8Sc12Ga14SiGe
_symmetry_space_group_name_H-M   'P 1'
_cell_length_a   7.27507712
_cell_length_b   7.48542241
_cell_length_c   14.51320000
_cell_angle_alpha   90.00000000
_cell_angle_beta   90.00000000
_cell_angle_gamma   90.20421445
_symmetry_Int_Tables_number   1
_chemical_formula_structural   Dy8Sc12Ga14SiGe
_chemical_formula_sum   'Dy8 Sc12 Ga14 Si1 Ge1'
_cell_volume   790.34067903
_cell_formula_units_Z   1
loop_
 _symmetry_equiv_pos_site_id
 _symmetry_equiv_pos_as_xyz
  1  'x, y, z'
loop_
 _atom_site_type_symbol
 _atom_site_label
 _atom_site_symmetry_multiplicity
 _atom_site_fract_x
 _atom_site_fract_y
 _atom_site_fract_z
 _atom_site_occupancy
  Dy  Dy0  1  0.012508  0.177291  0.096365  1
  Dy  Dy1  1  0.986970  0.822205  0.903181  1
  Dy  Dy2  1  0.489373  0.676961  0.903899  1
  Dy  Dy3  1  0.986970  0.822205  0.596819  1
  Dy  Dy4  1  0.511356  0.323008  0.095789  1
  Dy  Dy5  1  0.012508  0.177291  0.403635  1
  Dy  Dy6  1  0.511356  0.323008  0.404211  1
  Dy  Dy7  1  0.489373  0.676961  0.596101  1
  Sc  Sc8  1  0.160573  0.503362  0.750000  1
  Sc  Sc9  1  0.838230  0.497058  0.250000  1
  Sc  Sc10  1  0.337291  0.004506  0.250000  1
  Sc  Sc11  1  0.663073  0.994442  0.750000  1
  Sc  Sc12  1  0.330932  0.174197  0.622872  1
  Sc  Sc13  1  0.669101  0.825830  0.377183  1
  Sc  Sc14  1  0.170422  0.672372  0.376529  1
  Sc  Sc15  1  0.669101  0.825830  0.122817  1
  Sc  Sc16  1  0.829539  0.328446  0.623770  1
  Sc  Sc17  1  0.330932  0.174197  0.877128  1
  Sc  Sc18  1  0.829539  0.328446  0.876230  1
  Sc  Sc19  1  0.170422  0.672372  0.123471  1
  Ga  Ga20  1  0.032570  0.118883  0.750000  1
  Ga  Ga21  1  0.967391  0.881143  0.250000  1
  Ga  Ga22  1  0.468703  0.616420  0.250000  1
  Ga  Ga23  1  0.533136  0.385530  0.750000  1
  Ga  Ga24  1  0.285673  0.872812  0.750000  1
  Ga  Ga25  1  0.714327  0.127093  0.250000  1
  Ga  Ga26  1  0.158511  0.464669  0.540362  1
  Ga  Ga27  1  0.841533  0.535318  0.459625  1
  Ga  Ga28  1  0.339718  0.964538  0.459517  1
  Ga  Ga29  1  0.841533  0.535318  0.040375  1
  Ga  Ga30  1  0.660307  0.035559  0.540478  1
  Ga  Ga31  1  0.158511  0.464669  0.959638  1
  Ga  Ga32  1  0.660307  0.035559  0.959522  1
  Ga  Ga33  1  0.339718  0.964538  0.040483  1
  Si  Si34  1  0.784913  0.624542  0.750000  1
  Ge  Ge35  1  0.213578  0.373423  0.250000  1
