# generated using pymatgen
data_K9Ta2NbSe12
_symmetry_space_group_name_H-M   'P 1'
_cell_length_a   9.80259515
_cell_length_b   15.14478094
_cell_length_c   22.92032500
_cell_angle_alpha   78.92062530
_cell_angle_beta   89.99009279
_cell_angle_gamma   89.99307205
_symmetry_Int_Tables_number   1
_chemical_formula_structural   K9Ta2NbSe12
_chemical_formula_sum   'K36 Ta8 Nb4 Se48'
_cell_volume   3339.28910392
_cell_formula_units_Z   4
loop_
 _symmetry_equiv_pos_site_id
 _symmetry_equiv_pos_as_xyz
  1  'x, y, z'
loop_
 _atom_site_type_symbol
 _atom_site_label
 _atom_site_symmetry_multiplicity
 _atom_site_fract_x
 _atom_site_fract_y
 _atom_site_fract_z
 _atom_site_occupancy
  K  K0  1  0.631803  0.694515  0.444345  1
  K  K1  1  0.631737  0.361142  0.110998  1
  K  K2  1  0.631868  0.027819  0.777700  1
  K  K3  1  0.131398  0.805683  0.555763  1
  K  K4  1  0.131776  0.472474  0.222393  1
  K  K5  1  0.131388  0.138906  0.889013  1
  K  K6  1  0.368315  0.972036  0.222398  1
  K  K7  1  0.368472  0.639103  0.888868  1
  K  K8  1  0.368497  0.305562  0.555715  1
  K  K9  1  0.868179  0.861349  0.110918  1
  K  K10  1  0.868176  0.527527  0.777893  1
  K  K11  1  0.868111  0.194443  0.444374  1
  K  K12  1  0.556624  0.962279  0.414195  1
  K  K13  1  0.557071  0.628965  0.080899  1
  K  K14  1  0.556672  0.295554  0.747605  1
  K  K15  1  0.056932  0.204330  0.252348  1
  K  K16  1  0.057206  0.871126  0.919006  1
  K  K17  1  0.057193  0.537671  0.585693  1
  K  K18  1  0.442910  0.434916  0.387232  1
  K  K19  1  0.442853  0.101898  0.053909  1
  K  K20  1  0.442913  0.768242  0.720550  1
  K  K21  1  0.943044  0.731344  0.279273  1
  K  K22  1  0.942794  0.398132  0.946153  1
  K  K23  1  0.943053  0.064682  0.612652  1
  K  K24  1  0.442723  0.704472  0.252330  1
  K  K25  1  0.442988  0.371146  0.919103  1
  K  K26  1  0.442753  0.037806  0.585675  1
  K  K27  1  0.942961  0.462114  0.414095  1
  K  K28  1  0.942893  0.128863  0.080922  1
  K  K29  1  0.942944  0.795394  0.747467  1
  K  K30  1  0.556991  0.231557  0.279469  1
  K  K31  1  0.556597  0.898328  0.946092  1
  K  K32  1  0.556667  0.564938  0.612689  1
  K  K33  1  0.057107  0.935143  0.387185  1
  K  K34  1  0.056904  0.601756  0.053766  1
  K  K35  1  0.057179  0.268279  0.720641  1
  Ta  Ta36  1  0.214761  0.995652  0.745611  1
  Ta  Ta37  1  0.214701  0.662292  0.412190  1
  Ta  Ta38  1  0.285283  0.828842  0.078816  1
  Ta  Ta39  1  0.285278  0.495548  0.745539  1
  Ta  Ta40  1  0.285235  0.162303  0.412012  1
  Ta  Ta41  1  0.785352  0.670923  0.921265  1
  Ta  Ta42  1  0.785490  0.337744  0.587809  1
  Ta  Ta43  1  0.785361  0.004579  0.254429  1
  Nb  Nb44  1  0.715044  0.170929  0.921091  1
  Nb  Nb45  1  0.714794  0.837542  0.587657  1
  Nb  Nb46  1  0.714962  0.504107  0.254219  1
  Nb  Nb47  1  0.215153  0.329239  0.079118  1
  Se  Se48  1  0.835577  0.932374  0.507053  1
  Se  Se49  1  0.835889  0.598854  0.173667  1
  Se  Se50  1  0.835717  0.265662  0.840425  1
  Se  Se51  1  0.335816  0.568480  0.492606  1
  Se  Se52  1  0.335994  0.234516  0.159710  1
  Se  Se53  1  0.335889  0.901726  0.826019  1
  Se  Se54  1  0.164597  0.967466  0.042915  1
  Se  Se55  1  0.164371  0.634116  0.709645  1
  Se  Se56  1  0.164438  0.300938  0.376194  1
  Se  Se57  1  0.664629  0.866007  0.290373  1
  Se  Se58  1  0.664510  0.532358  0.957114  1
  Se  Se59  1  0.664595  0.199196  0.623673  1
  Se  Se60  1  0.164349  0.734915  0.159326  1
  Se  Se61  1  0.164528  0.401654  0.826091  1
  Se  Se62  1  0.164515  0.068216  0.492492  1
  Se  Se63  1  0.664565  0.098505  0.173952  1
  Se  Se64  1  0.664603  0.764972  0.840809  1
  Se  Se65  1  0.664624  0.431727  0.507371  1
  Se  Se66  1  0.835507  0.698494  0.624033  1
  Se  Se67  1  0.835784  0.365157  0.290611  1
  Se  Se68  1  0.835660  0.031803  0.957395  1
  Se  Se69  1  0.335711  0.800799  0.376382  1
  Se  Se70  1  0.335911  0.468223  0.042783  1
  Se  Se71  1  0.335838  0.134101  0.709748  1
  Se  Se72  1  0.488633  0.804456  0.554554  1
  Se  Se73  1  0.488712  0.471025  0.221113  1
  Se  Se74  1  0.488877  0.137867  0.888031  1
  Se  Se75  1  0.989529  0.695575  0.445418  1
  Se  Se76  1  0.988756  0.362241  0.112163  1
  Se  Se77  1  0.989548  0.028972  0.778828  1
  Se  Se78  1  0.510318  0.862255  0.112113  1
  Se  Se79  1  0.510313  0.529059  0.778814  1
  Se  Se80  1  0.510279  0.195691  0.445331  1
  Se  Se81  1  0.010569  0.971434  0.221104  1
  Se  Se82  1  0.010490  0.637319  0.888115  1
  Se  Se83  1  0.010696  0.304427  0.554583  1
  Se  Se84  1  0.692025  0.585248  0.335257  1
  Se  Se85  1  0.692402  0.252029  0.002143  1
  Se  Se86  1  0.691986  0.918583  0.668725  1
  Se  Se87  1  0.192576  0.581396  0.331400  1
  Se  Se88  1  0.192699  0.248101  0.998067  1
  Se  Se89  1  0.192626  0.914782  0.664822  1
  Se  Se90  1  0.307822  0.081509  0.331219  1
  Se  Se91  1  0.307884  0.747928  0.998061  1
  Se  Se92  1  0.307958  0.414660  0.664788  1
  Se  Se93  1  0.807577  0.085519  0.335213  1
  Se  Se94  1  0.807608  0.751820  0.002050  1
  Se  Se95  1  0.807393  0.418653  0.668616  1
