# generated using pymatgen
data_Sc7Ta(Co4P3)4
_symmetry_space_group_name_H-M   'P 1'
_cell_length_a   12.09452100
_cell_length_b   12.09452036
_cell_length_c   3.63830200
_cell_angle_alpha   90.00000000
_cell_angle_beta   90.00000000
_cell_angle_gamma   119.89489335
_symmetry_Int_Tables_number   1
_chemical_formula_structural   Sc7Ta(Co4P3)4
_chemical_formula_sum   'Sc7 Ta1 Co16 P12'
_cell_volume   461.38736558
_cell_formula_units_Z   1
loop_
 _symmetry_equiv_pos_site_id
 _symmetry_equiv_pos_as_xyz
  1  'x, y, z'
loop_
 _atom_site_type_symbol
 _atom_site_label
 _atom_site_symmetry_multiplicity
 _atom_site_fract_x
 _atom_site_fract_y
 _atom_site_fract_z
 _atom_site_occupancy
  Sc  Sc0  1  0.817284  0.999118  0.500000  1
  Sc  Sc1  1  0.999118  0.817284  0.500000  1
  Sc  Sc2  1  0.182945  0.182945  0.500000  1
  Sc  Sc3  1  0.333602  0.665580  0.000000  1
  Sc  Sc4  1  0.665580  0.333602  0.000000  1
  Sc  Sc5  1  0.442730  0.999216  0.000000  1
  Sc  Sc6  1  0.999216  0.442730  0.000000  1
  Ta  Ta7  1  0.556179  0.556179  0.000000  1
  Co  Co8  1  0.278342  0.001272  0.500000  1
  Co  Co9  1  0.001272  0.278342  0.500000  1
  Co  Co10  1  0.721787  0.721787  0.500000  1
  Co  Co11  1  0.628780  0.803665  0.000000  1
  Co  Co12  1  0.193590  0.821991  0.000000  1
  Co  Co13  1  0.179765  0.373936  0.000000  1
  Co  Co14  1  0.373936  0.179765  0.000000  1
  Co  Co15  1  0.803665  0.628780  0.000000  1
  Co  Co16  1  0.821991  0.193590  0.000000  1
  Co  Co17  1  0.517910  0.870974  0.500000  1
  Co  Co18  1  0.123842  0.645065  0.500000  1
  Co  Co19  1  0.357023  0.482719  0.500000  1
  Co  Co20  1  0.482719  0.357023  0.500000  1
  Co  Co21  1  0.870974  0.517910  0.500000  1
  Co  Co22  1  0.645065  0.123842  0.500000  1
  Co  Co23  1  0.001250  0.001250  0.000000  1
  P  P24  1  0.177168  0.000641  0.000000  1
  P  P25  1  0.000641  0.177168  0.000000  1
  P  P26  1  0.825808  0.825808  0.000000  1
  P  P27  1  0.517827  0.688832  0.500000  1
  P  P28  1  0.308759  0.825788  0.500000  1
  P  P29  1  0.173107  0.483807  0.500000  1
  P  P30  1  0.483807  0.173107  0.500000  1
  P  P31  1  0.688832  0.517827  0.500000  1
  P  P32  1  0.825788  0.308759  0.500000  1
  P  P33  1  0.650593  0.998985  0.000000  1
  P  P34  1  0.998985  0.650593  0.000000  1
  P  P35  1  0.350119  0.350119  0.000000  1
