# generated using pymatgen
data_Tb12Er8Co3Bi8Ru
_symmetry_space_group_name_H-M   'P 1'
_cell_length_a   7.95843656
_cell_length_b   8.91120600
_cell_length_c   12.41681600
_cell_angle_alpha   90.00000000
_cell_angle_beta   90.15216878
_cell_angle_gamma   90.00000000
_symmetry_Int_Tables_number   1
_chemical_formula_structural   Tb12Er8Co3Bi8Ru
_chemical_formula_sum   'Tb12 Er8 Co3 Bi8 Ru1'
_cell_volume   880.58839203
_cell_formula_units_Z   1
loop_
 _symmetry_equiv_pos_site_id
 _symmetry_equiv_pos_as_xyz
  1  'x, y, z'
loop_
 _atom_site_type_symbol
 _atom_site_label
 _atom_site_symmetry_multiplicity
 _atom_site_fract_x
 _atom_site_fract_y
 _atom_site_fract_z
 _atom_site_occupancy
  Tb  Tb0  1  0.848974  0.750000  0.800895  1
  Tb  Tb1  1  0.150149  0.250000  0.197787  1
  Tb  Tb2  1  0.349760  0.250000  0.698177  1
  Tb  Tb3  1  0.651718  0.750000  0.297133  1
  Tb  Tb4  1  0.378634  0.750000  0.692406  1
  Tb  Tb5  1  0.618778  0.250000  0.311057  1
  Tb  Tb6  1  0.880985  0.250000  0.811387  1
  Tb  Tb7  1  0.118430  0.750000  0.187137  1
  Tb  Tb8  1  0.951352  0.750000  0.503772  1
  Tb  Tb9  1  0.048193  0.250000  0.496854  1
  Tb  Tb10  1  0.452465  0.250000  0.997163  1
  Tb  Tb11  1  0.547644  0.750000  0.002703  1
  Er  Er12  1  0.675586  0.041273  0.564214  1
  Er  Er13  1  0.324582  0.967063  0.436841  1
  Er  Er14  1  0.174333  0.966646  0.937473  1
  Er  Er15  1  0.324582  0.532937  0.436841  1
  Er  Er16  1  0.824960  0.035324  0.062507  1
  Er  Er17  1  0.675586  0.458727  0.564214  1
  Er  Er18  1  0.824960  0.464676  0.062507  1
  Er  Er19  1  0.174333  0.533354  0.937473  1
  Co  Co20  1  0.437244  0.250000  0.491570  1
  Co  Co21  1  0.058701  0.250000  0.992441  1
  Co  Co22  1  0.940007  0.750000  0.006723  1
  Bi  Bi23  1  0.571003  0.492166  0.826787  1
  Bi  Bi24  1  0.428404  0.507467  0.173496  1
  Bi  Bi25  1  0.071341  0.507304  0.674581  1
  Bi  Bi26  1  0.428404  0.992533  0.173496  1
  Bi  Bi27  1  0.930224  0.492622  0.325684  1
  Bi  Bi28  1  0.571003  0.007834  0.826787  1
  Bi  Bi29  1  0.930224  0.007378  0.325684  1
  Bi  Bi30  1  0.071341  0.992696  0.674581  1
  Ru  Ru31  1  0.566097  0.750000  0.509630  1
