# generated using pymatgen
data_Dy8Y10Sc2Cd6TcRu
_symmetry_space_group_name_H-M   'P 1'
_cell_length_a   9.55595392
_cell_length_b   9.55494806
_cell_length_c   9.79290300
_cell_angle_alpha   90.00000000
_cell_angle_beta   90.04480077
_cell_angle_gamma   119.99652077
_symmetry_Int_Tables_number   1
_chemical_formula_structural   Dy8Y10Sc2Cd6TcRu
_chemical_formula_sum   'Dy8 Y10 Sc2 Cd6 Tc1 Ru1'
_cell_volume   774.38959648
_cell_formula_units_Z   1
loop_
 _symmetry_equiv_pos_site_id
 _symmetry_equiv_pos_as_xyz
  1  'x, y, z'
loop_
 _atom_site_type_symbol
 _atom_site_label
 _atom_site_symmetry_multiplicity
 _atom_site_fract_x
 _atom_site_fract_y
 _atom_site_fract_z
 _atom_site_occupancy
  Dy  Dy0  1  0.208552  0.791399  0.441297  1
  Dy  Dy1  1  0.208552  0.417153  0.441297  1
  Dy  Dy2  1  0.582906  0.791453  0.441331  1
  Dy  Dy3  1  0.791122  0.208763  0.559085  1
  Dy  Dy4  1  0.791122  0.582358  0.559085  1
  Dy  Dy5  1  0.418041  0.209021  0.558977  1
  Dy  Dy6  1  0.791008  0.209057  0.940467  1
  Dy  Dy7  1  0.791008  0.581951  0.940467  1
  Y  Y8  1  0.417066  0.208533  0.941397  1
  Y  Y9  1  0.208173  0.791363  0.058528  1
  Y  Y10  1  0.208173  0.416810  0.058528  1
  Y  Y11  1  0.583138  0.791570  0.058482  1
  Y  Y12  1  0.540417  0.459731  0.250404  1
  Y  Y13  1  0.540417  0.080686  0.250404  1
  Y  Y14  1  0.919049  0.459524  0.250184  1
  Y  Y15  1  0.459130  0.541044  0.749437  1
  Y  Y16  1  0.459130  0.918085  0.749437  1
  Y  Y17  1  0.081683  0.540842  0.749533  1
  Sc  Sc18  1  0.000004  0.000002  0.500531  1
  Sc  Sc19  1  0.999744  0.999872  0.999768  1
  Cd  Cd20  1  0.889187  0.110895  0.249915  1
  Cd  Cd21  1  0.889187  0.778295  0.249915  1
  Cd  Cd22  1  0.221756  0.110879  0.249835  1
  Cd  Cd23  1  0.110840  0.889211  0.750121  1
  Cd  Cd24  1  0.110840  0.221627  0.750121  1
  Cd  Cd25  1  0.778383  0.889190  0.750029  1
  Tc  Tc26  1  0.333471  0.666736  0.252240  1
  Ru  Ru27  1  0.667901  0.333950  0.749179  1
