# generated using pymatgen
data_La20Si11Pb
_symmetry_space_group_name_H-M   'P 1'
_cell_length_a   7.88399400
_cell_length_b   7.88399400
_cell_length_c   15.22012300
_cell_angle_alpha   90.00000000
_cell_angle_beta   90.00000000
_cell_angle_gamma   90.00000000
_symmetry_Int_Tables_number   1
_chemical_formula_structural   La20Si11Pb
_chemical_formula_sum   'La20 Si11 Pb1'
_cell_volume   946.04268574
_cell_formula_units_Z   1
loop_
 _symmetry_equiv_pos_site_id
 _symmetry_equiv_pos_as_xyz
  1  'x, y, z'
loop_
 _atom_site_type_symbol
 _atom_site_label
 _atom_site_symmetry_multiplicity
 _atom_site_fract_x
 _atom_site_fract_y
 _atom_site_fract_z
 _atom_site_occupancy
  La  La0  1  0.335163  0.691875  0.115647  1
  La  La1  1  0.191875  0.164837  0.115647  1
  La  La2  1  0.500000  0.000000  0.711363  1
  La  La3  1  0.315860  0.674178  0.394974  1
  La  La4  1  0.662857  0.693778  0.884214  1
  La  La5  1  0.174178  0.184140  0.394974  1
  La  La6  1  0.684140  0.325822  0.394974  1
  La  La7  1  0.171578  0.813234  0.604854  1
  La  La8  1  0.337143  0.306222  0.884214  1
  La  La9  1  0.193778  0.837143  0.884214  1
  La  La10  1  0.500000  0.000000  0.285872  1
  La  La11  1  0.828422  0.186766  0.604854  1
  La  La12  1  0.313234  0.328422  0.604854  1
  La  La13  1  0.825822  0.815860  0.394974  1
  La  La14  1  0.806222  0.162857  0.884214  1
  La  La15  1  0.808125  0.835163  0.115647  1
  La  La16  1  0.000000  0.500000  0.235544  1
  La  La17  1  0.000000  0.500000  0.771407  1
  La  La18  1  0.664837  0.308125  0.115647  1
  La  La19  1  0.686766  0.671578  0.604854  1
  Si  Si20  1  0.112458  0.113826  0.744562  1
  Si  Si21  1  0.386174  0.612458  0.744562  1
  Si  Si22  1  0.613447  0.612494  0.255023  1
  Si  Si23  1  0.500000  0.000000  0.001249  1
  Si  Si24  1  0.112494  0.886553  0.255023  1
  Si  Si25  1  0.613826  0.387542  0.744562  1
  Si  Si26  1  0.887542  0.886174  0.744562  1
  Si  Si27  1  0.386553  0.387506  0.255023  1
  Si  Si28  1  0.887506  0.113447  0.255023  1
  Si  Si29  1  0.500000  0.000000  0.499319  1
  Si  Si30  1  0.000000  0.500000  0.496793  1
  Pb  Pb31  1  0.000000  0.500000  0.001364  1
