# generated using pymatgen
data_LaErSbI2
_symmetry_space_group_name_H-M   'P 1'
_cell_length_a   4.42206800
_cell_length_b   4.42206917
_cell_length_c   11.07672900
_cell_angle_alpha   90.00000000
_cell_angle_beta   90.00000000
_cell_angle_gamma   120.00000620
_symmetry_Int_Tables_number   1
_chemical_formula_structural   LaErSbI2
_chemical_formula_sum   'La1 Er1 Sb1 I2'
_cell_volume   187.58282987
_cell_formula_units_Z   1
loop_
 _symmetry_equiv_pos_site_id
 _symmetry_equiv_pos_as_xyz
  1  'x, y, z'
loop_
 _atom_site_type_symbol
 _atom_site_label
 _atom_site_symmetry_multiplicity
 _atom_site_fract_x
 _atom_site_fract_y
 _atom_site_fract_z
 _atom_site_occupancy
  La  La0  1  0.666667  0.333333  0.843271  1
  Er  Er1  1  0.333333  0.666667  0.158725  1
  Sb  Sb2  1  0.000000  0.000000  0.014050  1
  I  I3  1  0.333333  0.666667  0.655148  1
  I  I4  1  0.666667  0.333333  0.328806  1
