# generated using pymatgen
data_Tb7Dy(ScGa5)4
_symmetry_space_group_name_H-M   'P 1'
_cell_length_a   6.03569705
_cell_length_b   9.50335103
_cell_length_c   11.40539205
_cell_angle_alpha   89.99889732
_cell_angle_beta   90.01107982
_cell_angle_gamma   90.00915071
_symmetry_Int_Tables_number   1
_chemical_formula_structural   Tb7Dy(ScGa5)4
_chemical_formula_sum   'Tb7 Dy1 Sc4 Ga20'
_cell_volume   654.20582843
_cell_formula_units_Z   1
loop_
 _symmetry_equiv_pos_site_id
 _symmetry_equiv_pos_as_xyz
  1  'x, y, z'
loop_
 _atom_site_type_symbol
 _atom_site_label
 _atom_site_symmetry_multiplicity
 _atom_site_fract_x
 _atom_site_fract_y
 _atom_site_fract_z
 _atom_site_occupancy
  Tb  Tb0  1  0.609359  0.990177  0.851828  1
  Tb  Tb1  1  0.109267  0.009829  0.648126  1
  Tb  Tb2  1  0.390738  0.490188  0.148296  1
  Tb  Tb3  1  0.109279  0.490184  0.648005  1
  Tb  Tb4  1  0.390682  0.009815  0.148218  1
  Tb  Tb5  1  0.890673  0.990130  0.351822  1
  Tb  Tb6  1  0.609357  0.509859  0.851820  1
  Dy  Dy7  1  0.890718  0.509868  0.351781  1
  Sc  Sc8  1  0.850008  0.749980  0.075006  1
  Sc  Sc9  1  0.649980  0.749944  0.574869  1
  Sc  Sc10  1  0.149855  0.250017  0.925102  1
  Sc  Sc11  1  0.349852  0.250001  0.425052  1
  Ga  Ga12  1  0.877874  0.050832  0.088658  1
  Ga  Ga13  1  0.622274  0.449248  0.588554  1
  Ga  Ga14  1  0.122160  0.550857  0.911336  1
  Ga  Ga15  1  0.377827  0.949084  0.411330  1
  Ga  Ga16  1  0.122165  0.949135  0.911336  1
  Ga  Ga17  1  0.377567  0.550762  0.411264  1
  Ga  Ga18  1  0.877860  0.449261  0.088907  1
  Ga  Ga19  1  0.622220  0.050830  0.588659  1
  Ga  Ga20  1  0.163945  0.749794  0.249090  1
  Ga  Ga21  1  0.335979  0.749996  0.748961  1
  Ga  Ga22  1  0.835897  0.250018  0.750972  1
  Ga  Ga23  1  0.664279  0.250231  0.251192  1
  Ga  Ga24  1  0.380413  0.750003  0.002159  1
  Ga  Ga25  1  0.119411  0.749886  0.502105  1
  Ga  Ga26  1  0.619629  0.250025  0.997884  1
  Ga  Ga27  1  0.880392  0.250274  0.497564  1
  Ga  Ga28  1  0.601758  0.749705  0.296077  1
  Ga  Ga29  1  0.898588  0.750004  0.795981  1
  Ga  Ga30  1  0.398616  0.250007  0.703987  1
  Ga  Ga31  1  0.101381  0.250057  0.204063  1
