# generated using pymatgen
data_Tl(FeCl3)2
_symmetry_space_group_name_H-M   'P 1'
_cell_length_a   7.15324671
_cell_length_b   6.88331093
_cell_length_c   8.35970900
_cell_angle_alpha   96.50400525
_cell_angle_beta   83.91209999
_cell_angle_gamma   75.25168878
_symmetry_Int_Tables_number   1
_chemical_formula_structural   Tl(FeCl3)2
_chemical_formula_sum   'Tl1 Fe2 Cl6'
_cell_volume   391.57550201
_cell_formula_units_Z   1
loop_
 _symmetry_equiv_pos_site_id
 _symmetry_equiv_pos_as_xyz
  1  'x, y, z'
loop_
 _atom_site_type_symbol
 _atom_site_label
 _atom_site_symmetry_multiplicity
 _atom_site_fract_x
 _atom_site_fract_y
 _atom_site_fract_z
 _atom_site_occupancy
  Tl  Tl0  1  0.369646  0.238082  0.439713  1
  Fe  Fe1  1  0.547397  0.344844  0.035266  1
  Fe  Fe2  1  0.670962  0.477121  0.751525  1
  Cl  Cl3  1  0.460771  0.641925  0.606335  1
  Cl  Cl4  1  0.236849  0.425883  0.137485  1
  Cl  Cl5  1  0.594088  0.171258  0.774899  1
  Cl  Cl6  1  0.982691  0.397448  0.663174  1
  Cl  Cl7  1  0.633854  0.641095  0.012697  1
  Cl  Cl8  1  0.741404  0.158275  0.179379  1
