# generated using pymatgen
data_Tm8Ti11Si16Au
_symmetry_space_group_name_H-M   'P 1'
_cell_length_a   7.03061137
_cell_length_b   7.03061045
_cell_length_c   12.82591213
_cell_angle_alpha   90.10129734
_cell_angle_beta   89.89870085
_cell_angle_gamma   89.68293425
_symmetry_Int_Tables_number   1
_chemical_formula_structural   Tm8Ti11Si16Au
_chemical_formula_sum   'Tm8 Ti11 Si16 Au1'
_cell_volume   633.96659325
_cell_formula_units_Z   1
loop_
 _symmetry_equiv_pos_site_id
 _symmetry_equiv_pos_as_xyz
  1  'x, y, z'
loop_
 _atom_site_type_symbol
 _atom_site_label
 _atom_site_symmetry_multiplicity
 _atom_site_fract_x
 _atom_site_fract_y
 _atom_site_fract_z
 _atom_site_occupancy
  Tm  Tm0  1  0.340797  0.002247  0.466836  1
  Tm  Tm1  1  0.497801  0.840240  0.717054  1
  Tm  Tm2  1  0.500696  0.157659  0.214594  1
  Tm  Tm3  1  0.840240  0.497801  0.282946  1
  Tm  Tm4  1  0.157659  0.500696  0.785406  1
  Tm  Tm5  1  0.656690  0.000244  0.968663  1
  Tm  Tm6  1  0.002247  0.340797  0.533164  1
  Tm  Tm7  1  0.000244  0.656690  0.031337  1
  Ti  Ti8  1  0.174196  0.826816  0.249532  1
  Ti  Ti9  1  0.826816  0.174196  0.750468  1
  Ti  Ti10  1  0.672700  0.672700  0.500000  1
  Ti  Ti11  1  0.148076  0.006551  0.877241  1
  Ti  Ti12  1  0.495540  0.651373  0.123574  1
  Ti  Ti13  1  0.506638  0.350895  0.625825  1
  Ti  Ti14  1  0.651373  0.495540  0.876426  1
  Ti  Ti15  1  0.350895  0.506638  0.374175  1
  Ti  Ti16  1  0.850068  0.992882  0.374642  1
  Ti  Ti17  1  0.006551  0.148076  0.122759  1
  Ti  Ti18  1  0.992882  0.850068  0.625358  1
  Si  Si19  1  0.202274  0.133097  0.683993  1
  Si  Si20  1  0.373151  0.719228  0.928426  1
  Si  Si21  1  0.632056  0.294110  0.432108  1
  Si  Si22  1  0.719228  0.373151  0.071574  1
  Si  Si23  1  0.294110  0.632056  0.567892  1
  Si  Si24  1  0.797696  0.866762  0.182190  1
  Si  Si25  1  0.133097  0.202274  0.316007  1
  Si  Si26  1  0.866762  0.797696  0.817810  1
  Si  Si27  1  0.286832  0.938692  0.066036  1
  Si  Si28  1  0.546529  0.792918  0.314986  1
  Si  Si29  1  0.454735  0.205689  0.810094  1
  Si  Si30  1  0.792918  0.546529  0.685014  1
  Si  Si31  1  0.205689  0.454735  0.189906  1
  Si  Si32  1  0.707273  0.047315  0.564923  1
  Si  Si33  1  0.938692  0.286832  0.933964  1
  Si  Si34  1  0.047315  0.707273  0.435077  1
  Au  Au35  1  0.329535  0.329535  0.000000  1
