# generated using pymatgen
data_Se7SN2
_symmetry_space_group_name_H-M   'P 1'
_cell_length_a   4.77546708
_cell_length_b   9.12882530
_cell_length_c   11.04353186
_cell_angle_alpha   106.76184577
_cell_angle_beta   107.04082035
_cell_angle_gamma   112.41952020
_symmetry_Int_Tables_number   1
_chemical_formula_structural   Se7SN2
_chemical_formula_sum   'Se7 S1 N2'
_cell_volume   379.39755312
_cell_formula_units_Z   1
loop_
 _symmetry_equiv_pos_site_id
 _symmetry_equiv_pos_as_xyz
  1  'x, y, z'
loop_
 _atom_site_type_symbol
 _atom_site_label
 _atom_site_symmetry_multiplicity
 _atom_site_fract_x
 _atom_site_fract_y
 _atom_site_fract_z
 _atom_site_occupancy
  Se  Se0  1  0.603772  0.847835  0.743143  1
  Se  Se1  1  0.635159  0.422284  0.255750  1
  Se  Se2  1  0.441479  0.839166  0.516082  1
  Se  Se3  1  0.785966  0.235557  0.337097  1
  Se  Se4  1  0.075753  0.264509  0.071834  1
  Se  Se5  1  0.159686  0.095549  0.886430  1
  Se  Se6  1  0.771602  0.281003  0.556534  1
  S  S7  1  0.307805  0.047952  0.518058  1
  N  N8  1  0.811838  0.537716  0.907036  1
  N  N9  1  0.843904  0.662647  0.980202  1
