# generated using pymatgen
data_Sm7Gd(Si3Pd)4
_symmetry_space_group_name_H-M   'P 1'
_cell_length_a   8.23563000
_cell_length_b   8.23563104
_cell_length_c   8.39772200
_cell_angle_alpha   90.00000000
_cell_angle_beta   90.00000000
_cell_angle_gamma   119.99999581
_symmetry_Int_Tables_number   1
_chemical_formula_structural   Sm7Gd(Si3Pd)4
_chemical_formula_sum   'Sm7 Gd1 Si12 Pd4'
_cell_volume   493.27130547
_cell_formula_units_Z   1
loop_
 _symmetry_equiv_pos_site_id
 _symmetry_equiv_pos_as_xyz
  1  'x, y, z'
loop_
 _atom_site_type_symbol
 _atom_site_label
 _atom_site_symmetry_multiplicity
 _atom_site_fract_x
 _atom_site_fract_y
 _atom_site_fract_z
 _atom_site_occupancy
  Sm  Sm0  1  0.500166  0.499834  0.750000  1
  Sm  Sm1  1  0.500024  0.499976  0.250000  1
  Sm  Sm2  1  0.999685  0.499845  0.750000  1
  Sm  Sm3  1  0.999979  0.499987  0.250000  1
  Sm  Sm4  1  0.500155  0.000315  0.750000  1
  Sm  Sm5  1  0.500013  0.000021  0.250000  1
  Sm  Sm6  1  0.999997  0.000003  0.750000  1
  Gd  Gd7  1  0.999964  0.000036  0.250000  1
  Si  Si8  1  0.834430  0.165570  0.000209  1
  Si  Si9  1  0.165624  0.834376  0.000832  1
  Si  Si10  1  0.331123  0.165572  0.000208  1
  Si  Si11  1  0.165624  0.834376  0.499168  1
  Si  Si12  1  0.668776  0.834375  0.000833  1
  Si  Si13  1  0.834430  0.165570  0.499791  1
  Si  Si14  1  0.834428  0.668877  0.000208  1
  Si  Si15  1  0.668776  0.834375  0.499167  1
  Si  Si16  1  0.165625  0.331224  0.000833  1
  Si  Si17  1  0.331123  0.165572  0.499792  1
  Si  Si18  1  0.165625  0.331224  0.499167  1
  Si  Si19  1  0.834428  0.668877  0.499792  1
  Pd  Pd20  1  0.666651  0.333349  0.000223  1
  Pd  Pd21  1  0.333352  0.666648  0.999814  1
  Pd  Pd22  1  0.333352  0.666648  0.500186  1
  Pd  Pd23  1  0.666651  0.333349  0.499777  1
