# generated using pymatgen
data_BaAgAuO4
_symmetry_space_group_name_H-M   'P 1'
_cell_length_a   6.95757178
_cell_length_b   6.95757097
_cell_length_c   7.00845588
_cell_angle_alpha   124.33906410
_cell_angle_beta   123.74883882
_cell_angle_gamma   82.65571043
_symmetry_Int_Tables_number   1
_chemical_formula_structural   BaAgAuO4
_chemical_formula_sum   'Ba2 Ag2 Au2 O8'
_cell_volume   224.25910011
_cell_formula_units_Z   2
loop_
 _symmetry_equiv_pos_site_id
 _symmetry_equiv_pos_as_xyz
  1  'x, y, z'
loop_
 _atom_site_type_symbol
 _atom_site_label
 _atom_site_symmetry_multiplicity
 _atom_site_fract_x
 _atom_site_fract_y
 _atom_site_fract_z
 _atom_site_occupancy
  Ba  Ba0  1  0.750256  0.250256  0.500000  1
  Ba  Ba1  1  0.999744  0.999744  0.000000  1
  Ag  Ag2  1  0.375000  0.125000  0.750000  1
  Ag  Ag3  1  0.375000  0.625000  0.250000  1
  Au  Au4  1  0.375000  0.625000  0.750000  1
  Au  Au5  1  0.875000  0.625000  0.250000  1
  O  O6  1  0.051426  0.434008  0.078778  1
  O  O7  1  0.718113  0.308210  0.119373  1
  O  O8  1  0.188838  0.598740  0.880627  1
  O  O9  1  0.355229  0.972649  0.921222  1
  O  O10  1  0.698574  0.815992  0.421222  1
  O  O11  1  0.031887  0.941790  0.380627  1
  O  O12  1  0.394771  0.277351  0.578778  1
  O  O13  1  0.561162  0.651260  0.619373  1
