# generated using pymatgen
data_Th3Mg3TcPd2
_symmetry_space_group_name_H-M   'P 1'
_cell_length_a   7.57808400
_cell_length_b   7.57808428
_cell_length_c   4.12212500
_cell_angle_alpha   90.00000000
_cell_angle_beta   90.00000000
_cell_angle_gamma   120.00000752
_symmetry_Int_Tables_number   1
_chemical_formula_structural   Th3Mg3TcPd2
_chemical_formula_sum   'Th3 Mg3 Tc1 Pd2'
_cell_volume   205.00790233
_cell_formula_units_Z   1
loop_
 _symmetry_equiv_pos_site_id
 _symmetry_equiv_pos_as_xyz
  1  'x, y, z'
loop_
 _atom_site_type_symbol
 _atom_site_label
 _atom_site_symmetry_multiplicity
 _atom_site_fract_x
 _atom_site_fract_y
 _atom_site_fract_z
 _atom_site_occupancy
  Th  Th0  1  0.429363  0.411974  0.500000  1
  Th  Th1  1  0.588026  0.017390  0.500000  1
  Th  Th2  1  0.982610  0.570637  0.500000  1
  Mg  Mg3  1  0.760624  0.763910  0.000000  1
  Mg  Mg4  1  0.236090  0.996715  0.000000  1
  Mg  Mg5  1  0.003285  0.239376  0.000000  1
  Tc  Tc6  1  0.666667  0.333333  0.000000  1
  Pd  Pd7  1  0.333333  0.666667  0.000000  1
  Pd  Pd8  1  0.000000  0.000000  0.500000  1
