# generated using pymatgen
data_Tb2Ho14InAg3Rh4
_symmetry_space_group_name_H-M   'P 1'
_cell_length_a   9.55973674
_cell_length_b   9.51525288
_cell_length_c   9.55600443
_cell_angle_alpha   59.96885578
_cell_angle_beta   60.11964093
_cell_angle_gamma   59.97484692
_symmetry_Int_Tables_number   1
_chemical_formula_structural   Tb2Ho14InAg3Rh4
_chemical_formula_sum   'Tb2 Ho14 In1 Ag3 Rh4'
_cell_volume   614.94108569
_cell_formula_units_Z   1
loop_
 _symmetry_equiv_pos_site_id
 _symmetry_equiv_pos_as_xyz
  1  'x, y, z'
loop_
 _atom_site_type_symbol
 _atom_site_label
 _atom_site_symmetry_multiplicity
 _atom_site_fract_x
 _atom_site_fract_y
 _atom_site_fract_z
 _atom_site_occupancy
  Tb  Tb0  1  0.188719  0.181668  0.814595  1
  Tb  Tb1  1  0.601750  0.601880  0.195189  1
  Ho  Ho2  1  0.437865  0.061801  0.437119  1
  Ho  Ho3  1  0.439942  0.438399  0.060044  1
  Ho  Ho4  1  0.814597  0.181178  0.815177  1
  Ho  Ho5  1  0.186680  0.812124  0.187372  1
  Ho  Ho6  1  0.436525  0.062871  0.061770  1
  Ho  Ho7  1  0.187592  0.811144  0.814360  1
  Ho  Ho8  1  0.060261  0.439102  0.060177  1
  Ho  Ho9  1  0.815028  0.812184  0.187251  1
  Ho  Ho10  1  0.195626  0.601618  0.601568  1
  Ho  Ho11  1  0.059946  0.438909  0.439838  1
  Ho  Ho12  1  0.061552  0.062566  0.436487  1
  Ho  Ho13  1  0.814510  0.181592  0.189164  1
  Ho  Ho14  1  0.602823  0.194307  0.602345  1
  Ho  Ho15  1  0.601526  0.601122  0.601538  1
  In  In16  1  0.829554  0.511492  0.829003  1
  Ag  Ag17  1  0.832575  0.834754  0.831959  1
  Ag  Ag18  1  0.832559  0.834924  0.500554  1
  Ag  Ag19  1  0.501238  0.833968  0.832173  1
  Rh  Rh20  1  0.392619  0.821214  0.394394  1
  Rh  Rh21  1  0.391903  0.392966  0.392880  1
  Rh  Rh22  1  0.821303  0.393725  0.393985  1
  Rh  Rh23  1  0.393310  0.394493  0.821060  1
