# generated using pymatgen
data_GdZnNi4
_symmetry_space_group_name_H-M   'P 1'
_cell_length_a   3.94926600
_cell_length_b   5.06884160
_cell_length_c   5.07217000
_cell_angle_alpha   119.99788820
_cell_angle_beta   90.00000000
_cell_angle_gamma   90.00000000
_symmetry_Int_Tables_number   1
_chemical_formula_structural   GdZnNi4
_chemical_formula_sum   'Gd1 Zn1 Ni4'
_cell_volume   87.93439499
_cell_formula_units_Z   1
loop_
 _symmetry_equiv_pos_site_id
 _symmetry_equiv_pos_as_xyz
  1  'x, y, z'
loop_
 _atom_site_type_symbol
 _atom_site_label
 _atom_site_symmetry_multiplicity
 _atom_site_fract_x
 _atom_site_fract_y
 _atom_site_fract_z
 _atom_site_occupancy
  Gd  Gd0  1  0.000000  0.000002  0.000110  1
  Zn  Zn1  1  0.000000  0.333146  0.666765  1
  Ni  Ni2  1  0.000000  0.667546  0.333353  1
  Ni  Ni3  1  0.500000  0.502815  0.006133  1
  Ni  Ni4  1  0.500000  0.502677  0.496560  1
  Ni  Ni5  1  0.500000  0.993716  0.497078  1
