# generated using pymatgen
data_Tb5Y4Er3In20
_symmetry_space_group_name_H-M   'P 1'
_cell_length_a   6.52112339
_cell_length_b   10.42385802
_cell_length_c   12.28298303
_cell_angle_alpha   90.00440566
_cell_angle_beta   90.02316859
_cell_angle_gamma   90.00584045
_symmetry_Int_Tables_number   1
_chemical_formula_structural   Tb5Y4Er3In20
_chemical_formula_sum   'Tb5 Y4 Er3 In20'
_cell_volume   834.93894319
_cell_formula_units_Z   1
loop_
 _symmetry_equiv_pos_site_id
 _symmetry_equiv_pos_as_xyz
  1  'x, y, z'
loop_
 _atom_site_type_symbol
 _atom_site_label
 _atom_site_symmetry_multiplicity
 _atom_site_fract_x
 _atom_site_fract_y
 _atom_site_fract_z
 _atom_site_occupancy
  Tb  Tb0  1  0.890067  0.492502  0.142035  1
  Tb  Tb1  1  0.609613  0.006991  0.642390  1
  Tb  Tb2  1  0.110045  0.992256  0.858282  1
  Tb  Tb3  1  0.389782  0.507017  0.358061  1
  Tb  Tb4  1  0.110010  0.507736  0.858295  1
  Y  Y5  1  0.851015  0.250020  0.443674  1
  Y  Y6  1  0.389793  0.992967  0.358057  1
  Y  Y7  1  0.890088  0.007494  0.142051  1
  Y  Y8  1  0.609590  0.493019  0.642395  1
  Er  Er9  1  0.350211  0.749971  0.055527  1
  Er  Er10  1  0.149762  0.750044  0.555875  1
  Er  Er11  1  0.649789  0.249985  0.944609  1
  In  In12  1  0.614718  0.749979  0.505108  1
  In  In13  1  0.885064  0.750032  0.005258  1
  In  In14  1  0.383527  0.249983  0.495502  1
  In  In15  1  0.115273  0.249993  0.994439  1
  In  In16  1  0.650862  0.749991  0.244524  1
  In  In17  1  0.849148  0.750011  0.744924  1
  In  In18  1  0.349234  0.249982  0.755608  1
  In  In19  1  0.152820  0.250000  0.254073  1
  In  In20  1  0.124922  0.749999  0.283358  1
  In  In21  1  0.375814  0.750011  0.783547  1
  In  In22  1  0.875507  0.250009  0.717003  1
  In  In23  1  0.624389  0.250012  0.215111  1
  In  In24  1  0.875110  0.544846  0.401199  1
  In  In25  1  0.624774  0.956269  0.901279  1
  In  In26  1  0.124489  0.043490  0.599255  1
  In  In27  1  0.375160  0.456387  0.098418  1
  In  In28  1  0.124511  0.456495  0.599247  1
  In  In29  1  0.375103  0.043604  0.098429  1
  In  In30  1  0.875058  0.955162  0.401198  1
  In  In31  1  0.624755  0.543742  0.901267  1
