# generated using pymatgen
data_K2TmPuO6
_symmetry_space_group_name_H-M   'P 1'
_cell_length_a   5.98359692
_cell_length_b   5.98362237
_cell_length_c   5.98364000
_cell_angle_alpha   120.00114788
_cell_angle_beta   120.00116696
_cell_angle_gamma   89.99771807
_symmetry_Int_Tables_number   1
_chemical_formula_structural   K2TmPuO6
_chemical_formula_sum   'K2 Tm1 Pu1 O6'
_cell_volume   151.48527445
_cell_formula_units_Z   1
loop_
 _symmetry_equiv_pos_site_id
 _symmetry_equiv_pos_as_xyz
  1  'x, y, z'
loop_
 _atom_site_type_symbol
 _atom_site_label
 _atom_site_symmetry_multiplicity
 _atom_site_fract_x
 _atom_site_fract_y
 _atom_site_fract_z
 _atom_site_occupancy
  K  K0  1  0.749994  0.249994  0.499993  1
  K  K1  1  0.249995  0.749991  0.499997  1
  Tm  Tm2  1  0.499992  0.499980  0.999996  1
  Pu  Pu3  1  0.000028  0.000061  0.000019  1
  O  O4  1  0.238234  0.238233  0.999998  1
  O  O5  1  0.761754  0.238243  0.999999  1
  O  O6  1  0.238249  0.761747  0.999998  1
  O  O7  1  0.761752  0.761750  0.999999  1
  O  O8  1  0.238244  0.238243  0.476488  1
  O  O9  1  0.761754  0.761753  0.523510  1
