# generated using pymatgen
data_Sc4Al2(FeOs)3
_symmetry_space_group_name_H-M   'P 1'
_cell_length_a   5.18491632
_cell_length_b   5.12992375
_cell_length_c   8.25394700
_cell_angle_alpha   90.00000000
_cell_angle_beta   90.00000000
_cell_angle_gamma   119.64977003
_symmetry_Int_Tables_number   1
_chemical_formula_structural   Sc4Al2(FeOs)3
_chemical_formula_sum   'Sc4 Al2 Fe3 Os3'
_cell_volume   190.79494571
_cell_formula_units_Z   1
loop_
 _symmetry_equiv_pos_site_id
 _symmetry_equiv_pos_as_xyz
  1  'x, y, z'
loop_
 _atom_site_type_symbol
 _atom_site_label
 _atom_site_symmetry_multiplicity
 _atom_site_fract_x
 _atom_site_fract_y
 _atom_site_fract_z
 _atom_site_occupancy
  Sc  Sc0  1  0.335501  0.667751  0.435710  1
  Sc  Sc1  1  0.670245  0.335122  0.567571  1
  Sc  Sc2  1  0.670245  0.335122  0.932429  1
  Sc  Sc3  1  0.335501  0.667751  0.064290  1
  Al  Al4  1  0.005598  0.002798  0.993558  1
  Al  Al5  1  0.005598  0.002798  0.506442  1
  Fe  Fe6  1  0.170418  0.344452  0.750000  1
  Fe  Fe7  1  0.170418  0.825964  0.750000  1
  Fe  Fe8  1  0.336608  0.168304  0.250000  1
  Os  Os9  1  0.826848  0.656840  0.250000  1
  Os  Os10  1  0.646172  0.823085  0.750000  1
  Os  Os11  1  0.826848  0.170008  0.250000  1
