# generated using pymatgen
data_Li4LaSm3Si8
_symmetry_space_group_name_H-M   'P 1'
_cell_length_a   3.87600200
_cell_length_b   7.72205096
_cell_length_c   10.46274000
_cell_angle_alpha   89.77548459
_cell_angle_beta   90.00000000
_cell_angle_gamma   90.00000000
_symmetry_Int_Tables_number   1
_chemical_formula_structural   Li4LaSm3Si8
_chemical_formula_sum   'Li4 La1 Sm3 Si8'
_cell_volume   313.15457070
_cell_formula_units_Z   1
loop_
 _symmetry_equiv_pos_site_id
 _symmetry_equiv_pos_as_xyz
  1  'x, y, z'
loop_
 _atom_site_type_symbol
 _atom_site_label
 _atom_site_symmetry_multiplicity
 _atom_site_fract_x
 _atom_site_fract_y
 _atom_site_fract_z
 _atom_site_occupancy
  Li  Li0  1  0.250000  0.995697  0.391192  1
  Li  Li1  1  0.750000  0.007844  0.610300  1
  Li  Li2  1  0.250000  0.492463  0.108695  1
  Li  Li3  1  0.750000  0.506099  0.891647  1
  La  La4  1  0.750000  0.360819  0.363170  1
  Sm  Sm5  1  0.250000  0.134401  0.863821  1
  Sm  Sm6  1  0.750000  0.863494  0.134615  1
  Sm  Sm7  1  0.250000  0.636581  0.636324  1
  Si  Si8  1  0.750000  0.266671  0.066275  1
  Si  Si9  1  0.250000  0.728199  0.929557  1
  Si  Si10  1  0.750000  0.777354  0.429556  1
  Si  Si11  1  0.250000  0.229662  0.574620  1
  Si  Si12  1  0.750000  0.836424  0.821063  1
  Si  Si13  1  0.250000  0.159735  0.174620  1
  Si  Si14  1  0.750000  0.336327  0.682625  1
  Si  Si15  1  0.250000  0.668229  0.321920  1
