# generated using pymatgen
data_Ho2Er2TcB12Ru
_symmetry_space_group_name_H-M   'P 1'
_cell_length_a   3.65396600
_cell_length_b   9.12183436
_cell_length_c   11.50925800
_cell_angle_alpha   89.85615396
_cell_angle_beta   90.00000000
_cell_angle_gamma   90.00000000
_symmetry_Int_Tables_number   1
_chemical_formula_structural   Ho2Er2TcB12Ru
_chemical_formula_sum   'Ho4 Er4 Tc2 B24 Ru2'
_cell_volume   383.61240319
_cell_formula_units_Z   2
loop_
 _symmetry_equiv_pos_site_id
 _symmetry_equiv_pos_as_xyz
  1  'x, y, z'
loop_
 _atom_site_type_symbol
 _atom_site_label
 _atom_site_symmetry_multiplicity
 _atom_site_fract_x
 _atom_site_fract_y
 _atom_site_fract_z
 _atom_site_occupancy
  Ho  Ho0  1  0.000000  0.325028  0.415530  1
  Ho  Ho1  1  0.000000  0.674972  0.584470  1
  Ho  Ho2  1  0.000000  0.821288  0.087442  1
  Ho  Ho3  1  0.000000  0.178712  0.912558  1
  Er  Er4  1  0.000000  0.942512  0.370804  1
  Er  Er5  1  0.000000  0.057488  0.629196  1
  Er  Er6  1  0.000000  0.443359  0.129812  1
  Er  Er7  1  0.000000  0.556641  0.870188  1
  Tc  Tc8  1  0.000000  0.638690  0.320141  1
  Tc  Tc9  1  0.000000  0.361310  0.679859  1
  B  B10  1  0.500000  0.553267  0.433010  1
  B  B11  1  0.500000  0.446733  0.566990  1
  B  B12  1  0.500000  0.053968  0.066908  1
  B  B13  1  0.500000  0.946032  0.933092  1
  B  B14  1  0.500000  0.748902  0.419072  1
  B  B15  1  0.500000  0.251098  0.580928  1
  B  B16  1  0.500000  0.248934  0.080992  1
  B  B17  1  0.500000  0.751066  0.919008  1
  B  B18  1  0.500000  0.791969  0.265238  1
  B  B19  1  0.500000  0.208031  0.734762  1
  B  B20  1  0.500000  0.291019  0.234284  1
  B  B21  1  0.500000  0.708981  0.765716  1
  B  B22  1  0.500000  0.631317  0.184991  1
  B  B23  1  0.500000  0.368683  0.815009  1
  B  B24  1  0.500000  0.130996  0.314226  1
  B  B25  1  0.500000  0.869004  0.685774  1
  B  B26  1  0.500000  0.983091  0.212017  1
  B  B27  1  0.500000  0.016909  0.787983  1
  B  B28  1  0.500000  0.482533  0.287471  1
  B  B29  1  0.500000  0.517467  0.712529  1
  B  B30  1  0.500000  0.603201  0.028357  1
  B  B31  1  0.500000  0.396799  0.971643  1
  B  B32  1  0.500000  0.103295  0.471215  1
  B  B33  1  0.500000  0.896705  0.528785  1
  Ru  Ru34  1  0.000000  0.137998  0.178566  1
  Ru  Ru35  1  0.000000  0.862002  0.821434  1
