# generated using pymatgen
data_Y7Tm3(Bi2Te)2
_symmetry_space_group_name_H-M   'P 1'
_cell_length_a   8.16503500
_cell_length_b   9.43507212
_cell_length_c   12.00935000
_cell_angle_alpha   90.00932150
_cell_angle_beta   90.00000000
_cell_angle_gamma   90.00000000
_symmetry_Int_Tables_number   1
_chemical_formula_structural   Y7Tm3(Bi2Te)2
_chemical_formula_sum   'Y14 Tm6 Bi8 Te4'
_cell_volume   925.17261972
_cell_formula_units_Z   2
loop_
 _symmetry_equiv_pos_site_id
 _symmetry_equiv_pos_as_xyz
  1  'x, y, z'
loop_
 _atom_site_type_symbol
 _atom_site_label
 _atom_site_symmetry_multiplicity
 _atom_site_fract_x
 _atom_site_fract_y
 _atom_site_fract_z
 _atom_site_occupancy
  Y  Y0  1  0.180554  0.749828  0.717420  1
  Y  Y1  1  0.680554  0.750172  0.782580  1
  Y  Y2  1  0.819969  0.249702  0.283139  1
  Y  Y3  1  0.319969  0.250298  0.216861  1
  Y  Y4  1  0.689766  0.938231  0.057812  1
  Y  Y5  1  0.189766  0.561769  0.442188  1
  Y  Y6  1  0.690003  0.560895  0.058059  1
  Y  Y7  1  0.190003  0.939105  0.441941  1
  Y  Y8  1  0.309912  0.061084  0.941609  1
  Y  Y9  1  0.809912  0.438916  0.558391  1
  Y  Y10  1  0.354720  0.750078  0.212964  1
  Y  Y11  1  0.854720  0.749922  0.287036  1
  Y  Y12  1  0.645756  0.249476  0.786680  1
  Y  Y13  1  0.145756  0.250524  0.713320  1
  Tm  Tm14  1  0.024203  0.749957  0.989366  1
  Tm  Tm15  1  0.524203  0.750043  0.510634  1
  Tm  Tm16  1  0.976270  0.250448  0.010370  1
  Tm  Tm17  1  0.476270  0.249552  0.489630  1
  Tm  Tm18  1  0.309346  0.435012  0.941516  1
  Tm  Tm19  1  0.809346  0.064988  0.558484  1
  Bi  Bi20  1  0.432847  0.003523  0.672618  1
  Bi  Bi21  1  0.932847  0.496477  0.827382  1
  Bi  Bi22  1  0.567719  0.503623  0.327391  1
  Bi  Bi23  1  0.067719  0.996377  0.172609  1
  Bi  Bi24  1  0.567931  0.996253  0.327697  1
  Bi  Bi25  1  0.067931  0.503747  0.172303  1
  Bi  Bi26  1  0.432114  0.496236  0.672766  1
  Bi  Bi27  1  0.932114  0.003764  0.827234  1
  Te  Te28  1  0.406297  0.746939  0.957857  1
  Te  Te29  1  0.906297  0.753061  0.542143  1
  Te  Te30  1  0.592594  0.250057  0.041077  1
  Te  Te31  1  0.092594  0.249943  0.458923  1
