# generated using pymatgen
data_NdYEr2(MoN3)4
_symmetry_space_group_name_H-M   'P 1'
_cell_length_a   7.31331801
_cell_length_b   7.31331763
_cell_length_c   6.25823730
_cell_angle_alpha   74.34761659
_cell_angle_beta   74.34761808
_cell_angle_gamma   82.42149422
_symmetry_Int_Tables_number   1
_chemical_formula_structural   NdYEr2(MoN3)4
_chemical_formula_sum   'Nd1 Y1 Er2 Mo4 N12'
_cell_volume   309.72354252
_cell_formula_units_Z   1
loop_
 _symmetry_equiv_pos_site_id
 _symmetry_equiv_pos_as_xyz
  1  'x, y, z'
loop_
 _atom_site_type_symbol
 _atom_site_label
 _atom_site_symmetry_multiplicity
 _atom_site_fract_x
 _atom_site_fract_y
 _atom_site_fract_z
 _atom_site_occupancy
  Nd  Nd0  1  0.701354  0.298646  0.250000  1
  Y  Y1  1  0.295471  0.704529  0.750000  1
  Er  Er2  1  0.915868  0.084132  0.750000  1
  Er  Er3  1  0.088783  0.911217  0.250000  1
  Mo  Mo4  1  0.801168  0.620815  0.759908  1
  Mo  Mo5  1  0.198434  0.380977  0.236630  1
  Mo  Mo6  1  0.619023  0.801566  0.263370  1
  Mo  Mo7  1  0.379185  0.198832  0.740092  1
  N  N8  1  0.217248  0.998344  0.851545  1
  N  N9  1  0.356604  0.351780  0.451220  1
  N  N10  1  0.635506  0.647561  0.554313  1
  N  N11  1  0.621646  0.111516  0.672251  1
  N  N12  1  0.001656  0.782752  0.648455  1
  N  N13  1  0.788248  0.994550  0.147928  1
  N  N14  1  0.107747  0.622536  0.165133  1
  N  N15  1  0.888484  0.378354  0.827749  1
  N  N16  1  0.005450  0.211752  0.352072  1
  N  N17  1  0.352439  0.364494  0.945687  1
  N  N18  1  0.648220  0.643396  0.048780  1
  N  N19  1  0.377464  0.892253  0.334867  1
