# generated using pymatgen
data_SmTmTc2C3
_symmetry_space_group_name_H-M   'P 1'
_cell_length_a   6.08485457
_cell_length_b   6.08485436
_cell_length_c   5.71990764
_cell_angle_alpha   66.65924468
_cell_angle_beta   66.65924445
_cell_angle_gamma   31.80526653
_symmetry_Int_Tables_number   1
_chemical_formula_structural   SmTmTc2C3
_chemical_formula_sum   'Sm1 Tm1 Tc2 C3'
_cell_volume   101.70480992
_cell_formula_units_Z   1
loop_
 _symmetry_equiv_pos_site_id
 _symmetry_equiv_pos_as_xyz
  1  'x, y, z'
loop_
 _atom_site_type_symbol
 _atom_site_label
 _atom_site_symmetry_multiplicity
 _atom_site_fract_x
 _atom_site_fract_y
 _atom_site_fract_z
 _atom_site_occupancy
  Sm  Sm0  1  0.605982  0.605982  0.185951  1
  Tm  Tm1  1  0.388038  0.388038  0.827017  1
  Tc  Tc2  1  0.842327  0.842327  0.318858  1
  Tc  Tc3  1  0.159024  0.159024  0.679372  1
  C  C4  1  0.756647  0.756647  0.727315  1
  C  C5  1  0.250098  0.250098  0.270896  1
  C  C6  1  0.997883  0.997883  0.990590  1
