# generated using pymatgen
data_Hf8FeSiBi4
_symmetry_space_group_name_H-M   'P 1'
_cell_length_a   8.24332541
_cell_length_b   8.24330846
_cell_length_c   8.24332534
_cell_angle_alpha   95.84287018
_cell_angle_beta   95.84299139
_cell_angle_gamma   142.78752594
_symmetry_Int_Tables_number   1
_chemical_formula_structural   Hf8FeSiBi4
_chemical_formula_sum   'Hf8 Fe1 Si1 Bi4'
_cell_volume   321.05865844
_cell_formula_units_Z   1
loop_
 _symmetry_equiv_pos_site_id
 _symmetry_equiv_pos_as_xyz
  1  'x, y, z'
loop_
 _atom_site_type_symbol
 _atom_site_label
 _atom_site_symmetry_multiplicity
 _atom_site_fract_x
 _atom_site_fract_y
 _atom_site_fract_z
 _atom_site_occupancy
  Hf  Hf0  1  0.580758  0.694088  0.277256  1
  Hf  Hf1  1  0.919239  0.196495  0.113317  1
  Hf  Hf2  1  0.303506  0.580761  0.886674  1
  Hf  Hf3  1  0.805914  0.919239  0.722746  1
  Hf  Hf4  1  0.694079  0.416822  0.113322  1
  Hf  Hf5  1  0.083168  0.805912  0.886670  1
  Hf  Hf6  1  0.416822  0.303505  0.722744  1
  Hf  Hf7  1  0.196500  0.083178  0.277257  1
  Fe  Fe8  1  0.250029  0.250000  0.000029  1
  Si  Si9  1  0.750002  0.750000  0.000002  1
  Bi  Bi10  1  0.360957  0.860963  0.221918  1
  Bi  Bi11  1  0.139037  0.360958  0.499994  1
  Bi  Bi12  1  0.639035  0.139042  0.778077  1
  Bi  Bi13  1  0.860954  0.639037  0.499994  1
