# generated using pymatgen
data_Rb2Ta2OF10
_symmetry_space_group_name_H-M   'P 1'
_cell_length_a   5.39927300
_cell_length_b   7.45637444
_cell_length_c   13.80854426
_cell_angle_alpha   79.70616537
_cell_angle_beta   90.00000000
_cell_angle_gamma   90.00000000
_symmetry_Int_Tables_number   1
_chemical_formula_structural   Rb2Ta2OF10
_chemical_formula_sum   'Rb4 Ta4 O2 F20'
_cell_volume   546.97029239
_cell_formula_units_Z   2
loop_
 _symmetry_equiv_pos_site_id
 _symmetry_equiv_pos_as_xyz
  1  'x, y, z'
loop_
 _atom_site_type_symbol
 _atom_site_label
 _atom_site_symmetry_multiplicity
 _atom_site_fract_x
 _atom_site_fract_y
 _atom_site_fract_z
 _atom_site_occupancy
  Rb  Rb0  1  0.446611  0.224072  0.592365  1
  Rb  Rb1  1  0.553389  0.224072  0.092365  1
  Rb  Rb2  1  0.553389  0.775928  0.407635  1
  Rb  Rb3  1  0.446611  0.775928  0.907635  1
  Ta  Ta4  1  0.023773  0.288631  0.342471  1
  Ta  Ta5  1  0.976227  0.288631  0.842471  1
  Ta  Ta6  1  0.023773  0.711369  0.157529  1
  Ta  Ta7  1  0.976227  0.711369  0.657529  1
  O  O8  1  0.087881  0.500000  0.750000  1
  O  O9  1  0.912119  0.500000  0.250000  1
  F  F10  1  0.742173  0.861173  0.177817  1
  F  F11  1  0.695984  0.573420  0.622039  1
  F  F12  1  0.189158  0.795300  0.265005  1
  F  F13  1  0.816610  0.083392  0.928743  1
  F  F14  1  0.304016  0.426580  0.377961  1
  F  F15  1  0.183390  0.916608  0.071257  1
  F  F16  1  0.189158  0.204700  0.234995  1
  F  F17  1  0.257827  0.861173  0.677817  1
  F  F18  1  0.810842  0.204700  0.734995  1
  F  F19  1  0.695984  0.426580  0.877961  1
  F  F20  1  0.183390  0.083392  0.428743  1
  F  F21  1  0.156599  0.351752  0.953255  1
  F  F22  1  0.257827  0.138827  0.822183  1
  F  F23  1  0.843401  0.648248  0.046745  1
  F  F24  1  0.810842  0.795300  0.765005  1
  F  F25  1  0.742173  0.138827  0.322183  1
  F  F26  1  0.816610  0.916608  0.571257  1
  F  F27  1  0.843401  0.351752  0.453255  1
  F  F28  1  0.304016  0.573420  0.122039  1
  F  F29  1  0.156599  0.648248  0.546745  1
