# generated using pymatgen
data_Y2BIrPt5
_symmetry_space_group_name_H-M   'P 1'
_cell_length_a   5.95627435
_cell_length_b   5.93110249
_cell_length_c   5.93110265
_cell_angle_alpha   60.28098329
_cell_angle_beta   59.85951005
_cell_angle_gamma   59.85950983
_symmetry_Int_Tables_number   1
_chemical_formula_structural   Y2BIrPt5
_chemical_formula_sum   'Y2 B1 Ir1 Pt5'
_cell_volume   148.15450551
_cell_formula_units_Z   1
loop_
 _symmetry_equiv_pos_site_id
 _symmetry_equiv_pos_as_xyz
  1  'x, y, z'
loop_
 _atom_site_type_symbol
 _atom_site_label
 _atom_site_symmetry_multiplicity
 _atom_site_fract_x
 _atom_site_fract_y
 _atom_site_fract_z
 _atom_site_occupancy
  Y  Y0  1  0.248806  0.251194  0.251194  1
  Y  Y1  1  0.748806  0.751194  0.751194  1
  B  B2  1  0.006193  0.993807  0.993807  1
  Ir  Ir3  1  0.255528  0.744473  0.744473  1
  Pt  Pt4  1  0.745803  0.254198  0.254198  1
  Pt  Pt5  1  0.256390  0.743611  0.258956  1
  Pt  Pt6  1  0.741043  0.743609  0.258958  1
  Pt  Pt7  1  0.256390  0.258956  0.743611  1
  Pt  Pt8  1  0.741043  0.258958  0.743609  1
