# generated using pymatgen
data_La7Pr5AlGa7Rh8
_symmetry_space_group_name_H-M   'P 1'
_cell_length_a   5.78673549
_cell_length_b   8.15861041
_cell_length_c   14.01055348
_cell_angle_alpha   89.90809148
_cell_angle_beta   90.01461401
_cell_angle_gamma   89.95409825
_symmetry_Int_Tables_number   1
_chemical_formula_structural   La7Pr5AlGa7Rh8
_chemical_formula_sum   'La7 Pr5 Al1 Ga7 Rh8'
_cell_volume   661.46124892
_cell_formula_units_Z   1
loop_
 _symmetry_equiv_pos_site_id
 _symmetry_equiv_pos_as_xyz
  1  'x, y, z'
loop_
 _atom_site_type_symbol
 _atom_site_label
 _atom_site_symmetry_multiplicity
 _atom_site_fract_x
 _atom_site_fract_y
 _atom_site_fract_z
 _atom_site_occupancy
  La  La0  1  0.849201  0.596737  0.904827  1
  La  La1  1  0.845566  0.597252  0.595090  1
  La  La2  1  0.846424  0.902854  0.404229  1
  La  La3  1  0.153104  0.403391  0.404510  1
  La  La4  1  0.153712  0.096631  0.594935  1
  La  La5  1  0.151039  0.094895  0.903635  1
  La  La6  1  0.849394  0.902585  0.096146  1
  Pr  Pr7  1  0.635560  0.258346  0.250394  1
  Pr  Pr8  1  0.361825  0.741861  0.749055  1
  Pr  Pr9  1  0.363075  0.757235  0.250783  1
  Pr  Pr10  1  0.636429  0.242907  0.749232  1
  Pr  Pr11  1  0.146667  0.405035  0.099866  1
  Al  Al12  1  0.622829  0.250840  0.000819  1
  Ga  Ga13  1  0.141164  0.110206  0.249270  1
  Ga  Ga14  1  0.857202  0.890682  0.749433  1
  Ga  Ga15  1  0.859121  0.608516  0.250057  1
  Ga  Ga16  1  0.142004  0.389998  0.749898  1
  Ga  Ga17  1  0.366991  0.748734  0.000380  1
  Ga  Ga18  1  0.363654  0.750014  0.500006  1
  Ga  Ga19  1  0.636533  0.249961  0.499860  1
  Rh  Rh20  1  0.363243  0.031587  0.091012  1
  Rh  Rh21  1  0.643510  0.973713  0.909810  1
  Rh  Rh22  1  0.638164  0.968788  0.591160  1
  Rh  Rh23  1  0.638940  0.531496  0.408393  1
  Rh  Rh24  1  0.361142  0.031181  0.407676  1
  Rh  Rh25  1  0.361900  0.468844  0.591755  1
  Rh  Rh26  1  0.365312  0.468092  0.907916  1
  Rh  Rh27  1  0.646296  0.527619  0.089853  1
