# generated using pymatgen
data_YLu8MgCd3Ru
_symmetry_space_group_name_H-M   'P 1'
_cell_length_a   9.34819101
_cell_length_b   9.34819076
_cell_length_c   9.54272500
_cell_angle_alpha   90.00000000
_cell_angle_beta   90.00000000
_cell_angle_gamma   119.97070079
_symmetry_Int_Tables_number   1
_chemical_formula_structural   YLu8MgCd3Ru
_chemical_formula_sum   'Y2 Lu16 Mg2 Cd6 Ru2'
_cell_volume   722.41429126
_cell_formula_units_Z   2
loop_
 _symmetry_equiv_pos_site_id
 _symmetry_equiv_pos_as_xyz
  1  'x, y, z'
loop_
 _atom_site_type_symbol
 _atom_site_label
 _atom_site_symmetry_multiplicity
 _atom_site_fract_x
 _atom_site_fract_y
 _atom_site_fract_z
 _atom_site_occupancy
  Y  Y0  1  0.459335  0.917100  0.750000  1
  Y  Y1  1  0.082900  0.540665  0.750000  1
  Lu  Lu2  1  0.208290  0.791710  0.440971  1
  Lu  Lu3  1  0.210697  0.419184  0.441505  1
  Lu  Lu4  1  0.580816  0.789303  0.441505  1
  Lu  Lu5  1  0.790352  0.209648  0.556500  1
  Lu  Lu6  1  0.789208  0.580667  0.556686  1
  Lu  Lu7  1  0.419333  0.210792  0.556686  1
  Lu  Lu8  1  0.790352  0.209648  0.943500  1
  Lu  Lu9  1  0.789208  0.580667  0.943314  1
  Lu  Lu10  1  0.419333  0.210792  0.943314  1
  Lu  Lu11  1  0.208290  0.791710  0.059029  1
  Lu  Lu12  1  0.210697  0.419184  0.058495  1
  Lu  Lu13  1  0.580816  0.789303  0.058495  1
  Lu  Lu14  1  0.542485  0.457515  0.250000  1
  Lu  Lu15  1  0.541752  0.082590  0.250000  1
  Lu  Lu16  1  0.917410  0.458248  0.250000  1
  Lu  Lu17  1  0.460147  0.539853  0.750000  1
  Mg  Mg18  1  0.999803  0.000197  0.498573  1
  Mg  Mg19  1  0.999803  0.000197  0.001427  1
  Cd  Cd20  1  0.888746  0.111254  0.250000  1
  Cd  Cd21  1  0.887511  0.776876  0.250000  1
  Cd  Cd22  1  0.223124  0.112489  0.250000  1
  Cd  Cd23  1  0.109896  0.890104  0.750000  1
  Cd  Cd24  1  0.112697  0.221069  0.750000  1
  Cd  Cd25  1  0.778931  0.887303  0.750000  1
  Ru  Ru26  1  0.331904  0.668096  0.250000  1
  Ru  Ru27  1  0.666165  0.333835  0.750000  1
