# generated using pymatgen
data_Dy2Er4Mn3Si24Os5
_symmetry_space_group_name_H-M   'P 1'
_cell_length_a   10.05596211
_cell_length_b   10.05629269
_cell_length_c   8.05203800
_cell_angle_alpha   90.00114755
_cell_angle_beta   90.00145508
_cell_angle_gamma   132.73572151
_symmetry_Int_Tables_number   1
_chemical_formula_structural   Dy2Er4Mn3Si24Os5
_chemical_formula_sum   'Dy2 Er4 Mn3 Si24 Os5'
_cell_volume   598.07301898
_cell_formula_units_Z   1
loop_
 _symmetry_equiv_pos_site_id
 _symmetry_equiv_pos_as_xyz
  1  'x, y, z'
loop_
 _atom_site_type_symbol
 _atom_site_label
 _atom_site_symmetry_multiplicity
 _atom_site_fract_x
 _atom_site_fract_y
 _atom_site_fract_z
 _atom_site_occupancy
  Dy  Dy0  1  0.498952  0.998009  0.249102  1
  Dy  Dy1  1  0.001892  0.501093  0.750570  1
  Er  Er2  1  0.498863  0.498892  0.497111  1
  Er  Er3  1  0.997255  0.997281  0.998819  1
  Er  Er4  1  0.501222  0.001777  0.750481  1
  Er  Er5  1  0.997952  0.499052  0.248897  1
  Mn  Mn6  1  0.874190  0.874188  0.374573  1
  Mn  Mn7  1  0.376132  0.376183  0.127327  1
  Mn  Mn8  1  0.627360  0.627307  0.876786  1
  Si  Si9  1  0.796421  0.203391  0.499286  1
  Si  Si10  1  0.297371  0.702594  0.000332  1
  Si  Si11  1  0.203215  0.796374  0.499367  1
  Si  Si12  1  0.702624  0.297266  0.000240  1
  Si  Si13  1  0.339960  0.340289  0.839917  1
  Si  Si14  1  0.667743  0.668090  0.168289  1
  Si  Si15  1  0.166265  0.166011  0.325276  1
  Si  Si16  1  0.825488  0.825154  0.666545  1
  Si  Si17  1  0.124602  0.891330  0.730058  1
  Si  Si18  1  0.100782  0.874050  0.270200  1
  Si  Si19  1  0.601507  0.374389  0.229914  1
  Si  Si20  1  0.628149  0.400945  0.770696  1
  Si  Si21  1  0.874914  0.101661  0.270465  1
  Si  Si22  1  0.890304  0.123361  0.729696  1
  Si  Si23  1  0.401771  0.629063  0.770416  1
  Si  Si24  1  0.373381  0.600638  0.230264  1
  Si  Si25  1  0.346786  0.113850  0.507444  1
  Si  Si26  1  0.883627  0.656892  0.487240  1
  Si  Si27  1  0.383683  0.156545  0.014675  1
  Si  Si28  1  0.843728  0.616553  0.988299  1
  Si  Si29  1  0.657157  0.883900  0.488211  1
  Si  Si30  1  0.113677  0.346436  0.506335  1
  Si  Si31  1  0.616791  0.844020  0.987345  1
  Si  Si32  1  0.156174  0.383410  0.015662  1
  Os  Os33  1  0.672021  0.330628  0.500319  1
  Os  Os34  1  0.171159  0.829011  0.001152  1
  Os  Os35  1  0.330540  0.672036  0.500358  1
  Os  Os36  1  0.829061  0.171119  0.001062  1
  Os  Os37  1  0.127281  0.127212  0.627273  1
