# generated using pymatgen
data_Dy3Y(TcB4)4
_symmetry_space_group_name_H-M   'P 1'
_cell_length_a   5.96627018
_cell_length_b   11.55294923
_cell_length_c   3.59791700
_cell_angle_alpha   90.00000000
_cell_angle_beta   90.00000000
_cell_angle_gamma   89.99722660
_symmetry_Int_Tables_number   1
_chemical_formula_structural   Dy3Y(TcB4)4
_chemical_formula_sum   'Dy3 Y1 Tc4 B16'
_cell_volume   247.99728203
_cell_formula_units_Z   1
loop_
 _symmetry_equiv_pos_site_id
 _symmetry_equiv_pos_as_xyz
  1  'x, y, z'
loop_
 _atom_site_type_symbol
 _atom_site_label
 _atom_site_symmetry_multiplicity
 _atom_site_fract_x
 _atom_site_fract_y
 _atom_site_fract_z
 _atom_site_occupancy
  Dy  Dy0  1  0.372732  0.649803  0.000000  1
  Dy  Dy1  1  0.127268  0.149523  0.000000  1
  Dy  Dy2  1  0.872788  0.850404  0.000000  1
  Y  Y3  1  0.627228  0.350255  0.000000  1
  Tc  Tc4  1  0.633462  0.087442  0.000000  1
  Tc  Tc5  1  0.366607  0.912405  0.000000  1
  Tc  Tc6  1  0.133309  0.412491  0.000000  1
  Tc  Tc7  1  0.866723  0.587690  0.000000  1
  B  B8  1  0.787151  0.184902  0.500000  1
  B  B9  1  0.213058  0.814913  0.500000  1
  B  B10  1  0.286731  0.314829  0.500000  1
  B  B11  1  0.713001  0.685200  0.500000  1
  B  B12  1  0.863932  0.031377  0.500000  1
  B  B13  1  0.136103  0.968476  0.500000  1
  B  B14  1  0.363785  0.468671  0.500000  1
  B  B15  1  0.636030  0.531678  0.500000  1
  B  B16  1  0.886909  0.453017  0.500000  1
  B  B17  1  0.113196  0.547184  0.500000  1
  B  B18  1  0.386795  0.046993  0.500000  1
  B  B19  1  0.613175  0.952884  0.500000  1
  B  B20  1  0.976543  0.307686  0.500000  1
  B  B21  1  0.023676  0.692332  0.500000  1
  B  B22  1  0.476149  0.192054  0.500000  1
  B  B23  1  0.523650  0.807792  0.500000  1
