# generated using pymatgen
data_Y2Ho2AlGa17Ir6
_symmetry_space_group_name_H-M   'P 1'
_cell_length_a   7.58978986
_cell_length_b   7.59124180
_cell_length_c   9.49200523
_cell_angle_alpha   89.99667786
_cell_angle_beta   89.99643406
_cell_angle_gamma   119.86416223
_symmetry_Int_Tables_number   1
_chemical_formula_structural   Y2Ho2AlGa17Ir6
_chemical_formula_sum   'Y2 Ho2 Al1 Ga17 Ir6'
_cell_volume   474.26820140
_cell_formula_units_Z   1
loop_
 _symmetry_equiv_pos_site_id
 _symmetry_equiv_pos_as_xyz
  1  'x, y, z'
loop_
 _atom_site_type_symbol
 _atom_site_label
 _atom_site_symmetry_multiplicity
 _atom_site_fract_x
 _atom_site_fract_y
 _atom_site_fract_z
 _atom_site_occupancy
  Y  Y0  1  0.998656  0.669146  0.249683  1
  Y  Y1  1  0.001589  0.330128  0.749471  1
  Ho  Ho2  1  0.669171  0.998749  0.249702  1
  Ho  Ho3  1  0.330073  0.001454  0.749468  1
  Al  Al4  1  0.335730  0.335591  0.950227  1
  Ga  Ga5  1  0.126658  0.126845  0.249332  1
  Ga  Ga6  1  0.872707  0.872519  0.749194  1
  Ga  Ga7  1  0.998388  0.334147  0.080088  1
  Ga  Ga8  1  0.000138  0.665163  0.918429  1
  Ga  Ga9  1  0.999695  0.664893  0.581047  1
  Ga  Ga10  1  0.334912  0.999856  0.418314  1
  Ga  Ga11  1  0.999614  0.334416  0.418141  1
  Ga  Ga12  1  0.664405  0.999459  0.580877  1
  Ga  Ga13  1  0.664679  0.999892  0.918603  1
  Ga  Ga14  1  0.334642  0.998633  0.079917  1
  Ga  Ga15  1  0.331850  0.331631  0.563791  1
  Ga  Ga16  1  0.667849  0.668064  0.434925  1
  Ga  Ga17  1  0.671621  0.671858  0.065005  1
  Ga  Ga18  1  0.340917  0.548251  0.249750  1
  Ga  Ga19  1  0.655408  0.450756  0.750230  1
  Ga  Ga20  1  0.547994  0.340487  0.249748  1
  Ga  Ga21  1  0.451028  0.655840  0.750232  1
  Ir  Ir22  1  0.669046  0.328143  0.999036  1
  Ir  Ir23  1  0.328359  0.669275  0.999030  1
  Ir  Ir24  1  0.328451  0.671922  0.499655  1
  Ir  Ir25  1  0.671704  0.328226  0.499621  1
  Ir  Ir26  1  0.004859  0.004798  0.997270  1
  Ir  Ir27  1  0.999854  0.999855  0.499214  1
