# generated using pymatgen
data_Tb2DyMg3AgPb2
_symmetry_space_group_name_H-M   'P 1'
_cell_length_a   7.56590320
_cell_length_b   7.56895002
_cell_length_c   4.60700500
_cell_angle_alpha   90.00000000
_cell_angle_beta   90.00000000
_cell_angle_gamma   120.01332822
_symmetry_Int_Tables_number   1
_chemical_formula_structural   Tb2DyMg3AgPb2
_chemical_formula_sum   'Tb2 Dy1 Mg3 Ag1 Pb2'
_cell_volume   228.44801578
_cell_formula_units_Z   1
loop_
 _symmetry_equiv_pos_site_id
 _symmetry_equiv_pos_as_xyz
  1  'x, y, z'
loop_
 _atom_site_type_symbol
 _atom_site_label
 _atom_site_symmetry_multiplicity
 _atom_site_fract_x
 _atom_site_fract_y
 _atom_site_fract_z
 _atom_site_occupancy
  Tb  Tb0  1  0.413197  0.413234  0.500000  1
  Tb  Tb1  1  0.586803  0.000037  0.500000  1
  Dy  Dy2  1  0.000000  0.586881  0.500000  1
  Mg  Mg3  1  0.767032  0.766968  0.000000  1
  Mg  Mg4  1  0.232968  0.999936  0.000000  1
  Mg  Mg5  1  0.000000  0.233067  0.000000  1
  Ag  Ag6  1  0.000000  0.999800  0.500000  1
  Pb  Pb7  1  0.666938  0.333507  0.000000  1
  Pb  Pb8  1  0.333062  0.666570  0.000000  1
