# generated using pymatgen
data_Ho3Er3Tm10(InRh)4
_symmetry_space_group_name_H-M   'P 1'
_cell_length_a   9.55316529
_cell_length_b   9.54970873
_cell_length_c   9.55849003
_cell_angle_alpha   59.99361727
_cell_angle_beta   59.95796407
_cell_angle_gamma   59.94887185
_symmetry_Int_Tables_number   1
_chemical_formula_structural   Ho3Er3Tm10(InRh)4
_chemical_formula_sum   'Ho3 Er3 Tm10 In4 Rh4'
_cell_volume   616.14743037
_cell_formula_units_Z   1
loop_
 _symmetry_equiv_pos_site_id
 _symmetry_equiv_pos_as_xyz
  1  'x, y, z'
loop_
 _atom_site_type_symbol
 _atom_site_label
 _atom_site_symmetry_multiplicity
 _atom_site_fract_x
 _atom_site_fract_y
 _atom_site_fract_z
 _atom_site_occupancy
  Ho  Ho0  1  0.061839  0.061846  0.438154  1
  Ho  Ho1  1  0.437491  0.062285  0.437786  1
  Ho  Ho2  1  0.062281  0.437483  0.062448  1
  Er  Er3  1  0.049577  0.649165  0.650937  1
  Er  Er4  1  0.438254  0.438252  0.061750  1
  Er  Er5  1  0.649157  0.049587  0.650305  1
  Tm  Tm6  1  0.189699  0.810889  0.188421  1
  Tm  Tm7  1  0.188716  0.188715  0.811290  1
  Tm  Tm8  1  0.810756  0.810759  0.189237  1
  Tm  Tm9  1  0.439099  0.060521  0.060789  1
  Tm  Tm10  1  0.811149  0.189504  0.188120  1
  Tm  Tm11  1  0.060525  0.439100  0.439590  1
  Tm  Tm12  1  0.810896  0.189696  0.810985  1
  Tm  Tm13  1  0.189499  0.811144  0.811243  1
  Tm  Tm14  1  0.650556  0.649885  0.047869  1
  Tm  Tm15  1  0.649872  0.650551  0.651699  1
  In  In16  1  0.416400  0.417941  0.416227  1
  In  In17  1  0.748469  0.417640  0.417299  1
  In  In18  1  0.417644  0.748446  0.416596  1
  In  In19  1  0.417946  0.416398  0.749429  1
  Rh  Rh20  1  0.858377  0.857108  0.426055  1
  Rh  Rh21  1  0.857069  0.858402  0.858472  1
  Rh  Rh22  1  0.427086  0.857652  0.858324  1
  Rh  Rh23  1  0.857641  0.427031  0.856978  1
