# generated using pymatgen
data_NaPr5SmPtBr12
_symmetry_space_group_name_H-M   'P 1'
_cell_length_a   9.59038905
_cell_length_b   9.65104532
_cell_length_c   9.67602550
_cell_angle_alpha   107.22595782
_cell_angle_beta   107.98850688
_cell_angle_gamma   107.04825083
_symmetry_Int_Tables_number   1
_chemical_formula_structural   NaPr5SmPtBr12
_chemical_formula_sum   'Na1 Pr5 Sm1 Pt1 Br12'
_cell_volume   737.07846898
_cell_formula_units_Z   1
loop_
 _symmetry_equiv_pos_site_id
 _symmetry_equiv_pos_as_xyz
  1  'x, y, z'
loop_
 _atom_site_type_symbol
 _atom_site_label
 _atom_site_symmetry_multiplicity
 _atom_site_fract_x
 _atom_site_fract_y
 _atom_site_fract_z
 _atom_site_occupancy
  Na  Na0  1  0.499938  0.500207  0.499702  1
  Pr  Pr1  1  0.317481  0.029128  0.113104  1
  Pr  Pr2  1  0.031433  0.119459  0.328434  1
  Pr  Pr3  1  0.969266  0.883122  0.673015  1
  Pr  Pr4  1  0.682550  0.970064  0.886926  1
  Pr  Pr5  1  0.882921  0.672160  0.968447  1
  Sm  Sm6  1  0.115538  0.323084  0.031390  1
  Pt  Pt7  1  0.000502  0.000878  0.000802  1
  Br  Br8  1  0.215564  0.680273  0.072724  1
  Br  Br9  1  0.450654  0.372014  0.155324  1
  Br  Br10  1  0.683087  0.073015  0.215211  1
  Br  Br11  1  0.927895  0.786268  0.315664  1
  Br  Br12  1  0.157588  0.456306  0.365839  1
  Br  Br13  1  0.372684  0.158366  0.456697  1
  Br  Br14  1  0.627378  0.842017  0.543390  1
  Br  Br15  1  0.841925  0.543951  0.627519  1
  Br  Br16  1  0.073993  0.218683  0.691197  1
  Br  Br17  1  0.317063  0.927412  0.785056  1
  Br  Br18  1  0.542725  0.628172  0.841221  1
  Br  Br19  1  0.789819  0.315424  0.928343  1
