# generated using pymatgen
data_Pr8Nd8Cd4Pd3Ru
_symmetry_space_group_name_H-M   'P 1'
_cell_length_a   10.08795676
_cell_length_b   10.08795815
_cell_length_c   10.09508301
_cell_angle_alpha   59.42306367
_cell_angle_beta   59.42306200
_cell_angle_gamma   59.47510177
_symmetry_Int_Tables_number   1
_chemical_formula_structural   Pr8Nd8Cd4Pd3Ru
_chemical_formula_sum   'Pr8 Nd8 Cd4 Pd3 Ru1'
_cell_volume   717.19384789
_cell_formula_units_Z   1
loop_
 _symmetry_equiv_pos_site_id
 _symmetry_equiv_pos_as_xyz
  1  'x, y, z'
loop_
 _atom_site_type_symbol
 _atom_site_label
 _atom_site_symmetry_multiplicity
 _atom_site_fract_x
 _atom_site_fract_y
 _atom_site_fract_z
 _atom_site_occupancy
  Pr  Pr0  1  0.188642  0.188642  0.818132  1
  Pr  Pr1  1  0.808188  0.808188  0.188632  1
  Pr  Pr2  1  0.936073  0.564255  0.564295  1
  Pr  Pr3  1  0.558352  0.937223  0.937368  1
  Pr  Pr4  1  0.564255  0.936073  0.564295  1
  Pr  Pr5  1  0.937223  0.558352  0.937368  1
  Pr  Pr6  1  0.564280  0.564280  0.935922  1
  Pr  Pr7  1  0.937320  0.937320  0.558177  1
  Nd  Nd8  1  0.352500  0.352500  0.351866  1
  Nd  Nd9  1  0.347210  0.347210  0.951298  1
  Nd  Nd10  1  0.346877  0.951220  0.347211  1
  Nd  Nd11  1  0.951220  0.346877  0.347211  1
  Nd  Nd12  1  0.817704  0.189027  0.189105  1
  Nd  Nd13  1  0.188881  0.808040  0.807954  1
  Nd  Nd14  1  0.189027  0.817704  0.189105  1
  Nd  Nd15  1  0.808040  0.188881  0.807954  1
  Cd  Cd16  1  0.579123  0.579123  0.579912  1
  Cd  Cd17  1  0.580142  0.580142  0.259271  1
  Cd  Cd18  1  0.580741  0.259215  0.580176  1
  Cd  Cd19  1  0.259215  0.580741  0.580176  1
  Pd  Pd20  1  0.145106  0.145106  0.570685  1
  Pd  Pd21  1  0.146609  0.570573  0.145043  1
  Pd  Pd22  1  0.570573  0.146609  0.145043  1
  Ru  Ru23  1  0.142700  0.142700  0.143803  1
