# generated using pymatgen
data_LuZn2InNi2
_symmetry_space_group_name_H-M   'P 1'
_cell_length_a   5.08299569
_cell_length_b   5.08299595
_cell_length_c   5.07305300
_cell_angle_alpha   60.06468033
_cell_angle_beta   60.06467867
_cell_angle_gamma   61.94674213
_symmetry_Int_Tables_number   1
_chemical_formula_structural   LuZn2InNi2
_chemical_formula_sum   'Lu1 Zn2 In1 Ni2'
_cell_volume   94.06222210
_cell_formula_units_Z   1
loop_
 _symmetry_equiv_pos_site_id
 _symmetry_equiv_pos_as_xyz
  1  'x, y, z'
loop_
 _atom_site_type_symbol
 _atom_site_label
 _atom_site_symmetry_multiplicity
 _atom_site_fract_x
 _atom_site_fract_y
 _atom_site_fract_z
 _atom_site_occupancy
  Lu  Lu0  1  0.244394  0.244394  0.255606  1
  Zn  Zn1  1  0.626547  0.626547  0.622513  1
  Zn  Zn2  1  0.626547  0.626547  0.124393  1
  In  In3  1  0.001324  0.001324  0.998676  1
  Ni  Ni4  1  0.626216  0.124973  0.624406  1
  Ni  Ni5  1  0.124973  0.626216  0.624406  1
