# generated using pymatgen
data_Ho4B16IrRhW2
_symmetry_space_group_name_H-M   'P 1'
_cell_length_a   3.59305200
_cell_length_b   5.99196999
_cell_length_c   11.60302386
_cell_angle_alpha   90.34199548
_cell_angle_beta   90.00000000
_cell_angle_gamma   90.00000000
_symmetry_Int_Tables_number   1
_chemical_formula_structural   Ho4B16IrRhW2
_chemical_formula_sum   'Ho4 B16 Ir1 Rh1 W2'
_cell_volume   249.80238529
_cell_formula_units_Z   1
loop_
 _symmetry_equiv_pos_site_id
 _symmetry_equiv_pos_as_xyz
  1  'x, y, z'
loop_
 _atom_site_type_symbol
 _atom_site_label
 _atom_site_symmetry_multiplicity
 _atom_site_fract_x
 _atom_site_fract_y
 _atom_site_fract_z
 _atom_site_occupancy
  Ho  Ho0  1  0.000000  0.127808  0.151134  1
  Ho  Ho1  1  0.000000  0.872308  0.849261  1
  Ho  Ho2  1  0.000000  0.629827  0.352187  1
  Ho  Ho3  1  0.000000  0.370043  0.647851  1
  B  B4  1  0.500000  0.475234  0.194522  1
  B  B5  1  0.500000  0.524255  0.805582  1
  B  B6  1  0.500000  0.975811  0.309082  1
  B  B7  1  0.500000  0.024701  0.690769  1
  B  B8  1  0.500000  0.289214  0.314654  1
  B  B9  1  0.500000  0.710555  0.685394  1
  B  B10  1  0.500000  0.791088  0.188302  1
  B  B11  1  0.500000  0.208871  0.811876  1
  B  B12  1  0.500000  0.365072  0.468555  1
  B  B13  1  0.500000  0.634645  0.531157  1
  B  B14  1  0.500000  0.867625  0.032426  1
  B  B15  1  0.500000  0.132346  0.967662  1
  B  B16  1  0.500000  0.385410  0.046994  1
  B  B17  1  0.500000  0.614352  0.953058  1
  B  B18  1  0.500000  0.886074  0.453798  1
  B  B19  1  0.500000  0.113304  0.546553  1
  Ir  Ir20  1  0.000000  0.855999  0.593623  1
  Rh  Rh21  1  0.000000  0.145361  0.406003  1
  W  W22  1  0.000000  0.629868  0.086381  1
  W  W23  1  0.000000  0.370226  0.913177  1
