# generated using pymatgen
data_Dy5As9P3Ir2Rh17
_symmetry_space_group_name_H-M   'P 1'
_cell_length_a   13.07058500
_cell_length_b   13.07702844
_cell_length_c   3.97380300
_cell_angle_alpha   90.00000000
_cell_angle_beta   90.00000000
_cell_angle_gamma   119.98370449
_symmetry_Int_Tables_number   1
_chemical_formula_structural   Dy5As9P3Ir2Rh17
_chemical_formula_sum   'Dy5 As9 P3 Ir2 Rh17'
_cell_volume   588.31828793
_cell_formula_units_Z   1
loop_
 _symmetry_equiv_pos_site_id
 _symmetry_equiv_pos_as_xyz
  1  'x, y, z'
loop_
 _atom_site_type_symbol
 _atom_site_label
 _atom_site_symmetry_multiplicity
 _atom_site_fract_x
 _atom_site_fract_y
 _atom_site_fract_z
 _atom_site_occupancy
  Dy  Dy0  1  0.333241  0.665740  0.500000  1
  Dy  Dy1  1  0.667502  0.334260  0.500000  1
  Dy  Dy2  1  0.000302  0.817368  0.000000  1
  Dy  Dy3  1  0.182933  0.182632  0.000000  1
  Dy  Dy4  1  0.817153  0.000000  0.000000  1
  As  As5  1  0.999965  0.638091  0.500000  1
  As  As6  1  0.361875  0.361909  0.500000  1
  As  As7  1  0.638006  0.000000  0.500000  1
  As  As8  1  0.518691  0.679770  0.000000  1
  As  As9  1  0.319602  0.837116  0.000000  1
  As  As10  1  0.161515  0.481214  0.000000  1
  As  As11  1  0.482486  0.162884  0.000000  1
  As  As12  1  0.680301  0.518786  0.000000  1
  As  As13  1  0.838921  0.320230  0.000000  1
  P  P14  1  0.000001  0.176208  0.500000  1
  P  P15  1  0.823793  0.823792  0.500000  1
  P  P16  1  0.175527  0.000000  0.500000  1
  Ir  Ir17  1  0.268495  0.000000  0.000000  1
  Ir  Ir18  1  0.999550  0.000000  0.500000  1
  Rh  Rh19  1  0.515820  0.867918  0.000000  1
  Rh  Rh20  1  0.131232  0.647212  0.000000  1
  Rh  Rh21  1  0.352237  0.483816  0.000000  1
  Rh  Rh22  1  0.484022  0.352788  0.000000  1
  Rh  Rh23  1  0.868422  0.516184  0.000000  1
  Rh  Rh24  1  0.647902  0.132082  0.000000  1
  Rh  Rh25  1  0.998816  0.449214  0.500000  1
  Rh  Rh26  1  0.549602  0.550786  0.500000  1
  Rh  Rh27  1  0.449325  0.000000  0.500000  1
  Rh  Rh28  1  0.999966  0.269183  0.000000  1
  Rh  Rh29  1  0.730782  0.730817  0.000000  1
  Rh  Rh30  1  0.633822  0.806455  0.500000  1
  Rh  Rh31  1  0.194515  0.826985  0.500000  1
  Rh  Rh32  1  0.172596  0.366412  0.500000  1
  Rh  Rh33  1  0.367531  0.173015  0.500000  1
  Rh  Rh34  1  0.806184  0.633588  0.500000  1
  Rh  Rh35  1  0.827367  0.193545  0.500000  1
