# generated using pymatgen
data_Ac7Sm(InSi2)4
_symmetry_space_group_name_H-M   'P 1'
_cell_length_a   4.54017900
_cell_length_b   7.98151653
_cell_length_c   15.26276815
_cell_angle_alpha   90.50424662
_cell_angle_beta   90.00000000
_cell_angle_gamma   90.00000000
_symmetry_Int_Tables_number   1
_chemical_formula_structural   Ac7Sm(InSi2)4
_chemical_formula_sum   'Ac7 Sm1 In4 Si8'
_cell_volume   553.06335171
_cell_formula_units_Z   1
loop_
 _symmetry_equiv_pos_site_id
 _symmetry_equiv_pos_as_xyz
  1  'x, y, z'
loop_
 _atom_site_type_symbol
 _atom_site_label
 _atom_site_symmetry_multiplicity
 _atom_site_fract_x
 _atom_site_fract_y
 _atom_site_fract_z
 _atom_site_occupancy
  Ac  Ac0  1  0.500000  0.745288  0.032869  1
  Ac  Ac1  1  0.500000  0.245068  0.961078  1
  Ac  Ac2  1  0.500000  0.253171  0.468727  1
  Ac  Ac3  1  0.500000  0.755047  0.537200  1
  Ac  Ac4  1  0.500000  0.617753  0.283692  1
  Ac  Ac5  1  0.500000  0.385738  0.719826  1
  Ac  Ac6  1  0.500000  0.117901  0.214878  1
  Sm  Sm7  1  0.500000  0.884849  0.783831  1
  In  In8  1  0.000000  0.938462  0.374977  1
  In  In9  1  0.000000  0.051644  0.632480  1
  In  In10  1  0.000000  0.438329  0.124518  1
  In  In11  1  0.000000  0.576847  0.872274  1
  Si  Si12  1  0.000000  0.552250  0.426471  1
  Si  Si13  1  0.000000  0.461478  0.578965  1
  Si  Si14  1  0.000000  0.043349  0.070065  1
  Si  Si15  1  0.000000  0.935740  0.918037  1
  Si  Si16  1  0.000000  0.829209  0.181952  1
  Si  Si17  1  0.000000  0.152372  0.811128  1
  Si  Si18  1  0.000000  0.329158  0.318453  1
  Si  Si19  1  0.000000  0.686345  0.688578  1
