# generated using pymatgen
data_Ce2Tm2BeRh12
_symmetry_space_group_name_H-M   'P 1'
_cell_length_a   7.10771228
_cell_length_b   7.08851164
_cell_length_c   7.08851292
_cell_angle_alpha   109.38680352
_cell_angle_beta   109.45860268
_cell_angle_gamma   109.45860464
_symmetry_Int_Tables_number   1
_chemical_formula_structural   Ce2Tm2BeRh12
_chemical_formula_sum   'Ce2 Tm2 Be1 Rh12'
_cell_volume   275.29878022
_cell_formula_units_Z   1
loop_
 _symmetry_equiv_pos_site_id
 _symmetry_equiv_pos_as_xyz
  1  'x, y, z'
loop_
 _atom_site_type_symbol
 _atom_site_label
 _atom_site_symmetry_multiplicity
 _atom_site_fract_x
 _atom_site_fract_y
 _atom_site_fract_z
 _atom_site_occupancy
  Ce  Ce0  1  0.500000  0.000000  0.000000  1
  Ce  Ce1  1  0.500000  0.500000  0.500000  1
  Tm  Tm2  1  0.000000  0.000000  0.500000  1
  Tm  Tm3  1  0.000000  0.500000  0.000000  1
  Be  Be4  1  0.000000  0.000000  0.000000  1
  Rh  Rh5  1  0.750385  0.249798  0.500588  1
  Rh  Rh6  1  0.750385  0.500588  0.249798  1
  Rh  Rh7  1  0.500000  0.250000  0.750000  1
  Rh  Rh8  1  0.249615  0.499412  0.750202  1
  Rh  Rh9  1  0.249615  0.750202  0.499412  1
  Rh  Rh10  1  0.500000  0.750000  0.250000  1
  Rh  Rh11  1  0.731700  0.731076  0.000624  1
  Rh  Rh12  1  0.268300  0.999376  0.268924  1
  Rh  Rh13  1  0.000000  0.269206  0.269206  1
  Rh  Rh14  1  0.268300  0.268924  0.999376  1
  Rh  Rh15  1  0.731700  0.000624  0.731076  1
  Rh  Rh16  1  0.000000  0.730794  0.730794  1
