# generated using pymatgen
data_Pr4Y2Ir5Rh13
_symmetry_space_group_name_H-M   'P 1'
_cell_length_a   5.34785110
_cell_length_b   5.34794641
_cell_length_c   17.63100055
_cell_angle_alpha   90.05227253
_cell_angle_beta   89.94632696
_cell_angle_gamma   119.94865612
_symmetry_Int_Tables_number   1
_chemical_formula_structural   Pr4Y2Ir5Rh13
_chemical_formula_sum   'Pr4 Y2 Ir5 Rh13'
_cell_volume   436.91620929
_cell_formula_units_Z   1
loop_
 _symmetry_equiv_pos_site_id
 _symmetry_equiv_pos_as_xyz
  1  'x, y, z'
loop_
 _atom_site_type_symbol
 _atom_site_label
 _atom_site_symmetry_multiplicity
 _atom_site_fract_x
 _atom_site_fract_y
 _atom_site_fract_z
 _atom_site_occupancy
  Pr  Pr0  1  0.333344  0.666637  0.957089  1
  Pr  Pr1  1  0.666878  0.333115  0.043356  1
  Pr  Pr2  1  0.333481  0.666511  0.746483  1
  Pr  Pr3  1  0.666694  0.333319  0.254244  1
  Y  Y4  1  0.665926  0.334069  0.460057  1
  Y  Y5  1  0.332278  0.667729  0.539492  1
  Ir  Ir6  1  0.167380  0.832642  0.375792  1
  Ir  Ir7  1  0.167231  0.335077  0.375864  1
  Ir  Ir8  1  0.664928  0.832783  0.375854  1
  Ir  Ir9  1  0.834189  0.165783  0.624108  1
  Ir  Ir10  1  0.997192  0.002816  0.500382  1
  Rh  Rh11  1  0.834363  0.663914  0.623977  1
  Rh  Rh12  1  0.336091  0.165629  0.623982  1
  Rh  Rh13  1  0.833134  0.166833  0.871953  1
  Rh  Rh14  1  0.834101  0.667375  0.870578  1
  Rh  Rh15  1  0.332629  0.165895  0.870579  1
  Rh  Rh16  1  0.166792  0.833239  0.128451  1
  Rh  Rh17  1  0.166156  0.332956  0.128778  1
  Rh  Rh18  1  0.667041  0.833854  0.128781  1
  Rh  Rh19  1  0.333403  0.666525  0.251247  1
  Rh  Rh20  1  0.668438  0.331672  0.748804  1
  Rh  Rh21  1  0.000397  0.999662  0.252654  1
  Rh  Rh22  1  0.997348  0.002559  0.747493  1
  Rh  Rh23  1  0.000586  0.999407  0.000005  1
