# generated using pymatgen
data_Zr10Zn2SnBi4Pb
_symmetry_space_group_name_H-M   'P 1'
_cell_length_a   8.82909200
_cell_length_b   8.82390541
_cell_length_c   5.94059600
_cell_angle_alpha   90.00000000
_cell_angle_beta   90.00000000
_cell_angle_gamma   119.88341102
_symmetry_Int_Tables_number   1
_chemical_formula_structural   Zr10Zn2SnBi4Pb
_chemical_formula_sum   'Zr10 Zn2 Sn1 Bi4 Pb1'
_cell_volume   401.27911729
_cell_formula_units_Z   1
loop_
 _symmetry_equiv_pos_site_id
 _symmetry_equiv_pos_as_xyz
  1  'x, y, z'
loop_
 _atom_site_type_symbol
 _atom_site_label
 _atom_site_symmetry_multiplicity
 _atom_site_fract_x
 _atom_site_fract_y
 _atom_site_fract_z
 _atom_site_occupancy
  Zr  Zr0  1  0.669660  0.333332  0.002292  1
  Zr  Zr1  1  0.330476  0.664744  0.002282  1
  Zr  Zr2  1  0.330476  0.664744  0.497718  1
  Zr  Zr3  1  0.669660  0.333332  0.497708  1
  Zr  Zr4  1  0.736541  0.735994  0.750000  1
  Zr  Zr5  1  0.261247  0.998844  0.750000  1
  Zr  Zr6  1  0.999557  0.264053  0.750000  1
  Zr  Zr7  1  0.266153  0.270148  0.250000  1
  Zr  Zr8  1  0.734872  0.006291  0.250000  1
  Zr  Zr9  1  0.001795  0.729469  0.250000  1
  Zn  Zn10  1  0.000044  0.000050  0.007893  1
  Zn  Zn11  1  0.000044  0.000050  0.492107  1
  Sn  Sn12  1  0.000690  0.383524  0.250000  1
  Bi  Bi13  1  0.386811  0.385998  0.750000  1
  Bi  Bi14  1  0.612072  0.999106  0.750000  1
  Bi  Bi15  1  0.999760  0.611549  0.750000  1
  Bi  Bi16  1  0.617336  0.617736  0.250000  1
  Pb  Pb17  1  0.382807  0.001038  0.250000  1
