# generated using pymatgen
data_Cs2Pr10Ge2Br17
_symmetry_space_group_name_H-M   'P 1'
_cell_length_a   9.57201651
_cell_length_b   11.21952116
_cell_length_c   11.21966220
_cell_angle_alpha   106.77353421
_cell_angle_beta   94.63660711
_cell_angle_gamma   94.63501937
_symmetry_Int_Tables_number   1
_chemical_formula_structural   Cs2Pr10Ge2Br17
_chemical_formula_sum   'Cs2 Pr10 Ge2 Br17'
_cell_volume   1143.01042270
_cell_formula_units_Z   1
loop_
 _symmetry_equiv_pos_site_id
 _symmetry_equiv_pos_as_xyz
  1  'x, y, z'
loop_
 _atom_site_type_symbol
 _atom_site_label
 _atom_site_symmetry_multiplicity
 _atom_site_fract_x
 _atom_site_fract_y
 _atom_site_fract_z
 _atom_site_occupancy
  Cs  Cs0  1  0.999375  0.816522  0.182449  1
  Cs  Cs1  1  0.999360  0.182435  0.816516  1
  Pr  Pr2  1  0.433039  0.157149  0.157159  1
  Pr  Pr3  1  0.571374  0.514017  0.196984  1
  Pr  Pr4  1  0.841371  0.291914  0.291918  1
  Pr  Pr5  1  0.297924  0.433408  0.433426  1
  Pr  Pr6  1  0.428623  0.802899  0.486112  1
  Pr  Pr7  1  0.571373  0.196969  0.514023  1
  Pr  Pr8  1  0.702368  0.566581  0.566571  1
  Pr  Pr9  1  0.158811  0.708138  0.708132  1
  Pr  Pr10  1  0.428641  0.486096  0.802916  1
  Pr  Pr11  1  0.567056  0.842967  0.842974  1
  Ge  Ge12  1  0.571194  0.358587  0.358604  1
  Ge  Ge13  1  0.429054  0.641356  0.641370  1
  Br  Br14  1  0.583178  0.692288  0.025351  1
  Br  Br15  1  0.713160  0.071578  0.071580  1
  Br  Br16  1  0.855415  0.450799  0.117688  1
  Br  Br17  1  0.135450  0.207312  0.207302  1
  Br  Br18  1  0.282667  0.601310  0.256412  1
  Br  Br19  1  0.417023  0.974704  0.308199  1
  Br  Br20  1  0.717298  0.743451  0.398625  1
  Br  Br21  1  0.855414  0.117679  0.450790  1
  Br  Br22  1  0.000141  0.499994  0.499992  1
  Br  Br23  1  0.144337  0.882012  0.549366  1
  Br  Br24  1  0.282667  0.256408  0.601319  1
  Br  Br25  1  0.583110  0.025361  0.692293  1
  Br  Br26  1  0.717306  0.398621  0.743443  1
  Br  Br27  1  0.864880  0.793113  0.792959  1
  Br  Br28  1  0.144331  0.549356  0.882017  1
  Br  Br29  1  0.287019  0.928800  0.928799  1
  Br  Br30  1  0.417044  0.308176  0.974712  1
