# generated using pymatgen
data_Nd6DyNi16
_symmetry_space_group_name_H-M   'P 1'
_cell_length_a   8.79638676
_cell_length_b   8.79638839
_cell_length_c   8.79638684
_cell_angle_alpha   131.39135548
_cell_angle_beta   131.39135859
_cell_angle_gamma   71.19202861
_symmetry_Int_Tables_number   1
_chemical_formula_structural   Nd6DyNi16
_chemical_formula_sum   'Nd6 Dy1 Ni16'
_cell_volume   375.01970314
_cell_formula_units_Z   1
loop_
 _symmetry_equiv_pos_site_id
 _symmetry_equiv_pos_as_xyz
  1  'x, y, z'
loop_
 _atom_site_type_symbol
 _atom_site_label
 _atom_site_symmetry_multiplicity
 _atom_site_fract_x
 _atom_site_fract_y
 _atom_site_fract_z
 _atom_site_occupancy
  Nd  Nd0  1  0.096347  0.095591  0.399897  1
  Nd  Nd1  1  0.695692  0.696448  0.600103  1
  Nd  Nd2  1  0.904409  0.304308  0.000756  1
  Nd  Nd3  1  0.750000  0.250000  0.500000  1
  Nd  Nd4  1  0.500000  0.500000  0.000000  1
  Nd  Nd5  1  0.303552  0.903653  0.999244  1
  Dy  Dy6  1  0.250000  0.750000  0.500000  1
  Ni  Ni7  1  0.429018  0.190110  0.994134  1
  Ni  Ni8  1  0.681710  0.933133  0.482099  1
  Ni  Ni9  1  0.936237  0.682594  0.482437  1
  Ni  Ni10  1  0.195976  0.434885  0.005866  1
  Ni  Ni11  1  0.317406  0.799843  0.253643  1
  Ni  Ni12  1  0.944124  0.662944  0.004917  1
  Ni  Ni13  1  0.809890  0.804024  0.238908  1
  Ni  Ni14  1  0.066867  0.548965  0.748576  1
  Ni  Ni15  1  0.060792  0.055876  0.718820  1
  Ni  Ni16  1  0.658028  0.939208  0.995083  1
  Ni  Ni17  1  0.565115  0.570982  0.761092  1
  Ni  Ni18  1  0.800389  0.318290  0.251424  1
  Ni  Ni19  1  0.546200  0.063763  0.746357  1
  Ni  Ni20  1  0.200157  0.453800  0.517563  1
  Ni  Ni21  1  0.337056  0.341972  0.281180  1
  Ni  Ni22  1  0.451035  0.199611  0.517901  1
