# generated using pymatgen
data_Lu8Ta3Nb8Si16Mo
_symmetry_space_group_name_H-M   'P 1'
_cell_length_a   6.79260058
_cell_length_b   6.99785827
_cell_length_c   13.26429213
_cell_angle_alpha   90.03938371
_cell_angle_beta   89.94587632
_cell_angle_gamma   89.93213563
_symmetry_Int_Tables_number   1
_chemical_formula_structural   Lu8Ta3Nb8Si16Mo
_chemical_formula_sum   'Lu8 Ta3 Nb8 Si16 Mo1'
_cell_volume   630.49942755
_cell_formula_units_Z   1
loop_
 _symmetry_equiv_pos_site_id
 _symmetry_equiv_pos_as_xyz
  1  'x, y, z'
loop_
 _atom_site_type_symbol
 _atom_site_label
 _atom_site_symmetry_multiplicity
 _atom_site_fract_x
 _atom_site_fract_y
 _atom_site_fract_z
 _atom_site_occupancy
  Lu  Lu0  1  0.502476  0.328044  0.095423  1
  Lu  Lu1  1  0.000797  0.172963  0.404704  1
  Lu  Lu2  1  0.497621  0.673054  0.594971  1
  Lu  Lu3  1  0.998634  0.828023  0.904617  1
  Lu  Lu4  1  0.497950  0.672090  0.904181  1
  Lu  Lu5  1  0.999096  0.827692  0.595214  1
  Lu  Lu6  1  0.501905  0.327808  0.405835  1
  Lu  Lu7  1  0.002110  0.172902  0.095478  1
  Ta  Ta8  1  0.160694  0.492359  0.749332  1
  Ta  Ta9  1  0.339051  0.993630  0.250455  1
  Ta  Ta10  1  0.838744  0.506988  0.250287  1
  Nb  Nb11  1  0.837809  0.326161  0.624552  1
  Nb  Nb12  1  0.336830  0.174091  0.873654  1
  Nb  Nb13  1  0.164014  0.674126  0.125414  1
  Nb  Nb14  1  0.662105  0.827166  0.375311  1
  Nb  Nb15  1  0.166008  0.674138  0.376218  1
  Nb  Nb16  1  0.663994  0.826045  0.125424  1
  Nb  Nb17  1  0.836160  0.325785  0.873452  1
  Nb  Nb18  1  0.660793  0.007398  0.748940  1
  Si  Si19  1  0.661750  0.036355  0.541957  1
  Si  Si20  1  0.164828  0.464802  0.958562  1
  Si  Si21  1  0.334981  0.965352  0.041034  1
  Si  Si22  1  0.835223  0.535518  0.458784  1
  Si  Si23  1  0.333332  0.966376  0.461031  1
  Si  Si24  1  0.834839  0.534998  0.040749  1
  Si  Si25  1  0.664830  0.035318  0.959315  1
  Si  Si26  1  0.167072  0.460235  0.542439  1
  Si  Si27  1  0.537170  0.379105  0.747596  1
  Si  Si28  1  0.041718  0.120013  0.748837  1
  Si  Si29  1  0.461729  0.618972  0.250227  1
  Si  Si30  1  0.961031  0.879783  0.250514  1
  Si  Si31  1  0.793584  0.632729  0.749749  1
  Si  Si32  1  0.295609  0.867675  0.749630  1
  Si  Si33  1  0.205601  0.366882  0.250431  1
  Si  Si34  1  0.704660  0.133846  0.249943  1
  Mo  Mo35  1  0.335250  0.171578  0.625737  1
