# generated using pymatgen
data_Yb4TmLu5Ru4
_symmetry_space_group_name_H-M   'P 1'
_cell_length_a   6.33197911
_cell_length_b   7.17979200
_cell_length_c   8.39522146
_cell_angle_alpha   97.58812007
_cell_angle_beta   112.14764562
_cell_angle_gamma   89.97558620
_symmetry_Int_Tables_number   1
_chemical_formula_structural   Yb4TmLu5Ru4
_chemical_formula_sum   'Yb4 Tm1 Lu5 Ru4'
_cell_volume   349.90258698
_cell_formula_units_Z   1
loop_
 _symmetry_equiv_pos_site_id
 _symmetry_equiv_pos_as_xyz
  1  'x, y, z'
loop_
 _atom_site_type_symbol
 _atom_site_label
 _atom_site_symmetry_multiplicity
 _atom_site_fract_x
 _atom_site_fract_y
 _atom_site_fract_z
 _atom_site_occupancy
  Yb  Yb0  1  0.522984  0.079035  0.815753  1
  Yb  Yb1  1  0.477138  0.920742  0.184232  1
  Yb  Yb2  1  0.707107  0.420933  0.184226  1
  Yb  Yb3  1  0.292709  0.579270  0.815782  1
  Tm  Tm4  1  0.304159  0.315440  0.433190  1
  Lu  Lu5  1  0.696341  0.684514  0.567126  1
  Lu  Lu6  1  0.870924  0.184128  0.567355  1
  Lu  Lu7  1  0.128801  0.815809  0.432818  1
  Lu  Lu8  1  0.069754  0.249736  0.999604  1
  Lu  Lu9  1  0.930011  0.750155  0.999985  1
  Ru  Ru10  1  0.314396  0.576097  0.231337  1
  Ru  Ru11  1  0.686272  0.424471  0.768930  1
  Ru  Ru12  1  0.082838  0.924180  0.768548  1
  Ru  Ru13  1  0.916567  0.075490  0.231113  1
