# generated using pymatgen
data_DyTm(B3W)2
_symmetry_space_group_name_H-M   'P 1'
_cell_length_a   5.43613575
_cell_length_b   3.15772400
_cell_length_c   6.80915009
_cell_angle_alpha   90.00000000
_cell_angle_beta   102.02402355
_cell_angle_gamma   90.00000000
_symmetry_Int_Tables_number   1
_chemical_formula_structural   DyTm(B3W)2
_chemical_formula_sum   'Dy1 Tm1 B6 W2'
_cell_volume   114.32021088
_cell_formula_units_Z   1
loop_
 _symmetry_equiv_pos_site_id
 _symmetry_equiv_pos_as_xyz
  1  'x, y, z'
loop_
 _atom_site_type_symbol
 _atom_site_label
 _atom_site_symmetry_multiplicity
 _atom_site_fract_x
 _atom_site_fract_y
 _atom_site_fract_z
 _atom_site_occupancy
  Dy  Dy0  1  0.173711  0.250000  0.206404  1
  Tm  Tm1  1  0.822222  0.749999  0.789485  1
  B  B2  1  0.587798  0.250000  0.023822  1
  B  B3  1  0.082267  0.749999  0.493620  1
  B  B4  1  0.412264  0.749999  0.495513  1
  B  B5  1  0.587232  0.250000  0.506440  1
  B  B6  1  0.916150  0.250000  0.508853  1
  B  B7  1  0.419382  0.749999  0.974927  1
  W  W8  1  0.687877  0.749999  0.280075  1
  W  W9  1  0.311096  0.250000  0.720860  1
