# generated using pymatgen
data_Nd2B4Ru3Rh
_symmetry_space_group_name_H-M   'P 1'
_cell_length_a   6.83940004
_cell_length_b   6.00973526
_cell_length_c   5.59618590
_cell_angle_alpha   72.11518475
_cell_angle_beta   56.74427733
_cell_angle_gamma   51.39190364
_symmetry_Int_Tables_number   1
_chemical_formula_structural   Nd2B4Ru3Rh
_chemical_formula_sum   'Nd2 B4 Ru3 Rh1'
_cell_volume   150.09170808
_cell_formula_units_Z   1
loop_
 _symmetry_equiv_pos_site_id
 _symmetry_equiv_pos_as_xyz
  1  'x, y, z'
loop_
 _atom_site_type_symbol
 _atom_site_label
 _atom_site_symmetry_multiplicity
 _atom_site_fract_x
 _atom_site_fract_y
 _atom_site_fract_z
 _atom_site_occupancy
  Nd  Nd0  1  0.001354  0.001354  0.998646  1
  Nd  Nd1  1  0.250152  0.250152  0.249848  1
  B  B2  1  0.315514  0.679045  0.315306  1
  B  B3  1  0.679045  0.315514  0.690135  1
  B  B4  1  0.571863  0.930730  0.572098  1
  B  B5  1  0.930730  0.571863  0.925309  1
  Ru  Ru6  1  0.365202  0.365202  0.634798  1
  Ru  Ru7  1  0.614123  0.614123  0.885877  1
  Ru  Ru8  1  0.886329  0.886329  0.613671  1
  Rh  Rh9  1  0.635689  0.635689  0.364311  1
