# generated using pymatgen
data_Tb6DyTmIn8
_symmetry_space_group_name_H-M   'P 1'
_cell_length_a   6.51630520
_cell_length_b   6.51630725
_cell_length_c   10.36122800
_cell_angle_alpha   90.00000000
_cell_angle_beta   90.00000000
_cell_angle_gamma   104.13905510
_symmetry_Int_Tables_number   1
_chemical_formula_structural   Tb6DyTmIn8
_chemical_formula_sum   'Tb6 Dy1 Tm1 In8'
_cell_volume   426.63272376
_cell_formula_units_Z   1
loop_
 _symmetry_equiv_pos_site_id
 _symmetry_equiv_pos_as_xyz
  1  'x, y, z'
loop_
 _atom_site_type_symbol
 _atom_site_label
 _atom_site_symmetry_multiplicity
 _atom_site_fract_x
 _atom_site_fract_y
 _atom_site_fract_z
 _atom_site_occupancy
  Tb  Tb0  1  0.523771  0.523771  0.250000  1
  Tb  Tb1  1  0.476019  0.476019  0.750000  1
  Tb  Tb2  1  0.247908  0.752247  0.500177  1
  Tb  Tb3  1  0.247908  0.752247  0.999823  1
  Tb  Tb4  1  0.752247  0.247908  0.500177  1
  Tb  Tb5  1  0.752247  0.247908  0.999823  1
  Dy  Dy6  1  0.981917  0.981917  0.250000  1
  Tm  Tm7  1  0.017783  0.017783  0.750000  1
  In  In8  1  0.250652  0.250652  0.013236  1
  In  In9  1  0.749373  0.749373  0.986236  1
  In  In10  1  0.250652  0.250652  0.486764  1
  In  In11  1  0.749373  0.749373  0.513764  1
  In  In12  1  0.486716  0.014579  0.250000  1
  In  In13  1  0.985466  0.513388  0.750000  1
  In  In14  1  0.513388  0.985466  0.750000  1
  In  In15  1  0.014579  0.486716  0.250000  1
