# generated using pymatgen
data_EuSc2(CoH6)2
_symmetry_space_group_name_H-M   'P 1'
_cell_length_a   4.35235700
_cell_length_b   4.35235835
_cell_length_c   7.57050400
_cell_angle_alpha   90.00000000
_cell_angle_beta   90.00000000
_cell_angle_gamma   119.99999733
_symmetry_Int_Tables_number   1
_chemical_formula_structural   EuSc2(CoH6)2
_chemical_formula_sum   'Eu1 Sc2 Co2 H12'
_cell_volume   124.19513771
_cell_formula_units_Z   1
loop_
 _symmetry_equiv_pos_site_id
 _symmetry_equiv_pos_as_xyz
  1  'x, y, z'
loop_
 _atom_site_type_symbol
 _atom_site_label
 _atom_site_symmetry_multiplicity
 _atom_site_fract_x
 _atom_site_fract_y
 _atom_site_fract_z
 _atom_site_occupancy
  Eu  Eu0  1  0.000000  0.000000  0.000000  1
  Sc  Sc1  1  0.666667  0.333333  0.366352  1
  Sc  Sc2  1  0.333333  0.666667  0.633648  1
  Co  Co3  1  0.666667  0.333333  0.733034  1
  Co  Co4  1  0.333333  0.666667  0.266966  1
  H  H5  1  0.164308  0.835692  0.386973  1
  H  H6  1  0.671385  0.835692  0.386973  1
  H  H7  1  0.164308  0.328615  0.386973  1
  H  H8  1  0.835692  0.164308  0.613027  1
  H  H9  1  0.328615  0.164308  0.613027  1
  H  H10  1  0.835692  0.671385  0.613027  1
  H  H11  1  0.498252  0.996502  0.854241  1
  H  H12  1  0.498252  0.501748  0.854241  1
  H  H13  1  0.003498  0.501748  0.854241  1
  H  H14  1  0.501748  0.003498  0.145759  1
  H  H15  1  0.501748  0.498252  0.145759  1
  H  H16  1  0.996502  0.498252  0.145759  1
