# generated using pymatgen
data_LaHoU2(GeRu)4
_symmetry_space_group_name_H-M   'P 1'
_cell_length_a   4.55015600
_cell_length_b   7.31900179
_cell_length_c   7.20198622
_cell_angle_alpha   94.97962336
_cell_angle_beta   90.00000000
_cell_angle_gamma   90.00000000
_symmetry_Int_Tables_number   1
_chemical_formula_structural   LaHoU2(GeRu)4
_chemical_formula_sum   'La1 Ho1 U2 Ge4 Ru4'
_cell_volume   238.93960241
_cell_formula_units_Z   1
loop_
 _symmetry_equiv_pos_site_id
 _symmetry_equiv_pos_as_xyz
  1  'x, y, z'
loop_
 _atom_site_type_symbol
 _atom_site_label
 _atom_site_symmetry_multiplicity
 _atom_site_fract_x
 _atom_site_fract_y
 _atom_site_fract_z
 _atom_site_occupancy
  La  La0  1  0.250000  0.981013  0.278822  1
  Ho  Ho1  1  0.750000  0.017377  0.733516  1
  U  U2  1  0.250000  0.493535  0.197506  1
  U  U3  1  0.750000  0.506183  0.798973  1
  Ge  Ge4  1  0.250000  0.800816  0.879494  1
  Ge  Ge5  1  0.750000  0.205538  0.106162  1
  Ge  Ge6  1  0.250000  0.287779  0.595958  1
  Ge  Ge7  1  0.750000  0.712514  0.409775  1
  Ru  Ru8  1  0.750000  0.733360  0.045528  1
  Ru  Ru9  1  0.250000  0.265681  0.949639  1
  Ru  Ru10  1  0.750000  0.362082  0.465987  1
  Ru  Ru11  1  0.250000  0.634121  0.538639  1
