# generated using pymatgen
data_Cu3IrSe8
_symmetry_space_group_name_H-M   'P 1'
_cell_length_a   6.14146783
_cell_length_b   6.14146783
_cell_length_c   6.14146783
_cell_angle_alpha   89.01074321
_cell_angle_beta   89.01074321
_cell_angle_gamma   89.01074321
_symmetry_Int_Tables_number   1
_chemical_formula_structural   Cu3IrSe8
_chemical_formula_sum   'Cu3 Ir1 Se8'
_cell_volume   231.53919253
_cell_formula_units_Z   1
loop_
 _symmetry_equiv_pos_site_id
 _symmetry_equiv_pos_as_xyz
  1  'x, y, z'
loop_
 _atom_site_type_symbol
 _atom_site_label
 _atom_site_symmetry_multiplicity
 _atom_site_fract_x
 _atom_site_fract_y
 _atom_site_fract_z
 _atom_site_occupancy
  Cu  Cu0  1  0.500000  0.000000  0.500000  1
  Cu  Cu1  1  0.500000  0.500000  0.000000  1
  Cu  Cu2  1  0.000000  0.500000  0.500000  1
  Ir  Ir3  1  0.000000  0.000000  0.000000  1
  Se  Se4  1  0.389924  0.389924  0.389924  1
  Se  Se5  1  0.111815  0.620750  0.887548  1
  Se  Se6  1  0.887548  0.111815  0.620750  1
  Se  Se7  1  0.620750  0.887548  0.111815  1
  Se  Se8  1  0.610076  0.610076  0.610076  1
  Se  Se9  1  0.888185  0.379250  0.112452  1
  Se  Se10  1  0.112452  0.888185  0.379250  1
  Se  Se11  1  0.379250  0.112452  0.888185  1
