# generated using pymatgen
data_Er2Sc3(In2Pt)2
_symmetry_space_group_name_H-M   'P 1'
_cell_length_a   3.54343100
_cell_length_b   7.86468900
_cell_length_c   17.71330500
_cell_angle_alpha   90.00000000
_cell_angle_beta   90.00000000
_cell_angle_gamma   90.00000000
_symmetry_Int_Tables_number   1
_chemical_formula_structural   Er2Sc3(In2Pt)2
_chemical_formula_sum   'Er4 Sc6 In8 Pt4'
_cell_volume   493.63407921
_cell_formula_units_Z   2
loop_
 _symmetry_equiv_pos_site_id
 _symmetry_equiv_pos_as_xyz
  1  'x, y, z'
loop_
 _atom_site_type_symbol
 _atom_site_label
 _atom_site_symmetry_multiplicity
 _atom_site_fract_x
 _atom_site_fract_y
 _atom_site_fract_z
 _atom_site_occupancy
  Er  Er0  1  0.000000  0.243150  0.219870  1
  Er  Er1  1  0.000000  0.756850  0.780130  1
  Er  Er2  1  0.000000  0.256850  0.719870  1
  Er  Er3  1  0.000000  0.743150  0.280130  1
  Sc  Sc4  1  0.000000  0.116748  0.415866  1
  Sc  Sc5  1  0.000000  0.883252  0.584134  1
  Sc  Sc6  1  0.000000  0.383252  0.915866  1
  Sc  Sc7  1  0.000000  0.616748  0.084134  1
  Sc  Sc8  1  0.000000  0.000000  0.000000  1
  Sc  Sc9  1  0.000000  0.500000  0.500000  1
  In  In10  1  0.500000  0.419492  0.355389  1
  In  In11  1  0.500000  0.580508  0.644611  1
  In  In12  1  0.500000  0.080508  0.855389  1
  In  In13  1  0.500000  0.919492  0.144611  1
  In  In14  1  0.500000  0.293979  0.061475  1
  In  In15  1  0.500000  0.706021  0.938525  1
  In  In16  1  0.500000  0.206021  0.561475  1
  In  In17  1  0.500000  0.793979  0.438525  1
  Pt  Pt18  1  0.500000  0.029699  0.308087  1
  Pt  Pt19  1  0.500000  0.970301  0.691913  1
  Pt  Pt20  1  0.500000  0.470301  0.808087  1
  Pt  Pt21  1  0.500000  0.529699  0.191913  1
