# generated using pymatgen
data_Y2Lu3Zr3(Ni4P3)4
_symmetry_space_group_name_H-M   'P 1'
_cell_length_a   12.31070400
_cell_length_b   12.31070415
_cell_length_c   3.78093100
_cell_angle_alpha   90.00000000
_cell_angle_beta   90.00000000
_cell_angle_gamma   120.00000497
_symmetry_Int_Tables_number   1
_chemical_formula_structural   Y2Lu3Zr3(Ni4P3)4
_chemical_formula_sum   'Y2 Lu3 Zr3 Ni16 P12'
_cell_volume   496.24385909
_cell_formula_units_Z   1
loop_
 _symmetry_equiv_pos_site_id
 _symmetry_equiv_pos_as_xyz
  1  'x, y, z'
loop_
 _atom_site_type_symbol
 _atom_site_label
 _atom_site_symmetry_multiplicity
 _atom_site_fract_x
 _atom_site_fract_y
 _atom_site_fract_z
 _atom_site_occupancy
  Y  Y0  1  0.333333  0.666667  0.000000  1
  Y  Y1  1  0.666667  0.333333  0.000000  1
  Lu  Lu2  1  0.183320  0.183320  0.500000  1
  Lu  Lu3  1  0.816680  0.000000  0.500000  1
  Lu  Lu4  1  0.000000  0.816680  0.500000  1
  Zr  Zr5  1  0.560761  0.560761  0.000000  1
  Zr  Zr6  1  0.439239  0.000000  0.000000  1
  Zr  Zr7  1  0.000000  0.439239  0.000000  1
  Ni  Ni8  1  0.728210  0.728210  0.500000  1
  Ni  Ni9  1  0.271790  0.000000  0.500000  1
  Ni  Ni10  1  0.000000  0.271790  0.500000  1
  Ni  Ni11  1  0.183854  0.373502  0.000000  1
  Ni  Ni12  1  0.626498  0.810352  0.000000  1
  Ni  Ni13  1  0.189648  0.816146  0.000000  1
  Ni  Ni14  1  0.810352  0.626498  0.000000  1
  Ni  Ni15  1  0.816146  0.189648  0.000000  1
  Ni  Ni16  1  0.373502  0.183854  0.000000  1
  Ni  Ni17  1  0.359172  0.483501  0.500000  1
  Ni  Ni18  1  0.516499  0.875673  0.500000  1
  Ni  Ni19  1  0.124327  0.640828  0.500000  1
  Ni  Ni20  1  0.875673  0.516499  0.500000  1
  Ni  Ni21  1  0.640828  0.124327  0.500000  1
  Ni  Ni22  1  0.483501  0.359172  0.500000  1
  Ni  Ni23  1  0.000000  0.000000  0.000000  1
  P  P24  1  0.823979  0.823979  0.000000  1
  P  P25  1  0.176021  0.000000  0.000000  1
  P  P26  1  0.000000  0.176021  0.000000  1
  P  P27  1  0.170317  0.475618  0.500000  1
  P  P28  1  0.524382  0.694700  0.500000  1
  P  P29  1  0.305300  0.829683  0.500000  1
  P  P30  1  0.694700  0.524382  0.500000  1
  P  P31  1  0.829683  0.305300  0.500000  1
  P  P32  1  0.475618  0.170317  0.500000  1
  P  P33  1  0.354077  0.354077  0.000000  1
  P  P34  1  0.645923  0.000000  0.000000  1
  P  P35  1  0.000000  0.645923  0.000000  1
