# generated using pymatgen
data_Ho4Co17(Si4Ni)3
_symmetry_space_group_name_H-M   'P 1'
_cell_length_a   3.73019700
_cell_length_b   6.77856351
_cell_length_c   18.37334000
_cell_angle_alpha   89.87743872
_cell_angle_beta   90.00000000
_cell_angle_gamma   90.00000000
_symmetry_Int_Tables_number   1
_chemical_formula_structural   Ho4Co17(Si4Ni)3
_chemical_formula_sum   'Ho4 Co17 Si12 Ni3'
_cell_volume   464.57577060
_cell_formula_units_Z   1
loop_
 _symmetry_equiv_pos_site_id
 _symmetry_equiv_pos_as_xyz
  1  'x, y, z'
loop_
 _atom_site_type_symbol
 _atom_site_label
 _atom_site_symmetry_multiplicity
 _atom_site_fract_x
 _atom_site_fract_y
 _atom_site_fract_z
 _atom_site_occupancy
  Ho  Ho0  1  0.250000  0.872931  0.356962  1
  Ho  Ho1  1  0.750000  0.127064  0.643439  1
  Ho  Ho2  1  0.750000  0.373232  0.142070  1
  Ho  Ho3  1  0.250000  0.625196  0.857404  1
  Co  Co4  1  0.250000  0.057029  0.203489  1
  Co  Co5  1  0.750000  0.942745  0.795915  1
  Co  Co6  1  0.750000  0.557390  0.295016  1
  Co  Co7  1  0.250000  0.442213  0.705181  1
  Co  Co8  1  0.250000  0.625289  0.488504  1
  Co  Co9  1  0.750000  0.374175  0.511540  1
  Co  Co10  1  0.750000  0.121891  0.009683  1
  Co  Co11  1  0.250000  0.873571  0.990015  1
  Co  Co12  1  0.250000  0.678797  0.201988  1
  Co  Co13  1  0.750000  0.321800  0.799094  1
  Co  Co14  1  0.750000  0.178416  0.297115  1
  Co  Co15  1  0.250000  0.821412  0.702836  1
  Co  Co16  1  0.250000  0.358309  0.386482  1
  Co  Co17  1  0.750000  0.641925  0.613247  1
  Co  Co18  1  0.750000  0.864155  0.111117  1
  Co  Co19  1  0.250000  0.136796  0.889183  1
  Co  Co20  1  0.250000  0.374914  0.005129  1
  Si  Si21  1  0.250000  0.093516  0.080491  1
  Si  Si22  1  0.750000  0.910869  0.917899  1
  Si  Si23  1  0.750000  0.584276  0.417804  1
  Si  Si24  1  0.250000  0.414996  0.582230  1
  Si  Si25  1  0.250000  0.649205  0.077134  1
  Si  Si26  1  0.750000  0.349535  0.924524  1
  Si  Si27  1  0.750000  0.155772  0.422234  1
  Si  Si28  1  0.250000  0.844656  0.577556  1
  Si  Si29  1  0.250000  0.367333  0.262744  1
  Si  Si30  1  0.750000  0.631908  0.737066  1
  Si  Si31  1  0.750000  0.868095  0.236014  1
  Si  Si32  1  0.250000  0.132275  0.764258  1
  Ni  Ni33  1  0.750000  0.628366  0.994991  1
  Ni  Ni34  1  0.750000  0.874375  0.494193  1
  Ni  Ni35  1  0.250000  0.125569  0.505453  1
