# generated using pymatgen
data_Ca6InAg15N
_symmetry_space_group_name_H-M   'P 1'
_cell_length_a   8.67610477
_cell_length_b   8.58497503
_cell_length_c   8.58497554
_cell_angle_alpha   109.25519664
_cell_angle_beta   109.68639012
_cell_angle_gamma   109.68639508
_symmetry_Int_Tables_number   1
_chemical_formula_structural   Ca6InAg15N
_chemical_formula_sum   'Ca6 In1 Ag15 N1'
_cell_volume   490.93140207
_cell_formula_units_Z   1
loop_
 _symmetry_equiv_pos_site_id
 _symmetry_equiv_pos_as_xyz
  1  'x, y, z'
loop_
 _atom_site_type_symbol
 _atom_site_label
 _atom_site_symmetry_multiplicity
 _atom_site_fract_x
 _atom_site_fract_y
 _atom_site_fract_z
 _atom_site_occupancy
  Ca  Ca0  1  0.001074  0.253333  0.253333  1
  Ca  Ca1  1  0.252260  0.000000  0.253333  1
  Ca  Ca2  1  0.747740  0.000000  0.746667  1
  Ca  Ca3  1  0.747740  0.746667  0.000000  1
  Ca  Ca4  1  0.252260  0.253333  0.000000  1
  Ca  Ca5  1  0.998926  0.746667  0.746667  1
  In  In6  1  0.500000  0.000000  0.000000  1
  Ag  Ag7  1  0.500000  0.500000  0.500000  1
  Ag  Ag8  1  0.000000  0.500000  0.000000  1
  Ag  Ag9  1  0.000000  0.000000  0.500000  1
  Ag  Ag10  1  0.695772  0.350523  0.350523  1
  Ag  Ag11  1  0.345249  0.000000  0.649477  1
  Ag  Ag12  1  0.346770  0.693539  0.346770  1
  Ag  Ag13  1  0.346770  0.346770  0.693539  1
  Ag  Ag14  1  0.345249  0.649477  0.000000  1
  Ag  Ag15  1  0.000000  0.346770  0.653230  1
  Ag  Ag16  1  0.000000  0.653230  0.346770  1
  Ag  Ag17  1  0.653230  0.653230  0.306461  1
  Ag  Ag18  1  0.654751  0.000000  0.350523  1
  Ag  Ag19  1  0.654751  0.350523  0.000000  1
  Ag  Ag20  1  0.653230  0.306461  0.653230  1
  Ag  Ag21  1  0.304228  0.649477  0.649477  1
  N  N22  1  0.000000  0.000000  0.000000  1
