# generated using pymatgen
data_TbDy3(B6Ru)2
_symmetry_space_group_name_H-M   'P 1'
_cell_length_a   3.67105800
_cell_length_b   9.15601900
_cell_length_c   11.53450900
_cell_angle_alpha   89.99755520
_cell_angle_beta   90.00000000
_cell_angle_gamma   90.00000000
_symmetry_Int_Tables_number   1
_chemical_formula_structural   TbDy3(B6Ru)2
_chemical_formula_sum   'Tb2 Dy6 B24 Ru4'
_cell_volume   387.70110906
_cell_formula_units_Z   2
loop_
 _symmetry_equiv_pos_site_id
 _symmetry_equiv_pos_as_xyz
  1  'x, y, z'
loop_
 _atom_site_type_symbol
 _atom_site_label
 _atom_site_symmetry_multiplicity
 _atom_site_fract_x
 _atom_site_fract_y
 _atom_site_fract_z
 _atom_site_occupancy
  Tb  Tb0  1  0.000000  0.323241  0.414020  1
  Tb  Tb1  1  0.000000  0.676759  0.585980  1
  Dy  Dy2  1  0.000000  0.823223  0.085818  1
  Dy  Dy3  1  0.000000  0.176777  0.914182  1
  Dy  Dy4  1  0.000000  0.943753  0.372096  1
  Dy  Dy5  1  0.000000  0.056247  0.627904  1
  Dy  Dy6  1  0.000000  0.443723  0.127566  1
  Dy  Dy7  1  0.000000  0.556277  0.872434  1
  B  B8  1  0.500000  0.554355  0.432690  1
  B  B9  1  0.500000  0.445645  0.567310  1
  B  B10  1  0.500000  0.054103  0.066925  1
  B  B11  1  0.500000  0.945897  0.933075  1
  B  B12  1  0.500000  0.747922  0.419464  1
  B  B13  1  0.500000  0.252078  0.580536  1
  B  B14  1  0.500000  0.247636  0.080078  1
  B  B15  1  0.500000  0.752364  0.919922  1
  B  B16  1  0.500000  0.791196  0.266098  1
  B  B17  1  0.500000  0.208804  0.733902  1
  B  B18  1  0.500000  0.290883  0.233341  1
  B  B19  1  0.500000  0.709117  0.766659  1
  B  B20  1  0.500000  0.632429  0.185089  1
  B  B21  1  0.500000  0.367571  0.814911  1
  B  B22  1  0.500000  0.132107  0.314494  1
  B  B23  1  0.500000  0.867893  0.685506  1
  B  B24  1  0.500000  0.983965  0.212653  1
  B  B25  1  0.500000  0.016035  0.787347  1
  B  B26  1  0.500000  0.484297  0.286865  1
  B  B27  1  0.500000  0.515703  0.713135  1
  B  B28  1  0.500000  0.608951  0.030072  1
  B  B29  1  0.500000  0.391049  0.969928  1
  B  B30  1  0.500000  0.108004  0.470140  1
  B  B31  1  0.500000  0.891996  0.529860  1
  Ru  Ru32  1  0.000000  0.637991  0.320949  1
  Ru  Ru33  1  0.000000  0.362009  0.679051  1
  Ru  Ru34  1  0.000000  0.137609  0.178521  1
  Ru  Ru35  1  0.000000  0.862391  0.821479  1
