# generated using pymatgen
data_Hf12Zn9Pd3(CN)2
_symmetry_space_group_name_H-M   'P 1'
_cell_length_a   8.54707876
_cell_length_b   8.54707815
_cell_length_c   8.57899086
_cell_angle_alpha   60.04885805
_cell_angle_beta   60.04886035
_cell_angle_gamma   59.91255988
_symmetry_Int_Tables_number   1
_chemical_formula_structural   Hf12Zn9Pd3(CN)2
_chemical_formula_sum   'Hf12 Zn9 Pd3 C2 N2'
_cell_volume   443.18870588
_cell_formula_units_Z   1
loop_
 _symmetry_equiv_pos_site_id
 _symmetry_equiv_pos_as_xyz
  1  'x, y, z'
loop_
 _atom_site_type_symbol
 _atom_site_label
 _atom_site_symmetry_multiplicity
 _atom_site_fract_x
 _atom_site_fract_y
 _atom_site_fract_z
 _atom_site_occupancy
  Hf  Hf0  1  0.811866  0.187471  0.187609  1
  Hf  Hf1  1  0.187471  0.811866  0.187609  1
  Hf  Hf2  1  0.813505  0.813505  0.184695  1
  Hf  Hf3  1  0.185428  0.812183  0.813391  1
  Hf  Hf4  1  0.812183  0.185428  0.813391  1
  Hf  Hf5  1  0.188235  0.188235  0.811566  1
  Hf  Hf6  1  0.438134  0.062529  0.062391  1
  Hf  Hf7  1  0.062529  0.438134  0.062391  1
  Hf  Hf8  1  0.436495  0.436495  0.065305  1
  Hf  Hf9  1  0.064572  0.437817  0.436609  1
  Hf  Hf10  1  0.437817  0.064572  0.436609  1
  Hf  Hf11  1  0.061765  0.061765  0.438434  1
  Zn  Zn12  1  0.418276  0.418276  0.748458  1
  Zn  Zn13  1  0.418139  0.418139  0.417003  1
  Zn  Zn14  1  0.748528  0.418538  0.417545  1
  Zn  Zn15  1  0.418538  0.748528  0.417545  1
  Zn  Zn16  1  0.831724  0.831724  0.501542  1
  Zn  Zn17  1  0.831861  0.831861  0.832997  1
  Zn  Zn18  1  0.501472  0.831462  0.832455  1
  Zn  Zn19  1  0.831462  0.501472  0.832455  1
  Zn  Zn20  1  0.625000  0.625000  0.625000  1
  Pd  Pd21  1  0.625000  0.625000  0.125000  1
  Pd  Pd22  1  0.125000  0.625000  0.625000  1
  Pd  Pd23  1  0.625000  0.125000  0.625000  1
  C  C24  1  0.125000  0.125000  0.625000  1
  C  C25  1  0.125000  0.125000  0.125000  1
  N  N26  1  0.625000  0.125000  0.125000  1
  N  N27  1  0.125000  0.625000  0.125000  1
