# generated using pymatgen
data_Sc2Ni7HgB2
_symmetry_space_group_name_H-M   'P 1'
_cell_length_a   4.91730874
_cell_length_b   4.89894000
_cell_length_c   14.00357100
_cell_angle_alpha   90.00000000
_cell_angle_beta   90.00000000
_cell_angle_gamma   119.94850872
_symmetry_Int_Tables_number   1
_chemical_formula_structural   Sc2Ni7HgB2
_chemical_formula_sum   'Sc4 Ni14 Hg2 B4'
_cell_volume   292.29684708
_cell_formula_units_Z   2
loop_
 _symmetry_equiv_pos_site_id
 _symmetry_equiv_pos_as_xyz
  1  'x, y, z'
loop_
 _atom_site_type_symbol
 _atom_site_label
 _atom_site_symmetry_multiplicity
 _atom_site_fract_x
 _atom_site_fract_y
 _atom_site_fract_z
 _atom_site_occupancy
  Sc  Sc0  1  0.666784  0.333408  0.530455  1
  Sc  Sc1  1  0.333216  0.666592  0.030455  1
  Sc  Sc2  1  0.666629  0.333319  0.755607  1
  Sc  Sc3  1  0.333371  0.666681  0.255607  1
  Ni  Ni4  1  0.834202  0.165876  0.352507  1
  Ni  Ni5  1  0.834201  0.668309  0.352533  1
  Ni  Ni6  1  0.000022  0.000005  0.000560  1
  Ni  Ni7  1  0.999978  0.999995  0.500560  1
  Ni  Ni8  1  0.834079  0.668049  0.147189  1
  Ni  Ni9  1  0.165913  0.834010  0.647214  1
  Ni  Ni10  1  0.668172  0.834097  0.647262  1
  Ni  Ni11  1  0.331828  0.165903  0.147262  1
  Ni  Ni12  1  0.834087  0.165990  0.147214  1
  Ni  Ni13  1  0.165799  0.331691  0.852533  1
  Ni  Ni14  1  0.165798  0.834124  0.852507  1
  Ni  Ni15  1  0.165921  0.331951  0.647189  1
  Ni  Ni16  1  0.668310  0.834155  0.852435  1
  Ni  Ni17  1  0.331690  0.165845  0.352435  1
  Hg  Hg18  1  0.333246  0.666608  0.466868  1
  Hg  Hg19  1  0.666754  0.333392  0.966868  1
  B  B20  1  0.666590  0.333274  0.249843  1
  B  B21  1  0.333410  0.666726  0.749843  1
  B  B22  1  0.999760  0.999894  0.747528  1
  B  B23  1  0.000240  0.000106  0.247528  1
