# generated using pymatgen
data_Ho2RuWC3
_symmetry_space_group_name_H-M   'P 1'
_cell_length_a   6.03177178
_cell_length_b   6.03177097
_cell_length_c   5.68001811
_cell_angle_alpha   67.85914582
_cell_angle_beta   67.85914878
_cell_angle_gamma   32.26511562
_symmetry_Int_Tables_number   1
_chemical_formula_structural   Ho2RuWC3
_chemical_formula_sum   'Ho2 Ru1 W1 C3'
_cell_volume   101.47352447
_cell_formula_units_Z   1
loop_
 _symmetry_equiv_pos_site_id
 _symmetry_equiv_pos_as_xyz
  1  'x, y, z'
loop_
 _atom_site_type_symbol
 _atom_site_label
 _atom_site_symmetry_multiplicity
 _atom_site_fract_x
 _atom_site_fract_y
 _atom_site_fract_z
 _atom_site_occupancy
  Ho  Ho0  1  0.609025  0.609025  0.180958  1
  Ho  Ho1  1  0.391591  0.391591  0.832842  1
  Ru  Ru2  1  0.842265  0.842265  0.318157  1
  W  W3  1  0.158623  0.158623  0.674732  1
  C  C4  1  0.752775  0.752775  0.730507  1
  C  C5  1  0.246215  0.246215  0.268791  1
  C  C6  1  0.999508  0.999508  0.994012  1
