# generated using pymatgen
data_Nd8Ga(Si4Ir)3
_symmetry_space_group_name_H-M   'P 1'
_cell_length_a   8.24542400
_cell_length_b   8.24542371
_cell_length_c   8.52370700
_cell_angle_alpha   89.99998969
_cell_angle_beta   90.00001367
_cell_angle_gamma   120.00006802
_symmetry_Int_Tables_number   1
_chemical_formula_structural   Nd8Ga(Si4Ir)3
_chemical_formula_sum   'Nd8 Ga1 Si12 Ir3'
_cell_volume   501.86258261
_cell_formula_units_Z   1
loop_
 _symmetry_equiv_pos_site_id
 _symmetry_equiv_pos_as_xyz
  1  'x, y, z'
loop_
 _atom_site_type_symbol
 _atom_site_label
 _atom_site_symmetry_multiplicity
 _atom_site_fract_x
 _atom_site_fract_y
 _atom_site_fract_z
 _atom_site_occupancy
  Nd  Nd0  1  0.000000  0.000000  0.748372  1
  Nd  Nd1  1  0.000000  0.000000  0.252005  1
  Nd  Nd2  1  0.497582  0.502418  0.746072  1
  Nd  Nd3  1  0.497583  0.995164  0.746072  1
  Nd  Nd4  1  0.004836  0.502417  0.746072  1
  Nd  Nd5  1  0.499375  0.500625  0.253789  1
  Nd  Nd6  1  0.001252  0.500625  0.253788  1
  Nd  Nd7  1  0.499375  0.998748  0.253788  1
  Ga  Ga8  1  0.666667  0.333333  0.995171  1
  Si  Si9  1  0.838139  0.161861  0.000240  1
  Si  Si10  1  0.838139  0.676278  0.000240  1
  Si  Si11  1  0.323722  0.161861  0.000240  1
  Si  Si12  1  0.832554  0.167446  0.501213  1
  Si  Si13  1  0.832554  0.665108  0.501213  1
  Si  Si14  1  0.334892  0.167446  0.501213  1
  Si  Si15  1  0.167136  0.832864  0.498851  1
  Si  Si16  1  0.665728  0.832864  0.498851  1
  Si  Si17  1  0.167136  0.334272  0.498851  1
  Si  Si18  1  0.168878  0.831122  0.000647  1
  Si  Si19  1  0.662245  0.831122  0.000647  1
  Si  Si20  1  0.168878  0.337755  0.000647  1
  Ir  Ir21  1  0.666667  0.333333  0.502252  1
  Ir  Ir22  1  0.333333  0.666667  0.497990  1
  Ir  Ir23  1  0.333333  0.666667  0.001777  1
