# generated using pymatgen
data_Ac4PrSn3Cl
_symmetry_space_group_name_H-M   'P 1'
_cell_length_a   9.96195700
_cell_length_b   9.96195516
_cell_length_c   7.11025900
_cell_angle_alpha   90.00000000
_cell_angle_beta   90.00000000
_cell_angle_gamma   120.00000278
_symmetry_Int_Tables_number   1
_chemical_formula_structural   Ac4PrSn3Cl
_chemical_formula_sum   'Ac8 Pr2 Sn6 Cl2'
_cell_volume   611.09015316
_cell_formula_units_Z   2
loop_
 _symmetry_equiv_pos_site_id
 _symmetry_equiv_pos_as_xyz
  1  'x, y, z'
loop_
 _atom_site_type_symbol
 _atom_site_label
 _atom_site_symmetry_multiplicity
 _atom_site_fract_x
 _atom_site_fract_y
 _atom_site_fract_z
 _atom_site_occupancy
  Ac  Ac0  1  0.266085  0.266085  0.752929  1
  Ac  Ac1  1  0.000000  0.733915  0.752929  1
  Ac  Ac2  1  0.733915  0.000000  0.752929  1
  Ac  Ac3  1  0.000000  0.266085  0.247071  1
  Ac  Ac4  1  0.333333  0.666667  0.500000  1
  Ac  Ac5  1  0.733915  0.733915  0.247071  1
  Ac  Ac6  1  0.666667  0.333333  0.500000  1
  Ac  Ac7  1  0.266085  0.000000  0.247071  1
  Pr  Pr8  1  0.333333  0.666667  0.000000  1
  Pr  Pr9  1  0.666667  0.333333  0.000000  1
  Sn  Sn10  1  0.613258  0.000000  0.242941  1
  Sn  Sn11  1  0.000000  0.386742  0.757059  1
  Sn  Sn12  1  0.386742  0.000000  0.757059  1
  Sn  Sn13  1  0.613258  0.613258  0.757059  1
  Sn  Sn14  1  0.000000  0.613258  0.242941  1
  Sn  Sn15  1  0.386742  0.386742  0.242941  1
  Cl  Cl16  1  0.000000  0.000000  0.000000  1
  Cl  Cl17  1  0.000000  0.000000  0.500000  1
