# generated using pymatgen
data_Li4Al5Zn3Pt4
_symmetry_space_group_name_H-M   'P 1'
_cell_length_a   6.09168602
_cell_length_b   4.31942100
_cell_length_c   8.62011243
_cell_angle_alpha   90.00000000
_cell_angle_beta   90.06621108
_cell_angle_gamma   90.00000000
_symmetry_Int_Tables_number   1
_chemical_formula_structural   Li4Al5Zn3Pt4
_chemical_formula_sum   'Li4 Al5 Zn3 Pt4'
_cell_volume   226.81704420
_cell_formula_units_Z   1
loop_
 _symmetry_equiv_pos_site_id
 _symmetry_equiv_pos_as_xyz
  1  'x, y, z'
loop_
 _atom_site_type_symbol
 _atom_site_label
 _atom_site_symmetry_multiplicity
 _atom_site_fract_x
 _atom_site_fract_y
 _atom_site_fract_z
 _atom_site_occupancy
  Li  Li0  1  0.255390  0.250000  0.131573  1
  Li  Li1  1  0.741945  0.750001  0.362345  1
  Li  Li2  1  0.254338  0.250000  0.617973  1
  Li  Li3  1  0.749255  0.750001  0.888527  1
  Al  Al4  1  0.995978  0.250000  0.374744  1
  Al  Al5  1  0.993774  0.750001  0.626244  1
  Al  Al6  1  0.504179  0.750001  0.622388  1
  Al  Al7  1  0.005401  0.250000  0.875280  1
  Al  Al8  1  0.498568  0.250000  0.875342  1
  Zn  Zn9  1  0.490377  0.750001  0.127770  1
  Zn  Zn10  1  0.010678  0.750001  0.124689  1
  Zn  Zn11  1  0.501084  0.250000  0.373408  1
  Pt  Pt12  1  0.756194  0.250000  0.117867  1
  Pt  Pt13  1  0.236374  0.750001  0.387357  1
  Pt  Pt14  1  0.753671  0.250000  0.630714  1
  Pt  Pt15  1  0.252797  0.750001  0.863778  1
