# generated using pymatgen
data_Dy4Zn8Cd3In
_symmetry_space_group_name_H-M   'P 1'
_cell_length_a   4.46931900
_cell_length_b   7.21273921
_cell_length_c   10.11206507
_cell_angle_alpha   89.97961116
_cell_angle_beta   90.00000000
_cell_angle_gamma   90.00000000
_symmetry_Int_Tables_number   1
_chemical_formula_structural   Dy4Zn8Cd3In
_chemical_formula_sum   'Dy4 Zn8 Cd3 In1'
_cell_volume   325.97283632
_cell_formula_units_Z   1
loop_
 _symmetry_equiv_pos_site_id
 _symmetry_equiv_pos_as_xyz
  1  'x, y, z'
loop_
 _atom_site_type_symbol
 _atom_site_label
 _atom_site_symmetry_multiplicity
 _atom_site_fract_x
 _atom_site_fract_y
 _atom_site_fract_z
 _atom_site_occupancy
  Dy  Dy0  1  0.250000  0.304612  0.673584  1
  Dy  Dy1  1  0.750000  0.694705  0.324566  1
  Dy  Dy2  1  0.250000  0.804983  0.827879  1
  Dy  Dy3  1  0.750000  0.195226  0.171429  1
  Zn  Zn4  1  0.750000  0.313671  0.462018  1
  Zn  Zn5  1  0.250000  0.686714  0.536967  1
  Zn  Zn6  1  0.750000  0.812068  0.037335  1
  Zn  Zn7  1  0.250000  0.188333  0.963002  1
  Zn  Zn8  1  0.750000  0.583410  0.645370  1
  Zn  Zn9  1  0.250000  0.414378  0.355049  1
  Zn  Zn10  1  0.750000  0.088511  0.857113  1
  Zn  Zn11  1  0.250000  0.911621  0.145953  1
  Cd  Cd12  1  0.250000  0.530889  0.098190  1
  Cd  Cd13  1  0.750000  0.468981  0.902043  1
  Cd  Cd14  1  0.250000  0.033977  0.400661  1
  In  In15  1  0.750000  0.967923  0.598842  1
