# generated using pymatgen
data_Ti6SiAsP
_symmetry_space_group_name_H-M   'P 1'
_cell_length_a   6.75408500
_cell_length_b   6.75408459
_cell_length_c   3.54739300
_cell_angle_alpha   90.00000000
_cell_angle_beta   90.00000000
_cell_angle_gamma   119.99999713
_symmetry_Int_Tables_number   1
_chemical_formula_structural   Ti6SiAsP
_chemical_formula_sum   'Ti6 Si1 As1 P1'
_cell_volume   140.14350214
_cell_formula_units_Z   1
loop_
 _symmetry_equiv_pos_site_id
 _symmetry_equiv_pos_as_xyz
  1  'x, y, z'
loop_
 _atom_site_type_symbol
 _atom_site_label
 _atom_site_symmetry_multiplicity
 _atom_site_fract_x
 _atom_site_fract_y
 _atom_site_fract_z
 _atom_site_occupancy
  Ti  Ti0  1  0.250091  0.002085  0.500000  1
  Ti  Ti1  1  0.751995  0.749909  0.500000  1
  Ti  Ti2  1  0.997915  0.248005  0.500000  1
  Ti  Ti3  1  0.602077  0.003788  0.000000  1
  Ti  Ti4  1  0.401711  0.397923  0.000000  1
  Ti  Ti5  1  0.996212  0.598289  0.000000  1
  Si  Si6  1  0.666667  0.333333  0.500000  1
  As  As7  1  0.333333  0.666667  0.500000  1
  P  P8  1  0.000000  0.000000  0.000000  1
