# generated using pymatgen
data_Th4Np3ZnN12
_symmetry_space_group_name_H-M   'P 1'
_cell_length_a   5.79319783
_cell_length_b   5.94632071
_cell_length_c   8.43355252
_cell_angle_alpha   89.46803840
_cell_angle_beta   89.43730554
_cell_angle_gamma   90.11234711
_symmetry_Int_Tables_number   1
_chemical_formula_structural   Th4Np3ZnN12
_chemical_formula_sum   'Th4 Np3 Zn1 N12'
_cell_volume   290.49366428
_cell_formula_units_Z   1
loop_
 _symmetry_equiv_pos_site_id
 _symmetry_equiv_pos_as_xyz
  1  'x, y, z'
loop_
 _atom_site_type_symbol
 _atom_site_label
 _atom_site_symmetry_multiplicity
 _atom_site_fract_x
 _atom_site_fract_y
 _atom_site_fract_z
 _atom_site_occupancy
  Th  Th0  1  0.513013  0.544700  0.232101  1
  Th  Th1  1  0.984000  0.065985  0.231638  1
  Th  Th2  1  0.486987  0.455300  0.767899  1
  Th  Th3  1  0.016000  0.934015  0.768362  1
  Np  Np4  1  0.500000  0.000000  0.500000  1
  Np  Np5  1  0.000000  0.500000  0.500000  1
  Np  Np6  1  0.500000  0.000000  0.000000  1
  Zn  Zn7  1  0.000000  0.500000  0.000000  1
  N  N8  1  0.377918  0.957648  0.256391  1
  N  N9  1  0.116795  0.457562  0.273562  1
  N  N10  1  0.622082  0.042352  0.743609  1
  N  N11  1  0.883205  0.542438  0.726438  1
  N  N12  1  0.786466  0.816519  0.042810  1
  N  N13  1  0.705102  0.300624  0.425501  1
  N  N14  1  0.216174  0.191292  0.575769  1
  N  N15  1  0.298175  0.698568  0.948159  1
  N  N16  1  0.213534  0.183481  0.957190  1
  N  N17  1  0.294898  0.699376  0.574499  1
  N  N18  1  0.783826  0.808708  0.424231  1
  N  N19  1  0.701825  0.301432  0.051841  1
