# generated using pymatgen
data_Ho5Er3(B6Ru)4
_symmetry_space_group_name_H-M   'P 1'
_cell_length_a   3.64188500
_cell_length_b   9.11272202
_cell_length_c   11.48821403
_cell_angle_alpha   90.00835557
_cell_angle_beta   90.00000000
_cell_angle_gamma   90.00000000
_symmetry_Int_Tables_number   1
_chemical_formula_structural   Ho5Er3(B6Ru)4
_chemical_formula_sum   'Ho5 Er3 B24 Ru4'
_cell_volume   381.26493422
_cell_formula_units_Z   1
loop_
 _symmetry_equiv_pos_site_id
 _symmetry_equiv_pos_as_xyz
  1  'x, y, z'
loop_
 _atom_site_type_symbol
 _atom_site_label
 _atom_site_symmetry_multiplicity
 _atom_site_fract_x
 _atom_site_fract_y
 _atom_site_fract_z
 _atom_site_occupancy
  Ho  Ho0  1  0.000000  0.322744  0.414194  1
  Ho  Ho1  1  0.000000  0.677287  0.585957  1
  Ho  Ho2  1  0.000000  0.822573  0.085752  1
  Ho  Ho3  1  0.000000  0.177449  0.914132  1
  Ho  Ho4  1  0.000000  0.943997  0.372425  1
  Er  Er5  1  0.000000  0.056032  0.627808  1
  Er  Er6  1  0.000000  0.444027  0.127552  1
  Er  Er7  1  0.000000  0.555987  0.872358  1
  B  B8  1  0.500000  0.554034  0.433222  1
  B  B9  1  0.500000  0.445741  0.566860  1
  B  B10  1  0.500000  0.054290  0.066688  1
  B  B11  1  0.500000  0.945770  0.933177  1
  B  B12  1  0.500000  0.748203  0.419882  1
  B  B13  1  0.500000  0.251466  0.580232  1
  B  B14  1  0.500000  0.248727  0.080095  1
  B  B15  1  0.500000  0.751361  0.919837  1
  B  B16  1  0.500000  0.791505  0.265869  1
  B  B17  1  0.500000  0.208171  0.734053  1
  B  B18  1  0.500000  0.292046  0.233925  1
  B  B19  1  0.500000  0.708110  0.766022  1
  B  B20  1  0.500000  0.631937  0.184773  1
  B  B21  1  0.500000  0.367963  0.815153  1
  B  B22  1  0.500000  0.132426  0.314985  1
  B  B23  1  0.500000  0.867893  0.684953  1
  B  B24  1  0.500000  0.983752  0.212702  1
  B  B25  1  0.500000  0.016453  0.787047  1
  B  B26  1  0.500000  0.483415  0.286958  1
  B  B27  1  0.500000  0.516480  0.713008  1
  B  B28  1  0.500000  0.606971  0.029465  1
  B  B29  1  0.500000  0.393022  0.970457  1
  B  B30  1  0.500000  0.107686  0.470631  1
  B  B31  1  0.500000  0.892576  0.529933  1
  Ru  Ru32  1  0.000000  0.638081  0.320947  1
  Ru  Ru33  1  0.000000  0.361615  0.679072  1
  Ru  Ru34  1  0.000000  0.138645  0.178859  1
  Ru  Ru35  1  0.000000  0.861565  0.821016  1
