# generated using pymatgen
data_Tb16Ho4Ir11Rh
_symmetry_space_group_name_H-M   'P 1'
_cell_length_a   10.92039700
_cell_length_b   10.92039700
_cell_length_c   6.38518300
_cell_angle_alpha   90.00000000
_cell_angle_beta   90.00000000
_cell_angle_gamma   90.00000000
_symmetry_Int_Tables_number   1
_chemical_formula_structural   Tb16Ho4Ir11Rh
_chemical_formula_sum   'Tb16 Ho4 Ir11 Rh1'
_cell_volume   761.46544970
_cell_formula_units_Z   1
loop_
 _symmetry_equiv_pos_site_id
 _symmetry_equiv_pos_as_xyz
  1  'x, y, z'
loop_
 _atom_site_type_symbol
 _atom_site_label
 _atom_site_symmetry_multiplicity
 _atom_site_fract_x
 _atom_site_fract_y
 _atom_site_fract_z
 _atom_site_occupancy
  Tb  Tb0  1  0.290498  0.088042  0.379525  1
  Tb  Tb1  1  0.290285  0.911794  0.877707  1
  Tb  Tb2  1  0.709715  0.088206  0.877707  1
  Tb  Tb3  1  0.709502  0.911958  0.379525  1
  Tb  Tb4  1  0.588206  0.790285  0.877707  1
  Tb  Tb5  1  0.588042  0.209502  0.379525  1
  Tb  Tb6  1  0.411958  0.790498  0.379525  1
  Tb  Tb7  1  0.411794  0.209715  0.877707  1
  Tb  Tb8  1  0.209192  0.411967  0.621618  1
  Tb  Tb9  1  0.209253  0.588188  0.121624  1
  Tb  Tb10  1  0.790747  0.411812  0.121624  1
  Tb  Tb11  1  0.790808  0.588033  0.621618  1
  Tb  Tb12  1  0.911812  0.709253  0.121624  1
  Tb  Tb13  1  0.911967  0.290808  0.621618  1
  Tb  Tb14  1  0.088033  0.709192  0.621618  1
  Tb  Tb15  1  0.088188  0.290747  0.121624  1
  Ho  Ho16  1  0.000000  0.000000  0.500021  1
  Ho  Ho17  1  0.000000  0.000000  0.000091  1
  Ho  Ho18  1  0.500000  0.500000  0.000091  1
  Ho  Ho19  1  0.500000  0.500000  0.500021  1
  Ir  Ir20  1  0.846988  0.152323  0.249728  1
  Ir  Ir21  1  0.847149  0.847585  0.749796  1
  Ir  Ir22  1  0.152851  0.152415  0.749796  1
  Ir  Ir23  1  0.153012  0.847677  0.249728  1
  Ir  Ir24  1  0.652415  0.347149  0.749796  1
  Ir  Ir25  1  0.652323  0.653012  0.249728  1
  Ir  Ir26  1  0.347677  0.346988  0.249728  1
  Ir  Ir27  1  0.347585  0.652851  0.749796  1
  Ir  Ir28  1  0.500000  0.000000  0.622132  1
  Ir  Ir29  1  0.000000  0.500000  0.877991  1
  Ir  Ir30  1  0.000000  0.500000  0.377964  1
  Rh  Rh31  1  0.500000  0.000000  0.121701  1
