# generated using pymatgen
data_Lu3GaAg3Ge2
_symmetry_space_group_name_H-M   'P 1'
_cell_length_a   7.10329900
_cell_length_b   7.10329842
_cell_length_c   4.13179300
_cell_angle_alpha   90.00000000
_cell_angle_beta   90.00000000
_cell_angle_gamma   119.99999806
_symmetry_Int_Tables_number   1
_chemical_formula_structural   Lu3GaAg3Ge2
_chemical_formula_sum   'Lu3 Ga1 Ag3 Ge2'
_cell_volume   180.54661558
_cell_formula_units_Z   1
loop_
 _symmetry_equiv_pos_site_id
 _symmetry_equiv_pos_as_xyz
  1  'x, y, z'
loop_
 _atom_site_type_symbol
 _atom_site_label
 _atom_site_symmetry_multiplicity
 _atom_site_fract_x
 _atom_site_fract_y
 _atom_site_fract_z
 _atom_site_occupancy
  Lu  Lu0  1  0.577589  0.000000  0.000000  1
  Lu  Lu1  1  0.000000  0.577589  0.000000  1
  Lu  Lu2  1  0.422411  0.422411  0.000000  1
  Ga  Ga3  1  0.000000  0.000000  0.000000  1
  Ag  Ag4  1  0.249701  0.000000  0.500000  1
  Ag  Ag5  1  0.000000  0.249701  0.500000  1
  Ag  Ag6  1  0.750299  0.750299  0.500000  1
  Ge  Ge7  1  0.333333  0.666667  0.500000  1
  Ge  Ge8  1  0.666667  0.333333  0.500000  1
