# generated using pymatgen
data_LiSc4Co16(MoP4)3
_symmetry_space_group_name_H-M   'P 1'
_cell_length_a   3.63783000
_cell_length_b   10.27041248
_cell_length_c   11.75694522
_cell_angle_alpha   89.88187207
_cell_angle_beta   90.00000000
_cell_angle_gamma   90.00000000
_symmetry_Int_Tables_number   1
_chemical_formula_structural   LiSc4Co16(MoP4)3
_chemical_formula_sum   'Li1 Sc4 Co16 Mo3 P12'
_cell_volume   439.26222578
_cell_formula_units_Z   1
loop_
 _symmetry_equiv_pos_site_id
 _symmetry_equiv_pos_as_xyz
  1  'x, y, z'
loop_
 _atom_site_type_symbol
 _atom_site_label
 _atom_site_symmetry_multiplicity
 _atom_site_fract_x
 _atom_site_fract_y
 _atom_site_fract_z
 _atom_site_occupancy
  Li  Li0  1  0.250000  0.704219  0.989350  1
  Sc  Sc1  1  0.250000  0.581117  0.707105  1
  Sc  Sc2  1  0.250000  0.916566  0.205917  1
  Sc  Sc3  1  0.750000  0.416779  0.292832  1
  Sc  Sc4  1  0.750000  0.079558  0.797813  1
  Co  Co5  1  0.250000  0.408559  0.485029  1
  Co  Co6  1  0.250000  0.091645  0.987020  1
  Co  Co7  1  0.750000  0.592531  0.514528  1
  Co  Co8  1  0.750000  0.907559  0.013802  1
  Co  Co9  1  0.250000  0.222730  0.177799  1
  Co  Co10  1  0.250000  0.278179  0.677623  1
  Co  Co11  1  0.750000  0.779453  0.822236  1
  Co  Co12  1  0.750000  0.719699  0.323300  1
  Co  Co13  1  0.250000  0.887962  0.702107  1
  Co  Co14  1  0.250000  0.618526  0.199649  1
  Co  Co15  1  0.750000  0.112141  0.297792  1
  Co  Co16  1  0.750000  0.385963  0.797596  1
  Co  Co17  1  0.250000  0.466402  0.928849  1
  Co  Co18  1  0.250000  0.035435  0.432407  1
  Co  Co19  1  0.750000  0.538334  0.068346  1
  Co  Co20  1  0.750000  0.965021  0.567336  1
  Mo  Mo21  1  0.250000  0.789372  0.488664  1
  Mo  Mo22  1  0.750000  0.290990  0.011468  1
  Mo  Mo23  1  0.750000  0.210578  0.511415  1
  P  P24  1  0.250000  0.424722  0.115277  1
  P  P25  1  0.250000  0.079004  0.618791  1
  P  P26  1  0.750000  0.580339  0.883064  1
  P  P27  1  0.750000  0.919631  0.381975  1
  P  P28  1  0.250000  0.265100  0.864033  1
  P  P29  1  0.250000  0.236330  0.362876  1
  P  P30  1  0.750000  0.736610  0.135252  1
  P  P31  1  0.750000  0.764243  0.638033  1
  P  P32  1  0.250000  0.593663  0.387426  1
  P  P33  1  0.250000  0.901764  0.891714  1
  P  P34  1  0.750000  0.407844  0.611077  1
  P  P35  1  0.750000  0.091431  0.110501  1
