# generated using pymatgen
data_Li4Ac7NdSi12
_symmetry_space_group_name_H-M   'P 1'
_cell_length_a   11.65578382
_cell_length_b   9.95990296
_cell_length_c   8.53100692
_cell_angle_alpha   77.72797002
_cell_angle_beta   56.61346389
_cell_angle_gamma   45.84373629
_symmetry_Int_Tables_number   1
_chemical_formula_structural   Li4Ac7NdSi12
_chemical_formula_sum   'Li4 Ac7 Nd1 Si12'
_cell_volume   568.65738058
_cell_formula_units_Z   1
loop_
 _symmetry_equiv_pos_site_id
 _symmetry_equiv_pos_as_xyz
  1  'x, y, z'
loop_
 _atom_site_type_symbol
 _atom_site_label
 _atom_site_symmetry_multiplicity
 _atom_site_fract_x
 _atom_site_fract_y
 _atom_site_fract_z
 _atom_site_occupancy
  Li  Li0  1  0.829836  0.167426  0.835155  1
  Li  Li1  1  0.167426  0.829836  0.167584  1
  Li  Li2  1  0.417586  0.085154  0.415025  1
  Li  Li3  1  0.085154  0.417586  0.082235  1
  Ac  Ac4  1  0.623213  0.623213  0.376787  1
  Ac  Ac5  1  0.376236  0.376236  0.623764  1
  Ac  Ac6  1  0.626978  0.626978  0.873022  1
  Ac  Ac7  1  0.873757  0.873757  0.626243  1
  Ac  Ac8  1  0.124233  0.124233  0.875767  1
  Ac  Ac9  1  0.875593  0.875593  0.124407  1
  Ac  Ac10  1  0.125708  0.125708  0.374292  1
  Nd  Nd11  1  0.374310  0.374310  0.125690  1
  Si  Si12  1  0.174673  0.830088  0.661746  1
  Si  Si13  1  0.332252  0.658589  0.835553  1
  Si  Si14  1  0.658589  0.332252  0.173605  1
  Si  Si15  1  0.830088  0.174673  0.333492  1
  Si  Si16  1  0.079798  0.417292  0.584380  1
  Si  Si17  1  0.921908  0.587102  0.414863  1
  Si  Si18  1  0.587102  0.921908  0.076129  1
  Si  Si19  1  0.417292  0.079798  0.918531  1
  Si  Si20  1  0.662699  0.334901  0.669148  1
  Si  Si21  1  0.334901  0.662699  0.333252  1
  Si  Si22  1  0.586408  0.914260  0.585009  1
  Si  Si23  1  0.914260  0.586408  0.914323  1
