# generated using pymatgen
data_Cs6DyErBr12
_symmetry_space_group_name_H-M   'P 1'
_cell_length_a   9.96278446
_cell_length_b   9.95146146
_cell_length_c   8.27640500
_cell_angle_alpha   90.00000000
_cell_angle_beta   90.00000000
_cell_angle_gamma   90.03468088
_symmetry_Int_Tables_number   1
_chemical_formula_structural   Cs6DyErBr12
_chemical_formula_sum   'Cs6 Dy1 Er1 Br12'
_cell_volume   820.55794446
_cell_formula_units_Z   1
loop_
 _symmetry_equiv_pos_site_id
 _symmetry_equiv_pos_as_xyz
  1  'x, y, z'
loop_
 _atom_site_type_symbol
 _atom_site_label
 _atom_site_symmetry_multiplicity
 _atom_site_fract_x
 _atom_site_fract_y
 _atom_site_fract_z
 _atom_site_occupancy
  Cs  Cs0  1  0.000000  0.000000  0.500000  1
  Cs  Cs1  1  0.000000  0.000000  0.000000  1
  Cs  Cs2  1  0.234907  0.584975  0.500000  1
  Cs  Cs3  1  0.765093  0.415025  0.500000  1
  Cs  Cs4  1  0.415063  0.234998  0.000000  1
  Cs  Cs5  1  0.584937  0.765002  0.000000  1
  Dy  Dy6  1  0.000000  0.500000  0.000000  1
  Er  Er7  1  0.500000  0.000000  0.500000  1
  Br  Br8  1  0.690829  0.058046  0.739142  1
  Br  Br9  1  0.309171  0.941954  0.739142  1
  Br  Br10  1  0.941505  0.692555  0.241245  1
  Br  Br11  1  0.058495  0.307445  0.241245  1
  Br  Br12  1  0.309171  0.941954  0.260858  1
  Br  Br13  1  0.690829  0.058046  0.260858  1
  Br  Br14  1  0.058495  0.307445  0.758755  1
  Br  Br15  1  0.941505  0.692555  0.758755  1
  Br  Br16  1  0.570696  0.730713  0.500000  1
  Br  Br17  1  0.429304  0.269287  0.500000  1
  Br  Br18  1  0.271989  0.571409  0.000000  1
  Br  Br19  1  0.728011  0.428591  0.000000  1
