# generated using pymatgen
data_Mn4AlCu2Pd9
_symmetry_space_group_name_H-M   'P 1'
_cell_length_a   6.75648046
_cell_length_b   6.75647989
_cell_length_c   6.75647954
_cell_angle_alpha   106.15427480
_cell_angle_beta   106.15427515
_cell_angle_gamma   116.33065471
_symmetry_Int_Tables_number   1
_chemical_formula_structural   Mn4AlCu2Pd9
_chemical_formula_sum   'Mn4 Al1 Cu2 Pd9'
_cell_volume   234.85039462
_cell_formula_units_Z   1
loop_
 _symmetry_equiv_pos_site_id
 _symmetry_equiv_pos_as_xyz
  1  'x, y, z'
loop_
 _atom_site_type_symbol
 _atom_site_label
 _atom_site_symmetry_multiplicity
 _atom_site_fract_x
 _atom_site_fract_y
 _atom_site_fract_z
 _atom_site_occupancy
  Mn  Mn0  1  0.235911  0.235911  0.471825  1
  Mn  Mn1  1  0.764089  0.764089  0.528175  1
  Mn  Mn2  1  0.235911  0.764089  0.000000  1
  Mn  Mn3  1  0.764089  0.235911  0.000000  1
  Al  Al4  1  0.500000  0.500000  0.000000  1
  Cu  Cu5  1  0.500000  0.000000  0.500000  1
  Cu  Cu6  1  0.000000  0.500000  0.500000  1
  Pd  Pd7  1  0.520378  0.269011  0.251367  1
  Pd  Pd8  1  0.479622  0.730989  0.748633  1
  Pd  Pd9  1  0.017644  0.269011  0.748633  1
  Pd  Pd10  1  0.269011  0.017644  0.748633  1
  Pd  Pd11  1  0.982356  0.730989  0.251367  1
  Pd  Pd12  1  0.730989  0.982356  0.251367  1
  Pd  Pd13  1  0.269011  0.520378  0.251367  1
  Pd  Pd14  1  0.730989  0.479622  0.748633  1
  Pd  Pd15  1  0.000000  0.000000  0.000000  1
