# generated using pymatgen
data_Y4CoAg
_symmetry_space_group_name_H-M   'P 1'
_cell_length_a   9.47460198
_cell_length_b   9.47460107
_cell_length_c   9.47460200
_cell_angle_alpha   59.99999675
_cell_angle_beta   59.99999993
_cell_angle_gamma   59.99999677
_symmetry_Int_Tables_number   1
_chemical_formula_structural   Y4CoAg
_chemical_formula_sum   'Y16 Co4 Ag4'
_cell_volume   601.40614852
_cell_formula_units_Z   4
loop_
 _symmetry_equiv_pos_site_id
 _symmetry_equiv_pos_as_xyz
  1  'x, y, z'
loop_
 _atom_site_type_symbol
 _atom_site_label
 _atom_site_symmetry_multiplicity
 _atom_site_fract_x
 _atom_site_fract_y
 _atom_site_fract_z
 _atom_site_occupancy
  Y  Y0  1  0.348002  0.348002  0.348002  1
  Y  Y1  1  0.348002  0.348002  0.955994  1
  Y  Y2  1  0.348002  0.955994  0.348002  1
  Y  Y3  1  0.955994  0.348002  0.348002  1
  Y  Y4  1  0.811130  0.188870  0.188870  1
  Y  Y5  1  0.188870  0.811130  0.811130  1
  Y  Y6  1  0.188870  0.811130  0.188870  1
  Y  Y7  1  0.811130  0.188870  0.811130  1
  Y  Y8  1  0.188870  0.188870  0.811130  1
  Y  Y9  1  0.811130  0.811130  0.188870  1
  Y  Y10  1  0.937301  0.562699  0.562699  1
  Y  Y11  1  0.562699  0.937301  0.937301  1
  Y  Y12  1  0.562699  0.937301  0.562699  1
  Y  Y13  1  0.937301  0.562699  0.937301  1
  Y  Y14  1  0.562699  0.562699  0.937301  1
  Y  Y15  1  0.937301  0.937301  0.562699  1
  Co  Co16  1  0.141168  0.141168  0.141168  1
  Co  Co17  1  0.141168  0.141168  0.576495  1
  Co  Co18  1  0.141168  0.576495  0.141168  1
  Co  Co19  1  0.576495  0.141168  0.141168  1
  Ag  Ag20  1  0.580704  0.580704  0.580704  1
  Ag  Ag21  1  0.580704  0.580704  0.257889  1
  Ag  Ag22  1  0.580704  0.257889  0.580704  1
  Ag  Ag23  1  0.257889  0.580704  0.580704  1
