# generated using pymatgen
data_Zr6Ta2Nb2Ga12Os7
_symmetry_space_group_name_H-M   'P 1'
_cell_length_a   8.86568847
_cell_length_b   8.86560250
_cell_length_c   8.86560200
_cell_angle_alpha   59.99856098
_cell_angle_beta   59.99967117
_cell_angle_gamma   59.99967584
_symmetry_Int_Tables_number   1
_chemical_formula_structural   Zr6Ta2Nb2Ga12Os7
_chemical_formula_sum   'Zr6 Ta2 Nb2 Ga12 Os7'
_cell_volume   492.72782543
_cell_formula_units_Z   1
loop_
 _symmetry_equiv_pos_site_id
 _symmetry_equiv_pos_as_xyz
  1  'x, y, z'
loop_
 _atom_site_type_symbol
 _atom_site_label
 _atom_site_symmetry_multiplicity
 _atom_site_fract_x
 _atom_site_fract_y
 _atom_site_fract_z
 _atom_site_occupancy
  Zr  Zr0  1  0.704020  0.703985  0.295996  1
  Zr  Zr1  1  0.295999  0.703985  0.295996  1
  Zr  Zr2  1  0.703995  0.296005  0.296005  1
  Zr  Zr3  1  0.295999  0.295996  0.703985  1
  Zr  Zr4  1  0.704020  0.295996  0.703985  1
  Zr  Zr5  1  0.295981  0.704019  0.704019  1
  Ta  Ta6  1  0.366869  0.877663  0.877663  1
  Ta  Ta7  1  0.877806  0.877663  0.877663  1
  Nb  Nb8  1  0.877778  0.877640  0.366804  1
  Nb  Nb9  1  0.877778  0.366804  0.877640  1
  Ga  Ga10  1  0.120313  0.120421  0.638953  1
  Ga  Ga11  1  0.120313  0.638953  0.120421  1
  Ga  Ga12  1  0.639006  0.120367  0.120367  1
  Ga  Ga13  1  0.120259  0.120367  0.120367  1
  Ga  Ga14  1  0.656727  0.656585  0.029961  1
  Ga  Ga15  1  0.656727  0.029961  0.656585  1
  Ga  Ga16  1  0.029840  0.656675  0.656675  1
  Ga  Ga17  1  0.656809  0.656675  0.656675  1
  Ga  Ga18  1  0.339317  0.339281  0.982086  1
  Ga  Ga19  1  0.339317  0.982086  0.339281  1
  Ga  Ga20  1  0.982176  0.339263  0.339263  1
  Ga  Ga21  1  0.339298  0.339263  0.339263  1
  Os  Os22  1  0.000704  0.999296  0.999296  1
  Os  Os23  1  0.997749  0.997762  0.502984  1
  Os  Os24  1  0.501505  0.997762  0.502984  1
  Os  Os25  1  0.997981  0.502019  0.502019  1
  Os  Os26  1  0.501505  0.502984  0.997762  1
  Os  Os27  1  0.997749  0.502984  0.997762  1
  Os  Os28  1  0.502459  0.997541  0.997541  1
