# generated using pymatgen
data_Y4Si2TcB8
_symmetry_space_group_name_H-M   'P 1'
_cell_length_a   7.11210300
_cell_length_b   7.11210300
_cell_length_c   7.62516800
_cell_angle_alpha   90.00000000
_cell_angle_beta   90.00000000
_cell_angle_gamma   90.00000000
_symmetry_Int_Tables_number   1
_chemical_formula_structural   Y4Si2TcB8
_chemical_formula_sum   'Y8 Si4 Tc2 B16'
_cell_volume   385.69631703
_cell_formula_units_Z   2
loop_
 _symmetry_equiv_pos_site_id
 _symmetry_equiv_pos_as_xyz
  1  'x, y, z'
loop_
 _atom_site_type_symbol
 _atom_site_label
 _atom_site_symmetry_multiplicity
 _atom_site_fract_x
 _atom_site_fract_y
 _atom_site_fract_z
 _atom_site_occupancy
  Y  Y0  1  0.679588  0.179588  0.238981  1
  Y  Y1  1  0.320412  0.820412  0.761019  1
  Y  Y2  1  0.320412  0.820412  0.238981  1
  Y  Y3  1  0.820412  0.679588  0.238981  1
  Y  Y4  1  0.820412  0.679588  0.761019  1
  Y  Y5  1  0.679588  0.179588  0.761019  1
  Y  Y6  1  0.179588  0.320412  0.761019  1
  Y  Y7  1  0.179588  0.320412  0.238981  1
  Si  Si8  1  0.123008  0.623008  0.500000  1
  Si  Si9  1  0.876992  0.376992  0.500000  1
  Si  Si10  1  0.376992  0.123008  0.500000  1
  Si  Si11  1  0.623008  0.876992  0.500000  1
  Tc  Tc12  1  0.000000  0.000000  0.500000  1
  Tc  Tc13  1  0.500000  0.500000  0.500000  1
  B  B14  1  0.172073  0.039330  0.000000  1
  B  B15  1  0.827927  0.960670  0.000000  1
  B  B16  1  0.960670  0.172073  0.000000  1
  B  B17  1  0.327927  0.539330  0.000000  1
  B  B18  1  0.039330  0.827927  0.000000  1
  B  B19  1  0.672073  0.460670  0.000000  1
  B  B20  1  0.539330  0.672073  0.000000  1
  B  B21  1  0.460670  0.327927  0.000000  1
  B  B22  1  0.089847  0.589847  0.000000  1
  B  B23  1  0.910153  0.410153  0.000000  1
  B  B24  1  0.410153  0.089847  0.000000  1
  B  B25  1  0.589847  0.910153  0.000000  1
  B  B26  1  0.000000  0.000000  0.174171  1
  B  B27  1  0.000000  0.000000  0.825829  1
  B  B28  1  0.500000  0.500000  0.825829  1
  B  B29  1  0.500000  0.500000  0.174171  1
