# generated using pymatgen
data_Cd2Hg2SeF6
_symmetry_space_group_name_H-M   'P 1'
_cell_length_a   8.22856670
_cell_length_b   8.22856617
_cell_length_c   8.22856600
_cell_angle_alpha   60.00000068
_cell_angle_beta   60.00000281
_cell_angle_gamma   59.99999743
_symmetry_Int_Tables_number   1
_chemical_formula_structural   Cd2Hg2SeF6
_chemical_formula_sum   'Cd4 Hg4 Se2 F12'
_cell_volume   393.96489212
_cell_formula_units_Z   2
loop_
 _symmetry_equiv_pos_site_id
 _symmetry_equiv_pos_as_xyz
  1  'x, y, z'
loop_
 _atom_site_type_symbol
 _atom_site_label
 _atom_site_symmetry_multiplicity
 _atom_site_fract_x
 _atom_site_fract_y
 _atom_site_fract_z
 _atom_site_occupancy
  Cd  Cd0  1  0.125000  0.625000  0.625000  1
  Cd  Cd1  1  0.625000  0.125000  0.625000  1
  Cd  Cd2  1  0.625000  0.625000  0.125000  1
  Cd  Cd3  1  0.625000  0.625000  0.625000  1
  Hg  Hg4  1  0.625000  0.125000  0.125000  1
  Hg  Hg5  1  0.125000  0.125000  0.625000  1
  Hg  Hg6  1  0.125000  0.125000  0.125000  1
  Hg  Hg7  1  0.125000  0.625000  0.125000  1
  Se  Se8  1  0.000000  0.000000  0.000000  1
  Se  Se9  1  0.250000  0.250000  0.250000  1
  F  F10  1  0.958275  0.541725  0.541725  1
  F  F11  1  0.708275  0.708275  0.291725  1
  F  F12  1  0.541725  0.541725  0.958275  1
  F  F13  1  0.291725  0.708275  0.291725  1
  F  F14  1  0.708275  0.291725  0.708275  1
  F  F15  1  0.958275  0.958275  0.541725  1
  F  F16  1  0.291725  0.291725  0.708275  1
  F  F17  1  0.541725  0.958275  0.958275  1
  F  F18  1  0.291725  0.708275  0.708275  1
  F  F19  1  0.958275  0.541725  0.958275  1
  F  F20  1  0.708275  0.291725  0.291725  1
  F  F21  1  0.541725  0.958275  0.541725  1
