# generated using pymatgen
data_Dy6Co2P12Ru11Rh5
_symmetry_space_group_name_H-M   'P 1'
_cell_length_a   3.89901200
_cell_length_b   11.11340432
_cell_length_c   12.65841443
_cell_angle_alpha   89.61143715
_cell_angle_beta   90.00000000
_cell_angle_gamma   90.00000000
_symmetry_Int_Tables_number   1
_chemical_formula_structural   Dy6Co2P12Ru11Rh5
_chemical_formula_sum   'Dy6 Co2 P12 Ru11 Rh5'
_cell_volume   548.49289927
_cell_formula_units_Z   1
loop_
 _symmetry_equiv_pos_site_id
 _symmetry_equiv_pos_as_xyz
  1  'x, y, z'
loop_
 _atom_site_type_symbol
 _atom_site_label
 _atom_site_symmetry_multiplicity
 _atom_site_fract_x
 _atom_site_fract_y
 _atom_site_fract_z
 _atom_site_occupancy
  Dy  Dy0  1  0.000000  0.498516  0.521993  1
  Dy  Dy1  1  0.500000  0.001729  0.478703  1
  Dy  Dy2  1  0.500000  0.818787  0.202823  1
  Dy  Dy3  1  0.500000  0.180055  0.203986  1
  Dy  Dy4  1  0.000000  0.681791  0.796466  1
  Dy  Dy5  1  0.000000  0.319829  0.796214  1
  Co  Co6  1  0.000000  0.500500  0.988414  1
  Co  Co7  1  0.500000  0.999725  0.011723  1
  P  P8  1  0.500000  0.501275  0.884813  1
  P  P9  1  0.000000  0.998993  0.114855  1
  P  P10  1  0.500000  0.499852  0.344728  1
  P  P11  1  0.000000  0.993950  0.657784  1
  P  P12  1  0.500000  0.307931  0.614756  1
  P  P13  1  0.500000  0.695374  0.616664  1
  P  P14  1  0.000000  0.191208  0.385966  1
  P  P15  1  0.000000  0.806533  0.384056  1
  P  P16  1  0.500000  0.849650  0.896868  1
  P  P17  1  0.500000  0.152735  0.900270  1
  P  P18  1  0.000000  0.651654  0.100128  1
  P  P19  1  0.000000  0.348097  0.100646  1
  Ru  Ru20  1  0.500000  0.499874  0.157880  1
  Ru  Ru21  1  0.000000  0.001539  0.843710  1
  Ru  Ru22  1  0.500000  0.335881  0.991038  1
  Ru  Ru23  1  0.500000  0.665379  0.990349  1
  Ru  Ru24  1  0.000000  0.165141  0.009780  1
  Ru  Ru25  1  0.000000  0.835223  0.009349  1
  Ru  Ru26  1  0.500000  0.298829  0.428146  1
  Ru  Ru27  1  0.500000  0.700072  0.427288  1
  Ru  Ru28  1  0.000000  0.198848  0.572629  1
  Ru  Ru29  1  0.000000  0.797737  0.569428  1
  Ru  Ru30  1  0.500000  0.878481  0.714318  1
  Rh  Rh31  1  0.500000  0.500617  0.699310  1
  Rh  Rh32  1  0.000000  0.999497  0.300467  1
  Rh  Rh33  1  0.500000  0.126568  0.718436  1
  Rh  Rh34  1  0.000000  0.623936  0.283044  1
  Rh  Rh35  1  0.000000  0.374194  0.282971  1
