# generated using pymatgen
data_Cs2RbTi2Br9
_symmetry_space_group_name_H-M   'P 1'
_cell_length_a   7.73489135
_cell_length_b   7.77781709
_cell_length_c   19.29549700
_cell_angle_alpha   90.00000000
_cell_angle_beta   90.00000000
_cell_angle_gamma   119.79906646
_symmetry_Int_Tables_number   1
_chemical_formula_structural   Cs2RbTi2Br9
_chemical_formula_sum   'Cs4 Rb2 Ti4 Br18'
_cell_volume   1007.33592210
_cell_formula_units_Z   2
loop_
 _symmetry_equiv_pos_site_id
 _symmetry_equiv_pos_as_xyz
  1  'x, y, z'
loop_
 _atom_site_type_symbol
 _atom_site_label
 _atom_site_symmetry_multiplicity
 _atom_site_fract_x
 _atom_site_fract_y
 _atom_site_fract_z
 _atom_site_occupancy
  Cs  Cs0  1  0.666946  0.333767  0.570364  1
  Cs  Cs1  1  0.333054  0.666233  0.070364  1
  Cs  Cs2  1  0.333054  0.666233  0.429636  1
  Cs  Cs3  1  0.666946  0.333767  0.929636  1
  Rb  Rb4  1  0.999670  0.999162  0.250000  1
  Rb  Rb5  1  0.000330  0.000838  0.750000  1
  Ti  Ti6  1  0.333683  0.667717  0.666560  1
  Ti  Ti7  1  0.666317  0.332283  0.333440  1
  Ti  Ti8  1  0.333683  0.667717  0.833440  1
  Ti  Ti9  1  0.666317  0.332283  0.166560  1
  Br  Br10  1  0.824695  0.649235  0.404488  1
  Br  Br11  1  0.175015  0.824020  0.595200  1
  Br  Br12  1  0.649211  0.824242  0.595269  1
  Br  Br13  1  0.824985  0.175980  0.404800  1
  Br  Br14  1  0.350789  0.175758  0.404731  1
  Br  Br15  1  0.175305  0.350765  0.904488  1
  Br  Br16  1  0.017582  0.508853  0.750000  1
  Br  Br17  1  0.649211  0.824242  0.904731  1
  Br  Br18  1  0.824695  0.649235  0.095512  1
  Br  Br19  1  0.175305  0.350765  0.595512  1
  Br  Br20  1  0.491481  0.982976  0.750000  1
  Br  Br21  1  0.508754  0.490829  0.250000  1
  Br  Br22  1  0.491246  0.509171  0.750000  1
  Br  Br23  1  0.175015  0.824020  0.904800  1
  Br  Br24  1  0.350789  0.175758  0.095269  1
  Br  Br25  1  0.982418  0.491147  0.250000  1
  Br  Br26  1  0.508519  0.017024  0.250000  1
  Br  Br27  1  0.824985  0.175980  0.095200  1
