# generated using pymatgen
data_Sc22TcRu4Rh3
_symmetry_space_group_name_H-M   'P 1'
_cell_length_a   9.44808520
_cell_length_b   9.48924710
_cell_length_c   9.46619821
_cell_angle_alpha   60.33458438
_cell_angle_beta   60.24693529
_cell_angle_gamma   60.37728934
_symmetry_Int_Tables_number   1
_chemical_formula_structural   Sc22TcRu4Rh3
_chemical_formula_sum   'Sc22 Tc1 Ru4 Rh3'
_cell_volume   604.45541892
_cell_formula_units_Z   1
loop_
 _symmetry_equiv_pos_site_id
 _symmetry_equiv_pos_as_xyz
  1  'x, y, z'
loop_
 _atom_site_type_symbol
 _atom_site_label
 _atom_site_symmetry_multiplicity
 _atom_site_fract_x
 _atom_site_fract_y
 _atom_site_fract_z
 _atom_site_occupancy
  Sc  Sc0  1  0.804883  0.801668  0.198087  1
  Sc  Sc1  1  0.195548  0.801326  0.198822  1
  Sc  Sc2  1  0.803327  0.196626  0.197022  1
  Sc  Sc3  1  0.195117  0.198332  0.801913  1
  Sc  Sc4  1  0.804452  0.198674  0.801178  1
  Sc  Sc5  1  0.196673  0.803374  0.802978  1
  Sc  Sc6  1  0.614823  0.617836  0.151495  1
  Sc  Sc7  1  0.615950  0.153422  0.616164  1
  Sc  Sc8  1  0.151314  0.616067  0.614118  1
  Sc  Sc9  1  0.620252  0.615149  0.615722  1
  Sc  Sc10  1  0.385177  0.382164  0.848505  1
  Sc  Sc11  1  0.384050  0.846578  0.383836  1
  Sc  Sc12  1  0.848686  0.383933  0.385882  1
  Sc  Sc13  1  0.379748  0.384851  0.384278  1
  Sc  Sc14  1  0.844200  0.846077  0.471151  1
  Sc  Sc15  1  0.843426  0.471738  0.843688  1
  Sc  Sc16  1  0.470509  0.846464  0.844033  1
  Sc  Sc17  1  0.841900  0.846630  0.840751  1
  Sc  Sc18  1  0.155800  0.153923  0.528849  1
  Sc  Sc19  1  0.156574  0.528262  0.156312  1
  Sc  Sc20  1  0.529491  0.153536  0.155967  1
  Sc  Sc21  1  0.158100  0.153370  0.159249  1
  Tc  Tc22  1  0.000000  0.500000  0.500000  1
  Ru  Ru23  1  0.000000  0.000000  0.000000  1
  Ru  Ru24  1  0.500000  0.500000  0.500000  1
  Ru  Ru25  1  0.000000  0.000000  0.500000  1
  Ru  Ru26  1  0.500000  0.000000  0.000000  1
  Rh  Rh27  1  0.500000  0.000000  0.500000  1
  Rh  Rh28  1  0.500000  0.500000  0.000000  1
  Rh  Rh29  1  0.000000  0.500000  0.000000  1
