# generated using pymatgen
data_CaYb(PrAl4)2
_symmetry_space_group_name_H-M   'P 1'
_cell_length_a   9.77547318
_cell_length_b   9.77547281
_cell_length_c   9.77547229
_cell_angle_alpha   33.81678614
_cell_angle_beta   33.81678803
_cell_angle_gamma   33.81678273
_symmetry_Int_Tables_number   1
_chemical_formula_structural   CaYb(PrAl4)2
_chemical_formula_sum   'Ca1 Yb1 Pr2 Al8'
_cell_volume   257.83001935
_cell_formula_units_Z   1
loop_
 _symmetry_equiv_pos_site_id
 _symmetry_equiv_pos_as_xyz
  1  'x, y, z'
loop_
 _atom_site_type_symbol
 _atom_site_label
 _atom_site_symmetry_multiplicity
 _atom_site_fract_x
 _atom_site_fract_y
 _atom_site_fract_z
 _atom_site_occupancy
  Ca  Ca0  1  0.060863  0.060863  0.060863  1
  Yb  Yb1  1  0.938643  0.938643  0.938643  1
  Pr  Pr2  1  0.564244  0.564244  0.564244  1
  Pr  Pr3  1  0.435860  0.435860  0.435860  1
  Al  Al4  1  0.748932  0.748932  0.748932  1
  Al  Al5  1  0.251105  0.251105  0.251105  1
  Al  Al6  1  0.000146  0.499857  0.499857  1
  Al  Al7  1  0.500740  0.999874  0.999874  1
  Al  Al8  1  0.499857  0.000146  0.499857  1
  Al  Al9  1  0.999874  0.500740  0.999874  1
  Al  Al10  1  0.499857  0.499857  0.000146  1
  Al  Al11  1  0.999874  0.999874  0.500740  1
