# generated using pymatgen
data_LuScSi14RuRh5
_symmetry_space_group_name_H-M   'P 1'
_cell_length_a   7.92764078
_cell_length_b   7.92696683
_cell_length_c   7.95217538
_cell_angle_alpha   57.11416963
_cell_angle_beta   57.12169279
_cell_angle_gamma   57.18086590
_symmetry_Int_Tables_number   1
_chemical_formula_structural   LuScSi14RuRh5
_chemical_formula_sum   'Lu1 Sc1 Si14 Ru1 Rh5'
_cell_volume   330.06807242
_cell_formula_units_Z   1
loop_
 _symmetry_equiv_pos_site_id
 _symmetry_equiv_pos_as_xyz
  1  'x, y, z'
loop_
 _atom_site_type_symbol
 _atom_site_label
 _atom_site_symmetry_multiplicity
 _atom_site_fract_x
 _atom_site_fract_y
 _atom_site_fract_z
 _atom_site_occupancy
  Lu  Lu0  1  0.000620  0.002029  0.998081  1
  Sc  Sc1  1  0.497226  0.499134  0.502360  1
  Si  Si2  1  0.753281  0.747102  0.750201  1
  Si  Si3  1  0.249237  0.250395  0.249835  1
  Si  Si4  1  0.849932  0.067228  0.671594  1
  Si  Si5  1  0.671193  0.851385  0.066524  1
  Si  Si6  1  0.067786  0.669007  0.850362  1
  Si  Si7  1  0.647388  0.827509  0.435007  1
  Si  Si8  1  0.434559  0.648672  0.827103  1
  Si  Si9  1  0.829935  0.433862  0.648485  1
  Si  Si10  1  0.171305  0.565434  0.355370  1
  Si  Si11  1  0.565172  0.352238  0.172775  1
  Si  Si12  1  0.350890  0.173941  0.565104  1
  Si  Si13  1  0.933210  0.330071  0.145485  1
  Si  Si14  1  0.327346  0.150577  0.933198  1
  Si  Si15  1  0.148955  0.933097  0.328592  1
  Ru  Ru16  1  0.076030  0.425807  0.748919  1
  Rh  Rh17  1  0.251327  0.926656  0.571243  1
  Rh  Rh18  1  0.571836  0.250602  0.927291  1
  Rh  Rh19  1  0.926026  0.572418  0.251029  1
  Rh  Rh20  1  0.428215  0.749596  0.072883  1
  Rh  Rh21  1  0.748530  0.073242  0.428560  1
