# generated using pymatgen
data_Sr2ErTm(ZnSn)4
_symmetry_space_group_name_H-M   'P 1'
_cell_length_a   4.52321600
_cell_length_b   4.52321603
_cell_length_c   17.51783100
_cell_angle_alpha   90.00000000
_cell_angle_beta   90.00000000
_cell_angle_gamma   119.99999976
_symmetry_Int_Tables_number   1
_chemical_formula_structural   Sr2ErTm(ZnSn)4
_chemical_formula_sum   'Sr2 Er1 Tm1 Zn4 Sn4'
_cell_volume   310.38850051
_cell_formula_units_Z   1
loop_
 _symmetry_equiv_pos_site_id
 _symmetry_equiv_pos_as_xyz
  1  'x, y, z'
loop_
 _atom_site_type_symbol
 _atom_site_label
 _atom_site_symmetry_multiplicity
 _atom_site_fract_x
 _atom_site_fract_y
 _atom_site_fract_z
 _atom_site_occupancy
  Sr  Sr0  1  0.000000  0.000000  0.999830  1
  Sr  Sr1  1  0.000000  0.000000  0.500170  1
  Er  Er2  1  0.000000  0.000000  0.250000  1
  Tm  Tm3  1  0.000000  0.000000  0.750000  1
  Zn  Zn4  1  0.333333  0.666667  0.166367  1
  Zn  Zn5  1  0.666667  0.333333  0.832980  1
  Zn  Zn6  1  0.666667  0.333333  0.667020  1
  Zn  Zn7  1  0.333333  0.666667  0.333633  1
  Sn  Sn8  1  0.333333  0.666667  0.626844  1
  Sn  Sn9  1  0.666667  0.333333  0.373310  1
  Sn  Sn10  1  0.666667  0.333333  0.126690  1
  Sn  Sn11  1  0.333333  0.666667  0.873156  1
