# generated using pymatgen
data_TbPr4Si2Hg
_symmetry_space_group_name_H-M   'P 1'
_cell_length_a   7.72668480
_cell_length_b   7.72668451
_cell_length_c   9.39275086
_cell_angle_alpha   114.28722534
_cell_angle_beta   114.28722387
_cell_angle_gamma   90.00000715
_symmetry_Int_Tables_number   1
_chemical_formula_structural   TbPr4Si2Hg
_chemical_formula_sum   'Tb2 Pr8 Si4 Hg2'
_cell_volume   456.13364971
_cell_formula_units_Z   2
loop_
 _symmetry_equiv_pos_site_id
 _symmetry_equiv_pos_as_xyz
  1  'x, y, z'
loop_
 _atom_site_type_symbol
 _atom_site_label
 _atom_site_symmetry_multiplicity
 _atom_site_fract_x
 _atom_site_fract_y
 _atom_site_fract_z
 _atom_site_occupancy
  Tb  Tb0  1  0.500000  0.500000  0.000000  1
  Tb  Tb1  1  0.000000  0.000000  0.000000  1
  Pr  Pr2  1  0.962745  0.814270  0.277016  1
  Pr  Pr3  1  0.314270  0.462745  0.277016  1
  Pr  Pr4  1  0.814270  0.314270  0.277016  1
  Pr  Pr5  1  0.462745  0.962745  0.277016  1
  Pr  Pr6  1  0.037255  0.185730  0.722984  1
  Pr  Pr7  1  0.685730  0.537255  0.722984  1
  Pr  Pr8  1  0.185730  0.685730  0.722984  1
  Pr  Pr9  1  0.537255  0.037255  0.722984  1
  Si  Si10  1  0.618062  0.881938  0.000000  1
  Si  Si11  1  0.381938  0.118062  0.000000  1
  Si  Si12  1  0.881938  0.381938  0.000000  1
  Si  Si13  1  0.118062  0.618062  0.000000  1
  Hg  Hg14  1  0.750000  0.750000  0.500000  1
  Hg  Hg15  1  0.250000  0.250000  0.500000  1
