# generated using pymatgen
data_Ce3Ho2(In2Pt)2
_symmetry_space_group_name_H-M   'P 1'
_cell_length_a   8.05478400
_cell_length_b   18.69267800
_cell_length_c   3.65032000
_cell_angle_alpha   90.00000000
_cell_angle_beta   90.00000000
_cell_angle_gamma   90.00000000
_symmetry_Int_Tables_number   1
_chemical_formula_structural   Ce3Ho2(In2Pt)2
_chemical_formula_sum   'Ce6 Ho4 In8 Pt4'
_cell_volume   549.61219636
_cell_formula_units_Z   2
loop_
 _symmetry_equiv_pos_site_id
 _symmetry_equiv_pos_as_xyz
  1  'x, y, z'
loop_
 _atom_site_type_symbol
 _atom_site_label
 _atom_site_symmetry_multiplicity
 _atom_site_fract_x
 _atom_site_fract_y
 _atom_site_fract_z
 _atom_site_occupancy
  Ce  Ce0  1  0.000000  0.000000  0.000000  1
  Ce  Ce1  1  0.500001  0.500000  0.000000  1
  Ce  Ce2  1  0.133868  0.420924  0.000000  1
  Ce  Ce3  1  0.866132  0.579077  0.000000  1
  Ce  Ce4  1  0.633869  0.079076  0.000000  1
  Ce  Ce5  1  0.366131  0.920924  0.000000  1
  Ho  Ho6  1  0.251236  0.223265  0.000000  1
  Ho  Ho7  1  0.748764  0.776734  0.000000  1
  Ho  Ho8  1  0.751237  0.276734  0.000000  1
  Ho  Ho9  1  0.248763  0.723266  0.000000  1
  In  In10  1  0.292293  0.074811  0.500002  1
  In  In11  1  0.707708  0.925188  0.500002  1
  In  In12  1  0.792293  0.425188  0.500002  1
  In  In13  1  0.207708  0.574812  0.500002  1
  In  In14  1  0.437115  0.347746  0.500002  1
  In  In15  1  0.562883  0.652254  0.500002  1
  In  In16  1  0.937116  0.152254  0.500002  1
  In  In17  1  0.062884  0.847746  0.500002  1
  Pt  Pt18  1  0.033647  0.305739  0.500002  1
  Pt  Pt19  1  0.966353  0.694261  0.500002  1
  Pt  Pt20  1  0.533646  0.194261  0.500002  1
  Pt  Pt21  1  0.466353  0.805739  0.500002  1
