# generated using pymatgen
data_Ho3Al12TcRh3
_symmetry_space_group_name_H-M   'P 1'
_cell_length_a   8.84950000
_cell_length_b   8.84949880
_cell_length_c   9.55531800
_cell_angle_alpha   90.00000000
_cell_angle_beta   90.00000000
_cell_angle_gamma   119.99999702
_symmetry_Int_Tables_number   1
_chemical_formula_structural   Ho3Al12TcRh3
_chemical_formula_sum   'Ho6 Al24 Tc2 Rh6'
_cell_volume   648.05698780
_cell_formula_units_Z   2
loop_
 _symmetry_equiv_pos_site_id
 _symmetry_equiv_pos_as_xyz
  1  'x, y, z'
loop_
 _atom_site_type_symbol
 _atom_site_label
 _atom_site_symmetry_multiplicity
 _atom_site_fract_x
 _atom_site_fract_y
 _atom_site_fract_z
 _atom_site_occupancy
  Ho  Ho0  1  0.191705  0.808295  0.250000  1
  Ho  Ho1  1  0.191705  0.383412  0.250000  1
  Ho  Ho2  1  0.616588  0.808295  0.250000  1
  Ho  Ho3  1  0.808295  0.191705  0.750000  1
  Ho  Ho4  1  0.808295  0.616588  0.750000  1
  Ho  Ho5  1  0.383412  0.191705  0.750000  1
  Al  Al6  1  0.562715  0.437285  0.250000  1
  Al  Al7  1  0.562715  0.125428  0.250000  1
  Al  Al8  1  0.874572  0.437285  0.250000  1
  Al  Al9  1  0.437285  0.562715  0.750000  1
  Al  Al10  1  0.437285  0.874572  0.750000  1
  Al  Al11  1  0.125428  0.562715  0.750000  1
  Al  Al12  1  0.326279  0.163140  0.424372  1
  Al  Al13  1  0.836860  0.163140  0.424372  1
  Al  Al14  1  0.836860  0.673721  0.424372  1
  Al  Al15  1  0.673721  0.836860  0.575628  1
  Al  Al16  1  0.163140  0.836860  0.575628  1
  Al  Al17  1  0.163140  0.326279  0.575628  1
  Al  Al18  1  0.673721  0.836860  0.924372  1
  Al  Al19  1  0.163140  0.836860  0.924372  1
  Al  Al20  1  0.163140  0.326279  0.924372  1
  Al  Al21  1  0.326279  0.163140  0.075628  1
  Al  Al22  1  0.836860  0.163140  0.075628  1
  Al  Al23  1  0.836860  0.673721  0.075628  1
  Al  Al24  1  0.666667  0.333333  0.528122  1
  Al  Al25  1  0.333333  0.666667  0.471878  1
  Al  Al26  1  0.333333  0.666667  0.028122  1
  Al  Al27  1  0.666667  0.333333  0.971878  1
  Al  Al28  1  0.000000  0.000000  0.250000  1
  Al  Al29  1  0.000000  0.000000  0.750000  1
  Tc  Tc30  1  0.000000  0.000000  0.500000  1
  Tc  Tc31  1  0.000000  0.000000  0.000000  1
  Rh  Rh32  1  0.500000  0.500000  0.500000  1
  Rh  Rh33  1  0.500000  0.000000  0.500000  1
  Rh  Rh34  1  0.000000  0.500000  0.500000  1
  Rh  Rh35  1  0.500000  0.500000  0.000000  1
  Rh  Rh36  1  0.500000  0.000000  0.000000  1
  Rh  Rh37  1  0.000000  0.500000  0.000000  1
