# generated using pymatgen
data_NdSmSi3(AsRh3)4
_symmetry_space_group_name_H-M   'P 1'
_cell_length_a   9.93474100
_cell_length_b   9.93474118
_cell_length_c   3.92528100
_cell_angle_alpha   90.00000000
_cell_angle_beta   90.00000000
_cell_angle_gamma   120.00000275
_symmetry_Int_Tables_number   1
_chemical_formula_structural   NdSmSi3(AsRh3)4
_chemical_formula_sum   'Nd1 Sm1 Si3 As4 Rh12'
_cell_volume   335.51696023
_cell_formula_units_Z   1
loop_
 _symmetry_equiv_pos_site_id
 _symmetry_equiv_pos_as_xyz
  1  'x, y, z'
loop_
 _atom_site_type_symbol
 _atom_site_label
 _atom_site_symmetry_multiplicity
 _atom_site_fract_x
 _atom_site_fract_y
 _atom_site_fract_z
 _atom_site_occupancy
  Nd  Nd0  1  0.333333  0.666667  0.244736  1
  Sm  Sm1  1  0.666667  0.333333  0.743571  1
  Si  Si2  1  0.402138  0.111325  0.242701  1
  Si  Si3  1  0.709187  0.597862  0.242701  1
  Si  Si4  1  0.888675  0.290813  0.242701  1
  As  As5  1  0.000000  0.000000  0.628912  1
  As  As6  1  0.598086  0.884890  0.745466  1
  As  As7  1  0.286802  0.401914  0.745466  1
  As  As8  1  0.115110  0.713198  0.745466  1
  Rh  Rh9  1  0.447705  0.379278  0.242417  1
  Rh  Rh10  1  0.931573  0.552295  0.242417  1
  Rh  Rh11  1  0.620722  0.068427  0.242417  1
  Rh  Rh12  1  0.560257  0.615173  0.744614  1
  Rh  Rh13  1  0.054916  0.439743  0.744614  1
  Rh  Rh14  1  0.384827  0.945084  0.744614  1
  Rh  Rh15  1  0.145803  0.888187  0.244614  1
  Rh  Rh16  1  0.742384  0.854197  0.244614  1
  Rh  Rh17  1  0.111813  0.257616  0.244614  1
  Rh  Rh18  1  0.849054  0.124793  0.741114  1
  Rh  Rh19  1  0.275739  0.150946  0.741114  1
  Rh  Rh20  1  0.875207  0.724261  0.741114  1
