# generated using pymatgen
data_Tb3Nd2S7
_symmetry_space_group_name_H-M   'P 1'
_cell_length_a   6.72623381
_cell_length_b   6.72623389
_cell_length_c   11.98521200
_cell_angle_alpha   75.82923028
_cell_angle_beta   75.82923009
_cell_angle_gamma   34.02150681
_symmetry_Int_Tables_number   1
_chemical_formula_structural   Tb3Nd2S7
_chemical_formula_sum   'Tb3 Nd2 S7'
_cell_volume   293.27333439
_cell_formula_units_Z   1
loop_
 _symmetry_equiv_pos_site_id
 _symmetry_equiv_pos_as_xyz
  1  'x, y, z'
loop_
 _atom_site_type_symbol
 _atom_site_label
 _atom_site_symmetry_multiplicity
 _atom_site_fract_x
 _atom_site_fract_y
 _atom_site_fract_z
 _atom_site_occupancy
  Tb  Tb0  1  0.111887  0.111887  0.576317  1
  Tb  Tb1  1  0.888113  0.888113  0.423683  1
  Tb  Tb2  1  0.000000  0.000000  0.000000  1
  Nd  Nd3  1  0.301566  0.301566  0.808820  1
  Nd  Nd4  1  0.698434  0.698434  0.191180  1
  S  S5  1  0.261328  0.261328  0.356918  1
  S  S6  1  0.738672  0.738672  0.643082  1
  S  S7  1  0.966306  0.966306  0.784809  1
  S  S8  1  0.033694  0.033694  0.215191  1
  S  S9  1  0.657048  0.657048  0.949570  1
  S  S10  1  0.500000  0.500000  0.500000  1
  S  S11  1  0.342952  0.342952  0.050430  1
