# generated using pymatgen
data_YbYZr(Si3Pd10)2
_symmetry_space_group_name_H-M   'P 1'
_cell_length_a   8.69050203
_cell_length_b   8.69110424
_cell_length_c   8.69033000
_cell_angle_alpha   60.00652080
_cell_angle_beta   59.99235915
_cell_angle_gamma   60.00251569
_symmetry_Int_Tables_number   1
_chemical_formula_structural   YbYZr(Si3Pd10)2
_chemical_formula_sum   'Yb1 Y1 Zr1 Si6 Pd20'
_cell_volume   464.13643400
_cell_formula_units_Z   1
loop_
 _symmetry_equiv_pos_site_id
 _symmetry_equiv_pos_as_xyz
  1  'x, y, z'
loop_
 _atom_site_type_symbol
 _atom_site_label
 _atom_site_symmetry_multiplicity
 _atom_site_fract_x
 _atom_site_fract_y
 _atom_site_fract_z
 _atom_site_occupancy
  Yb  Yb0  1  0.749993  0.750008  0.749991  1
  Y  Y1  1  0.250004  0.249995  0.250005  1
  Zr  Zr2  1  0.000000  0.000000  0.000005  1
  Si  Si3  1  0.731475  0.268496  0.268533  1
  Si  Si4  1  0.268523  0.731506  0.731467  1
  Si  Si5  1  0.268507  0.731497  0.268512  1
  Si  Si6  1  0.731494  0.268503  0.731490  1
  Si  Si7  1  0.268523  0.268493  0.731479  1
  Si  Si8  1  0.731476  0.731509  0.268520  1
  Pd  Pd9  1  0.383717  0.383724  0.383698  1
  Pd  Pd10  1  0.616859  0.616861  0.616867  1
  Pd  Pd11  1  0.383693  0.383739  0.848862  1
  Pd  Pd12  1  0.383701  0.848866  0.383724  1
  Pd  Pd13  1  0.616877  0.616839  0.149410  1
  Pd  Pd14  1  0.616867  0.149411  0.616849  1
  Pd  Pd15  1  0.848871  0.383719  0.383699  1
  Pd  Pd16  1  0.149403  0.616861  0.616884  1
  Pd  Pd17  1  0.342137  0.000395  0.000412  1
  Pd  Pd18  1  0.657076  0.000393  0.000384  1
  Pd  Pd19  1  0.000386  0.342189  0.657024  1
  Pd  Pd20  1  0.000406  0.657012  0.342188  1
  Pd  Pd21  1  0.000400  0.342163  0.000416  1
  Pd  Pd22  1  0.657057  0.000412  0.342137  1
  Pd  Pd23  1  0.000394  0.657041  0.000371  1
  Pd  Pd24  1  0.342154  0.000373  0.657078  1
  Pd  Pd25  1  0.000411  0.000414  0.342127  1
  Pd  Pd26  1  0.000386  0.000371  0.657074  1
  Pd  Pd27  1  0.657030  0.342165  0.000408  1
  Pd  Pd28  1  0.342183  0.657041  0.000386  1
