# generated using pymatgen
data_VH5F9
_symmetry_space_group_name_H-M   'P 1'
_cell_length_a   6.50076362
_cell_length_b   5.61754499
_cell_length_c   7.10569705
_cell_angle_alpha   58.69251475
_cell_angle_beta   67.71192514
_cell_angle_gamma   86.41738423
_symmetry_Int_Tables_number   1
_chemical_formula_structural   VH5F9
_chemical_formula_sum   'V1 H5 F9'
_cell_volume   202.14582477
_cell_formula_units_Z   1
loop_
 _symmetry_equiv_pos_site_id
 _symmetry_equiv_pos_as_xyz
  1  'x, y, z'
loop_
 _atom_site_type_symbol
 _atom_site_label
 _atom_site_symmetry_multiplicity
 _atom_site_fract_x
 _atom_site_fract_y
 _atom_site_fract_z
 _atom_site_occupancy
  V  V0  1  0.594471  0.209894  0.812363  1
  H  H1  1  0.357662  0.053111  0.608532  1
  H  H2  1  0.207354  0.913293  0.234065  1
  H  H3  1  0.164986  0.704252  0.750114  1
  H  H4  1  0.927916  0.355743  0.915276  1
  H  H5  1  0.902548  0.728765  0.417777  1
  F  F6  1  0.398468  0.894162  0.123002  1
  F  F7  1  0.037512  0.927696  0.333069  1
  F  F8  1  0.838620  0.187960  0.937730  1
  F  F9  1  0.744719  0.986236  0.723928  1
  F  F10  1  0.490293  0.443398  0.910672  1
  F  F11  1  0.332965  0.919809  0.560705  1
  F  F12  1  0.780724  0.541698  0.488903  1
  F  F13  1  0.380170  0.222205  0.689073  1
  F  F14  1  0.037061  0.550629  0.904103  1
