# generated using pymatgen
data_LiTbMo3P7Rh9
_symmetry_space_group_name_H-M   'P 1'
_cell_length_a   3.93542267
_cell_length_b   9.49512315
_cell_length_c   9.49262777
_cell_angle_alpha   120.03024633
_cell_angle_beta   89.98961956
_cell_angle_gamma   90.01375124
_symmetry_Int_Tables_number   1
_chemical_formula_structural   LiTbMo3P7Rh9
_chemical_formula_sum   'Li1 Tb1 Mo3 P7 Rh9'
_cell_volume   307.09773203
_cell_formula_units_Z   1
loop_
 _symmetry_equiv_pos_site_id
 _symmetry_equiv_pos_as_xyz
  1  'x, y, z'
loop_
 _atom_site_type_symbol
 _atom_site_label
 _atom_site_symmetry_multiplicity
 _atom_site_fract_x
 _atom_site_fract_y
 _atom_site_fract_z
 _atom_site_occupancy
  Li  Li0  1  0.261560  0.666673  0.333377  1
  Tb  Tb1  1  0.761951  0.333348  0.666636  1
  Mo  Mo2  1  0.762012  0.087179  0.873439  1
  Mo  Mo3  1  0.761851  0.126511  0.213673  1
  Mo  Mo4  1  0.761922  0.786200  0.912773  1
  P  P5  1  0.261853  0.000092  0.000112  1
  P  P6  1  0.761978  0.876027  0.591612  1
  P  P7  1  0.761942  0.408174  0.284389  1
  P  P8  1  0.761892  0.715626  0.123838  1
  P  P9  1  0.261915  0.114782  0.414759  1
  P  P10  1  0.261897  0.585347  0.700065  1
  P  P11  1  0.261844  0.300013  0.885316  1
  Rh  Rh12  1  0.261899  0.885353  0.161451  1
  Rh  Rh13  1  0.261972  0.838411  0.723786  1
  Rh  Rh14  1  0.261938  0.276296  0.114688  1
  Rh  Rh15  1  0.761969  0.606530  0.558330  1
  Rh  Rh16  1  0.761973  0.441782  0.048290  1
  Rh  Rh17  1  0.761814  0.951947  0.393533  1
  Rh  Rh18  1  0.261895  0.363840  0.434542  1
  Rh  Rh19  1  0.262016  0.565405  0.929428  1
  Rh  Rh20  1  0.261908  0.070463  0.635963  1
