# generated using pymatgen
data_Tb8DyEr11Pb16
_symmetry_space_group_name_H-M   'P 1'
_cell_length_a   8.18474414
_cell_length_b   8.26512838
_cell_length_c   15.59204700
_cell_angle_alpha   90.00347643
_cell_angle_beta   90.01112674
_cell_angle_gamma   90.05738433
_symmetry_Int_Tables_number   1
_chemical_formula_structural   Tb8DyEr11Pb16
_chemical_formula_sum   'Tb8 Dy1 Er11 Pb16'
_cell_volume   1054.76963832
_cell_formula_units_Z   1
loop_
 _symmetry_equiv_pos_site_id
 _symmetry_equiv_pos_as_xyz
  1  'x, y, z'
loop_
 _atom_site_type_symbol
 _atom_site_label
 _atom_site_symmetry_multiplicity
 _atom_site_fract_x
 _atom_site_fract_y
 _atom_site_fract_z
 _atom_site_occupancy
  Tb  Tb0  1  0.534342  0.322722  0.900160  1
  Tb  Tb1  1  0.034536  0.177001  0.599745  1
  Tb  Tb2  1  0.465567  0.677056  0.400095  1
  Tb  Tb3  1  0.965499  0.823256  0.100289  1
  Tb  Tb4  1  0.465762  0.676859  0.099939  1
  Tb  Tb5  1  0.965482  0.823000  0.400077  1
  Tb  Tb6  1  0.534337  0.322866  0.599830  1
  Tb  Tb7  1  0.034501  0.176811  0.900026  1
  Dy  Dy8  1  0.876725  0.659445  0.879455  1
  Er  Er9  1  0.376362  0.840791  0.878967  1
  Er  Er10  1  0.876401  0.659045  0.620881  1
  Er  Er11  1  0.623647  0.159020  0.379072  1
  Er  Er12  1  0.123471  0.341048  0.120809  1
  Er  Er13  1  0.623337  0.159006  0.121224  1
  Er  Er14  1  0.123546  0.340840  0.379053  1
  Er  Er15  1  0.376600  0.840965  0.620814  1
  Er  Er16  1  0.208224  0.504452  0.749843  1
  Er  Er17  1  0.707856  0.995602  0.749782  1
  Er  Er18  1  0.791908  0.495266  0.250116  1
  Er  Er19  1  0.291877  0.004551  0.249948  1
  Pb  Pb20  1  0.282472  0.034132  0.042680  1
  Pb  Pb21  1  0.782610  0.465852  0.457299  1
  Pb  Pb22  1  0.717425  0.965871  0.542657  1
  Pb  Pb23  1  0.218885  0.533659  0.957439  1
  Pb  Pb24  1  0.716653  0.967203  0.957421  1
  Pb  Pb25  1  0.217346  0.534160  0.542662  1
  Pb  Pb26  1  0.282506  0.034199  0.457269  1
  Pb  Pb27  1  0.782242  0.465194  0.043416  1
  Pb  Pb28  1  0.571008  0.627496  0.749668  1
  Pb  Pb29  1  0.071956  0.873175  0.749549  1
  Pb  Pb30  1  0.428457  0.372528  0.250058  1
  Pb  Pb31  1  0.928667  0.127508  0.250010  1
  Pb  Pb32  1  0.345422  0.152023  0.749963  1
  Pb  Pb33  1  0.845378  0.347382  0.749737  1
  Pb  Pb34  1  0.654500  0.847828  0.250019  1
  Pb  Pb35  1  0.154492  0.652192  0.250029  1
