# generated using pymatgen
data_Nd6Al2CO
_symmetry_space_group_name_H-M   'P 1'
_cell_length_a   7.10491262
_cell_length_b   7.10491159
_cell_length_c   7.10491100
_cell_angle_alpha   59.99999807
_cell_angle_beta   60.00000289
_cell_angle_gamma   60.00000249
_symmetry_Int_Tables_number   1
_chemical_formula_structural   Nd6Al2CO
_chemical_formula_sum   'Nd6 Al2 C1 O1'
_cell_volume   253.60690536
_cell_formula_units_Z   1
loop_
 _symmetry_equiv_pos_site_id
 _symmetry_equiv_pos_as_xyz
  1  'x, y, z'
loop_
 _atom_site_type_symbol
 _atom_site_label
 _atom_site_symmetry_multiplicity
 _atom_site_fract_x
 _atom_site_fract_y
 _atom_site_fract_z
 _atom_site_occupancy
  Nd  Nd0  1  0.748826  0.251174  0.251174  1
  Nd  Nd1  1  0.748826  0.251174  0.748826  1
  Nd  Nd2  1  0.251174  0.748826  0.251174  1
  Nd  Nd3  1  0.251174  0.251174  0.748826  1
  Nd  Nd4  1  0.748826  0.748826  0.251174  1
  Nd  Nd5  1  0.251174  0.748826  0.748826  1
  Al  Al6  1  0.750000  0.750000  0.750000  1
  Al  Al7  1  0.250000  0.250000  0.250000  1
  C  C8  1  0.500000  0.500000  0.500000  1
  O  O9  1  0.000000  0.000000  0.000000  1
