# generated using pymatgen
data_Tm4PtPb2Au3
_symmetry_space_group_name_H-M   'P 1'
_cell_length_a   8.06561316
_cell_length_b   8.06561416
_cell_length_c   3.61494300
_cell_angle_alpha   90.00000000
_cell_angle_beta   90.00000000
_cell_angle_gamma   89.64680943
_symmetry_Int_Tables_number   1
_chemical_formula_structural   Tm4PtPb2Au3
_chemical_formula_sum   'Tm4 Pt1 Pb2 Au3'
_cell_volume   235.16248122
_cell_formula_units_Z   1
loop_
 _symmetry_equiv_pos_site_id
 _symmetry_equiv_pos_as_xyz
  1  'x, y, z'
loop_
 _atom_site_type_symbol
 _atom_site_label
 _atom_site_symmetry_multiplicity
 _atom_site_fract_x
 _atom_site_fract_y
 _atom_site_fract_z
 _atom_site_occupancy
  Tm  Tm0  1  0.176587  0.323413  0.000000  1
  Tm  Tm1  1  0.836142  0.663858  0.000000  1
  Tm  Tm2  1  0.651888  0.169978  0.000000  1
  Tm  Tm3  1  0.330022  0.848112  0.000000  1
  Pt  Pt4  1  0.374467  0.125533  0.500000  1
  Pb  Pb5  1  0.999083  0.001340  0.500000  1
  Pb  Pb6  1  0.498660  0.500917  0.500000  1
  Au  Au7  1  0.628325  0.871675  0.500000  1
  Au  Au8  1  0.875058  0.370233  0.500000  1
  Au  Au9  1  0.129767  0.624942  0.500000  1
