# generated using pymatgen
data_Ho6Ta5Ga11Os7
_symmetry_space_group_name_H-M   'P 1'
_cell_length_a   9.07634208
_cell_length_b   9.07634130
_cell_length_c   9.00527410
_cell_angle_alpha   59.73859105
_cell_angle_beta   59.73859079
_cell_angle_gamma   59.99999251
_symmetry_Int_Tables_number   1
_chemical_formula_structural   Ho6Ta5Ga11Os7
_chemical_formula_sum   'Ho6 Ta5 Ga11 Os7'
_cell_volume   522.48792357
_cell_formula_units_Z   1
loop_
 _symmetry_equiv_pos_site_id
 _symmetry_equiv_pos_as_xyz
  1  'x, y, z'
loop_
 _atom_site_type_symbol
 _atom_site_label
 _atom_site_symmetry_multiplicity
 _atom_site_fract_x
 _atom_site_fract_y
 _atom_site_fract_z
 _atom_site_occupancy
  Ho  Ho0  1  0.707821  0.707821  0.293916  1
  Ho  Ho1  1  0.290441  0.707821  0.293916  1
  Ho  Ho2  1  0.707821  0.290441  0.293916  1
  Ho  Ho3  1  0.297329  0.297329  0.710682  1
  Ho  Ho4  1  0.694659  0.297329  0.710682  1
  Ho  Ho5  1  0.297329  0.694659  0.710682  1
  Ta  Ta6  1  0.877997  0.877997  0.366009  1
  Ta  Ta7  1  0.876139  0.368827  0.878896  1
  Ta  Ta8  1  0.368827  0.876139  0.878896  1
  Ta  Ta9  1  0.876139  0.876139  0.878896  1
  Ta  Ta10  1  0.126980  0.126980  0.619060  1
  Ga  Ga11  1  0.116139  0.647507  0.120215  1
  Ga  Ga12  1  0.647507  0.116139  0.120215  1
  Ga  Ga13  1  0.116139  0.116139  0.120215  1
  Ga  Ga14  1  0.661992  0.661992  0.014026  1
  Ga  Ga15  1  0.663003  0.012659  0.661335  1
  Ga  Ga16  1  0.012659  0.663003  0.661335  1
  Ga  Ga17  1  0.663003  0.663003  0.661335  1
  Ga  Ga18  1  0.333051  0.333051  0.000846  1
  Ga  Ga19  1  0.337532  0.992218  0.332716  1
  Ga  Ga20  1  0.992218  0.337532  0.332716  1
  Ga  Ga21  1  0.337532  0.337532  0.332716  1
  Os  Os22  1  0.006384  0.006384  0.980848  1
  Os  Os23  1  0.997873  0.997873  0.509078  1
  Os  Os24  1  0.495178  0.997873  0.509078  1
  Os  Os25  1  0.997873  0.495178  0.509078  1
  Os  Os26  1  0.502842  0.502842  0.999567  1
  Os  Os27  1  0.994750  0.502842  0.999567  1
  Os  Os28  1  0.502842  0.994750  0.999567  1
