# generated using pymatgen
data_Ca20Tl3Zn8In
_symmetry_space_group_name_H-M   'P 1'
_cell_length_a   8.05822500
_cell_length_b   8.05822500
_cell_length_c   15.11959300
_cell_angle_alpha   90.00000000
_cell_angle_beta   90.00000000
_cell_angle_gamma   90.00000000
_symmetry_Int_Tables_number   1
_chemical_formula_structural   Ca20Tl3Zn8In
_chemical_formula_sum   'Ca20 Tl3 Zn8 In1'
_cell_volume   981.79062254
_cell_formula_units_Z   1
loop_
 _symmetry_equiv_pos_site_id
 _symmetry_equiv_pos_as_xyz
  1  'x, y, z'
loop_
 _atom_site_type_symbol
 _atom_site_label
 _atom_site_symmetry_multiplicity
 _atom_site_fract_x
 _atom_site_fract_y
 _atom_site_fract_z
 _atom_site_occupancy
  Ca  Ca0  1  0.671550  0.168416  0.102974  1
  Ca  Ca1  1  0.170847  0.670671  0.604772  1
  Ca  Ca2  1  0.328450  0.831584  0.102974  1
  Ca  Ca3  1  0.829153  0.329329  0.604772  1
  Ca  Ca4  1  0.831584  0.671550  0.102974  1
  Ca  Ca5  1  0.329329  0.170847  0.604772  1
  Ca  Ca6  1  0.168416  0.328450  0.102974  1
  Ca  Ca7  1  0.670671  0.829153  0.604772  1
  Ca  Ca8  1  0.831584  0.328450  0.897026  1
  Ca  Ca9  1  0.329329  0.829153  0.395228  1
  Ca  Ca10  1  0.168416  0.671550  0.897026  1
  Ca  Ca11  1  0.670671  0.170847  0.395228  1
  Ca  Ca12  1  0.671550  0.831584  0.897026  1
  Ca  Ca13  1  0.170847  0.329329  0.395228  1
  Ca  Ca14  1  0.328450  0.168416  0.897026  1
  Ca  Ca15  1  0.829153  0.670671  0.395228  1
  Ca  Ca16  1  0.500000  0.500000  0.753972  1
  Ca  Ca17  1  0.000000  0.000000  0.248493  1
  Ca  Ca18  1  0.000000  0.000000  0.751507  1
  Ca  Ca19  1  0.500000  0.500000  0.246028  1
  Tl  Tl20  1  0.500000  0.500000  0.500000  1
  Tl  Tl21  1  0.500000  0.500000  0.000000  1
  Tl  Tl22  1  0.000000  0.000000  0.500000  1
  Zn  Zn23  1  0.615603  0.116106  0.750707  1
  Zn  Zn24  1  0.116106  0.615603  0.249293  1
  Zn  Zn25  1  0.883894  0.384397  0.249293  1
  Zn  Zn26  1  0.384397  0.883894  0.750707  1
  Zn  Zn27  1  0.883894  0.615603  0.750707  1
  Zn  Zn28  1  0.384397  0.116106  0.249293  1
  Zn  Zn29  1  0.116106  0.384397  0.750707  1
  Zn  Zn30  1  0.615603  0.883894  0.249293  1
  In  In31  1  0.000000  0.000000  0.000000  1
