# generated using pymatgen
data_Y3Ho(Si2Os)2
_symmetry_space_group_name_H-M   'P 1'
_cell_length_a   5.74094730
_cell_length_b   5.74094700
_cell_length_c   10.04743583
_cell_angle_alpha   116.81879447
_cell_angle_beta   116.81879211
_cell_angle_gamma   43.26375768
_symmetry_Int_Tables_number   1
_chemical_formula_structural   Y3Ho(Si2Os)2
_chemical_formula_sum   'Y3 Ho1 Si4 Os2'
_cell_volume   198.43090479
_cell_formula_units_Z   1
loop_
 _symmetry_equiv_pos_site_id
 _symmetry_equiv_pos_as_xyz
  1  'x, y, z'
loop_
 _atom_site_type_symbol
 _atom_site_label
 _atom_site_symmetry_multiplicity
 _atom_site_fract_x
 _atom_site_fract_y
 _atom_site_fract_z
 _atom_site_occupancy
  Y  Y0  1  0.008008  0.008008  0.178855  1
  Y  Y1  1  0.814503  0.814503  0.389236  1
  Y  Y2  1  0.185737  0.185737  0.611233  1
  Ho  Ho3  1  0.992853  0.992853  0.821932  1
  Si  Si4  1  0.644632  0.644632  0.060302  1
  Si  Si5  1  0.502961  0.502961  0.375414  1
  Si  Si6  1  0.496558  0.496558  0.625057  1
  Si  Si7  1  0.355267  0.355267  0.938932  1
  Os  Os8  1  0.270536  0.270536  0.126262  1
  Os  Os9  1  0.728947  0.728947  0.872780  1
