# generated using pymatgen
data_Yb4DyP12Ru15Rh4
_symmetry_space_group_name_H-M   'P 1'
_cell_length_a   12.61381200
_cell_length_b   12.57140642
_cell_length_c   3.97741800
_cell_angle_alpha   90.00000000
_cell_angle_beta   90.00000000
_cell_angle_gamma   120.19680869
_symmetry_Int_Tables_number   1
_chemical_formula_structural   Yb4DyP12Ru15Rh4
_chemical_formula_sum   'Yb4 Dy1 P12 Ru15 Rh4'
_cell_volume   545.12661302
_cell_formula_units_Z   1
loop_
 _symmetry_equiv_pos_site_id
 _symmetry_equiv_pos_as_xyz
  1  'x, y, z'
loop_
 _atom_site_type_symbol
 _atom_site_label
 _atom_site_symmetry_multiplicity
 _atom_site_fract_x
 _atom_site_fract_y
 _atom_site_fract_z
 _atom_site_occupancy
  Yb  Yb0  1  0.665973  0.332728  0.000000  1
  Yb  Yb1  1  0.334036  0.667230  0.000000  1
  Yb  Yb2  1  0.816270  0.999811  0.500000  1
  Yb  Yb3  1  0.182482  0.182645  0.500000  1
  Dy  Dy4  1  0.000364  0.819138  0.500000  1
  P  P5  1  0.625618  0.994514  0.000000  1
  P  P6  1  0.367701  0.373168  0.000000  1
  P  P7  1  0.001222  0.633300  0.000000  1
  P  P8  1  0.693232  0.523982  0.500000  1
  P  P9  1  0.831677  0.306712  0.500000  1
  P  P10  1  0.311480  0.833195  0.500000  1
  P  P11  1  0.523554  0.693342  0.500000  1
  P  P12  1  0.182976  0.999118  0.000000  1
  P  P13  1  0.816689  0.815590  0.000000  1
  P  P14  1  0.997500  0.184699  0.000000  1
  P  P15  1  0.473613  0.168055  0.500000  1
  P  P16  1  0.172768  0.475557  0.500000  1
  Ru  Ru17  1  0.622095  0.803907  0.000000  1
  Ru  Ru18  1  0.182481  0.378796  0.000000  1
  Ru  Ru19  1  0.376400  0.186129  0.000000  1
  Ru  Ru20  1  0.194501  0.814826  0.000000  1
  Ru  Ru21  1  0.808067  0.621988  0.000000  1
  Ru  Ru22  1  0.366763  0.489755  0.500000  1
  Ru  Ru23  1  0.512011  0.875762  0.500000  1
  Ru  Ru24  1  0.999588  0.999884  0.000000  1
  Ru  Ru25  1  0.717775  0.715942  0.500000  1
  Ru  Ru26  1  0.999140  0.283337  0.500000  1
  Ru  Ru27  1  0.447885  0.002683  0.000000  1
  Ru  Ru28  1  0.555080  0.550005  0.000000  1
  Ru  Ru29  1  0.996967  0.448431  0.000000  1
  Ru  Ru30  1  0.811913  0.191599  0.000000  1
  Ru  Ru31  1  0.282028  0.998346  0.500000  1
  Rh  Rh32  1  0.871381  0.506929  0.500000  1
  Rh  Rh33  1  0.494187  0.364106  0.500000  1
  Rh  Rh34  1  0.634504  0.130216  0.500000  1
  Rh  Rh35  1  0.130079  0.634570  0.500000  1
