# generated using pymatgen
data_La6Zn4Pd9Pt4
_symmetry_space_group_name_H-M   'P 1'
_cell_length_a   8.47056231
_cell_length_b   8.47056243
_cell_length_c   8.45304200
_cell_angle_alpha   109.42932881
_cell_angle_beta   109.42932910
_cell_angle_gamma   109.51308275
_symmetry_Int_Tables_number   1
_chemical_formula_structural   La6Zn4Pd9Pt4
_chemical_formula_sum   'La6 Zn4 Pd9 Pt4'
_cell_volume   467.13227896
_cell_formula_units_Z   1
loop_
 _symmetry_equiv_pos_site_id
 _symmetry_equiv_pos_as_xyz
  1  'x, y, z'
loop_
 _atom_site_type_symbol
 _atom_site_label
 _atom_site_symmetry_multiplicity
 _atom_site_fract_x
 _atom_site_fract_y
 _atom_site_fract_z
 _atom_site_occupancy
  La  La0  1  0.697825  0.697825  0.000832  1
  La  La1  1  0.302175  0.000000  0.303007  1
  La  La2  1  0.000000  0.302175  0.303007  1
  La  La3  1  0.302689  0.302689  0.999429  1
  La  La4  1  0.697311  0.000000  0.696740  1
  La  La5  1  0.000000  0.697311  0.696740  1
  Zn  Zn6  1  0.000000  0.000000  0.499668  1
  Zn  Zn7  1  0.000000  0.500180  0.000210  1
  Zn  Zn8  1  0.500180  0.000000  0.000210  1
  Zn  Zn9  1  0.499820  0.499820  0.500030  1
  Pd  Pd10  1  0.669843  0.329923  0.000068  1
  Pd  Pd11  1  0.330157  0.660081  0.330225  1
  Pd  Pd12  1  0.000000  0.330628  0.670431  1
  Pd  Pd13  1  0.329923  0.669843  0.000068  1
  Pd  Pd14  1  0.330628  0.000000  0.670431  1
  Pd  Pd15  1  0.660081  0.330157  0.330225  1
  Pd  Pd16  1  0.669372  0.669372  0.339801  1
  Pd  Pd17  1  0.670077  0.339919  0.670145  1
  Pd  Pd18  1  0.339919  0.670077  0.670145  1
  Pt  Pt19  1  0.330192  0.330192  0.659840  1
  Pt  Pt20  1  0.669808  0.000000  0.329647  1
  Pt  Pt21  1  0.000000  0.669808  0.329647  1
  Pt  Pt22  1  0.000000  0.000000  0.999456  1
