# generated using pymatgen
data_Tb2NdTh(ReB6)2
_symmetry_space_group_name_H-M   'P 1'
_cell_length_a   3.76511000
_cell_length_b   9.28561094
_cell_length_c   11.72264627
_cell_angle_alpha   89.84107338
_cell_angle_beta   90.00000000
_cell_angle_gamma   90.00000000
_symmetry_Int_Tables_number   1
_chemical_formula_structural   Tb2NdTh(ReB6)2
_chemical_formula_sum   'Tb4 Nd2 Th2 Re4 B24'
_cell_volume   409.83792247
_cell_formula_units_Z   2
loop_
 _symmetry_equiv_pos_site_id
 _symmetry_equiv_pos_as_xyz
  1  'x, y, z'
loop_
 _atom_site_type_symbol
 _atom_site_label
 _atom_site_symmetry_multiplicity
 _atom_site_fract_x
 _atom_site_fract_y
 _atom_site_fract_z
 _atom_site_occupancy
  Tb  Tb0  1  0.000000  0.943149  0.370895  1
  Tb  Tb1  1  0.000000  0.056851  0.629105  1
  Tb  Tb2  1  0.000000  0.443461  0.129766  1
  Tb  Tb3  1  0.000000  0.556539  0.870234  1
  Nd  Nd4  1  0.000000  0.324167  0.414298  1
  Nd  Nd5  1  0.000000  0.675833  0.585702  1
  Th  Th6  1  0.000000  0.822243  0.086139  1
  Th  Th7  1  0.000000  0.177757  0.913861  1
  Re  Re8  1  0.000000  0.640518  0.318934  1
  Re  Re9  1  0.000000  0.359482  0.681066  1
  Re  Re10  1  0.000000  0.137575  0.178609  1
  Re  Re11  1  0.000000  0.862425  0.821391  1
  B  B12  1  0.500000  0.555266  0.430789  1
  B  B13  1  0.500000  0.444734  0.569211  1
  B  B14  1  0.500000  0.055509  0.069988  1
  B  B15  1  0.500000  0.944491  0.930012  1
  B  B16  1  0.500000  0.748663  0.416639  1
  B  B17  1  0.500000  0.251337  0.583361  1
  B  B18  1  0.500000  0.248845  0.083934  1
  B  B19  1  0.500000  0.751155  0.916066  1
  B  B20  1  0.500000  0.790660  0.266711  1
  B  B21  1  0.500000  0.209340  0.733289  1
  B  B22  1  0.500000  0.290464  0.233302  1
  B  B23  1  0.500000  0.709536  0.766698  1
  B  B24  1  0.500000  0.631095  0.186938  1
  B  B25  1  0.500000  0.368905  0.813062  1
  B  B26  1  0.500000  0.130557  0.313347  1
  B  B27  1  0.500000  0.869443  0.686653  1
  B  B28  1  0.500000  0.985571  0.213517  1
  B  B29  1  0.500000  0.014429  0.786483  1
  B  B30  1  0.500000  0.485682  0.287162  1
  B  B31  1  0.500000  0.514318  0.712838  1
  B  B32  1  0.500000  0.602260  0.028283  1
  B  B33  1  0.500000  0.397740  0.971717  1
  B  B34  1  0.500000  0.099161  0.472387  1
  B  B35  1  0.500000  0.900839  0.527613  1
