# generated using pymatgen
data_Yb3PdPt2Pb3
_symmetry_space_group_name_H-M   'P 1'
_cell_length_a   7.76603500
_cell_length_b   7.76603610
_cell_length_c   4.02885100
_cell_angle_alpha   90.00000000
_cell_angle_beta   90.00000000
_cell_angle_gamma   120.00000810
_symmetry_Int_Tables_number   1
_chemical_formula_structural   Yb3PdPt2Pb3
_chemical_formula_sum   'Yb3 Pd1 Pt2 Pb3'
_cell_volume   210.43140302
_cell_formula_units_Z   1
loop_
 _symmetry_equiv_pos_site_id
 _symmetry_equiv_pos_as_xyz
  1  'x, y, z'
loop_
 _atom_site_type_symbol
 _atom_site_label
 _atom_site_symmetry_multiplicity
 _atom_site_fract_x
 _atom_site_fract_y
 _atom_site_fract_z
 _atom_site_occupancy
  Yb  Yb0  1  0.406289  0.406289  0.500000  1
  Yb  Yb1  1  0.593711  0.000000  0.500000  1
  Yb  Yb2  1  0.000000  0.593711  0.500000  1
  Pd  Pd3  1  0.000000  0.000000  0.500000  1
  Pt  Pt4  1  0.666667  0.333333  0.000000  1
  Pt  Pt5  1  0.333333  0.666667  0.000000  1
  Pb  Pb6  1  0.736120  0.736120  0.000000  1
  Pb  Pb7  1  0.263880  0.000000  0.000000  1
  Pb  Pb8  1  0.000000  0.263880  0.000000  1
