# generated using pymatgen
data_LaNpN3
_symmetry_space_group_name_H-M   'P 1'
_cell_length_a   5.98605500
_cell_length_b   5.94793200
_cell_length_c   8.42970700
_cell_angle_alpha   90.00000000
_cell_angle_beta   90.00000000
_cell_angle_gamma   90.00000000
_symmetry_Int_Tables_number   1
_chemical_formula_structural   LaNpN3
_chemical_formula_sum   'La4 Np4 N12'
_cell_volume   300.13675122
_cell_formula_units_Z   4
loop_
 _symmetry_equiv_pos_site_id
 _symmetry_equiv_pos_as_xyz
  1  'x, y, z'
loop_
 _atom_site_type_symbol
 _atom_site_label
 _atom_site_symmetry_multiplicity
 _atom_site_fract_x
 _atom_site_fract_y
 _atom_site_fract_z
 _atom_site_occupancy
  La  La0  1  0.032599  0.991593  0.250000  1
  La  La1  1  0.967401  0.008407  0.750000  1
  La  La2  1  0.532599  0.508407  0.250000  1
  La  La3  1  0.467401  0.491593  0.750000  1
  Np  Np4  1  0.500000  0.000000  0.000000  1
  Np  Np5  1  0.000000  0.500000  0.500000  1
  Np  Np6  1  0.000000  0.500000  0.000000  1
  Np  Np7  1  0.500000  0.000000  0.500000  1
  N  N8  1  0.708797  0.274911  0.951625  1
  N  N9  1  0.791203  0.774911  0.451625  1
  N  N10  1  0.791203  0.774911  0.048375  1
  N  N11  1  0.708797  0.274911  0.548375  1
  N  N12  1  0.208797  0.225089  0.951625  1
  N  N13  1  0.291203  0.725089  0.451625  1
  N  N14  1  0.021472  0.590712  0.750000  1
  N  N15  1  0.978528  0.409288  0.250000  1
  N  N16  1  0.478528  0.090712  0.250000  1
  N  N17  1  0.291203  0.725089  0.048375  1
  N  N18  1  0.208797  0.225089  0.548375  1
  N  N19  1  0.521472  0.909288  0.750000  1
