# generated using pymatgen
data_DyErHf2(Al3Ir)6
_symmetry_space_group_name_H-M   'P 1'
_cell_length_a   7.51820503
_cell_length_b   7.50298766
_cell_length_c   9.33625200
_cell_angle_alpha   90.00000000
_cell_angle_beta   90.00000000
_cell_angle_gamma   119.73379291
_symmetry_Int_Tables_number   1
_chemical_formula_structural   DyErHf2(Al3Ir)6
_chemical_formula_sum   'Dy1 Er1 Hf2 Al18 Ir6'
_cell_volume   457.30962396
_cell_formula_units_Z   1
loop_
 _symmetry_equiv_pos_site_id
 _symmetry_equiv_pos_as_xyz
  1  'x, y, z'
loop_
 _atom_site_type_symbol
 _atom_site_label
 _atom_site_symmetry_multiplicity
 _atom_site_fract_x
 _atom_site_fract_y
 _atom_site_fract_z
 _atom_site_occupancy
  Dy  Dy0  1  0.329231  0.005669  0.250000  1
  Er  Er1  1  0.670884  0.994269  0.750000  1
  Hf  Hf2  1  0.995254  0.671416  0.750000  1
  Hf  Hf3  1  0.004669  0.328592  0.250000  1
  Al  Al4  1  0.126276  0.124531  0.750000  1
  Al  Al5  1  0.873358  0.875364  0.250000  1
  Al  Al6  1  0.999719  0.336920  0.575756  1
  Al  Al7  1  0.999981  0.662795  0.424532  1
  Al  Al8  1  0.999981  0.662795  0.075468  1
  Al  Al9  1  0.332496  0.998320  0.921280  1
  Al  Al10  1  0.999719  0.336920  0.924244  1
  Al  Al11  1  0.667793  0.001656  0.078190  1
  Al  Al12  1  0.667793  0.001656  0.421810  1
  Al  Al13  1  0.332496  0.998320  0.578720  1
  Al  Al14  1  0.331292  0.333697  0.056718  1
  Al  Al15  1  0.668690  0.666567  0.942980  1
  Al  Al16  1  0.668690  0.666567  0.557020  1
  Al  Al17  1  0.331292  0.333697  0.443282  1
  Al  Al18  1  0.334674  0.548025  0.750000  1
  Al  Al19  1  0.665643  0.452380  0.250000  1
  Al  Al20  1  0.553986  0.343902  0.750000  1
  Al  Al21  1  0.446140  0.655928  0.250000  1
  Ir  Ir22  1  0.672837  0.327922  0.499698  1
  Ir  Ir23  1  0.327362  0.672127  0.500548  1
  Ir  Ir24  1  0.327362  0.672127  0.999452  1
  Ir  Ir25  1  0.672837  0.327922  0.000302  1
  Ir  Ir26  1  0.999772  0.999958  0.500155  1
  Ir  Ir27  1  0.999772  0.999958  0.999845  1
