# generated using pymatgen
data_Y4HoIrPt2
_symmetry_space_group_name_H-M   'P 1'
_cell_length_a   11.08364500
_cell_length_b   11.08364500
_cell_length_c   6.34041300
_cell_angle_alpha   90.00000000
_cell_angle_beta   90.00000000
_cell_angle_gamma   90.00000000
_symmetry_Int_Tables_number   1
_chemical_formula_structural   Y4HoIrPt2
_chemical_formula_sum   'Y16 Ho4 Ir4 Pt8'
_cell_volume   778.90189821
_cell_formula_units_Z   4
loop_
 _symmetry_equiv_pos_site_id
 _symmetry_equiv_pos_as_xyz
  1  'x, y, z'
loop_
 _atom_site_type_symbol
 _atom_site_label
 _atom_site_symmetry_multiplicity
 _atom_site_fract_x
 _atom_site_fract_y
 _atom_site_fract_z
 _atom_site_occupancy
  Y  Y0  1  0.294247  0.087476  0.374459  1
  Y  Y1  1  0.294247  0.912524  0.874459  1
  Y  Y2  1  0.705753  0.087476  0.874459  1
  Y  Y3  1  0.705753  0.912524  0.374459  1
  Y  Y4  1  0.587476  0.794247  0.874459  1
  Y  Y5  1  0.587476  0.205753  0.374459  1
  Y  Y6  1  0.412524  0.794247  0.374459  1
  Y  Y7  1  0.412524  0.205753  0.874459  1
  Y  Y8  1  0.205753  0.412524  0.625541  1
  Y  Y9  1  0.205753  0.587476  0.125541  1
  Y  Y10  1  0.794247  0.412524  0.125541  1
  Y  Y11  1  0.794247  0.587476  0.625541  1
  Y  Y12  1  0.912524  0.705753  0.125541  1
  Y  Y13  1  0.912524  0.294247  0.625541  1
  Y  Y14  1  0.087476  0.705753  0.625541  1
  Y  Y15  1  0.087476  0.294247  0.125541  1
  Ho  Ho16  1  0.000000  0.000000  0.500000  1
  Ho  Ho17  1  0.000000  0.000000  0.000000  1
  Ho  Ho18  1  0.500000  0.500000  0.000000  1
  Ho  Ho19  1  0.500000  0.500000  0.500000  1
  Ir  Ir20  1  0.500000  0.000000  0.120709  1
  Ir  Ir21  1  0.500000  0.000000  0.620709  1
  Ir  Ir22  1  0.000000  0.500000  0.879291  1
  Ir  Ir23  1  0.000000  0.500000  0.379291  1
  Pt  Pt24  1  0.846861  0.153139  0.250000  1
  Pt  Pt25  1  0.846861  0.846861  0.750000  1
  Pt  Pt26  1  0.153139  0.153139  0.750000  1
  Pt  Pt27  1  0.153139  0.846861  0.250000  1
  Pt  Pt28  1  0.653139  0.346861  0.750000  1
  Pt  Pt29  1  0.653139  0.653139  0.250000  1
  Pt  Pt30  1  0.346861  0.346861  0.250000  1
  Pt  Pt31  1  0.346861  0.653139  0.750000  1
