# generated using pymatgen
data_U3Ti(PO4)6
_symmetry_space_group_name_H-M   'P 1'
_cell_length_a   9.08204605
_cell_length_b   9.08243364
_cell_length_c   9.39518500
_cell_angle_alpha   90.08911274
_cell_angle_beta   118.79524108
_cell_angle_gamma   119.99585765
_symmetry_Int_Tables_number   1
_chemical_formula_structural   U3Ti(PO4)6
_chemical_formula_sum   'U3 Ti1 P6 O24'
_cell_volume   557.39139494
_cell_formula_units_Z   1
loop_
 _symmetry_equiv_pos_site_id
 _symmetry_equiv_pos_as_xyz
  1  'x, y, z'
loop_
 _atom_site_type_symbol
 _atom_site_label
 _atom_site_symmetry_multiplicity
 _atom_site_fract_x
 _atom_site_fract_y
 _atom_site_fract_z
 _atom_site_occupancy
  U  U0  1  0.782726  0.640478  0.423686  1
  U  U1  1  0.211003  0.356386  0.567252  1
  U  U2  1  0.784165  0.141455  0.925493  1
  Ti  Ti3  1  0.210031  0.855688  0.065664  1
  P  P4  1  0.017251  0.966499  0.243478  1
  P  P5  1  0.277076  0.551165  0.245170  1
  P  P6  1  0.276808  0.744412  0.759435  1
  P  P7  1  0.693499  0.225585  0.246133  1
  P  P8  1  0.727520  0.483844  0.759547  1
  P  P9  1  0.017980  0.033641  0.761578  1
  O  O10  1  0.272424  0.712869  0.206493  1
  O  O11  1  0.875320  0.993029  0.084292  1
  O  O12  1  0.873440  0.868184  0.597810  1
  O  O13  1  0.877852  0.802049  0.275500  1
  O  O14  1  0.149796  0.933773  0.211027  1
  O  O15  1  0.474934  0.578109  0.278751  1
  O  O16  1  0.092887  0.720898  0.591671  1
  O  O17  1  0.922457  0.646083  0.915192  1
  O  O18  1  0.271104  0.781803  0.914613  1
  O  O19  1  0.473201  0.901510  0.778017  1
  O  O20  1  0.725521  0.498191  0.593669  1
  O  O21  1  0.696183  0.395613  0.273091  1
  O  O22  1  0.267162  0.570592  0.736752  1
  O  O23  1  0.266158  0.523110  0.403497  1
  O  O24  1  0.494890  0.059296  0.210458  1
  O  O25  1  0.711167  0.209177  0.091262  1
  O  O26  1  0.092455  0.378550  0.089127  1
  O  O27  1  0.881606  0.247779  0.406691  1
  O  O28  1  0.537810  0.470372  0.730012  1
  O  O29  1  0.879776  0.075001  0.778462  1
  O  O30  1  0.165533  0.194358  0.733124  1
  O  O31  1  0.153902  0.136213  0.400414  1
  O  O32  1  0.139472  0.997299  0.920412  1
  O  O33  1  0.706892  0.306986  0.782229  1
