# generated using pymatgen
data_Pr2Sm2Y2CoBr10
_symmetry_space_group_name_H-M   'P 1'
_cell_length_a   7.47341562
_cell_length_b   9.36440782
_cell_length_c   9.43123245
_cell_angle_alpha   108.46900337
_cell_angle_beta   96.45182789
_cell_angle_gamma   104.20544447
_symmetry_Int_Tables_number   1
_chemical_formula_structural   Pr2Sm2Y2CoBr10
_chemical_formula_sum   'Pr2 Sm2 Y2 Co1 Br10'
_cell_volume   593.78506907
_cell_formula_units_Z   1
loop_
 _symmetry_equiv_pos_site_id
 _symmetry_equiv_pos_as_xyz
  1  'x, y, z'
loop_
 _atom_site_type_symbol
 _atom_site_label
 _atom_site_symmetry_multiplicity
 _atom_site_fract_x
 _atom_site_fract_y
 _atom_site_fract_z
 _atom_site_occupancy
  Pr  Pr0  1  0.465871  0.787426  0.592008  1
  Pr  Pr1  1  0.534129  0.212574  0.407992  1
  Sm  Sm2  1  0.374218  0.453367  0.746140  1
  Sm  Sm3  1  0.625782  0.546633  0.253860  1
  Y  Y4  1  0.853154  0.627918  0.674153  1
  Y  Y5  1  0.146846  0.372082  0.325847  1
  Co  Co6  1  0.500000  0.500000  0.500000  1
  Br  Br7  1  0.412043  0.135102  0.675955  1
  Br  Br8  1  0.587957  0.864898  0.324045  1
  Br  Br9  1  0.042025  0.674971  0.416946  1
  Br  Br10  1  0.957975  0.325029  0.583054  1
  Br  Br11  1  0.263923  0.746723  0.846432  1
  Br  Br12  1  0.736077  0.253277  0.153568  1
  Br  Br13  1  0.251264  0.416455  0.050053  1
  Br  Br14  1  0.748736  0.583545  0.949947  1
  Br  Br15  1  0.855584  0.942014  0.771224  1
  Br  Br16  1  0.144416  0.057986  0.228776  1
