# generated using pymatgen
data_ScTiMn4P3
_symmetry_space_group_name_H-M   'P 1'
_cell_length_a   3.53090300
_cell_length_b   10.77752400
_cell_length_c   12.32628000
_cell_angle_alpha   90.00000000
_cell_angle_beta   90.00000000
_cell_angle_gamma   90.00000000
_symmetry_Int_Tables_number   1
_chemical_formula_structural   ScTiMn4P3
_chemical_formula_sum   'Sc4 Ti4 Mn16 P12'
_cell_volume   469.06908885
_cell_formula_units_Z   4
loop_
 _symmetry_equiv_pos_site_id
 _symmetry_equiv_pos_as_xyz
  1  'x, y, z'
loop_
 _atom_site_type_symbol
 _atom_site_label
 _atom_site_symmetry_multiplicity
 _atom_site_fract_x
 _atom_site_fract_y
 _atom_site_fract_z
 _atom_site_occupancy
  Sc  Sc0  1  0.250000  0.586651  0.709285  1
  Sc  Sc1  1  0.250000  0.913349  0.209285  1
  Sc  Sc2  1  0.750000  0.413349  0.290715  1
  Sc  Sc3  1  0.750000  0.086651  0.790715  1
  Ti  Ti4  1  0.250000  0.711402  0.983141  1
  Ti  Ti5  1  0.250000  0.788598  0.483141  1
  Ti  Ti6  1  0.750000  0.288598  0.016859  1
  Ti  Ti7  1  0.750000  0.211402  0.516859  1
  Mn  Mn8  1  0.250000  0.410333  0.492180  1
  Mn  Mn9  1  0.250000  0.089667  0.992180  1
  Mn  Mn10  1  0.750000  0.589667  0.507820  1
  Mn  Mn11  1  0.750000  0.910333  0.007820  1
  Mn  Mn12  1  0.250000  0.212066  0.179870  1
  Mn  Mn13  1  0.250000  0.287935  0.679870  1
  Mn  Mn14  1  0.750000  0.787935  0.820130  1
  Mn  Mn15  1  0.750000  0.712065  0.320130  1
  Mn  Mn16  1  0.250000  0.883472  0.695418  1
  Mn  Mn17  1  0.250000  0.616528  0.195418  1
  Mn  Mn18  1  0.750000  0.116528  0.304582  1
  Mn  Mn19  1  0.750000  0.383472  0.804582  1
  Mn  Mn20  1  0.250000  0.462833  0.934395  1
  Mn  Mn21  1  0.250000  0.037167  0.434395  1
  Mn  Mn22  1  0.750000  0.537167  0.065605  1
  Mn  Mn23  1  0.750000  0.962833  0.565605  1
  P  P24  1  0.250000  0.414468  0.120678  1
  P  P25  1  0.250000  0.085532  0.620678  1
  P  P26  1  0.750000  0.585532  0.879322  1
  P  P27  1  0.750000  0.914468  0.379322  1
  P  P28  1  0.250000  0.259625  0.868598  1
  P  P29  1  0.250000  0.240375  0.368598  1
  P  P30  1  0.750000  0.740375  0.131402  1
  P  P31  1  0.750000  0.759625  0.631402  1
  P  P32  1  0.250000  0.583104  0.380394  1
  P  P33  1  0.250000  0.916896  0.880394  1
  P  P34  1  0.750000  0.416896  0.619606  1
  P  P35  1  0.750000  0.083104  0.119606  1
