# generated using pymatgen
data_Pr2Si3(AsRh3)4
_symmetry_space_group_name_H-M   'P 1'
_cell_length_a   9.95423000
_cell_length_b   9.95422995
_cell_length_c   3.93531200
_cell_angle_alpha   90.00000000
_cell_angle_beta   90.00000000
_cell_angle_gamma   120.00000016
_symmetry_Int_Tables_number   1
_chemical_formula_structural   Pr2Si3(AsRh3)4
_chemical_formula_sum   'Pr2 Si3 As4 Rh12'
_cell_volume   337.69539720
_cell_formula_units_Z   1
loop_
 _symmetry_equiv_pos_site_id
 _symmetry_equiv_pos_as_xyz
  1  'x, y, z'
loop_
 _atom_site_type_symbol
 _atom_site_label
 _atom_site_symmetry_multiplicity
 _atom_site_fract_x
 _atom_site_fract_y
 _atom_site_fract_z
 _atom_site_occupancy
  Pr  Pr0  1  0.333333  0.666667  0.244799  1
  Pr  Pr1  1  0.666667  0.333333  0.743027  1
  Si  Si2  1  0.400180  0.109524  0.242610  1
  Si  Si3  1  0.709345  0.599820  0.242610  1
  Si  Si4  1  0.890476  0.290655  0.242610  1
  As  As5  1  0.000000  0.000000  0.626144  1
  As  As6  1  0.598574  0.885691  0.745761  1
  As  As7  1  0.287117  0.401426  0.745761  1
  As  As8  1  0.114309  0.712883  0.745761  1
  Rh  Rh9  1  0.446126  0.379866  0.242506  1
  Rh  Rh10  1  0.933741  0.553874  0.242506  1
  Rh  Rh11  1  0.620134  0.066259  0.242506  1
  Rh  Rh12  1  0.560970  0.616039  0.744827  1
  Rh  Rh13  1  0.055068  0.439030  0.744827  1
  Rh  Rh14  1  0.383961  0.944932  0.744827  1
  Rh  Rh15  1  0.144999  0.887925  0.245132  1
  Rh  Rh16  1  0.742925  0.855001  0.245132  1
  Rh  Rh17  1  0.112075  0.257075  0.245132  1
  Rh  Rh18  1  0.849424  0.124496  0.741175  1
  Rh  Rh19  1  0.275072  0.150576  0.741175  1
  Rh  Rh20  1  0.875504  0.724928  0.741175  1
