# generated using pymatgen
data_HfSc7Nb12Si15P
_symmetry_space_group_name_H-M   'P 1'
_cell_length_a   6.71001325
_cell_length_b   6.90634600
_cell_length_c   13.10452833
_cell_angle_alpha   90.03623668
_cell_angle_beta   90.27244441
_cell_angle_gamma   90.05871199
_symmetry_Int_Tables_number   1
_chemical_formula_structural   HfSc7Nb12Si15P
_chemical_formula_sum   'Hf1 Sc7 Nb12 Si15 P1'
_cell_volume   607.27846146
_cell_formula_units_Z   1
loop_
 _symmetry_equiv_pos_site_id
 _symmetry_equiv_pos_as_xyz
  1  'x, y, z'
loop_
 _atom_site_type_symbol
 _atom_site_label
 _atom_site_symmetry_multiplicity
 _atom_site_fract_x
 _atom_site_fract_y
 _atom_site_fract_z
 _atom_site_occupancy
  Hf  Hf0  1  0.500552  0.677397  0.595797  1
  Sc  Sc1  1  0.000336  0.825574  0.904487  1
  Sc  Sc2  1  0.499012  0.325087  0.095363  1
  Sc  Sc3  1  0.998592  0.173133  0.404855  1
  Sc  Sc4  1  0.500648  0.323154  0.405243  1
  Sc  Sc5  1  0.999175  0.174047  0.095561  1
  Sc  Sc6  1  0.501067  0.674376  0.905154  1
  Sc  Sc7  1  0.996613  0.825176  0.595254  1
  Nb  Nb8  1  0.661199  0.169031  0.621467  1
  Nb  Nb9  1  0.163839  0.326678  0.874374  1
  Nb  Nb10  1  0.338112  0.826734  0.125242  1
  Nb  Nb11  1  0.835813  0.676585  0.376860  1
  Nb  Nb12  1  0.343606  0.826999  0.377521  1
  Nb  Nb13  1  0.837024  0.674173  0.125537  1
  Nb  Nb14  1  0.662564  0.173203  0.874053  1
  Nb  Nb15  1  0.163021  0.328993  0.624046  1
  Nb  Nb16  1  0.836307  0.494656  0.748710  1
  Nb  Nb17  1  0.337691  0.003563  0.747954  1
  Nb  Nb18  1  0.163238  0.505348  0.251146  1
  Nb  Nb19  1  0.663176  0.995156  0.252026  1
  Si  Si20  1  0.168060  0.532374  0.040202  1
  Si  Si21  1  0.330919  0.032456  0.959661  1
  Si  Si22  1  0.829831  0.467078  0.540229  1
  Si  Si23  1  0.321151  0.034857  0.540512  1
  Si  Si24  1  0.831853  0.467397  0.959815  1
  Si  Si25  1  0.668500  0.968187  0.040620  1
  Si  Si26  1  0.171273  0.533724  0.459828  1
  Si  Si27  1  0.460697  0.386870  0.749039  1
  Si  Si28  1  0.959570  0.113181  0.748830  1
  Si  Si29  1  0.539750  0.611100  0.249899  1
  Si  Si30  1  0.042519  0.885604  0.250770  1
  Si  Si31  1  0.705227  0.862318  0.750817  1
  Si  Si32  1  0.204080  0.637886  0.750498  1
  Si  Si33  1  0.294924  0.138116  0.249995  1
  Si  Si34  1  0.796435  0.363337  0.250108  1
  P  P35  1  0.673632  0.966448  0.458525  1
