# generated using pymatgen
data_Lu4Cu3Pd
_symmetry_space_group_name_H-M   'P 1'
_cell_length_a   4.42721300
_cell_length_b   5.34560762
_cell_length_c   6.90393886
_cell_angle_alpha   90.34829614
_cell_angle_beta   90.00000000
_cell_angle_gamma   90.00000000
_symmetry_Int_Tables_number   1
_chemical_formula_structural   Lu4Cu3Pd
_chemical_formula_sum   'Lu4 Cu3 Pd1'
_cell_volume   163.38658909
_cell_formula_units_Z   1
loop_
 _symmetry_equiv_pos_site_id
 _symmetry_equiv_pos_as_xyz
  1  'x, y, z'
loop_
 _atom_site_type_symbol
 _atom_site_label
 _atom_site_symmetry_multiplicity
 _atom_site_fract_x
 _atom_site_fract_y
 _atom_site_fract_z
 _atom_site_occupancy
  Lu  Lu0  1  0.250000  0.359652  0.683780  1
  Lu  Lu1  1  0.250000  0.143844  0.181823  1
  Lu  Lu2  1  0.750000  0.637799  0.319172  1
  Lu  Lu3  1  0.750000  0.858853  0.815496  1
  Cu  Cu4  1  0.250000  0.868002  0.528498  1
  Cu  Cu5  1  0.250000  0.645277  0.041904  1
  Cu  Cu6  1  0.750000  0.128179  0.466422  1
  Pd  Pd7  1  0.750000  0.358393  0.962905  1
