# generated using pymatgen
data_Pr3ZrZn2Rh3
_symmetry_space_group_name_H-M   'P 1'
_cell_length_a   7.42147343
_cell_length_b   7.42147401
_cell_length_c   4.16027900
_cell_angle_alpha   90.00000000
_cell_angle_beta   90.00000000
_cell_angle_gamma   120.98476244
_symmetry_Int_Tables_number   1
_chemical_formula_structural   Pr3ZrZn2Rh3
_chemical_formula_sum   'Pr3 Zr1 Zn2 Rh3'
_cell_volume   196.44353350
_cell_formula_units_Z   1
loop_
 _symmetry_equiv_pos_site_id
 _symmetry_equiv_pos_as_xyz
  1  'x, y, z'
loop_
 _atom_site_type_symbol
 _atom_site_label
 _atom_site_symmetry_multiplicity
 _atom_site_fract_x
 _atom_site_fract_y
 _atom_site_fract_z
 _atom_site_occupancy
  Pr  Pr0  1  0.020026  0.579762  0.500000  1
  Pr  Pr1  1  0.387211  0.387211  0.500000  1
  Pr  Pr2  1  0.579762  0.020026  0.500000  1
  Zr  Zr3  1  0.765883  0.765883  0.000000  1
  Zn  Zn4  1  0.995407  0.238092  0.000000  1
  Zn  Zn5  1  0.238092  0.995407  0.000000  1
  Rh  Rh6  1  0.354131  0.674374  0.000000  1
  Rh  Rh7  1  0.985114  0.985114  0.500000  1
  Rh  Rh8  1  0.674374  0.354131  0.000000  1
