# generated using pymatgen
data_TbDy5ScCo17P12
_symmetry_space_group_name_H-M   'P 1'
_cell_length_a   3.71050000
_cell_length_b   10.58158800
_cell_length_c   12.27165800
_cell_angle_alpha   90.00000000
_cell_angle_beta   90.00000000
_cell_angle_gamma   90.00000000
_symmetry_Int_Tables_number   1
_chemical_formula_structural   TbDy5ScCo17P12
_chemical_formula_sum   'Tb1 Dy5 Sc1 Co17 P12'
_cell_volume   481.82189053
_cell_formula_units_Z   1
loop_
 _symmetry_equiv_pos_site_id
 _symmetry_equiv_pos_as_xyz
  1  'x, y, z'
loop_
 _atom_site_type_symbol
 _atom_site_label
 _atom_site_symmetry_multiplicity
 _atom_site_fract_x
 _atom_site_fract_y
 _atom_site_fract_z
 _atom_site_occupancy
  Tb  Tb0  1  0.500000  0.000000  0.477612  1
  Dy  Dy1  1  0.000000  0.500000  0.527788  1
  Dy  Dy2  1  0.500000  0.821482  0.207443  1
  Dy  Dy3  1  0.500000  0.178518  0.207443  1
  Dy  Dy4  1  0.000000  0.682471  0.795639  1
  Dy  Dy5  1  0.000000  0.317529  0.795639  1
  Sc  Sc6  1  0.500000  0.500000  0.152759  1
  Co  Co7  1  0.000000  0.000000  0.837250  1
  Co  Co8  1  0.500000  0.500000  0.703620  1
  Co  Co9  1  0.000000  0.000000  0.295339  1
  Co  Co10  1  0.000000  0.500000  0.984518  1
  Co  Co11  1  0.500000  0.000000  0.012999  1
  Co  Co12  1  0.500000  0.326701  0.989893  1
  Co  Co13  1  0.500000  0.673299  0.989893  1
  Co  Co14  1  0.000000  0.162206  0.001297  1
  Co  Co15  1  0.000000  0.837794  0.001297  1
  Co  Co16  1  0.500000  0.295084  0.434153  1
  Co  Co17  1  0.500000  0.704916  0.434153  1
  Co  Co18  1  0.000000  0.202194  0.570767  1
  Co  Co19  1  0.000000  0.797806  0.570767  1
  Co  Co20  1  0.500000  0.880385  0.708072  1
  Co  Co21  1  0.500000  0.119615  0.708072  1
  Co  Co22  1  0.000000  0.622429  0.296318  1
  Co  Co23  1  0.000000  0.377571  0.296318  1
  P  P24  1  0.500000  0.500000  0.883297  1
  P  P25  1  0.000000  0.000000  0.115745  1
  P  P26  1  0.500000  0.500000  0.358043  1
  P  P27  1  0.000000  0.000000  0.655279  1
  P  P28  1  0.500000  0.309017  0.617829  1
  P  P29  1  0.500000  0.690983  0.617829  1
  P  P30  1  0.000000  0.189322  0.386194  1
  P  P31  1  0.000000  0.810678  0.386194  1
  P  P32  1  0.500000  0.851705  0.888856  1
  P  P33  1  0.500000  0.148295  0.888856  1
  P  P34  1  0.000000  0.663354  0.101415  1
  P  P35  1  0.000000  0.336646  0.101415  1
