# generated using pymatgen
data_Ac4NdIn3
_symmetry_space_group_name_H-M   'P 1'
_cell_length_a   6.47758774
_cell_length_b   9.91578469
_cell_length_c   9.91578600
_cell_angle_alpha   83.91188744
_cell_angle_beta   71.01585847
_cell_angle_gamma   71.01586805
_symmetry_Int_Tables_number   1
_chemical_formula_structural   Ac4NdIn3
_chemical_formula_sum   'Ac8 Nd2 In6'
_cell_volume   569.49566266
_cell_formula_units_Z   2
loop_
 _symmetry_equiv_pos_site_id
 _symmetry_equiv_pos_as_xyz
  1  'x, y, z'
loop_
 _atom_site_type_symbol
 _atom_site_label
 _atom_site_symmetry_multiplicity
 _atom_site_fract_x
 _atom_site_fract_y
 _atom_site_fract_z
 _atom_site_occupancy
  Ac  Ac0  1  0.720051  0.864761  0.693325  1
  Ac  Ac1  1  0.279949  0.135239  0.306675  1
  Ac  Ac2  1  0.779949  0.306675  0.135239  1
  Ac  Ac3  1  0.220051  0.693325  0.864761  1
  Ac  Ac4  1  0.585337  0.693907  0.135898  1
  Ac  Ac5  1  0.414663  0.306093  0.864102  1
  Ac  Ac6  1  0.085337  0.135898  0.693907  1
  Ac  Ac7  1  0.914663  0.864102  0.306093  1
  Nd  Nd8  1  0.750000  0.500816  0.499184  1
  Nd  Nd9  1  0.250000  0.499184  0.500816  1
  In  In10  1  0.157034  0.499692  0.187306  1
  In  In11  1  0.842966  0.500308  0.812694  1
  In  In12  1  0.342966  0.812694  0.500308  1
  In  In13  1  0.657034  0.187306  0.499692  1
  In  In14  1  0.250000  0.000217  0.999783  1
  In  In15  1  0.750000  0.999783  0.000217  1
