# generated using pymatgen
data_Ca2As3BrO6
_symmetry_space_group_name_H-M   'P 1'
_cell_length_a   5.39790300
_cell_length_b   8.46828326
_cell_length_c   10.28804093
_cell_angle_alpha   70.76729866
_cell_angle_beta   90.00000000
_cell_angle_gamma   90.00000000
_symmetry_Int_Tables_number   1
_chemical_formula_structural   Ca2As3BrO6
_chemical_formula_sum   'Ca4 As6 Br2 O12'
_cell_volume   444.02952632
_cell_formula_units_Z   2
loop_
 _symmetry_equiv_pos_site_id
 _symmetry_equiv_pos_as_xyz
  1  'x, y, z'
loop_
 _atom_site_type_symbol
 _atom_site_label
 _atom_site_symmetry_multiplicity
 _atom_site_fract_x
 _atom_site_fract_y
 _atom_site_fract_z
 _atom_site_occupancy
  Ca  Ca0  1  0.250000  0.137658  0.397119  1
  Ca  Ca1  1  0.750000  0.862342  0.602881  1
  Ca  Ca2  1  0.250000  0.050525  0.775310  1
  Ca  Ca3  1  0.750000  0.949475  0.224690  1
  As  As4  1  0.250000  0.730466  0.433798  1
  As  As5  1  0.750000  0.269534  0.566202  1
  As  As6  1  0.250000  0.591034  0.167595  1
  As  As7  1  0.750000  0.408966  0.832405  1
  As  As8  1  0.250000  0.605463  0.822415  1
  As  As9  1  0.750000  0.394537  0.177585  1
  Br  Br10  1  0.750000  0.839172  0.955435  1
  Br  Br11  1  0.250000  0.160828  0.044565  1
  O  O12  1  0.987881  0.549501  0.726049  1
  O  O13  1  0.487881  0.450499  0.273951  1
  O  O14  1  0.012119  0.450499  0.273951  1
  O  O15  1  0.512119  0.549501  0.726049  1
  O  O16  1  0.007512  0.879197  0.414847  1
  O  O17  1  0.507512  0.120803  0.585153  1
  O  O18  1  0.992488  0.120803  0.585153  1
  O  O19  1  0.492488  0.879197  0.414847  1
  O  O20  1  0.750000  0.245591  0.757351  1
  O  O21  1  0.250000  0.754409  0.242649  1
  O  O22  1  0.250000  0.814877  0.721628  1
  O  O23  1  0.750000  0.185123  0.278372  1
