# generated using pymatgen
data_SmHgPdPt3
_symmetry_space_group_name_H-M   'P 1'
_cell_length_a   5.41768485
_cell_length_b   5.41768626
_cell_length_c   5.41768496
_cell_angle_alpha   60.07965697
_cell_angle_beta   60.07964801
_cell_angle_gamma   60.07964996
_symmetry_Int_Tables_number   1
_chemical_formula_structural   SmHgPdPt3
_chemical_formula_sum   'Sm1 Hg1 Pd1 Pt3'
_cell_volume   112.64438036
_cell_formula_units_Z   1
loop_
 _symmetry_equiv_pos_site_id
 _symmetry_equiv_pos_as_xyz
  1  'x, y, z'
loop_
 _atom_site_type_symbol
 _atom_site_label
 _atom_site_symmetry_multiplicity
 _atom_site_fract_x
 _atom_site_fract_y
 _atom_site_fract_z
 _atom_site_occupancy
  Sm  Sm0  1  0.249524  0.249524  0.249524  1
  Hg  Hg1  1  0.999917  0.999917  0.999917  1
  Pd  Pd2  1  0.625559  0.625559  0.625559  1
  Pt  Pt3  1  0.625602  0.625602  0.123796  1
  Pt  Pt4  1  0.625602  0.123796  0.625602  1
  Pt  Pt5  1  0.123796  0.625602  0.625602  1
