# generated using pymatgen
data_Pr17Er3Si15Hg
_symmetry_space_group_name_H-M   'P 1'
_cell_length_a   7.88936855
_cell_length_b   7.86976945
_cell_length_c   15.28808153
_cell_angle_alpha   90.08167675
_cell_angle_beta   89.56033708
_cell_angle_gamma   89.91659027
_symmetry_Int_Tables_number   1
_chemical_formula_structural   Pr17Er3Si15Hg
_chemical_formula_sum   'Pr17 Er3 Si15 Hg1'
_cell_volume   949.16900760
_cell_formula_units_Z   1
loop_
 _symmetry_equiv_pos_site_id
 _symmetry_equiv_pos_as_xyz
  1  'x, y, z'
loop_
 _atom_site_type_symbol
 _atom_site_label
 _atom_site_symmetry_multiplicity
 _atom_site_fract_x
 _atom_site_fract_y
 _atom_site_fract_z
 _atom_site_occupancy
  Pr  Pr0  1  0.693430  0.691571  0.498182  1
  Pr  Pr1  1  0.373400  0.013412  0.448325  1
  Pr  Pr2  1  0.491079  0.870336  0.699554  1
  Pr  Pr3  1  0.511566  0.123540  0.196818  1
  Pr  Pr4  1  0.879442  0.488209  0.300729  1
  Pr  Pr5  1  0.118928  0.518091  0.804275  1
  Pr  Pr6  1  0.626327  0.986842  0.950464  1
  Pr  Pr7  1  0.002135  0.382502  0.548107  1
  Pr  Pr8  1  0.989979  0.624971  0.053842  1
  Pr  Pr9  1  0.129901  0.978808  0.880120  1
  Pr  Pr10  1  0.522029  0.629462  0.127096  1
  Pr  Pr11  1  0.482486  0.377526  0.627895  1
  Pr  Pr12  1  0.627679  0.521927  0.875680  1
  Pr  Pr13  1  0.374541  0.480422  0.370051  1
  Pr  Pr14  1  0.873185  0.022529  0.376323  1
  Pr  Pr15  1  0.981039  0.127954  0.122685  1
  Pr  Pr16  1  0.011683  0.860560  0.620380  1
  Er  Er17  1  0.310439  0.310561  0.999883  1
  Er  Er18  1  0.191213  0.812027  0.249313  1
  Er  Er19  1  0.799821  0.186672  0.753147  1
  Si  Si20  1  0.328750  0.689333  0.956367  1
  Si  Si21  1  0.663336  0.303602  0.453193  1
  Si  Si22  1  0.693107  0.330448  0.045696  1
  Si  Si23  1  0.307050  0.669901  0.543413  1
  Si  Si24  1  0.812152  0.829934  0.205163  1
  Si  Si25  1  0.172197  0.190237  0.294688  1
  Si  Si26  1  0.831388  0.810272  0.796903  1
  Si  Si27  1  0.286389  0.923156  0.063898  1
  Si  Si28  1  0.576157  0.789429  0.309337  1
  Si  Si29  1  0.436378  0.209760  0.818479  1
  Si  Si30  1  0.785993  0.573865  0.692351  1
  Si  Si31  1  0.215343  0.422353  0.186199  1
  Si  Si32  1  0.710613  0.082031  0.563692  1
  Si  Si33  1  0.924157  0.287203  0.937690  1
  Si  Si34  1  0.083291  0.715023  0.434014  1
  Hg  Hg35  1  0.183395  0.165533  0.696049  1
