# generated using pymatgen
data_NdY3(AuO3)4
_symmetry_space_group_name_H-M   'P 1'
_cell_length_a   3.88711068
_cell_length_b   5.62715100
_cell_length_c   13.01011011
_cell_angle_alpha   90.00000000
_cell_angle_beta   89.71155582
_cell_angle_gamma   90.00000000
_symmetry_Int_Tables_number   1
_chemical_formula_structural   NdY3(AuO3)4
_chemical_formula_sum   'Nd1 Y3 Au4 O12'
_cell_volume   284.57119937
_cell_formula_units_Z   1
loop_
 _symmetry_equiv_pos_site_id
 _symmetry_equiv_pos_as_xyz
  1  'x, y, z'
loop_
 _atom_site_type_symbol
 _atom_site_label
 _atom_site_symmetry_multiplicity
 _atom_site_fract_x
 _atom_site_fract_y
 _atom_site_fract_z
 _atom_site_occupancy
  Nd  Nd0  1  0.736537  0.750000  0.576592  1
  Y  Y1  1  0.262967  0.750000  0.075940  1
  Y  Y2  1  0.258372  0.250000  0.421498  1
  Y  Y3  1  0.741299  0.250000  0.926149  1
  Au  Au4  1  0.069293  0.750000  0.833449  1
  Au  Au5  1  0.062622  0.250000  0.670992  1
  Au  Au6  1  0.934257  0.250000  0.168469  1
  Au  Au7  1  0.932418  0.750000  0.328131  1
  O  O8  1  0.195254  0.500293  0.248074  1
  O  O9  1  0.807601  0.003453  0.755365  1
  O  O10  1  0.807601  0.496547  0.755365  1
  O  O11  1  0.195254  0.999707  0.248074  1
  O  O12  1  0.744261  0.502051  0.074555  1
  O  O13  1  0.741504  0.495292  0.421140  1
  O  O14  1  0.259410  0.001502  0.927411  1
  O  O15  1  0.253087  0.007580  0.572845  1
  O  O16  1  0.741504  0.004708  0.421140  1
  O  O17  1  0.744261  0.997949  0.074555  1
  O  O18  1  0.253087  0.492420  0.572845  1
  O  O19  1  0.259410  0.498498  0.927411  1
