# generated using pymatgen
data_Zr3ZnP2Os3
_symmetry_space_group_name_H-M   'P 1'
_cell_length_a   6.48007500
_cell_length_b   6.48007476
_cell_length_c   3.95368700
_cell_angle_alpha   90.00000000
_cell_angle_beta   90.00000000
_cell_angle_gamma   120.00000634
_symmetry_Int_Tables_number   1
_chemical_formula_structural   Zr3ZnP2Os3
_chemical_formula_sum   'Zr3 Zn1 P2 Os3'
_cell_volume   143.77816523
_cell_formula_units_Z   1
loop_
 _symmetry_equiv_pos_site_id
 _symmetry_equiv_pos_as_xyz
  1  'x, y, z'
loop_
 _atom_site_type_symbol
 _atom_site_label
 _atom_site_symmetry_multiplicity
 _atom_site_fract_x
 _atom_site_fract_y
 _atom_site_fract_z
 _atom_site_occupancy
  Zr  Zr0  1  0.425959  0.425959  0.500000  1
  Zr  Zr1  1  0.574041  0.000000  0.500000  1
  Zr  Zr2  1  0.000000  0.574041  0.500000  1
  Zn  Zn3  1  0.000000  0.000000  0.500000  1
  P  P4  1  0.666667  0.333333  0.000000  1
  P  P5  1  0.333333  0.666667  0.000000  1
  Os  Os6  1  0.750695  0.750695  0.000000  1
  Os  Os7  1  0.249305  0.000000  0.000000  1
  Os  Os8  1  0.000000  0.249305  0.000000  1
