# generated using pymatgen
data_CaEu9(GaSb3)4
_symmetry_space_group_name_H-M   'P 1'
_cell_length_a   4.58179900
_cell_length_b   12.39370761
_cell_length_c   14.40128819
_cell_angle_alpha   90.14950371
_cell_angle_beta   90.00000000
_cell_angle_gamma   90.00000000
_symmetry_Int_Tables_number   1
_chemical_formula_structural   CaEu9(GaSb3)4
_chemical_formula_sum   'Ca1 Eu9 Ga4 Sb12'
_cell_volume   817.78123693
_cell_formula_units_Z   1
loop_
 _symmetry_equiv_pos_site_id
 _symmetry_equiv_pos_as_xyz
  1  'x, y, z'
loop_
 _atom_site_type_symbol
 _atom_site_label
 _atom_site_symmetry_multiplicity
 _atom_site_fract_x
 _atom_site_fract_y
 _atom_site_fract_z
 _atom_site_occupancy
  Ca  Ca0  1  0.500000  0.500000  0.000000  1
  Eu  Eu1  1  0.500000  0.667355  0.479178  1
  Eu  Eu2  1  0.500000  0.332645  0.520822  1
  Eu  Eu3  1  0.500000  0.831128  0.979471  1
  Eu  Eu4  1  0.500000  0.168872  0.020529  1
  Eu  Eu5  1  0.500000  0.000000  0.500000  1
  Eu  Eu6  1  0.500000  0.909063  0.251063  1
  Eu  Eu7  1  0.500000  0.090937  0.748937  1
  Eu  Eu8  1  0.500000  0.410043  0.247193  1
  Eu  Eu9  1  0.500000  0.589957  0.752807  1
  Ga  Ga10  1  0.000000  0.330175  0.714453  1
  Ga  Ga11  1  0.000000  0.669825  0.285547  1
  Ga  Ga12  1  0.000000  0.827815  0.787360  1
  Ga  Ga13  1  0.000000  0.172185  0.212640  1
  Sb  Sb14  1  0.000000  0.978239  0.100723  1
  Sb  Sb15  1  0.000000  0.021761  0.899277  1
  Sb  Sb16  1  0.000000  0.477079  0.398900  1
  Sb  Sb17  1  0.000000  0.522921  0.601100  1
  Sb  Sb18  1  0.500000  0.163685  0.320921  1
  Sb  Sb19  1  0.500000  0.836315  0.679079  1
  Sb  Sb20  1  0.500000  0.662521  0.176803  1
  Sb  Sb21  1  0.500000  0.337479  0.823197  1
  Sb  Sb22  1  0.000000  0.345274  0.090715  1
  Sb  Sb23  1  0.000000  0.654726  0.909285  1
  Sb  Sb24  1  0.000000  0.842964  0.407516  1
  Sb  Sb25  1  0.000000  0.157036  0.592484  1
