# generated using pymatgen
data_Ac3Sn4Ge
_symmetry_space_group_name_H-M   'P 1'
_cell_length_a   8.90817167
_cell_length_b   8.90813264
_cell_length_c   8.90817036
_cell_angle_alpha   119.60241167
_cell_angle_beta   119.59950164
_cell_angle_gamma   90.69269214
_symmetry_Int_Tables_number   1
_chemical_formula_structural   Ac3Sn4Ge
_chemical_formula_sum   'Ac6 Sn8 Ge2'
_cell_volume   502.83502765
_cell_formula_units_Z   2
loop_
 _symmetry_equiv_pos_site_id
 _symmetry_equiv_pos_as_xyz
  1  'x, y, z'
loop_
 _atom_site_type_symbol
 _atom_site_label
 _atom_site_symmetry_multiplicity
 _atom_site_fract_x
 _atom_site_fract_y
 _atom_site_fract_z
 _atom_site_occupancy
  Ac  Ac0  1  0.749998  0.750000  0.999998  1
  Ac  Ac1  1  0.250002  0.250000  0.000002  1
  Ac  Ac2  1  0.335061  0.835092  0.170150  1
  Ac  Ac3  1  0.664939  0.164908  0.829850  1
  Ac  Ac4  1  0.835059  0.664908  0.499969  1
  Ac  Ac5  1  0.164941  0.335092  0.500031  1
  Sn  Sn6  1  0.954630  0.454654  0.775671  1
  Sn  Sn7  1  0.678979  0.178957  0.224331  1
  Sn  Sn8  1  0.454627  0.678957  0.499979  1
  Sn  Sn9  1  0.178983  0.954654  0.500024  1
  Sn  Sn10  1  0.045370  0.545346  0.224329  1
  Sn  Sn11  1  0.321021  0.821043  0.775669  1
  Sn  Sn12  1  0.545373  0.321043  0.500021  1
  Sn  Sn13  1  0.821017  0.045346  0.499976  1
  Ge  Ge14  1  0.000000  0.000000  0.000000  1
  Ge  Ge15  1  0.500000  0.500000  0.000000  1
