# generated using pymatgen
data_EuHfCo12P7
_symmetry_space_group_name_H-M   'P 1'
_cell_length_a   3.56699400
_cell_length_b   8.98960453
_cell_length_c   8.98908607
_cell_angle_alpha   120.00280310
_cell_angle_beta   90.00000000
_cell_angle_gamma   90.00000000
_symmetry_Int_Tables_number   1
_chemical_formula_structural   EuHfCo12P7
_chemical_formula_sum   'Eu1 Hf1 Co12 P7'
_cell_volume   249.61855698
_cell_formula_units_Z   1
loop_
 _symmetry_equiv_pos_site_id
 _symmetry_equiv_pos_as_xyz
  1  'x, y, z'
loop_
 _atom_site_type_symbol
 _atom_site_label
 _atom_site_symmetry_multiplicity
 _atom_site_fract_x
 _atom_site_fract_y
 _atom_site_fract_z
 _atom_site_occupancy
  Eu  Eu0  1  0.000000  0.666676  0.333333  1
  Hf  Hf1  1  0.500000  0.333358  0.666703  1
  Co  Co2  1  0.000000  0.367844  0.931532  1
  Co  Co3  1  0.000000  0.068467  0.436282  1
  Co  Co4  1  0.000000  0.563778  0.632273  1
  Co  Co5  1  0.000000  0.882222  0.726917  1
  Co  Co6  1  0.000000  0.273083  0.155296  1
  Co  Co7  1  0.000000  0.844625  0.117807  1
  Co  Co8  1  0.500000  0.958506  0.568204  1
  Co  Co9  1  0.500000  0.431699  0.390250  1
  Co  Co10  1  0.500000  0.609758  0.041528  1
  Co  Co11  1  0.500000  0.130338  0.899911  1
  Co  Co12  1  0.500000  0.099879  0.230162  1
  Co  Co13  1  0.500000  0.769902  0.869865  1
  P  P14  1  0.000000  0.115472  0.703470  1
  P  P15  1  0.000000  0.296480  0.411957  1
  P  P16  1  0.000000  0.588027  0.884512  1
  P  P17  1  0.500000  0.711367  0.599771  1
  P  P18  1  0.500000  0.400272  0.111609  1
  P  P19  1  0.500000  0.888354  0.288648  1
  P  P20  1  0.000000  0.999891  0.999970  1
