# generated using pymatgen
data_Nd4Cd2Cu2RuAu
_symmetry_space_group_name_H-M   'P 1'
_cell_length_a   7.80071661
_cell_length_b   7.77726909
_cell_length_c   3.93055800
_cell_angle_alpha   90.00000000
_cell_angle_beta   90.00000000
_cell_angle_gamma   90.29192034
_symmetry_Int_Tables_number   1
_chemical_formula_structural   Nd4Cd2Cu2RuAu
_chemical_formula_sum   'Nd4 Cd2 Cu2 Ru1 Au1'
_cell_volume   238.45706757
_cell_formula_units_Z   1
loop_
 _symmetry_equiv_pos_site_id
 _symmetry_equiv_pos_as_xyz
  1  'x, y, z'
loop_
 _atom_site_type_symbol
 _atom_site_label
 _atom_site_symmetry_multiplicity
 _atom_site_fract_x
 _atom_site_fract_y
 _atom_site_fract_z
 _atom_site_occupancy
  Nd  Nd0  1  0.692923  0.188749  0.000000  1
  Nd  Nd1  1  0.325420  0.820440  0.000000  1
  Nd  Nd2  1  0.156351  0.324622  0.000000  1
  Nd  Nd3  1  0.819881  0.660754  0.000000  1
  Cd  Cd4  1  0.498335  0.505194  0.500000  1
  Cd  Cd5  1  0.995862  0.993876  0.500000  1
  Cu  Cu6  1  0.119776  0.622036  0.500000  1
  Cu  Cu7  1  0.627888  0.878778  0.500000  1
  Ru  Ru8  1  0.880323  0.382171  0.500000  1
  Au  Au9  1  0.383243  0.123379  0.500000  1
