# generated using pymatgen
data_La9Pr7(CdIr)4
_symmetry_space_group_name_H-M   'P 1'
_cell_length_a   10.10493929
_cell_length_b   10.10493981
_cell_length_c   10.10436300
_cell_angle_alpha   60.00188496
_cell_angle_beta   60.00188325
_cell_angle_gamma   60.37045129
_symmetry_Int_Tables_number   1
_chemical_formula_structural   La9Pr7(CdIr)4
_chemical_formula_sum   'La9 Pr7 Cd4 Ir4'
_cell_volume   731.60214786
_cell_formula_units_Z   1
loop_
 _symmetry_equiv_pos_site_id
 _symmetry_equiv_pos_as_xyz
  1  'x, y, z'
loop_
 _atom_site_type_symbol
 _atom_site_label
 _atom_site_symmetry_multiplicity
 _atom_site_fract_x
 _atom_site_fract_y
 _atom_site_fract_z
 _atom_site_occupancy
  La  La0  1  0.347237  0.347237  0.347632  1
  La  La1  1  0.347237  0.347237  0.957893  1
  La  La2  1  0.348367  0.957783  0.346925  1
  La  La3  1  0.957783  0.348367  0.346925  1
  La  La4  1  0.808834  0.189242  0.191176  1
  La  La5  1  0.189242  0.808834  0.810748  1
  La  La6  1  0.189242  0.808834  0.191176  1
  La  La7  1  0.808834  0.189242  0.810748  1
  La  La8  1  0.190596  0.190596  0.809404  1
  Pr  Pr9  1  0.807085  0.807085  0.192915  1
  Pr  Pr10  1  0.937305  0.562942  0.562580  1
  Pr  Pr11  1  0.562942  0.937305  0.937173  1
  Pr  Pr12  1  0.562942  0.937305  0.562580  1
  Pr  Pr13  1  0.937305  0.562942  0.937173  1
  Pr  Pr14  1  0.562590  0.562590  0.937410  1
  Pr  Pr15  1  0.937974  0.937974  0.562026  1
  Cd  Cd16  1  0.580513  0.580513  0.578649  1
  Cd  Cd17  1  0.580513  0.580513  0.260325  1
  Cd  Cd18  1  0.580216  0.259856  0.579963  1
  Cd  Cd19  1  0.259856  0.580216  0.579963  1
  Ir  Ir20  1  0.140666  0.140666  0.141077  1
  Ir  Ir21  1  0.140666  0.140666  0.577592  1
  Ir  Ir22  1  0.145859  0.576196  0.138972  1
  Ir  Ir23  1  0.576196  0.145859  0.138972  1
