# generated using pymatgen
data_La3Yb5SnPd24
_symmetry_space_group_name_H-M   'P 1'
_cell_length_a   8.44764281
_cell_length_b   8.44764281
_cell_length_c   8.47901367
_cell_angle_alpha   90.08542725
_cell_angle_beta   89.91457275
_cell_angle_gamma   89.37314053
_symmetry_Int_Tables_number   1
_chemical_formula_structural   La3Yb5SnPd24
_chemical_formula_sum   'La3 Yb5 Sn1 Pd24'
_cell_volume   605.04747172
_cell_formula_units_Z   1
loop_
 _symmetry_equiv_pos_site_id
 _symmetry_equiv_pos_as_xyz
  1  'x, y, z'
loop_
 _atom_site_type_symbol
 _atom_site_label
 _atom_site_symmetry_multiplicity
 _atom_site_fract_x
 _atom_site_fract_y
 _atom_site_fract_z
 _atom_site_occupancy
  La  La0  1  0.252075  0.747925  0.255450  1
  La  La1  1  0.253577  0.746423  0.744685  1
  La  La2  1  0.747009  0.252991  0.255461  1
  Yb  Yb3  1  0.252483  0.251015  0.248893  1
  Yb  Yb4  1  0.747942  0.749721  0.751555  1
  Yb  Yb5  1  0.748985  0.747517  0.248893  1
  Yb  Yb6  1  0.749428  0.250572  0.745864  1
  Yb  Yb7  1  0.250279  0.252058  0.751555  1
  Sn  Sn8  1  0.998956  0.001044  0.999315  1
  Pd  Pd9  1  0.267481  0.496330  0.000464  1
  Pd  Pd10  1  0.732576  0.499945  0.995217  1
  Pd  Pd11  1  0.007712  0.267224  0.501488  1
  Pd  Pd12  1  0.500055  0.267424  0.995217  1
  Pd  Pd13  1  0.987904  0.733530  0.501517  1
  Pd  Pd14  1  0.503670  0.732519  0.000464  1
  Pd  Pd15  1  0.500715  0.999363  0.267360  1
  Pd  Pd16  1  0.266470  0.012096  0.501517  1
  Pd  Pd17  1  0.501487  0.004834  0.732087  1
  Pd  Pd18  1  0.732776  0.992288  0.501488  1
  Pd  Pd19  1  0.000637  0.499285  0.267360  1
  Pd  Pd20  1  0.995166  0.498513  0.732087  1
  Pd  Pd21  1  0.255855  0.492160  0.500625  1
  Pd  Pd22  1  0.744484  0.503366  0.503170  1
  Pd  Pd23  1  0.496634  0.255516  0.503170  1
  Pd  Pd24  1  0.507840  0.744145  0.500625  1
  Pd  Pd25  1  0.500361  0.499639  0.255460  1
  Pd  Pd26  1  0.502866  0.497134  0.744504  1
  Pd  Pd27  1  0.315002  0.006244  0.999616  1
  Pd  Pd28  1  0.685529  0.996849  0.997056  1
  Pd  Pd29  1  0.003151  0.314471  0.997056  1
  Pd  Pd30  1  0.993756  0.684998  0.999616  1
  Pd  Pd31  1  0.999999  0.000001  0.315003  1
  Pd  Pd32  1  0.997139  0.002861  0.686160  1
