# generated using pymatgen
data_Ho7Er3Os4
_symmetry_space_group_name_H-M   'P 1'
_cell_length_a   6.31921548
_cell_length_b   7.33634928
_cell_length_c   8.38616017
_cell_angle_alpha   96.93763456
_cell_angle_beta   112.16234569
_cell_angle_gamma   89.96826753
_symmetry_Int_Tables_number   1
_chemical_formula_structural   Ho7Er3Os4
_chemical_formula_sum   'Ho7 Er3 Os4'
_cell_volume   356.99349082
_cell_formula_units_Z   1
loop_
 _symmetry_equiv_pos_site_id
 _symmetry_equiv_pos_as_xyz
  1  'x, y, z'
loop_
 _atom_site_type_symbol
 _atom_site_label
 _atom_site_symmetry_multiplicity
 _atom_site_fract_x
 _atom_site_fract_y
 _atom_site_fract_z
 _atom_site_occupancy
  Ho  Ho0  1  0.792224  0.583896  0.816030  1
  Ho  Ho1  1  0.976224  0.916023  0.183749  1
  Ho  Ho2  1  0.207663  0.415973  0.183988  1
  Ho  Ho3  1  0.023949  0.084106  0.816260  1
  Ho  Ho4  1  0.204151  0.683679  0.564616  1
  Ho  Ho5  1  0.639668  0.816374  0.435683  1
  Ho  Ho6  1  0.795988  0.316262  0.435482  1
  Er  Er7  1  0.360354  0.183583  0.564406  1
  Er  Er8  1  0.420481  0.749733  0.999841  1
  Er  Er9  1  0.579436  0.250233  0.999958  1
  Os  Os10  1  0.602113  0.923379  0.780484  1
  Os  Os11  1  0.821586  0.577093  0.219316  1
  Os  Os12  1  0.397626  0.076909  0.219642  1
  Os  Os13  1  0.178538  0.422758  0.780545  1
