# generated using pymatgen
data_Pr3Nd5(HgPt)2
_symmetry_space_group_name_H-M   'P 1'
_cell_length_a   10.00293900
_cell_length_b   10.00293944
_cell_length_c   10.00293900
_cell_angle_alpha   59.99999816
_cell_angle_beta   59.99999670
_cell_angle_gamma   60.00000308
_symmetry_Int_Tables_number   1
_chemical_formula_structural   Pr3Nd5(HgPt)2
_chemical_formula_sum   'Pr6 Nd10 Hg4 Pt4'
_cell_volume   707.73044104
_cell_formula_units_Z   2
loop_
 _symmetry_equiv_pos_site_id
 _symmetry_equiv_pos_as_xyz
  1  'x, y, z'
loop_
 _atom_site_type_symbol
 _atom_site_label
 _atom_site_symmetry_multiplicity
 _atom_site_fract_x
 _atom_site_fract_y
 _atom_site_fract_z
 _atom_site_occupancy
  Pr  Pr0  1  0.937058  0.562942  0.562942  1
  Pr  Pr1  1  0.562942  0.937058  0.937058  1
  Pr  Pr2  1  0.562942  0.937058  0.562942  1
  Pr  Pr3  1  0.937058  0.562942  0.937058  1
  Pr  Pr4  1  0.562942  0.562942  0.937058  1
  Pr  Pr5  1  0.937058  0.937058  0.562942  1
  Nd  Nd6  1  0.351996  0.351996  0.351996  1
  Nd  Nd7  1  0.351996  0.351996  0.944013  1
  Nd  Nd8  1  0.351996  0.944013  0.351996  1
  Nd  Nd9  1  0.944013  0.351996  0.351996  1
  Nd  Nd10  1  0.808187  0.191813  0.191813  1
  Nd  Nd11  1  0.191813  0.808187  0.808187  1
  Nd  Nd12  1  0.191813  0.808187  0.191813  1
  Nd  Nd13  1  0.808187  0.191813  0.808187  1
  Nd  Nd14  1  0.191813  0.191813  0.808187  1
  Nd  Nd15  1  0.808187  0.808187  0.191813  1
  Hg  Hg16  1  0.584266  0.584266  0.584266  1
  Hg  Hg17  1  0.584266  0.584266  0.247202  1
  Hg  Hg18  1  0.584266  0.247202  0.584266  1
  Hg  Hg19  1  0.247202  0.584266  0.584266  1
  Pt  Pt20  1  0.143295  0.143295  0.143295  1
  Pt  Pt21  1  0.143295  0.143295  0.570117  1
  Pt  Pt22  1  0.143295  0.570117  0.143295  1
  Pt  Pt23  1  0.570117  0.143295  0.143295  1
