# generated using pymatgen
data_TbBeOs2C
_symmetry_space_group_name_H-M   'P 1'
_cell_length_a   5.63410400
_cell_length_b   5.63410257
_cell_length_c   7.06022600
_cell_angle_alpha   90.00000000
_cell_angle_beta   90.00000000
_cell_angle_gamma   140.00034309
_symmetry_Int_Tables_number   1
_chemical_formula_structural   TbBeOs2C
_chemical_formula_sum   'Tb2 Be2 Os4 C2'
_cell_volume   144.05641729
_cell_formula_units_Z   2
loop_
 _symmetry_equiv_pos_site_id
 _symmetry_equiv_pos_as_xyz
  1  'x, y, z'
loop_
 _atom_site_type_symbol
 _atom_site_label
 _atom_site_symmetry_multiplicity
 _atom_site_fract_x
 _atom_site_fract_y
 _atom_site_fract_z
 _atom_site_occupancy
  Tb  Tb0  1  0.544753  0.455247  0.250000  1
  Tb  Tb1  1  0.455247  0.544753  0.750000  1
  Be  Be2  1  0.269983  0.730017  0.250000  1
  Be  Be3  1  0.730017  0.269983  0.750000  1
  Os  Os4  1  0.823509  0.176491  0.058840  1
  Os  Os5  1  0.176491  0.823509  0.941160  1
  Os  Os6  1  0.176491  0.823509  0.558840  1
  Os  Os7  1  0.823509  0.176491  0.441160  1
  C  C8  1  0.000000  0.000000  0.000000  1
  C  C9  1  0.000000  0.000000  0.500000  1
