# generated using pymatgen
data_TbLuMnB6
_symmetry_space_group_name_H-M   'P 1'
_cell_length_a   3.52339900
_cell_length_b   9.04546400
_cell_length_c   11.43269100
_cell_angle_alpha   90.00000000
_cell_angle_beta   90.00000000
_cell_angle_gamma   90.00000000
_symmetry_Int_Tables_number   1
_chemical_formula_structural   TbLuMnB6
_chemical_formula_sum   'Tb4 Lu4 Mn4 B24'
_cell_volume   364.36876609
_cell_formula_units_Z   4
loop_
 _symmetry_equiv_pos_site_id
 _symmetry_equiv_pos_as_xyz
  1  'x, y, z'
loop_
 _atom_site_type_symbol
 _atom_site_label
 _atom_site_symmetry_multiplicity
 _atom_site_fract_x
 _atom_site_fract_y
 _atom_site_fract_z
 _atom_site_occupancy
  Tb  Tb0  1  0.000000  0.823717  0.085327  1
  Tb  Tb1  1  0.000000  0.176283  0.914673  1
  Tb  Tb2  1  0.000000  0.323717  0.414673  1
  Tb  Tb3  1  0.000000  0.676283  0.585327  1
  Lu  Lu4  1  0.000000  0.442742  0.131319  1
  Lu  Lu5  1  0.000000  0.557258  0.868681  1
  Lu  Lu6  1  0.000000  0.942742  0.368681  1
  Lu  Lu7  1  0.000000  0.057258  0.631319  1
  Mn  Mn8  1  0.000000  0.139844  0.180692  1
  Mn  Mn9  1  0.000000  0.860156  0.819308  1
  Mn  Mn10  1  0.000000  0.639844  0.319308  1
  Mn  Mn11  1  0.000000  0.360156  0.680692  1
  B  B12  1  0.500000  0.054871  0.068688  1
  B  B13  1  0.500000  0.945129  0.931312  1
  B  B14  1  0.500000  0.554871  0.431312  1
  B  B15  1  0.500000  0.445129  0.568688  1
  B  B16  1  0.500000  0.248875  0.083001  1
  B  B17  1  0.500000  0.751125  0.916999  1
  B  B18  1  0.500000  0.748875  0.416999  1
  B  B19  1  0.500000  0.251125  0.583001  1
  B  B20  1  0.500000  0.291238  0.234553  1
  B  B21  1  0.500000  0.708762  0.765447  1
  B  B22  1  0.500000  0.791238  0.265447  1
  B  B23  1  0.500000  0.208762  0.734553  1
  B  B24  1  0.500000  0.130745  0.314235  1
  B  B25  1  0.500000  0.869255  0.685765  1
  B  B26  1  0.500000  0.630745  0.185765  1
  B  B27  1  0.500000  0.369255  0.814235  1
  B  B28  1  0.500000  0.484633  0.287713  1
  B  B29  1  0.500000  0.515367  0.712287  1
  B  B30  1  0.500000  0.984633  0.212287  1
  B  B31  1  0.500000  0.015367  0.787713  1
  B  B32  1  0.500000  0.099657  0.472640  1
  B  B33  1  0.500000  0.900343  0.527360  1
  B  B34  1  0.500000  0.599657  0.027360  1
  B  B35  1  0.500000  0.400343  0.972640  1
