# generated using pymatgen
data_Tm8Mg3Sc8Si16Ag
_symmetry_space_group_name_H-M   'P 1'
_cell_length_a   6.87482702
_cell_length_b   7.40386980
_cell_length_c   13.83022500
_cell_angle_alpha   90.00000000
_cell_angle_beta   90.00000000
_cell_angle_gamma   89.90702883
_symmetry_Int_Tables_number   1
_chemical_formula_structural   Tm8Mg3Sc8Si16Ag
_chemical_formula_sum   'Tm8 Mg3 Sc8 Si16 Ag1'
_cell_volume   703.96200918
_cell_formula_units_Z   1
loop_
 _symmetry_equiv_pos_site_id
 _symmetry_equiv_pos_as_xyz
  1  'x, y, z'
loop_
 _atom_site_type_symbol
 _atom_site_label
 _atom_site_symmetry_multiplicity
 _atom_site_fract_x
 _atom_site_fract_y
 _atom_site_fract_z
 _atom_site_occupancy
  Tm  Tm0  1  0.011925  0.178250  0.095624  1
  Tm  Tm1  1  0.988946  0.816590  0.903387  1
  Tm  Tm2  1  0.487823  0.677205  0.904019  1
  Tm  Tm3  1  0.988946  0.816590  0.596613  1
  Tm  Tm4  1  0.510942  0.320723  0.095052  1
  Tm  Tm5  1  0.011925  0.178250  0.404376  1
  Tm  Tm6  1  0.510942  0.320723  0.404948  1
  Tm  Tm7  1  0.487823  0.677205  0.595981  1
  Mg  Mg8  1  0.841127  0.493578  0.250000  1
  Mg  Mg9  1  0.342017  0.006661  0.250000  1
  Mg  Mg10  1  0.656718  0.994679  0.750000  1
  Sc  Sc11  1  0.326922  0.183114  0.626567  1
  Sc  Sc12  1  0.670001  0.819773  0.375073  1
  Sc  Sc13  1  0.169718  0.681208  0.374544  1
  Sc  Sc14  1  0.670001  0.819773  0.124927  1
  Sc  Sc15  1  0.834003  0.321529  0.626629  1
  Sc  Sc16  1  0.326922  0.183114  0.873433  1
  Sc  Sc17  1  0.834003  0.321529  0.873371  1
  Sc  Sc18  1  0.169718  0.681208  0.125456  1
  Si  Si19  1  0.031002  0.095765  0.750000  1
  Si  Si20  1  0.966297  0.899453  0.250000  1
  Si  Si21  1  0.466585  0.602956  0.250000  1
  Si  Si22  1  0.533309  0.397865  0.750000  1
  Si  Si23  1  0.282959  0.877238  0.750000  1
  Si  Si24  1  0.717305  0.124332  0.250000  1
  Si  Si25  1  0.218484  0.376535  0.250000  1
  Si  Si26  1  0.780671  0.623223  0.750000  1
  Si  Si27  1  0.163403  0.461767  0.531555  1
  Si  Si28  1  0.838254  0.535336  0.465786  1
  Si  Si29  1  0.338447  0.963764  0.467091  1
  Si  Si30  1  0.838254  0.535336  0.034214  1
  Si  Si31  1  0.662253  0.035617  0.535630  1
  Si  Si32  1  0.163403  0.461767  0.968445  1
  Si  Si33  1  0.662253  0.035617  0.964370  1
  Si  Si34  1  0.338447  0.963764  0.032909  1
  Ag  Ag35  1  0.158250  0.517964  0.750000  1
