# generated using pymatgen
data_Y2MnGa3Co13
_symmetry_space_group_name_H-M   'P 1'
_cell_length_a   6.35397355
_cell_length_b   6.35397477
_cell_length_c   6.35397362
_cell_angle_alpha   82.98215205
_cell_angle_beta   82.98215153
_cell_angle_gamma   82.98215786
_symmetry_Int_Tables_number   1
_chemical_formula_structural   Y2MnGa3Co13
_chemical_formula_sum   'Y2 Mn1 Ga3 Co13'
_cell_volume   251.19732401
_cell_formula_units_Z   1
loop_
 _symmetry_equiv_pos_site_id
 _symmetry_equiv_pos_as_xyz
  1  'x, y, z'
loop_
 _atom_site_type_symbol
 _atom_site_label
 _atom_site_symmetry_multiplicity
 _atom_site_fract_x
 _atom_site_fract_y
 _atom_site_fract_z
 _atom_site_occupancy
  Y  Y0  1  0.657070  0.657070  0.657070  1
  Y  Y1  1  0.333165  0.333165  0.333165  1
  Mn  Mn2  1  0.907888  0.907888  0.907888  1
  Ga  Ga3  1  0.157130  0.650685  0.650685  1
  Ga  Ga4  1  0.650685  0.650685  0.157130  1
  Ga  Ga5  1  0.650685  0.157130  0.650685  1
  Co  Co6  1  0.097484  0.097484  0.097484  1
  Co  Co7  1  0.005310  0.005310  0.494940  1
  Co  Co8  1  0.005310  0.494940  0.005310  1
  Co  Co9  1  0.494940  0.005310  0.005310  1
  Co  Co10  1  0.288551  0.711917  0.003123  1
  Co  Co11  1  0.711917  0.003123  0.288551  1
  Co  Co12  1  0.003123  0.288551  0.711917  1
  Co  Co13  1  0.288551  0.003123  0.711917  1
  Co  Co14  1  0.003123  0.711917  0.288551  1
  Co  Co15  1  0.711917  0.288551  0.003123  1
  Co  Co16  1  0.854810  0.339172  0.339172  1
  Co  Co17  1  0.339172  0.339172  0.854810  1
  Co  Co18  1  0.339172  0.854810  0.339172  1
