# generated using pymatgen
data_La2Pr6Cd2OsPt
_symmetry_space_group_name_H-M   'P 1'
_cell_length_a   10.07294837
_cell_length_b   10.07294806
_cell_length_c   10.14943400
_cell_angle_alpha   59.74849280
_cell_angle_beta   59.74849382
_cell_angle_gamma   59.69638860
_symmetry_Int_Tables_number   1
_chemical_formula_structural   La2Pr6Cd2OsPt
_chemical_formula_sum   'La4 Pr12 Cd4 Os2 Pt2'
_cell_volume   723.73525344
_cell_formula_units_Z   2
loop_
 _symmetry_equiv_pos_site_id
 _symmetry_equiv_pos_as_xyz
  1  'x, y, z'
loop_
 _atom_site_type_symbol
 _atom_site_label
 _atom_site_symmetry_multiplicity
 _atom_site_fract_x
 _atom_site_fract_y
 _atom_site_fract_z
 _atom_site_occupancy
  La  La0  1  0.346630  0.346630  0.354395  1
  La  La1  1  0.346630  0.346630  0.952345  1
  La  La2  1  0.342844  0.959297  0.348929  1
  La  La3  1  0.959297  0.342844  0.348929  1
  Pr  Pr4  1  0.815092  0.189548  0.190475  1
  Pr  Pr5  1  0.189548  0.815092  0.804885  1
  Pr  Pr6  1  0.189548  0.815092  0.190475  1
  Pr  Pr7  1  0.815092  0.189548  0.804885  1
  Pr  Pr8  1  0.188557  0.188557  0.811443  1
  Pr  Pr9  1  0.806712  0.806712  0.193288  1
  Pr  Pr10  1  0.937507  0.557308  0.565648  1
  Pr  Pr11  1  0.557308  0.937507  0.939536  1
  Pr  Pr12  1  0.557308  0.937507  0.565648  1
  Pr  Pr13  1  0.937507  0.557308  0.939536  1
  Pr  Pr14  1  0.562844  0.562844  0.937156  1
  Pr  Pr15  1  0.938133  0.938133  0.561867  1
  Cd  Cd16  1  0.579657  0.579657  0.580355  1
  Cd  Cd17  1  0.579657  0.579657  0.260332  1
  Cd  Cd18  1  0.580148  0.259443  0.580204  1
  Cd  Cd19  1  0.259443  0.580148  0.580204  1
  Os  Os20  1  0.144939  0.144939  0.137347  1
  Os  Os21  1  0.144939  0.144939  0.572777  1
  Pt  Pt22  1  0.145994  0.574666  0.139670  1
  Pt  Pt23  1  0.574666  0.145994  0.139670  1
