# generated using pymatgen
data_Np4MnB16Ir3
_symmetry_space_group_name_H-M   'P 1'
_cell_length_a   3.47667100
_cell_length_b   5.99609505
_cell_length_c   11.63276073
_cell_angle_alpha   90.14201911
_cell_angle_beta   90.00000000
_cell_angle_gamma   90.00000000
_symmetry_Int_Tables_number   1
_chemical_formula_structural   Np4MnB16Ir3
_chemical_formula_sum   'Np4 Mn1 B16 Ir3'
_cell_volume   242.50101705
_cell_formula_units_Z   1
loop_
 _symmetry_equiv_pos_site_id
 _symmetry_equiv_pos_as_xyz
  1  'x, y, z'
loop_
 _atom_site_type_symbol
 _atom_site_label
 _atom_site_symmetry_multiplicity
 _atom_site_fract_x
 _atom_site_fract_y
 _atom_site_fract_z
 _atom_site_occupancy
  Np  Np0  1  0.500000  0.629375  0.147094  1
  Np  Np1  1  0.500000  0.374591  0.851682  1
  Np  Np2  1  0.500000  0.128874  0.349801  1
  Np  Np3  1  0.500000  0.871335  0.654176  1
  Mn  Mn4  1  0.500000  0.862071  0.908569  1
  B  B5  1  0.000000  0.970233  0.190458  1
  B  B6  1  0.000000  0.022680  0.810143  1
  B  B7  1  0.000000  0.472113  0.306383  1
  B  B8  1  0.000000  0.527553  0.694715  1
  B  B9  1  0.000000  0.789314  0.310187  1
  B  B10  1  0.000000  0.210733  0.690568  1
  B  B11  1  0.000000  0.288909  0.186504  1
  B  B12  1  0.000000  0.716031  0.815296  1
  B  B13  1  0.000000  0.867045  0.469499  1
  B  B14  1  0.000000  0.133027  0.532792  1
  B  B15  1  0.000000  0.366762  0.030014  1
  B  B16  1  0.000000  0.637152  0.965639  1
  B  B17  1  0.000000  0.882734  0.043228  1
  B  B18  1  0.000000  0.111094  0.951409  1
  B  B19  1  0.000000  0.384349  0.452856  1
  B  B20  1  0.000000  0.616346  0.548928  1
  Ir  Ir21  1  0.500000  0.641460  0.406192  1
  Ir  Ir22  1  0.500000  0.360363  0.594154  1
  Ir  Ir23  1  0.500000  0.135857  0.089710  1
