# generated using pymatgen
data_Tm3Co8P6Ru
_symmetry_space_group_name_H-M   'P 1'
_cell_length_a   3.67823300
_cell_length_b   10.47703900
_cell_length_c   12.17877900
_cell_angle_alpha   90.00000000
_cell_angle_beta   90.00000000
_cell_angle_gamma   90.00000000
_symmetry_Int_Tables_number   1
_chemical_formula_structural   Tm3Co8P6Ru
_chemical_formula_sum   'Tm6 Co16 P12 Ru2'
_cell_volume   469.33349175
_cell_formula_units_Z   2
loop_
 _symmetry_equiv_pos_site_id
 _symmetry_equiv_pos_as_xyz
  1  'x, y, z'
loop_
 _atom_site_type_symbol
 _atom_site_label
 _atom_site_symmetry_multiplicity
 _atom_site_fract_x
 _atom_site_fract_y
 _atom_site_fract_z
 _atom_site_occupancy
  Tm  Tm0  1  0.000000  0.500000  0.524857  1
  Tm  Tm1  1  0.500000  0.000000  0.475143  1
  Tm  Tm2  1  0.500000  0.817746  0.206805  1
  Tm  Tm3  1  0.500000  0.182254  0.206805  1
  Tm  Tm4  1  0.000000  0.682254  0.793195  1
  Tm  Tm5  1  0.000000  0.317746  0.793195  1
  Co  Co6  1  0.500000  0.500000  0.703446  1
  Co  Co7  1  0.000000  0.000000  0.296554  1
  Co  Co8  1  0.000000  0.500000  0.985996  1
  Co  Co9  1  0.500000  0.000000  0.014004  1
  Co  Co10  1  0.500000  0.332607  0.990257  1
  Co  Co11  1  0.500000  0.667393  0.990257  1
  Co  Co12  1  0.000000  0.167393  0.009743  1
  Co  Co13  1  0.000000  0.832607  0.009743  1
  Co  Co14  1  0.500000  0.297095  0.431177  1
  Co  Co15  1  0.500000  0.702905  0.431177  1
  Co  Co16  1  0.000000  0.202905  0.568823  1
  Co  Co17  1  0.000000  0.797095  0.568823  1
  Co  Co18  1  0.500000  0.878055  0.707744  1
  Co  Co19  1  0.500000  0.121945  0.707744  1
  Co  Co20  1  0.000000  0.621945  0.292256  1
  Co  Co21  1  0.000000  0.378055  0.292256  1
  P  P22  1  0.500000  0.500000  0.880802  1
  P  P23  1  0.000000  0.000000  0.119198  1
  P  P24  1  0.500000  0.500000  0.351455  1
  P  P25  1  0.000000  0.000000  0.648545  1
  P  P26  1  0.500000  0.312757  0.616655  1
  P  P27  1  0.500000  0.687243  0.616655  1
  P  P28  1  0.000000  0.187243  0.383345  1
  P  P29  1  0.000000  0.812757  0.383345  1
  P  P30  1  0.500000  0.845960  0.892778  1
  P  P31  1  0.500000  0.154040  0.892778  1
  P  P32  1  0.000000  0.654040  0.107222  1
  P  P33  1  0.000000  0.345960  0.107222  1
  Ru  Ru34  1  0.500000  0.500000  0.159714  1
  Ru  Ru35  1  0.000000  0.000000  0.840286  1
