# generated using pymatgen
data_PmDy(BeGe)2
_symmetry_space_group_name_H-M   'P 1'
_cell_length_a   5.78484693
_cell_length_b   5.78484720
_cell_length_c   5.78484800
_cell_angle_alpha   140.14325086
_cell_angle_beta   107.77262762
_cell_angle_gamma   85.82003157
_symmetry_Int_Tables_number   1
_chemical_formula_structural   PmDy(BeGe)2
_chemical_formula_sum   'Pm1 Dy1 Be2 Ge2'
_cell_volume   113.93512419
_cell_formula_units_Z   1
loop_
 _symmetry_equiv_pos_site_id
 _symmetry_equiv_pos_as_xyz
  1  'x, y, z'
loop_
 _atom_site_type_symbol
 _atom_site_label
 _atom_site_symmetry_multiplicity
 _atom_site_fract_x
 _atom_site_fract_y
 _atom_site_fract_z
 _atom_site_occupancy
  Pm  Pm0  1  0.000081  0.000000  0.000081  1
  Dy  Dy1  1  0.500335  0.500000  0.000335  1
  Be  Be2  1  0.583248  0.250347  0.332903  1
  Be  Be3  1  0.082555  0.749652  0.332903  1
  Ge  Ge4  1  0.916701  0.249812  0.666889  1
  Ge  Ge5  1  0.417077  0.750187  0.666888  1
