# generated using pymatgen
data_PrBiI18
_symmetry_space_group_name_H-M   'P 1'
_cell_length_a   10.54348352
_cell_length_b   10.57554605
_cell_length_c   10.52374680
_cell_angle_alpha   88.92999447
_cell_angle_beta   89.03642721
_cell_angle_gamma   88.81466090
_symmetry_Int_Tables_number   1
_chemical_formula_structural   PrBiI18
_chemical_formula_sum   'Pr1 Bi1 I18'
_cell_volume   1172.81620774
_cell_formula_units_Z   1
loop_
 _symmetry_equiv_pos_site_id
 _symmetry_equiv_pos_as_xyz
  1  'x, y, z'
loop_
 _atom_site_type_symbol
 _atom_site_label
 _atom_site_symmetry_multiplicity
 _atom_site_fract_x
 _atom_site_fract_y
 _atom_site_fract_z
 _atom_site_occupancy
  Pr  Pr0  1  0.500000  0.500000  0.500000  1
  Bi  Bi1  1  0.000000  0.000000  0.000000  1
  I  I2  1  0.798592  0.464183  0.502641  1
  I  I3  1  0.501225  0.797569  0.463288  1
  I  I4  1  0.464418  0.502569  0.798933  1
  I  I5  1  0.201408  0.535817  0.497359  1
  I  I6  1  0.498775  0.202431  0.536712  1
  I  I7  1  0.535582  0.497431  0.201067  1
  I  I8  1  0.898304  0.377642  0.749881  1
  I  I9  1  0.747894  0.896769  0.377808  1
  I  I10  1  0.378054  0.748786  0.898252  1
  I  I11  1  0.101696  0.622358  0.250119  1
  I  I12  1  0.252106  0.103231  0.622192  1
  I  I13  1  0.621946  0.251214  0.101748  1
  I  I14  1  0.017138  0.980389  0.702907  1
  I  I15  1  0.703558  0.016864  0.978244  1
  I  I16  1  0.978465  0.704468  0.014488  1
  I  I17  1  0.982862  0.019611  0.297093  1
  I  I18  1  0.296442  0.983136  0.021756  1
  I  I19  1  0.021535  0.295532  0.985512  1
