# generated using pymatgen
data_Nb4Mo3Os
_symmetry_space_group_name_H-M   'P 1'
_cell_length_a   6.45963500
_cell_length_b   6.46183300
_cell_length_c   6.45646800
_cell_angle_alpha   89.99996453
_cell_angle_beta   90.00000000
_cell_angle_gamma   90.00000000
_symmetry_Int_Tables_number   1
_chemical_formula_structural   Nb4Mo3Os
_chemical_formula_sum   'Nb8 Mo6 Os2'
_cell_volume   269.49996416
_cell_formula_units_Z   2
loop_
 _symmetry_equiv_pos_site_id
 _symmetry_equiv_pos_as_xyz
  1  'x, y, z'
loop_
 _atom_site_type_symbol
 _atom_site_label
 _atom_site_symmetry_multiplicity
 _atom_site_fract_x
 _atom_site_fract_y
 _atom_site_fract_z
 _atom_site_occupancy
  Nb  Nb0  1  0.499767  0.999993  0.249990  1
  Nb  Nb1  1  0.499765  0.500020  0.249987  1
  Nb  Nb2  1  0.999766  0.000007  0.250008  1
  Nb  Nb3  1  0.999764  0.499980  0.250011  1
  Nb  Nb4  1  0.000229  0.999993  0.749985  1
  Nb  Nb5  1  0.000231  0.500020  0.749986  1
  Nb  Nb6  1  0.500229  0.000007  0.750015  1
  Nb  Nb7  1  0.500231  0.499980  0.750014  1
  Mo  Mo8  1  0.749992  0.250000  0.000105  1
  Mo  Mo9  1  0.249992  0.750000  0.499897  1
  Mo  Mo10  1  0.249998  0.250000  0.000083  1
  Mo  Mo11  1  0.749998  0.750000  0.499917  1
  Mo  Mo12  1  0.250003  0.250000  0.500092  1
  Mo  Mo13  1  0.750004  0.750000  0.999909  1
  Os  Os14  1  0.750017  0.250000  0.500098  1
  Os  Os15  1  0.250017  0.750000  0.999902  1
