# generated using pymatgen
data_CeDy5Al24Ru7Au
_symmetry_space_group_name_H-M   'P 1'
_cell_length_a   8.85376118
_cell_length_b   8.85220174
_cell_length_c   9.56626156
_cell_angle_alpha   89.88231634
_cell_angle_beta   90.11698406
_cell_angle_gamma   119.86545692
_symmetry_Int_Tables_number   1
_chemical_formula_structural   CeDy5Al24Ru7Au
_chemical_formula_sum   'Ce1 Dy5 Al24 Ru7 Au1'
_cell_volume   650.18653355
_cell_formula_units_Z   1
loop_
 _symmetry_equiv_pos_site_id
 _symmetry_equiv_pos_as_xyz
  1  'x, y, z'
loop_
 _atom_site_type_symbol
 _atom_site_label
 _atom_site_symmetry_multiplicity
 _atom_site_fract_x
 _atom_site_fract_y
 _atom_site_fract_z
 _atom_site_occupancy
  Ce  Ce0  1  0.191043  0.385699  0.250948  1
  Dy  Dy1  1  0.808774  0.616153  0.750388  1
  Dy  Dy2  1  0.192952  0.804497  0.253325  1
  Dy  Dy3  1  0.613578  0.806720  0.250255  1
  Dy  Dy4  1  0.386698  0.191115  0.749614  1
  Dy  Dy5  1  0.805464  0.194055  0.745907  1
  Al  Al6  1  0.334746  0.669655  0.485001  1
  Al  Al7  1  0.672991  0.329649  0.975947  1
  Al  Al8  1  0.667086  0.334378  0.517561  1
  Al  Al9  1  0.330216  0.674701  0.022845  1
  Al  Al10  1  0.162056  0.323715  0.579150  1
  Al  Al11  1  0.676155  0.837706  0.577886  1
  Al  Al12  1  0.161830  0.836840  0.579338  1
  Al  Al13  1  0.835974  0.161907  0.077253  1
  Al  Al14  1  0.835028  0.161266  0.421659  1
  Al  Al15  1  0.848933  0.677885  0.078478  1
  Al  Al16  1  0.321963  0.150632  0.079053  1
  Al  Al17  1  0.678518  0.849313  0.919738  1
  Al  Al18  1  0.151564  0.321868  0.919712  1
  Al  Al19  1  0.837976  0.675488  0.423731  1
  Al  Al20  1  0.998126  0.998404  0.250352  1
  Al  Al21  1  0.001107  0.000203  0.749974  1
  Al  Al22  1  0.560266  0.120609  0.248210  1
  Al  Al23  1  0.437131  0.563572  0.743859  1
  Al  Al24  1  0.120973  0.560531  0.751329  1
  Al  Al25  1  0.874775  0.438444  0.248396  1
  Al  Al26  1  0.565071  0.435392  0.255389  1
  Al  Al27  1  0.438965  0.877658  0.751505  1
  Al  Al28  1  0.162468  0.837135  0.921455  1
  Al  Al29  1  0.324943  0.160907  0.423515  1
  Ru  Ru30  1  0.999776  0.999707  0.500392  1
  Ru  Ru31  1  0.999643  0.999453  0.999958  1
  Ru  Ru32  1  0.500590  0.001258  0.500856  1
  Ru  Ru33  1  0.001344  0.500468  0.001020  1
  Ru  Ru34  1  0.000664  0.499919  0.498759  1
  Ru  Ru35  1  0.499269  0.500052  0.498450  1
  Ru  Ru36  1  0.501025  0.002199  0.998580  1
  Au  Au37  1  0.500316  0.500849  0.000212  1
