# generated using pymatgen
data_Rb3AuS13
_symmetry_space_group_name_H-M   'P 1'
_cell_length_a   5.17331100
_cell_length_b   13.41568960
_cell_length_c   15.05237271
_cell_angle_alpha   86.69450090
_cell_angle_beta   90.00000000
_cell_angle_gamma   90.00000000
_symmetry_Int_Tables_number   1
_chemical_formula_structural   Rb3AuS13
_chemical_formula_sum   'Rb6 Au2 S26'
_cell_volume   1042.94980893
_cell_formula_units_Z   2
loop_
 _symmetry_equiv_pos_site_id
 _symmetry_equiv_pos_as_xyz
  1  'x, y, z'
loop_
 _atom_site_type_symbol
 _atom_site_label
 _atom_site_symmetry_multiplicity
 _atom_site_fract_x
 _atom_site_fract_y
 _atom_site_fract_z
 _atom_site_occupancy
  Rb  Rb0  1  0.230288  0.177274  0.710275  1
  Rb  Rb1  1  0.230288  0.322726  0.289725  1
  Rb  Rb2  1  0.182012  0.250000  0.000000  1
  Rb  Rb3  1  0.817988  0.750000  0.000000  1
  Rb  Rb4  1  0.769712  0.822726  0.289725  1
  Rb  Rb5  1  0.769712  0.677274  0.710275  1
  Au  Au6  1  0.000000  0.500000  0.500000  1
  Au  Au7  1  0.000000  0.000000  0.500000  1
  S  S8  1  0.273673  0.544608  0.622102  1
  S  S9  1  0.676623  0.560594  0.275884  1
  S  S10  1  0.323377  0.060594  0.275884  1
  S  S11  1  0.323377  0.439406  0.724116  1
  S  S12  1  0.904698  0.522060  0.165508  1
  S  S13  1  0.904698  0.977940  0.834492  1
  S  S14  1  0.095302  0.477940  0.834492  1
  S  S15  1  0.095302  0.022060  0.165508  1
  S  S16  1  0.688366  0.427233  0.092297  1
  S  S17  1  0.676623  0.939406  0.724116  1
  S  S18  1  0.311634  0.572767  0.907703  1
  S  S19  1  0.311634  0.927233  0.092297  1
  S  S20  1  0.707257  0.283075  0.145193  1
  S  S21  1  0.707257  0.216925  0.854807  1
  S  S22  1  0.292743  0.716925  0.854807  1
  S  S23  1  0.292743  0.783075  0.145193  1
  S  S24  1  0.098768  0.659118  0.425187  1
  S  S25  1  0.098768  0.840882  0.574813  1
  S  S26  1  0.901232  0.340882  0.574813  1
  S  S27  1  0.901232  0.159118  0.425187  1
  S  S28  1  0.677681  0.250000  0.500000  1
  S  S29  1  0.322319  0.750000  0.500000  1
  S  S30  1  0.726327  0.455392  0.377898  1
  S  S31  1  0.726327  0.044608  0.622102  1
  S  S32  1  0.688366  0.072767  0.907703  1
  S  S33  1  0.273673  0.955392  0.377898  1
