# generated using pymatgen
data_Y3HoAl16(SiRh3)2
_symmetry_space_group_name_H-M   'P 1'
_cell_length_a   7.53825038
_cell_length_b   7.51106990
_cell_length_c   9.43697371
_cell_angle_alpha   89.97227953
_cell_angle_beta   89.87939724
_cell_angle_gamma   119.67136698
_symmetry_Int_Tables_number   1
_chemical_formula_structural   Y3HoAl16(SiRh3)2
_chemical_formula_sum   'Y3 Ho1 Al16 Si2 Rh6'
_cell_volume   464.26161738
_cell_formula_units_Z   1
loop_
 _symmetry_equiv_pos_site_id
 _symmetry_equiv_pos_as_xyz
  1  'x, y, z'
loop_
 _atom_site_type_symbol
 _atom_site_label
 _atom_site_symmetry_multiplicity
 _atom_site_fract_x
 _atom_site_fract_y
 _atom_site_fract_z
 _atom_site_occupancy
  Y  Y0  1  0.005345  0.335166  0.756700  1
  Y  Y1  1  0.675553  0.000983  0.247184  1
  Y  Y2  1  0.324390  0.998971  0.752840  1
  Ho  Ho3  1  0.994703  0.664720  0.243118  1
  Al  Al4  1  0.128960  0.127246  0.250449  1
  Al  Al5  1  0.871126  0.872620  0.749562  1
  Al  Al6  1  0.998702  0.665541  0.568987  1
  Al  Al7  1  0.334710  0.999166  0.425299  1
  Al  Al8  1  0.001287  0.334642  0.430802  1
  Al  Al9  1  0.665099  0.000659  0.574688  1
  Al  Al10  1  0.661458  0.996457  0.922597  1
  Al  Al11  1  0.338335  0.003340  0.077407  1
  Al  Al12  1  0.333176  0.332064  0.553260  1
  Al  Al13  1  0.666985  0.667935  0.446655  1
  Al  Al14  1  0.664064  0.666844  0.053900  1
  Al  Al15  1  0.336106  0.333160  0.946177  1
  Al  Al16  1  0.339586  0.549968  0.249814  1
  Al  Al17  1  0.660260  0.449993  0.750192  1
  Al  Al18  1  0.548099  0.341746  0.250238  1
  Al  Al19  1  0.452091  0.658463  0.749762  1
  Si  Si20  1  0.002948  0.328983  0.076876  1
  Si  Si21  1  0.997043  0.671286  0.923362  1
  Rh  Rh22  1  0.689829  0.337467  0.001698  1
  Rh  Rh23  1  0.310212  0.662710  0.998660  1
  Rh  Rh24  1  0.327279  0.670991  0.500359  1
  Rh  Rh25  1  0.672750  0.329107  0.499369  1
  Rh  Rh26  1  0.999941  0.999856  0.000178  1
  Rh  Rh27  1  0.999962  0.999916  0.499868  1
