# generated using pymatgen
data_Ce8Si13Rh3
_symmetry_space_group_name_H-M   'P 1'
_cell_length_a   8.20559400
_cell_length_b   8.20559499
_cell_length_c   8.22136900
_cell_angle_alpha   90.00000000
_cell_angle_beta   90.00000000
_cell_angle_gamma   119.99999601
_symmetry_Int_Tables_number   1
_chemical_formula_structural   Ce8Si13Rh3
_chemical_formula_sum   'Ce8 Si13 Rh3'
_cell_volume   479.39653703
_cell_formula_units_Z   1
loop_
 _symmetry_equiv_pos_site_id
 _symmetry_equiv_pos_as_xyz
  1  'x, y, z'
loop_
 _atom_site_type_symbol
 _atom_site_label
 _atom_site_symmetry_multiplicity
 _atom_site_fract_x
 _atom_site_fract_y
 _atom_site_fract_z
 _atom_site_occupancy
  Ce  Ce0  1  0.000000  0.000000  0.251749  1
  Ce  Ce1  1  0.000000  0.000000  0.748262  1
  Ce  Ce2  1  0.499476  0.500524  0.252053  1
  Ce  Ce3  1  0.499476  0.998952  0.252053  1
  Ce  Ce4  1  0.001048  0.500524  0.252053  1
  Ce  Ce5  1  0.499164  0.500836  0.747555  1
  Ce  Ce6  1  0.499164  0.998328  0.747555  1
  Ce  Ce7  1  0.001672  0.500836  0.747555  1
  Si  Si8  1  0.166211  0.833789  0.500467  1
  Si  Si9  1  0.166211  0.332423  0.500467  1
  Si  Si10  1  0.667577  0.833789  0.500467  1
  Si  Si11  1  0.834118  0.165882  0.499299  1
  Si  Si12  1  0.834118  0.668237  0.499299  1
  Si  Si13  1  0.331763  0.165882  0.499299  1
  Si  Si14  1  0.834411  0.165589  0.001096  1
  Si  Si15  1  0.834411  0.668822  0.001096  1
  Si  Si16  1  0.331178  0.165589  0.001096  1
  Si  Si17  1  0.165719  0.834281  0.998722  1
  Si  Si18  1  0.165719  0.331441  0.998722  1
  Si  Si19  1  0.668559  0.834281  0.998722  1
  Si  Si20  1  0.333333  0.666667  0.499069  1
  Rh  Rh21  1  0.666667  0.333333  0.502995  1
  Rh  Rh22  1  0.666667  0.333333  0.997060  1
  Rh  Rh23  1  0.333333  0.666667  0.003286  1
