# generated using pymatgen
data_Na5CaNbAs4
_symmetry_space_group_name_H-M   'P 1'
_cell_length_a   9.54318451
_cell_length_b   9.54318405
_cell_length_c   7.39722171
_cell_angle_alpha   90.81142652
_cell_angle_beta   90.81143187
_cell_angle_gamma   120.15778890
_symmetry_Int_Tables_number   1
_chemical_formula_structural   Na5CaNbAs4
_chemical_formula_sum   'Na10 Ca2 Nb2 As8'
_cell_volume   582.26148768
_cell_formula_units_Z   2
loop_
 _symmetry_equiv_pos_site_id
 _symmetry_equiv_pos_as_xyz
  1  'x, y, z'
loop_
 _atom_site_type_symbol
 _atom_site_label
 _atom_site_symmetry_multiplicity
 _atom_site_fract_x
 _atom_site_fract_y
 _atom_site_fract_z
 _atom_site_occupancy
  Na  Na0  1  0.536522  0.471592  0.614619  1
  Na  Na1  1  0.938822  0.470972  0.615870  1
  Na  Na2  1  0.471592  0.536522  0.114619  1
  Na  Na3  1  0.470972  0.938822  0.115870  1
  Na  Na4  1  0.138300  0.852631  0.782370  1
  Na  Na5  1  0.709764  0.847350  0.803753  1
  Na  Na6  1  0.148278  0.291758  0.772642  1
  Na  Na7  1  0.852631  0.138300  0.282370  1
  Na  Na8  1  0.291758  0.148278  0.272642  1
  Na  Na9  1  0.847350  0.709764  0.303753  1
  Ca  Ca10  1  0.533079  0.059089  0.609204  1
  Ca  Ca11  1  0.059089  0.533079  0.109204  1
  Nb  Nb12  1  0.331368  0.664585  0.500440  1
  Nb  Nb13  1  0.664585  0.331368  0.000440  1
  As  As14  1  0.323562  0.665593  0.838048  1
  As  As15  1  0.665593  0.323562  0.338048  1
  As  As16  1  0.813219  0.193795  0.889265  1
  As  As17  1  0.382801  0.187365  0.875547  1
  As  As18  1  0.818250  0.621302  0.912243  1
  As  As19  1  0.193795  0.813219  0.389265  1
  As  As20  1  0.621302  0.818250  0.412243  1
  As  As21  1  0.187365  0.382801  0.375547  1
