# generated using pymatgen
data_LaPr5SnHg9
_symmetry_space_group_name_H-M   'P 1'
_cell_length_a   6.55242811
_cell_length_b   6.55242908
_cell_length_c   10.76522785
_cell_angle_alpha   91.22141531
_cell_angle_beta   91.22141912
_cell_angle_gamma   104.88244184
_symmetry_Int_Tables_number   1
_chemical_formula_structural   LaPr5SnHg9
_chemical_formula_sum   'La1 Pr5 Sn1 Hg9'
_cell_volume   446.42004567
_cell_formula_units_Z   1
loop_
 _symmetry_equiv_pos_site_id
 _symmetry_equiv_pos_as_xyz
  1  'x, y, z'
loop_
 _atom_site_type_symbol
 _atom_site_label
 _atom_site_symmetry_multiplicity
 _atom_site_fract_x
 _atom_site_fract_y
 _atom_site_fract_z
 _atom_site_occupancy
  La  La0  1  0.604790  0.604790  0.248692  1
  Pr  Pr1  1  0.392817  0.392817  0.755910  1
  Pr  Pr2  1  0.204349  0.804410  0.496107  1
  Pr  Pr3  1  0.203869  0.796823  0.997493  1
  Pr  Pr4  1  0.804410  0.204349  0.496107  1
  Pr  Pr5  1  0.796823  0.203869  0.997493  1
  Sn  Sn6  1  0.685102  0.685102  0.544783  1
  Hg  Hg7  1  0.003299  0.003299  0.242602  1
  Hg  Hg8  1  0.998921  0.998921  0.751110  1
  Hg  Hg9  1  0.300791  0.300791  0.035968  1
  Hg  Hg10  1  0.694211  0.694211  0.966972  1
  Hg  Hg11  1  0.309142  0.309142  0.464464  1
  Hg  Hg12  1  0.487743  0.061356  0.248619  1
  Hg  Hg13  1  0.938897  0.513479  0.752531  1
  Hg  Hg14  1  0.513479  0.938897  0.752531  1
  Hg  Hg15  1  0.061356  0.487743  0.248619  1
