# generated using pymatgen
data_Ho7Lu(Ge4Mo3)4
_symmetry_space_group_name_H-M   'P 1'
_cell_length_a   6.92465129
_cell_length_b   7.03191106
_cell_length_c   13.12553736
_cell_angle_alpha   89.99654911
_cell_angle_beta   89.97227449
_cell_angle_gamma   90.00676085
_symmetry_Int_Tables_number   1
_chemical_formula_structural   Ho7Lu(Ge4Mo3)4
_chemical_formula_sum   'Ho7 Lu1 Ge16 Mo12'
_cell_volume   639.12869361
_cell_formula_units_Z   1
loop_
 _symmetry_equiv_pos_site_id
 _symmetry_equiv_pos_as_xyz
  1  'x, y, z'
loop_
 _atom_site_type_symbol
 _atom_site_label
 _atom_site_symmetry_multiplicity
 _atom_site_fract_x
 _atom_site_fract_y
 _atom_site_fract_z
 _atom_site_occupancy
  Ho  Ho0  1  0.489057  0.329824  0.092044  1
  Ho  Ho1  1  0.989273  0.170055  0.408153  1
  Ho  Ho2  1  0.511119  0.669902  0.592066  1
  Ho  Ho3  1  0.010665  0.830055  0.908543  1
  Ho  Ho4  1  0.510701  0.670365  0.908478  1
  Ho  Ho5  1  0.010855  0.829757  0.592016  1
  Ho  Ho6  1  0.488887  0.330024  0.407375  1
  Lu  Lu7  1  0.987785  0.170977  0.092055  1
  Ge  Ge8  1  0.669969  0.046794  0.547977  1
  Ge  Ge9  1  0.169541  0.452956  0.952523  1
  Ge  Ge10  1  0.327753  0.954172  0.048604  1
  Ge  Ge11  1  0.829725  0.547078  0.451675  1
  Ge  Ge12  1  0.330384  0.952987  0.451691  1
  Ge  Ge13  1  0.830707  0.545522  0.048240  1
  Ge  Ge14  1  0.670924  0.046876  0.952383  1
  Ge  Ge15  1  0.170511  0.453202  0.548038  1
  Ge  Ge16  1  0.529636  0.367488  0.750268  1
  Ge  Ge17  1  0.029543  0.131985  0.750092  1
  Ge  Ge18  1  0.470611  0.632812  0.249712  1
  Ge  Ge19  1  0.970793  0.868944  0.249258  1
  Ge  Ge20  1  0.810689  0.645558  0.750492  1
  Ge  Ge21  1  0.310433  0.853846  0.750131  1
  Ge  Ge22  1  0.188251  0.353298  0.248978  1
  Ge  Ge23  1  0.690477  0.145766  0.249550  1
  Mo  Mo24  1  0.830092  0.345138  0.627143  1
  Mo  Mo25  1  0.329465  0.154620  0.873391  1
  Mo  Mo26  1  0.170216  0.654479  0.127067  1
  Mo  Mo27  1  0.670671  0.845508  0.372530  1
  Mo  Mo28  1  0.169944  0.654733  0.372443  1
  Mo  Mo29  1  0.671119  0.845979  0.126559  1
  Mo  Mo30  1  0.830193  0.344681  0.873537  1
  Mo  Mo31  1  0.330038  0.154582  0.627058  1
  Mo  Mo32  1  0.665824  0.005192  0.750226  1
  Mo  Mo33  1  0.166004  0.494285  0.750262  1
  Mo  Mo34  1  0.333916  0.995197  0.249724  1
  Mo  Mo35  1  0.834231  0.505368  0.249711  1
