# generated using pymatgen
data_Ba12Sn3IrI8
_symmetry_space_group_name_H-M   'P 1'
_cell_length_a   16.78111645
_cell_length_b   16.00661609
_cell_length_c   8.73912500
_cell_angle_alpha   79.50112888
_cell_angle_beta   69.69821462
_cell_angle_gamma   31.30355548
_symmetry_Int_Tables_number   1
_chemical_formula_structural   Ba12Sn3IrI8
_chemical_formula_sum   'Ba12 Sn3 Ir1 I8'
_cell_volume   1112.00198717
_cell_formula_units_Z   1
loop_
 _symmetry_equiv_pos_site_id
 _symmetry_equiv_pos_as_xyz
  1  'x, y, z'
loop_
 _atom_site_type_symbol
 _atom_site_label
 _atom_site_symmetry_multiplicity
 _atom_site_fract_x
 _atom_site_fract_y
 _atom_site_fract_z
 _atom_site_occupancy
  Ba  Ba0  1  0.365848  0.944219  0.608382  1
  Ba  Ba1  1  0.587996  0.091788  0.386421  1
  Ba  Ba2  1  0.297195  0.877380  0.140980  1
  Ba  Ba3  1  0.944219  0.365848  0.081553  1
  Ba  Ba4  1  0.472241  0.026829  0.031391  1
  Ba  Ba5  1  0.877380  0.297195  0.684445  1
  Ba  Ba6  1  0.091788  0.587996  0.933795  1
  Ba  Ba7  1  0.661954  0.161559  0.859522  1
  Ba  Ba8  1  0.798127  0.215621  0.202657  1
  Ba  Ba9  1  0.215621  0.798127  0.783595  1
  Ba  Ba10  1  0.161559  0.661954  0.316963  1
  Ba  Ba11  1  0.026829  0.472241  0.469539  1
  Sn  Sn12  1  0.919340  0.919340  0.080660  1
  Sn  Sn13  1  0.163581  0.163581  0.336419  1
  Sn  Sn14  1  0.333785  0.333785  0.166215  1
  Ir  Ir15  1  0.083912  0.083912  0.916088  1
  I  I16  1  0.668743  0.668743  0.831257  1
  I  I17  1  0.745333  0.745333  0.254667  1
  I  I18  1  0.250616  0.250616  0.749384  1
  I  I19  1  0.579906  0.579906  0.420094  1
  I  I20  1  0.998275  0.998275  0.501725  1
  I  I21  1  0.828352  0.828352  0.671648  1
  I  I22  1  0.423764  0.423764  0.576236  1
  I  I23  1  0.503635  0.503635  0.996365  1
