# generated using pymatgen
data_TbZnCu3Hg
_symmetry_space_group_name_H-M   'P 1'
_cell_length_a   5.18031316
_cell_length_b   5.18031374
_cell_length_c   5.14690636
_cell_angle_alpha   59.78507268
_cell_angle_beta   59.78506634
_cell_angle_gamma   59.99999475
_symmetry_Int_Tables_number   1
_chemical_formula_structural   TbZnCu3Hg
_chemical_formula_sum   'Tb1 Zn1 Cu3 Hg1'
_cell_volume   97.34749560
_cell_formula_units_Z   1
loop_
 _symmetry_equiv_pos_site_id
 _symmetry_equiv_pos_as_xyz
  1  'x, y, z'
loop_
 _atom_site_type_symbol
 _atom_site_label
 _atom_site_symmetry_multiplicity
 _atom_site_fract_x
 _atom_site_fract_y
 _atom_site_fract_z
 _atom_site_occupancy
  Tb  Tb0  1  0.001801  0.001801  0.994598  1
  Zn  Zn1  1  0.623090  0.623090  0.130729  1
  Cu  Cu2  1  0.624354  0.125487  0.625804  1
  Cu  Cu3  1  0.125487  0.624354  0.625804  1
  Cu  Cu4  1  0.624354  0.624354  0.625804  1
  Hg  Hg5  1  0.250914  0.250914  0.247258  1
