# generated using pymatgen
data_Dy4Er4B24IrRh3
_symmetry_space_group_name_H-M   'P 1'
_cell_length_a   3.64524800
_cell_length_b   9.15974107
_cell_length_c   11.49874500
_cell_angle_alpha   90.05329974
_cell_angle_beta   90.00000000
_cell_angle_gamma   90.00000000
_symmetry_Int_Tables_number   1
_chemical_formula_structural   Dy4Er4B24IrRh3
_chemical_formula_sum   'Dy4 Er4 B24 Ir1 Rh3'
_cell_volume   383.93750006
_cell_formula_units_Z   1
loop_
 _symmetry_equiv_pos_site_id
 _symmetry_equiv_pos_as_xyz
  1  'x, y, z'
loop_
 _atom_site_type_symbol
 _atom_site_label
 _atom_site_symmetry_multiplicity
 _atom_site_fract_x
 _atom_site_fract_y
 _atom_site_fract_z
 _atom_site_occupancy
  Dy  Dy0  1  0.500000  0.322858  0.414123  1
  Dy  Dy1  1  0.500000  0.677139  0.586548  1
  Dy  Dy2  1  0.500000  0.178104  0.912799  1
  Dy  Dy3  1  0.500000  0.821756  0.086365  1
  Er  Er4  1  0.500000  0.445378  0.126363  1
  Er  Er5  1  0.500000  0.555624  0.873049  1
  Er  Er6  1  0.500000  0.055667  0.626747  1
  Er  Er7  1  0.500000  0.943599  0.374190  1
  B  B8  1  0.000000  0.109513  0.470271  1
  B  B9  1  0.000000  0.890056  0.529926  1
  B  B10  1  0.000000  0.390865  0.970221  1
  B  B11  1  0.000000  0.609569  0.029500  1
  B  B12  1  0.000000  0.132584  0.316114  1
  B  B13  1  0.000000  0.867004  0.684077  1
  B  B14  1  0.000000  0.366994  0.815878  1
  B  B15  1  0.000000  0.633277  0.183728  1
  B  B16  1  0.000000  0.054450  0.065850  1
  B  B17  1  0.000000  0.945967  0.934116  1
  B  B18  1  0.000000  0.445952  0.565694  1
  B  B19  1  0.000000  0.553692  0.434366  1
  B  B20  1  0.000000  0.482944  0.286469  1
  B  B21  1  0.000000  0.517009  0.713505  1
  B  B22  1  0.000000  0.017160  0.786373  1
  B  B23  1  0.000000  0.983082  0.214044  1
  B  B24  1  0.000000  0.249997  0.079301  1
  B  B25  1  0.000000  0.750204  0.920346  1
  B  B26  1  0.000000  0.250510  0.579599  1
  B  B27  1  0.000000  0.749193  0.420503  1
  B  B28  1  0.000000  0.294104  0.235000  1
  B  B29  1  0.000000  0.705846  0.764516  1
  B  B30  1  0.000000  0.205762  0.735459  1
  B  B31  1  0.000000  0.794000  0.264459  1
  Ir  Ir32  1  0.500000  0.139741  0.179055  1
  Rh  Rh33  1  0.500000  0.860803  0.821697  1
  Rh  Rh34  1  0.500000  0.360029  0.679492  1
  Rh  Rh35  1  0.500000  0.639568  0.320259  1
