# generated using pymatgen
data_Ho6Tm(LuPb2)3
_symmetry_space_group_name_H-M   'P 1'
_cell_length_a   6.52023300
_cell_length_b   8.98605068
_cell_length_c   8.98583000
_cell_angle_alpha   119.99995109
_cell_angle_beta   89.99963168
_cell_angle_gamma   90.00146556
_symmetry_Int_Tables_number   1
_chemical_formula_structural   Ho6Tm(LuPb2)3
_chemical_formula_sum   'Ho6 Tm1 Lu3 Pb6'
_cell_volume   455.95399241
_cell_formula_units_Z   1
loop_
 _symmetry_equiv_pos_site_id
 _symmetry_equiv_pos_as_xyz
  1  'x, y, z'
loop_
 _atom_site_type_symbol
 _atom_site_label
 _atom_site_symmetry_multiplicity
 _atom_site_fract_x
 _atom_site_fract_y
 _atom_site_fract_z
 _atom_site_occupancy
  Ho  Ho0  1  0.750036  0.237398  0.000018  1
  Ho  Ho1  1  0.750031  0.762658  0.762610  1
  Ho  Ho2  1  0.750026  0.000010  0.237375  1
  Ho  Ho3  1  0.249966  0.762636  0.000019  1
  Ho  Ho4  1  0.249978  0.237368  0.237372  1
  Ho  Ho5  1  0.249976  0.999957  0.762611  1
  Tm  Tm6  1  0.499982  0.333325  0.666693  1
  Lu  Lu7  1  0.499993  0.666631  0.333307  1
  Lu  Lu8  1  0.999988  0.666671  0.333312  1
  Lu  Lu9  1  0.999993  0.333360  0.666687  1
  Pb  Pb10  1  0.750049  0.604269  0.000065  1
  Pb  Pb11  1  0.750070  0.395844  0.395796  1
  Pb  Pb12  1  0.750071  0.999913  0.604137  1
  Pb  Pb13  1  0.249963  0.395792  0.000068  1
  Pb  Pb14  1  0.249938  0.604221  0.604133  1
  Pb  Pb15  1  0.249941  0.999947  0.395797  1
