# generated using pymatgen
data_La16Dy(ErIr4)3
_symmetry_space_group_name_H-M   'P 1'
_cell_length_a   11.35394100
_cell_length_b   11.35394100
_cell_length_c   6.53940000
_cell_angle_alpha   90.00000000
_cell_angle_beta   90.00000000
_cell_angle_gamma   90.00000000
_symmetry_Int_Tables_number   1
_chemical_formula_structural   La16Dy(ErIr4)3
_chemical_formula_sum   'La16 Dy1 Er3 Ir12'
_cell_volume   843.00697737
_cell_formula_units_Z   1
loop_
 _symmetry_equiv_pos_site_id
 _symmetry_equiv_pos_as_xyz
  1  'x, y, z'
loop_
 _atom_site_type_symbol
 _atom_site_label
 _atom_site_symmetry_multiplicity
 _atom_site_fract_x
 _atom_site_fract_y
 _atom_site_fract_z
 _atom_site_occupancy
  La  La0  1  0.287824  0.088688  0.386008  1
  La  La1  1  0.287778  0.911309  0.886061  1
  La  La2  1  0.712222  0.088691  0.886061  1
  La  La3  1  0.712176  0.911312  0.386008  1
  La  La4  1  0.588691  0.787751  0.886037  1
  La  La5  1  0.588671  0.212255  0.386059  1
  La  La6  1  0.411329  0.787745  0.386059  1
  La  La7  1  0.411309  0.212249  0.886037  1
  La  La8  1  0.212255  0.411329  0.613941  1
  La  La9  1  0.212249  0.588691  0.113963  1
  La  La10  1  0.787751  0.411309  0.113963  1
  La  La11  1  0.787745  0.588671  0.613941  1
  La  La12  1  0.911309  0.712222  0.113939  1
  La  La13  1  0.911312  0.287824  0.613992  1
  La  La14  1  0.088688  0.712176  0.613992  1
  La  La15  1  0.088691  0.287778  0.113939  1
  Dy  Dy16  1  0.000000  0.000000  0.500000  1
  Er  Er17  1  0.000000  0.000000  0.000000  1
  Er  Er18  1  0.500000  0.500000  0.000000  1
  Er  Er19  1  0.500000  0.500000  0.500000  1
  Ir  Ir20  1  0.852128  0.147858  0.249806  1
  Ir  Ir21  1  0.852142  0.852128  0.750194  1
  Ir  Ir22  1  0.147858  0.147872  0.750194  1
  Ir  Ir23  1  0.147872  0.852142  0.249806  1
  Ir  Ir24  1  0.647749  0.352254  0.749998  1
  Ir  Ir25  1  0.647746  0.647749  0.250002  1
  Ir  Ir26  1  0.352254  0.352251  0.250002  1
  Ir  Ir27  1  0.352251  0.647746  0.749998  1
  Ir  Ir28  1  0.500000  0.000000  0.116736  1
  Ir  Ir29  1  0.500000  0.000000  0.616722  1
  Ir  Ir30  1  0.000000  0.500000  0.883264  1
  Ir  Ir31  1  0.000000  0.500000  0.383278  1
