# generated using pymatgen
data_CaPr2(As3Pd10)2
_symmetry_space_group_name_H-M   'P 1'
_cell_length_a   8.93870819
_cell_length_b   8.93870797
_cell_length_c   8.93870900
_cell_angle_alpha   60.00000728
_cell_angle_beta   60.00000810
_cell_angle_gamma   60.00000459
_symmetry_Int_Tables_number   1
_chemical_formula_structural   CaPr2(As3Pd10)2
_chemical_formula_sum   'Ca1 Pr2 As6 Pd20'
_cell_volume   505.02092762
_cell_formula_units_Z   1
loop_
 _symmetry_equiv_pos_site_id
 _symmetry_equiv_pos_as_xyz
  1  'x, y, z'
loop_
 _atom_site_type_symbol
 _atom_site_label
 _atom_site_symmetry_multiplicity
 _atom_site_fract_x
 _atom_site_fract_y
 _atom_site_fract_z
 _atom_site_occupancy
  Ca  Ca0  1  0.000000  0.000000  0.000000  1
  Pr  Pr1  1  0.250000  0.250000  0.250000  1
  Pr  Pr2  1  0.750000  0.750000  0.750000  1
  As  As3  1  0.737573  0.262427  0.262427  1
  As  As4  1  0.262427  0.737573  0.737573  1
  As  As5  1  0.262427  0.737573  0.262427  1
  As  As6  1  0.737573  0.262427  0.737573  1
  As  As7  1  0.262427  0.262427  0.737573  1
  As  As8  1  0.737573  0.737573  0.262427  1
  Pd  Pd9  1  0.384825  0.384825  0.384825  1
  Pd  Pd10  1  0.615175  0.615175  0.615175  1
  Pd  Pd11  1  0.384825  0.384825  0.845528  1
  Pd  Pd12  1  0.384825  0.845528  0.384825  1
  Pd  Pd13  1  0.615175  0.615175  0.154472  1
  Pd  Pd14  1  0.615175  0.154472  0.615175  1
  Pd  Pd15  1  0.845528  0.384825  0.384825  1
  Pd  Pd16  1  0.154472  0.615175  0.615175  1
  Pd  Pd17  1  0.349801  0.000000  0.000000  1
  Pd  Pd18  1  0.650199  0.000000  0.000000  1
  Pd  Pd19  1  0.000000  0.349801  0.650199  1
  Pd  Pd20  1  0.000000  0.650199  0.349801  1
  Pd  Pd21  1  0.000000  0.349801  0.000000  1
  Pd  Pd22  1  0.650199  0.000000  0.349801  1
  Pd  Pd23  1  0.000000  0.650199  0.000000  1
  Pd  Pd24  1  0.349801  0.000000  0.650199  1
  Pd  Pd25  1  0.000000  0.000000  0.349801  1
  Pd  Pd26  1  0.000000  0.000000  0.650199  1
  Pd  Pd27  1  0.650199  0.349801  0.000000  1
  Pd  Pd28  1  0.349801  0.650199  0.000000  1
