# generated using pymatgen
data_Li3Tb2Eu2AlPt4
_symmetry_space_group_name_H-M   'P 1'
_cell_length_a   4.16940300
_cell_length_b   7.21371093
_cell_length_c   8.61792062
_cell_angle_alpha   90.84923450
_cell_angle_beta   90.00000000
_cell_angle_gamma   90.00000000
_symmetry_Int_Tables_number   1
_chemical_formula_structural   Li3Tb2Eu2AlPt4
_chemical_formula_sum   'Li3 Tb2 Eu2 Al1 Pt4'
_cell_volume   259.17158987
_cell_formula_units_Z   1
loop_
 _symmetry_equiv_pos_site_id
 _symmetry_equiv_pos_as_xyz
  1  'x, y, z'
loop_
 _atom_site_type_symbol
 _atom_site_label
 _atom_site_symmetry_multiplicity
 _atom_site_fract_x
 _atom_site_fract_y
 _atom_site_fract_z
 _atom_site_occupancy
  Li  Li0  1  0.250000  0.127556  0.052353  1
  Li  Li1  1  0.250000  0.631234  0.445005  1
  Li  Li2  1  0.750000  0.874731  0.940383  1
  Tb  Tb3  1  0.250000  0.038914  0.683501  1
  Tb  Tb4  1  0.250000  0.542793  0.817221  1
  Eu  Eu5  1  0.750000  0.957559  0.320858  1
  Eu  Eu6  1  0.750000  0.458066  0.179866  1
  Al  Al7  1  0.750000  0.371053  0.562066  1
  Pt  Pt8  1  0.250000  0.265637  0.410769  1
  Pt  Pt9  1  0.250000  0.753339  0.108281  1
  Pt  Pt10  1  0.750000  0.728953  0.628778  1
  Pt  Pt11  1  0.750000  0.250166  0.850916  1
