# generated using pymatgen
data_Yb4Zn3CuSi4
_symmetry_space_group_name_H-M   'P 1'
_cell_length_a   7.15624620
_cell_length_b   4.34109400
_cell_length_c   7.31397161
_cell_angle_alpha   90.00000000
_cell_angle_beta   90.45845240
_cell_angle_gamma   90.00000000
_symmetry_Int_Tables_number   1
_chemical_formula_structural   Yb4Zn3CuSi4
_chemical_formula_sum   'Yb4 Zn3 Cu1 Si4'
_cell_volume   227.20811080
_cell_formula_units_Z   1
loop_
 _symmetry_equiv_pos_site_id
 _symmetry_equiv_pos_as_xyz
  1  'x, y, z'
loop_
 _atom_site_type_symbol
 _atom_site_label
 _atom_site_symmetry_multiplicity
 _atom_site_fract_x
 _atom_site_fract_y
 _atom_site_fract_z
 _atom_site_occupancy
  Yb  Yb0  1  0.003352  0.750001  0.203813  1
  Yb  Yb1  1  0.492209  0.750001  0.289143  1
  Yb  Yb2  1  0.496594  0.250001  0.708897  1
  Yb  Yb3  1  0.006540  0.250001  0.798578  1
  Zn  Zn4  1  0.822389  0.250001  0.417767  1
  Zn  Zn5  1  0.181727  0.750001  0.584181  1
  Zn  Zn6  1  0.677341  0.750001  0.918118  1
  Cu  Cu7  1  0.318828  0.250001  0.079557  1
  Si  Si8  1  0.698535  0.250001  0.092697  1
  Si  Si9  1  0.206236  0.250001  0.400237  1
  Si  Si10  1  0.796569  0.750001  0.593202  1
  Si  Si11  1  0.299679  0.750001  0.913804  1
