# generated using pymatgen
data_Sr4Ga5Br2
_symmetry_space_group_name_H-M   'P 1'
_cell_length_a   12.00020063
_cell_length_b   12.00020089
_cell_length_c   4.40647000
_cell_angle_alpha   90.00000000
_cell_angle_beta   90.00000000
_cell_angle_gamma   93.44784079
_symmetry_Int_Tables_number   1
_chemical_formula_structural   Sr4Ga5Br2
_chemical_formula_sum   'Sr8 Ga10 Br4'
_cell_volume   633.40434537
_cell_formula_units_Z   2
loop_
 _symmetry_equiv_pos_site_id
 _symmetry_equiv_pos_as_xyz
  1  'x, y, z'
loop_
 _atom_site_type_symbol
 _atom_site_label
 _atom_site_symmetry_multiplicity
 _atom_site_fract_x
 _atom_site_fract_y
 _atom_site_fract_z
 _atom_site_occupancy
  Sr  Sr0  1  0.733756  0.733756  0.000000  1
  Sr  Sr1  1  0.039471  0.681821  0.500000  1
  Sr  Sr2  1  0.368019  0.631981  0.000000  1
  Sr  Sr3  1  0.960529  0.318179  0.500000  1
  Sr  Sr4  1  0.266244  0.266244  0.000000  1
  Sr  Sr5  1  0.631981  0.368019  0.000000  1
  Sr  Sr6  1  0.681821  0.039471  0.500000  1
  Sr  Sr7  1  0.318179  0.960529  0.500000  1
  Ga  Ga8  1  0.577923  0.577923  0.500000  1
  Ga  Ga9  1  0.422077  0.422077  0.500000  1
  Ga  Ga10  1  0.214124  0.477089  0.500000  1
  Ga  Ga11  1  0.785876  0.522911  0.500000  1
  Ga  Ga12  1  0.522190  0.895375  0.000000  1
  Ga  Ga13  1  0.522911  0.785876  0.500000  1
  Ga  Ga14  1  0.477810  0.104625  0.000000  1
  Ga  Ga15  1  0.104625  0.477810  0.000000  1
  Ga  Ga16  1  0.477089  0.214124  0.500000  1
  Ga  Ga17  1  0.895375  0.522190  0.000000  1
  Br  Br18  1  0.874800  0.874800  0.500000  1
  Br  Br19  1  0.172029  0.827971  0.000000  1
  Br  Br20  1  0.125200  0.125200  0.500000  1
  Br  Br21  1  0.827971  0.172029  0.000000  1
