# generated using pymatgen
data_HoTi3(Sn2Mo)3
_symmetry_space_group_name_H-M   'P 1'
_cell_length_a   5.64724800
_cell_length_b   5.63080886
_cell_length_c   9.46391600
_cell_angle_alpha   90.00000000
_cell_angle_beta   90.00000000
_cell_angle_gamma   119.35680404
_symmetry_Int_Tables_number   1
_chemical_formula_structural   HoTi3(Sn2Mo)3
_chemical_formula_sum   'Ho1 Ti3 Sn6 Mo3'
_cell_volume   262.29354491
_cell_formula_units_Z   1
loop_
 _symmetry_equiv_pos_site_id
 _symmetry_equiv_pos_as_xyz
  1  'x, y, z'
loop_
 _atom_site_type_symbol
 _atom_site_label
 _atom_site_symmetry_multiplicity
 _atom_site_fract_x
 _atom_site_fract_y
 _atom_site_fract_z
 _atom_site_occupancy
  Ho  Ho0  1  0.000000  0.000000  0.003778  1
  Ti  Ti1  1  0.000000  0.500000  0.751465  1
  Ti  Ti2  1  0.500000  0.000000  0.752644  1
  Ti  Ti3  1  0.000000  0.500000  0.247136  1
  Sn  Sn4  1  0.670549  0.336747  0.498101  1
  Sn  Sn5  1  0.329451  0.663253  0.498101  1
  Sn  Sn6  1  0.666646  0.334851  0.999490  1
  Sn  Sn7  1  0.333354  0.665149  0.999490  1
  Sn  Sn8  1  0.000000  0.000000  0.667988  1
  Sn  Sn9  1  0.000000  0.000000  0.334862  1
  Mo  Mo10  1  0.500000  0.500000  0.751057  1
  Mo  Mo11  1  0.500000  0.500000  0.247420  1
  Mo  Mo12  1  0.500000  0.000000  0.248464  1
