# generated using pymatgen
data_U6Sb8IrPt3Rh2
_symmetry_space_group_name_H-M   'P 1'
_cell_length_a   8.37978711
_cell_length_b   8.37967843
_cell_length_c   8.38232463
_cell_angle_alpha   109.44401809
_cell_angle_beta   109.58540669
_cell_angle_gamma   109.38503645
_symmetry_Int_Tables_number   1
_chemical_formula_structural   U6Sb8IrPt3Rh2
_chemical_formula_sum   'U6 Sb8 Ir1 Pt3 Rh2'
_cell_volume   453.10367794
_cell_formula_units_Z   1
loop_
 _symmetry_equiv_pos_site_id
 _symmetry_equiv_pos_as_xyz
  1  'x, y, z'
loop_
 _atom_site_type_symbol
 _atom_site_label
 _atom_site_symmetry_multiplicity
 _atom_site_fract_x
 _atom_site_fract_y
 _atom_site_fract_z
 _atom_site_occupancy
  U  U0  1  0.869970  0.244841  0.120366  1
  U  U1  1  0.631334  0.752661  0.375762  1
  U  U2  1  0.249049  0.127913  0.878266  1
  U  U3  1  0.749484  0.370832  0.622017  1
  U  U4  1  0.119837  0.876157  0.248452  1
  U  U5  1  0.380185  0.628552  0.756407  1
  Sb  Sb6  1  0.678292  0.501609  0.004099  1
  Sb  Sb7  1  0.501846  0.999651  0.677497  1
  Sb  Sb8  1  0.996763  0.674701  0.497323  1
  Sb  Sb9  1  0.821150  0.824534  0.823689  1
  Sb  Sb10  1  0.503296  0.001964  0.178427  1
  Sb  Sb11  1  0.176202  0.498016  0.999359  1
  Sb  Sb12  1  0.997409  0.175579  0.497885  1
  Sb  Sb13  1  0.325113  0.323706  0.321398  1
  Ir  Ir14  1  0.875583  0.125194  0.749561  1
  Pt  Pt15  1  0.375273  0.250282  0.625262  1
  Pt  Pt16  1  0.124700  0.750240  0.875136  1
  Pt  Pt17  1  0.249819  0.624934  0.375038  1
  Rh  Rh18  1  0.750137  0.874821  0.124627  1
  Rh  Rh19  1  0.624559  0.373811  0.249430  1
