# generated using pymatgen
data_Tc5MoAs14
_symmetry_space_group_name_H-M   'P 1'
_cell_length_a   7.65321864
_cell_length_b   7.65321907
_cell_length_c   7.65321846
_cell_angle_alpha   109.38076841
_cell_angle_beta   109.65228117
_cell_angle_gamma   109.38076410
_symmetry_Int_Tables_number   1
_chemical_formula_structural   Tc5MoAs14
_chemical_formula_sum   'Tc5 Mo1 As14'
_cell_volume   345.07002183
_cell_formula_units_Z   1
loop_
 _symmetry_equiv_pos_site_id
 _symmetry_equiv_pos_as_xyz
  1  'x, y, z'
loop_
 _atom_site_type_symbol
 _atom_site_label
 _atom_site_symmetry_multiplicity
 _atom_site_fract_x
 _atom_site_fract_y
 _atom_site_fract_z
 _atom_site_occupancy
  Tc  Tc0  1  0.339047  0.000000  0.339047  1
  Tc  Tc1  1  0.999674  0.341688  0.341362  1
  Tc  Tc2  1  0.999674  0.658312  0.657986  1
  Tc  Tc3  1  0.341362  0.341688  0.999674  1
  Tc  Tc4  1  0.657986  0.658312  0.999674  1
  Mo  Mo5  1  0.658472  0.000000  0.658472  1
  As  As6  1  0.749257  0.500000  0.249257  1
  As  As7  1  0.500623  0.749324  0.249949  1
  As  As8  1  0.500623  0.250676  0.751299  1
  As  As9  1  0.751299  0.250676  0.500623  1
  As  As10  1  0.249949  0.749324  0.500623  1
  As  As11  1  0.249257  0.500000  0.749257  1
  As  As12  1  0.000093  0.000000  0.330915  1
  As  As13  1  0.669224  0.000000  0.001158  1
  As  As14  1  0.000093  0.669179  0.000093  1
  As  As15  1  0.330915  0.330821  0.330915  1
  As  As16  1  0.001158  0.331933  0.001158  1
  As  As17  1  0.669224  0.668067  0.669224  1
  As  As18  1  0.330915  0.000000  0.000093  1
  As  As19  1  0.001158  0.000000  0.669224  1
