# generated using pymatgen
data_YCo2(B2Ru)2
_symmetry_space_group_name_H-M   'P 1'
_cell_length_a   7.19965600
_cell_length_b   7.19965600
_cell_length_c   3.91607100
_cell_angle_alpha   90.00000000
_cell_angle_beta   90.00000000
_cell_angle_gamma   90.00000000
_symmetry_Int_Tables_number   1
_chemical_formula_structural   YCo2(B2Ru)2
_chemical_formula_sum   'Y2 Co4 B8 Ru4'
_cell_volume   202.98972245
_cell_formula_units_Z   2
loop_
 _symmetry_equiv_pos_site_id
 _symmetry_equiv_pos_as_xyz
  1  'x, y, z'
loop_
 _atom_site_type_symbol
 _atom_site_label
 _atom_site_symmetry_multiplicity
 _atom_site_fract_x
 _atom_site_fract_y
 _atom_site_fract_z
 _atom_site_occupancy
  Y  Y0  1  0.000000  0.000000  0.090263  1
  Y  Y1  1  0.500000  0.500000  0.590263  1
  Co  Co2  1  0.621315  0.118239  0.375869  1
  Co  Co3  1  0.378685  0.881761  0.375869  1
  Co  Co4  1  0.618239  0.878685  0.875869  1
  Co  Co5  1  0.381761  0.121315  0.875869  1
  B  B6  1  0.341572  0.819578  0.879438  1
  B  B7  1  0.658428  0.180422  0.879438  1
  B  B8  1  0.319578  0.158428  0.379438  1
  B  B9  1  0.680422  0.841572  0.379438  1
  B  B10  1  0.174083  0.728300  0.597593  1
  B  B11  1  0.825917  0.271700  0.597593  1
  B  B12  1  0.228300  0.325917  0.097593  1
  B  B13  1  0.771700  0.674083  0.097593  1
  Ru  Ru14  1  0.840134  0.388967  0.101968  1
  Ru  Ru15  1  0.159866  0.611033  0.101968  1
  Ru  Ru16  1  0.888967  0.659866  0.601968  1
  Ru  Ru17  1  0.111033  0.340134  0.601968  1
