# generated using pymatgen
data_Ho12AlInTc3
_symmetry_space_group_name_H-M   'P 1'
_cell_length_a   8.30739254
_cell_length_b   8.30739151
_cell_length_c   8.30739100
_cell_angle_alpha   108.73923181
_cell_angle_beta   109.59656736
_cell_angle_gamma   110.08070227
_symmetry_Int_Tables_number   1
_chemical_formula_structural   Ho12AlInTc3
_chemical_formula_sum   'Ho12 Al1 In1 Tc3'
_cell_volume   441.27693470
_cell_formula_units_Z   1
loop_
 _symmetry_equiv_pos_site_id
 _symmetry_equiv_pos_as_xyz
  1  'x, y, z'
loop_
 _atom_site_type_symbol
 _atom_site_label
 _atom_site_symmetry_multiplicity
 _atom_site_fract_x
 _atom_site_fract_y
 _atom_site_fract_z
 _atom_site_occupancy
  Ho  Ho0  1  0.187465  0.430426  0.242962  1
  Ho  Ho1  1  0.812535  0.569574  0.757038  1
  Ho  Ho2  1  0.187452  0.944496  0.757043  1
  Ho  Ho3  1  0.939817  0.187992  0.751826  1
  Ho  Ho4  1  0.812548  0.055504  0.242957  1
  Ho  Ho5  1  0.060183  0.812008  0.248174  1
  Ho  Ho6  1  0.436167  0.187992  0.248176  1
  Ho  Ho7  1  0.563833  0.812008  0.751824  1
  Ho  Ho8  1  0.316811  0.312945  0.629752  1
  Ho  Ho9  1  0.683189  0.687055  0.370248  1
  Ho  Ho10  1  0.683195  0.312945  0.996134  1
  Ho  Ho11  1  0.316805  0.687055  0.003866  1
  Al  Al12  1  0.500000  0.000000  0.500000  1
  In  In13  1  0.000000  0.500000  0.500000  1
  Tc  Tc14  1  0.339972  0.339950  0.999979  1
  Tc  Tc15  1  0.660028  0.660050  0.000021  1
  Tc  Tc16  1  0.000000  0.000000  0.000000  1
