# generated using pymatgen
data_Zr14Nb2Co3Ir5N4
_symmetry_space_group_name_H-M   'P 1'
_cell_length_a   8.66720012
_cell_length_b   8.66720006
_cell_length_c   8.73617365
_cell_angle_alpha   60.10048974
_cell_angle_beta   60.10049070
_cell_angle_gamma   59.87511054
_symmetry_Int_Tables_number   1
_chemical_formula_structural   Zr14Nb2Co3Ir5N4
_chemical_formula_sum   'Zr14 Nb2 Co3 Ir5 N4'
_cell_volume   464.31110252
_cell_formula_units_Z   1
loop_
 _symmetry_equiv_pos_site_id
 _symmetry_equiv_pos_as_xyz
  1  'x, y, z'
loop_
 _atom_site_type_symbol
 _atom_site_label
 _atom_site_symmetry_multiplicity
 _atom_site_fract_x
 _atom_site_fract_y
 _atom_site_fract_z
 _atom_site_occupancy
  Zr  Zr0  1  0.160956  0.615403  0.617927  1
  Zr  Zr1  1  0.615403  0.160956  0.617927  1
  Zr  Zr2  1  0.813279  0.813279  0.188396  1
  Zr  Zr3  1  0.184026  0.184026  0.816897  1
  Zr  Zr4  1  0.815150  0.185326  0.817410  1
  Zr  Zr5  1  0.185900  0.813851  0.185742  1
  Zr  Zr6  1  0.185326  0.815150  0.817410  1
  Zr  Zr7  1  0.813851  0.185900  0.185742  1
  Zr  Zr8  1  0.437712  0.437712  0.057456  1
  Zr  Zr9  1  0.064237  0.064237  0.435562  1
  Zr  Zr10  1  0.437601  0.056137  0.439166  1
  Zr  Zr11  1  0.061198  0.436205  0.064992  1
  Zr  Zr12  1  0.056137  0.437601  0.439166  1
  Zr  Zr13  1  0.436205  0.061198  0.064992  1
  Nb  Nb14  1  0.619165  0.619165  0.149765  1
  Nb  Nb15  1  0.608283  0.608283  0.612931  1
  Co  Co16  1  0.787300  0.416708  0.393311  1
  Co  Co17  1  0.416708  0.787300  0.393311  1
  Co  Co18  1  0.402029  0.402029  0.805002  1
  Ir  Ir19  1  0.408257  0.408257  0.393483  1
  Ir  Ir20  1  0.503607  0.829042  0.831179  1
  Ir  Ir21  1  0.829042  0.503607  0.831179  1
  Ir  Ir22  1  0.828895  0.828895  0.504230  1
  Ir  Ir23  1  0.832110  0.832110  0.834848  1
  N  N24  1  0.626610  0.122979  0.125632  1
  N  N25  1  0.122979  0.626610  0.125632  1
  N  N26  1  0.124564  0.124564  0.624985  1
  N  N27  1  0.123470  0.123470  0.125728  1
