# generated using pymatgen
data_NdPa3(Rh2Pb)2
_symmetry_space_group_name_H-M   'P 1'
_cell_length_a   7.86144251
_cell_length_b   7.86144216
_cell_length_c   3.62195600
_cell_angle_alpha   90.00000000
_cell_angle_beta   90.00000000
_cell_angle_gamma   92.41375513
_symmetry_Int_Tables_number   1
_chemical_formula_structural   NdPa3(Rh2Pb)2
_chemical_formula_sum   'Nd1 Pa3 Rh4 Pb2'
_cell_volume   223.64651577
_cell_formula_units_Z   1
loop_
 _symmetry_equiv_pos_site_id
 _symmetry_equiv_pos_as_xyz
  1  'x, y, z'
loop_
 _atom_site_type_symbol
 _atom_site_label
 _atom_site_symmetry_multiplicity
 _atom_site_fract_x
 _atom_site_fract_y
 _atom_site_fract_z
 _atom_site_occupancy
  Nd  Nd0  1  0.828400  0.671600  0.500000  1
  Pa  Pa1  1  0.672238  0.169147  0.500000  1
  Pa  Pa2  1  0.330853  0.827762  0.500000  1
  Pa  Pa3  1  0.168827  0.331173  0.500000  1
  Rh  Rh4  1  0.152064  0.623320  0.000000  1
  Rh  Rh5  1  0.876680  0.347936  0.000000  1
  Rh  Rh6  1  0.607044  0.892956  0.000000  1
  Rh  Rh7  1  0.357319  0.142681  0.000000  1
  Pb  Pb8  1  0.000287  0.993711  0.000000  1
  Pb  Pb9  1  0.506289  0.499713  0.000000  1
