# generated using pymatgen
data_Dy6Y2Ti5Si16Mo7
_symmetry_space_group_name_H-M   'P 1'
_cell_length_a   6.93920088
_cell_length_b   6.94702059
_cell_length_c   12.85055501
_cell_angle_alpha   90.00734502
_cell_angle_beta   90.11392707
_cell_angle_gamma   89.96264668
_symmetry_Int_Tables_number   1
_chemical_formula_structural   Dy6Y2Ti5Si16Mo7
_chemical_formula_sum   'Dy6 Y2 Ti5 Si16 Mo7'
_cell_volume   619.48240683
_cell_formula_units_Z   1
loop_
 _symmetry_equiv_pos_site_id
 _symmetry_equiv_pos_as_xyz
  1  'x, y, z'
loop_
 _atom_site_type_symbol
 _atom_site_label
 _atom_site_symmetry_multiplicity
 _atom_site_fract_x
 _atom_site_fract_y
 _atom_site_fract_z
 _atom_site_occupancy
  Dy  Dy0  1  0.659393  0.997708  0.968688  1
  Dy  Dy1  1  0.160202  0.502599  0.781826  1
  Dy  Dy2  1  0.838943  0.496598  0.281099  1
  Dy  Dy3  1  0.502348  0.159536  0.218455  1
  Dy  Dy4  1  0.496834  0.840761  0.717284  1
  Dy  Dy5  1  0.340058  0.001748  0.468507  1
  Y  Y6  1  0.997935  0.659902  0.032826  1
  Y  Y7  1  0.003274  0.339806  0.530971  1
  Ti  Ti8  1  0.670674  0.669507  0.499972  1
  Ti  Ti9  1  0.832534  0.169752  0.749304  1
  Ti  Ti10  1  0.169832  0.829870  0.249482  1
  Ti  Ti11  1  0.328438  0.328072  0.000386  1
  Ti  Ti12  1  0.659098  0.493804  0.875651  1
  Si  Si13  1  0.041499  0.711089  0.436756  1
  Si  Si14  1  0.957349  0.288976  0.937594  1
  Si  Si15  1  0.711486  0.040682  0.562698  1
  Si  Si16  1  0.210967  0.458323  0.187622  1
  Si  Si17  1  0.788940  0.543446  0.687343  1
  Si  Si18  1  0.457529  0.211148  0.813282  1
  Si  Si19  1  0.540890  0.788768  0.312813  1
  Si  Si20  1  0.288735  0.958605  0.062739  1
  Si  Si21  1  0.798250  0.872254  0.184256  1
  Si  Si22  1  0.299555  0.627155  0.566210  1
  Si  Si23  1  0.699942  0.372609  0.065810  1
  Si  Si24  1  0.628106  0.298826  0.433781  1
  Si  Si25  1  0.371341  0.702584  0.934039  1
  Si  Si26  1  0.128827  0.199421  0.316035  1
  Si  Si27  1  0.200942  0.129576  0.684182  1
  Si  Si28  1  0.871349  0.800625  0.815209  1
  Mo  Mo29  1  0.340842  0.506689  0.376317  1
  Mo  Mo30  1  0.840971  0.992095  0.374287  1
  Mo  Mo31  1  0.008305  0.157872  0.127531  1
  Mo  Mo32  1  0.995312  0.842020  0.624612  1
  Mo  Mo33  1  0.509049  0.339623  0.623469  1
  Mo  Mo34  1  0.159317  0.007495  0.873533  1
  Mo  Mo35  1  0.490935  0.660457  0.125429  1
