# generated using pymatgen
data_La5PrSn9Hg
_symmetry_space_group_name_H-M   'P 1'
_cell_length_a   6.69663286
_cell_length_b   6.69663227
_cell_length_c   10.59504619
_cell_angle_alpha   90.24203377
_cell_angle_beta   90.24202932
_cell_angle_gamma   102.16214514
_symmetry_Int_Tables_number   1
_chemical_formula_structural   La5PrSn9Hg
_chemical_formula_sum   'La5 Pr1 Sn9 Hg1'
_cell_volume   464.45892488
_cell_formula_units_Z   1
loop_
 _symmetry_equiv_pos_site_id
 _symmetry_equiv_pos_as_xyz
  1  'x, y, z'
loop_
 _atom_site_type_symbol
 _atom_site_label
 _atom_site_symmetry_multiplicity
 _atom_site_fract_x
 _atom_site_fract_y
 _atom_site_fract_z
 _atom_site_occupancy
  La  La0  1  0.371512  0.371512  0.749996  1
  La  La1  1  0.202219  0.795052  0.500804  1
  La  La2  1  0.205571  0.797951  0.999921  1
  La  La3  1  0.795052  0.202219  0.500804  1
  La  La4  1  0.797951  0.205571  0.999921  1
  Pr  Pr5  1  0.630442  0.630442  0.250567  1
  Sn  Sn6  1  0.023101  0.023101  0.251077  1
  Sn  Sn7  1  0.979521  0.979521  0.752089  1
  Sn  Sn8  1  0.689373  0.689373  0.955956  1
  Sn  Sn9  1  0.309938  0.309938  0.453074  1
  Sn  Sn10  1  0.688541  0.688541  0.547787  1
  Sn  Sn11  1  0.492257  0.075919  0.248618  1
  Sn  Sn12  1  0.924380  0.507385  0.751166  1
  Sn  Sn13  1  0.507385  0.924380  0.751166  1
  Sn  Sn14  1  0.075919  0.492257  0.248618  1
  Hg  Hg15  1  0.306838  0.306838  0.038438  1
