# generated using pymatgen
data_TbNdMo3P7Ir9
_symmetry_space_group_name_H-M   'P 1'
_cell_length_a   4.01318513
_cell_length_b   9.55317780
_cell_length_c   9.55299638
_cell_angle_alpha   119.99930982
_cell_angle_beta   90.00002422
_cell_angle_gamma   89.99968017
_symmetry_Int_Tables_number   1
_chemical_formula_structural   TbNdMo3P7Ir9
_chemical_formula_sum   'Tb1 Nd1 Mo3 P7 Ir9'
_cell_volume   317.18330503
_cell_formula_units_Z   1
loop_
 _symmetry_equiv_pos_site_id
 _symmetry_equiv_pos_as_xyz
  1  'x, y, z'
loop_
 _atom_site_type_symbol
 _atom_site_label
 _atom_site_symmetry_multiplicity
 _atom_site_fract_x
 _atom_site_fract_y
 _atom_site_fract_z
 _atom_site_occupancy
  Tb  Tb0  1  0.761868  0.333334  0.666666  1
  Nd  Nd1  1  0.261933  0.666673  0.333337  1
  Mo  Mo2  1  0.761921  0.088630  0.868323  1
  Mo  Mo3  1  0.761913  0.131671  0.220327  1
  Mo  Mo4  1  0.761923  0.779688  0.911358  1
  P  P5  1  0.262183  0.999987  0.000000  1
  P  P6  1  0.761908  0.881862  0.595213  1
  P  P7  1  0.761893  0.404788  0.286650  1
  P  P8  1  0.761900  0.713346  0.118127  1
  P  P9  1  0.261826  0.117920  0.416858  1
  P  P10  1  0.261827  0.583154  0.701070  1
  P  P11  1  0.261809  0.298943  0.882088  1
  Ir  Ir12  1  0.261908  0.890131  0.161392  1
  Ir  Ir13  1  0.261916  0.838603  0.728727  1
  Ir  Ir14  1  0.261904  0.271279  0.109883  1
  Ir  Ir15  1  0.761909  0.610723  0.558917  1
  Ir  Ir16  1  0.761902  0.441069  0.051786  1
  Ir  Ir17  1  0.761898  0.948185  0.389279  1
  Ir  Ir18  1  0.261884  0.365928  0.438393  1
  Ir  Ir19  1  0.261890  0.561622  0.927534  1
  Ir  Ir20  1  0.261884  0.072464  0.634072  1
