# generated using pymatgen
data_LaSm5(SiPd5)2
_symmetry_space_group_name_H-M   'P 1'
_cell_length_a   8.37489261
_cell_length_b   8.37489309
_cell_length_c   8.37489403
_cell_angle_alpha   127.31284245
_cell_angle_beta   126.00342269
_cell_angle_gamma   78.81367715
_symmetry_Int_Tables_number   1
_chemical_formula_structural   LaSm5(SiPd5)2
_chemical_formula_sum   'La1 Sm5 Si2 Pd10'
_cell_volume   365.71903209
_cell_formula_units_Z   1
loop_
 _symmetry_equiv_pos_site_id
 _symmetry_equiv_pos_as_xyz
  1  'x, y, z'
loop_
 _atom_site_type_symbol
 _atom_site_label
 _atom_site_symmetry_multiplicity
 _atom_site_fract_x
 _atom_site_fract_y
 _atom_site_fract_z
 _atom_site_occupancy
  La  La0  1  0.616681  0.750000  0.866681  1
  Sm  Sm1  1  0.823451  0.050043  0.773408  1
  Sm  Sm2  1  0.223363  0.449957  0.773408  1
  Sm  Sm3  1  0.178307  0.951055  0.227251  1
  Sm  Sm4  1  0.388469  0.250000  0.138469  1
  Sm  Sm5  1  0.776197  0.548945  0.227251  1
  Si  Si6  1  0.210850  0.750000  0.460850  1
  Si  Si7  1  0.785725  0.250000  0.535725  1
  Pd  Pd8  1  0.831784  0.594546  0.638592  1
  Pd  Pd9  1  0.544046  0.306808  0.638592  1
  Pd  Pd10  1  0.453497  0.094884  0.762523  1
  Pd  Pd11  1  0.831784  0.193192  0.237238  1
  Pd  Pd12  1  0.167639  0.405116  0.358613  1
  Pd  Pd13  1  0.453497  0.690974  0.358613  1
  Pd  Pd14  1  0.544046  0.905454  0.237238  1
  Pd  Pd15  1  0.167639  0.809026  0.762523  1
  Pd  Pd16  1  0.001513  0.002674  0.504187  1
  Pd  Pd17  1  0.001513  0.497326  0.998839  1
