# generated using pymatgen
data_Tb4B4I5
_symmetry_space_group_name_H-M   'P 1'
_cell_length_a   9.66356471
_cell_length_b   9.66356459
_cell_length_c   9.80952070
_cell_angle_alpha   74.49248708
_cell_angle_beta   74.49248670
_cell_angle_gamma   25.67460274
_symmetry_Int_Tables_number   1
_chemical_formula_structural   Tb4B4I5
_chemical_formula_sum   'Tb4 B4 I5'
_cell_volume   381.67663483
_cell_formula_units_Z   1
loop_
 _symmetry_equiv_pos_site_id
 _symmetry_equiv_pos_as_xyz
  1  'x, y, z'
loop_
 _atom_site_type_symbol
 _atom_site_label
 _atom_site_symmetry_multiplicity
 _atom_site_fract_x
 _atom_site_fract_y
 _atom_site_fract_z
 _atom_site_occupancy
  Tb  Tb0  1  0.506280  0.506280  0.753984  1
  Tb  Tb1  1  0.495222  0.495222  0.245361  1
  Tb  Tb2  1  0.130118  0.130118  0.935744  1
  Tb  Tb3  1  0.871004  0.871004  0.063060  1
  B  B4  1  0.314724  0.686407  0.999789  1
  B  B5  1  0.686407  0.314724  0.999789  1
  B  B6  1  0.999157  0.999157  0.099192  1
  B  B7  1  0.001860  0.001860  0.900399  1
  I  I8  1  0.678105  0.678105  0.687019  1
  I  I9  1  0.323315  0.323315  0.312466  1
  I  I10  1  0.330671  0.330671  0.852735  1
  I  I11  1  0.671322  0.671322  0.144071  1
  I  I12  1  0.006116  0.006116  0.496591  1
