# generated using pymatgen
data_Dy4Ho8Co5Sb
_symmetry_space_group_name_H-M   'P 1'
_cell_length_a   8.23647030
_cell_length_b   8.23647005
_cell_length_c   8.23647049
_cell_angle_alpha   106.81773303
_cell_angle_beta   110.65190510
_cell_angle_gamma   110.97634498
_symmetry_Int_Tables_number   1
_chemical_formula_structural   Dy4Ho8Co5Sb
_chemical_formula_sum   'Dy4 Ho8 Co5 Sb1'
_cell_volume   429.44025450
_cell_formula_units_Z   1
loop_
 _symmetry_equiv_pos_site_id
 _symmetry_equiv_pos_as_xyz
  1  'x, y, z'
loop_
 _atom_site_type_symbol
 _atom_site_label
 _atom_site_symmetry_multiplicity
 _atom_site_fract_x
 _atom_site_fract_y
 _atom_site_fract_z
 _atom_site_occupancy
  Dy  Dy0  1  0.194064  0.208992  0.403056  1
  Dy  Dy1  1  0.805936  0.791008  0.596944  1
  Dy  Dy2  1  0.194064  0.791008  0.985072  1
  Dy  Dy3  1  0.805936  0.208992  0.014928  1
  Ho  Ho4  1  0.474119  0.289696  0.184423  1
  Ho  Ho5  1  0.105273  0.289696  0.815577  1
  Ho  Ho6  1  0.894727  0.710304  0.184423  1
  Ho  Ho7  1  0.525881  0.710304  0.815577  1
  Ho  Ho8  1  0.307642  0.620597  0.312955  1
  Ho  Ho9  1  0.307642  0.994688  0.687045  1
  Ho  Ho10  1  0.692358  0.379403  0.687045  1
  Ho  Ho11  1  0.692358  0.005312  0.312955  1
  Co  Co12  1  0.500000  0.612227  0.112227  1
  Co  Co13  1  0.500000  0.387773  0.887773  1
  Co  Co14  1  0.374980  0.000000  0.374980  1
  Co  Co15  1  0.625020  0.000000  0.625020  1
  Co  Co16  1  0.000000  0.000000  0.000000  1
  Sb  Sb17  1  0.000000  0.500000  0.500000  1
