# generated using pymatgen
data_HfZr2ZnOs2
_symmetry_space_group_name_H-M   'P 1'
_cell_length_a   3.29307900
_cell_length_b   3.29307900
_cell_length_c   9.90185600
_cell_angle_alpha   90.00000000
_cell_angle_beta   90.00000000
_cell_angle_gamma   90.00000000
_symmetry_Int_Tables_number   1
_chemical_formula_structural   HfZr2ZnOs2
_chemical_formula_sum   'Hf1 Zr2 Zn1 Os2'
_cell_volume   107.37938322
_cell_formula_units_Z   1
loop_
 _symmetry_equiv_pos_site_id
 _symmetry_equiv_pos_as_xyz
  1  'x, y, z'
loop_
 _atom_site_type_symbol
 _atom_site_label
 _atom_site_symmetry_multiplicity
 _atom_site_fract_x
 _atom_site_fract_y
 _atom_site_fract_z
 _atom_site_occupancy
  Hf  Hf0  1  0.499999  0.499999  0.000000  1
  Zr  Zr1  1  0.499999  0.499999  0.327953  1
  Zr  Zr2  1  0.499999  0.499999  0.672046  1
  Zn  Zn3  1  0.000000  0.000000  0.500000  1
  Os  Os4  1  0.000000  0.000000  0.164122  1
  Os  Os5  1  0.000000  0.000000  0.835878  1
