# generated using pymatgen
data_LiIn(CuO2)4
_symmetry_space_group_name_H-M   'P 1'
_cell_length_a   6.12869144
_cell_length_b   6.12869194
_cell_length_c   6.12869093
_cell_angle_alpha   126.02734367
_cell_angle_beta   126.02735649
_cell_angle_gamma   79.84319512
_symmetry_Int_Tables_number   1
_chemical_formula_structural   LiIn(CuO2)4
_chemical_formula_sum   'Li1 In1 Cu4 O8'
_cell_volume   145.41249796
_cell_formula_units_Z   1
loop_
 _symmetry_equiv_pos_site_id
 _symmetry_equiv_pos_as_xyz
  1  'x, y, z'
loop_
 _atom_site_type_symbol
 _atom_site_label
 _atom_site_symmetry_multiplicity
 _atom_site_fract_x
 _atom_site_fract_y
 _atom_site_fract_z
 _atom_site_occupancy
  Li  Li0  1  0.000000  0.000000  0.000000  1
  In  In1  1  0.750000  0.250000  0.500000  1
  Cu  Cu2  1  0.875050  0.617684  0.244811  1
  Cu  Cu3  1  0.372874  0.630239  0.755189  1
  Cu  Cu4  1  0.369761  0.124950  0.742633  1
  Cu  Cu5  1  0.382316  0.627126  0.257367  1
  O  O6  1  0.407707  0.844098  0.149673  1
  O  O7  1  0.694426  0.258034  0.850327  1
  O  O8  1  0.356052  0.413982  0.368191  1
  O  O9  1  0.045790  0.987861  0.631809  1
  O  O10  1  0.012139  0.643948  0.057930  1
  O  O11  1  0.586018  0.954210  0.942070  1
  O  O12  1  0.155902  0.305574  0.563610  1
  O  O13  1  0.741966  0.592293  0.436390  1
