# generated using pymatgen
data_Rb5Ce(MoH9)3
_symmetry_space_group_name_H-M   'P 1'
_cell_length_a   9.68760800
_cell_length_b   9.40584878
_cell_length_c   5.36564800
_cell_angle_alpha   90.00000000
_cell_angle_beta   90.00000000
_cell_angle_gamma   119.04248692
_symmetry_Int_Tables_number   1
_chemical_formula_structural   Rb5Ce(MoH9)3
_chemical_formula_sum   'Rb5 Ce1 Mo3 H27'
_cell_volume   427.44212250
_cell_formula_units_Z   1
loop_
 _symmetry_equiv_pos_site_id
 _symmetry_equiv_pos_as_xyz
  1  'x, y, z'
loop_
 _atom_site_type_symbol
 _atom_site_label
 _atom_site_symmetry_multiplicity
 _atom_site_fract_x
 _atom_site_fract_y
 _atom_site_fract_z
 _atom_site_occupancy
  Rb  Rb0  1  0.729614  0.740622  0.500000  1
  Rb  Rb1  1  0.270386  0.011008  0.500000  1
  Rb  Rb2  1  0.000000  0.618857  0.000000  1
  Rb  Rb3  1  0.434201  0.396164  0.000000  1
  Rb  Rb4  1  0.565799  0.961963  0.000000  1
  Ce  Ce5  1  0.000000  0.284496  0.500000  1
  Mo  Mo6  1  0.700442  0.320576  0.500000  1
  Mo  Mo7  1  0.299558  0.620134  0.500000  1
  Mo  Mo8  1  0.000000  0.059136  0.000000  1
  H  H9  1  0.809738  0.300132  0.751963  1
  H  H10  1  0.720536  0.468779  0.715932  1
  H  H11  1  0.555881  0.203974  0.722006  1
  H  H12  1  0.190262  0.490395  0.248037  1
  H  H13  1  0.555881  0.203974  0.277994  1
  H  H14  1  0.809738  0.300132  0.248037  1
  H  H15  1  0.720536  0.468779  0.284068  1
  H  H16  1  0.279464  0.748244  0.715932  1
  H  H17  1  0.444119  0.648094  0.722006  1
  H  H18  1  0.174022  0.054506  0.000000  1
  H  H19  1  0.825978  0.880482  0.000000  1
  H  H20  1  0.000000  0.251059  0.000000  1
  H  H21  1  0.874716  0.052928  0.248249  1
  H  H22  1  0.125284  0.178212  0.751751  1
  H  H23  1  0.000000  0.916195  0.794737  1
  H  H24  1  0.000000  0.916195  0.205263  1
  H  H25  1  0.125284  0.178212  0.248249  1
  H  H26  1  0.874716  0.052928  0.751751  1
  H  H27  1  0.101304  0.577772  0.500000  1
  H  H28  1  0.455658  0.814806  0.500000  1
  H  H29  1  0.298660  0.428779  0.500000  1
  H  H30  1  0.544342  0.359148  0.500000  1
  H  H31  1  0.898696  0.476468  0.500000  1
  H  H32  1  0.701340  0.130119  0.500000  1
  H  H33  1  0.190262  0.490395  0.751963  1
  H  H34  1  0.279464  0.748244  0.284068  1
  H  H35  1  0.444119  0.648094  0.277994  1
