# generated using pymatgen
data_Nd4TmIr3
_symmetry_space_group_name_H-M   'P 1'
_cell_length_a   11.18279700
_cell_length_b   11.18279700
_cell_length_c   6.51983000
_cell_angle_alpha   90.00000000
_cell_angle_beta   90.00000000
_cell_angle_gamma   90.00000000
_symmetry_Int_Tables_number   1
_chemical_formula_structural   Nd4TmIr3
_chemical_formula_sum   'Nd16 Tm4 Ir12'
_cell_volume   815.33700646
_cell_formula_units_Z   4
loop_
 _symmetry_equiv_pos_site_id
 _symmetry_equiv_pos_as_xyz
  1  'x, y, z'
loop_
 _atom_site_type_symbol
 _atom_site_label
 _atom_site_symmetry_multiplicity
 _atom_site_fract_x
 _atom_site_fract_y
 _atom_site_fract_z
 _atom_site_occupancy
  Nd  Nd0  1  0.288447  0.086860  0.380683  1
  Nd  Nd1  1  0.288447  0.913140  0.880683  1
  Nd  Nd2  1  0.711553  0.086860  0.880683  1
  Nd  Nd3  1  0.711553  0.913140  0.380683  1
  Nd  Nd4  1  0.586860  0.788447  0.880683  1
  Nd  Nd5  1  0.586860  0.211553  0.380683  1
  Nd  Nd6  1  0.413140  0.788447  0.380683  1
  Nd  Nd7  1  0.413140  0.211553  0.880683  1
  Nd  Nd8  1  0.211553  0.413140  0.619317  1
  Nd  Nd9  1  0.211553  0.586860  0.119317  1
  Nd  Nd10  1  0.788447  0.413140  0.119317  1
  Nd  Nd11  1  0.788447  0.586860  0.619317  1
  Nd  Nd12  1  0.913140  0.711553  0.119317  1
  Nd  Nd13  1  0.913140  0.288447  0.619317  1
  Nd  Nd14  1  0.086860  0.711553  0.619317  1
  Nd  Nd15  1  0.086860  0.288447  0.119317  1
  Tm  Tm16  1  0.000000  0.000000  0.500000  1
  Tm  Tm17  1  0.000000  0.000000  0.000000  1
  Tm  Tm18  1  0.500000  0.500000  0.000000  1
  Tm  Tm19  1  0.500000  0.500000  0.500000  1
  Ir  Ir20  1  0.852678  0.147322  0.250000  1
  Ir  Ir21  1  0.852678  0.852678  0.750000  1
  Ir  Ir22  1  0.147322  0.147322  0.750000  1
  Ir  Ir23  1  0.147322  0.852678  0.250000  1
  Ir  Ir24  1  0.647322  0.352678  0.750000  1
  Ir  Ir25  1  0.647322  0.647322  0.250000  1
  Ir  Ir26  1  0.352678  0.352678  0.250000  1
  Ir  Ir27  1  0.352678  0.647322  0.750000  1
  Ir  Ir28  1  0.500000  0.000000  0.118669  1
  Ir  Ir29  1  0.500000  0.000000  0.618669  1
  Ir  Ir30  1  0.000000  0.500000  0.881331  1
  Ir  Ir31  1  0.000000  0.500000  0.381331  1
