# generated using pymatgen
data_Na2Li2Ni9As7Ru
_symmetry_space_group_name_H-M   'P 1'
_cell_length_a   9.48600002
_cell_length_b   9.49639194
_cell_length_c   3.79707400
_cell_angle_alpha   90.00000000
_cell_angle_beta   90.00000000
_cell_angle_gamma   120.39096940
_symmetry_Int_Tables_number   1
_chemical_formula_structural   Na2Li2Ni9As7Ru
_chemical_formula_sum   'Na2 Li2 Ni9 As7 Ru1'
_cell_volume   295.05090574
_cell_formula_units_Z   1
loop_
 _symmetry_equiv_pos_site_id
 _symmetry_equiv_pos_as_xyz
  1  'x, y, z'
loop_
 _atom_site_type_symbol
 _atom_site_label
 _atom_site_symmetry_multiplicity
 _atom_site_fract_x
 _atom_site_fract_y
 _atom_site_fract_z
 _atom_site_occupancy
  Na  Na0  1  0.330630  0.663904  0.000000  1
  Na  Na1  1  0.667831  0.335149  0.500000  1
  Li  Li2  1  0.218459  0.112092  0.500000  1
  Li  Li3  1  0.884403  0.102012  0.500000  1
  Ni  Ni4  1  0.119109  0.278234  0.000000  1
  Ni  Ni5  1  0.712829  0.838193  0.000000  1
  Ni  Ni6  1  0.164638  0.879727  0.000000  1
  Ni  Ni7  1  0.429950  0.378807  0.000000  1
  Ni  Ni8  1  0.622222  0.049456  0.000000  1
  Ni  Ni9  1  0.945989  0.572413  0.000000  1
  Ni  Ni10  1  0.044847  0.429181  0.500000  1
  Ni  Ni11  1  0.565586  0.615329  0.500000  1
  Ni  Ni12  1  0.385106  0.956849  0.500000  1
  As  As13  1  0.290595  0.410549  0.500000  1
  As  As14  1  0.584990  0.876998  0.500000  1
  As  As15  1  0.119394  0.708342  0.500000  1
  As  As16  1  0.420389  0.122813  0.000000  1
  As  As17  1  0.880287  0.297850  0.000000  1
  As  As18  1  0.706939  0.588494  0.000000  1
  As  As19  1  0.995963  0.991522  0.000000  1
  Ru  Ru20  1  0.909845  0.792087  0.500000  1
