# generated using pymatgen
data_Ta2SiB2W3
_symmetry_space_group_name_H-M   'P 1'
_cell_length_a   7.11712803
_cell_length_b   7.14864281
_cell_length_c   7.15828782
_cell_angle_alpha   129.25386737
_cell_angle_beta   129.11819097
_cell_angle_gamma   74.68339296
_symmetry_Int_Tables_number   1
_chemical_formula_structural   Ta2SiB2W3
_chemical_formula_sum   'Ta4 Si2 B4 W6'
_cell_volume   213.20016410
_cell_formula_units_Z   2
loop_
 _symmetry_equiv_pos_site_id
 _symmetry_equiv_pos_as_xyz
  1  'x, y, z'
loop_
 _atom_site_type_symbol
 _atom_site_label
 _atom_site_symmetry_multiplicity
 _atom_site_fract_x
 _atom_site_fract_y
 _atom_site_fract_z
 _atom_site_occupancy
  Ta  Ta0  1  0.026507  0.194902  0.500703  1
  Ta  Ta1  1  0.521089  0.022287  0.827844  1
  Ta  Ta2  1  0.692875  0.526024  0.499958  1
  Ta  Ta3  1  0.978231  0.803547  0.501191  1
  Si  Si4  1  0.247728  0.253900  0.005188  1
  Si  Si5  1  0.748713  0.746372  0.998558  1
  B  B6  1  0.129417  0.628359  0.756993  1
  B  B7  1  0.874956  0.372669  0.244534  1
  B  B8  1  0.618635  0.879979  0.497295  1
  B  B9  1  0.381095  0.120657  0.498781  1
  W  W10  1  0.000786  0.001813  0.000552  1
  W  W11  1  0.502026  0.502062  0.001013  1
  W  W12  1  0.804418  0.304352  0.828099  1
  W  W13  1  0.192836  0.694700  0.165598  1
  W  W14  1  0.476042  0.975913  0.172146  1
  W  W15  1  0.304645  0.472464  0.501545  1
