# generated using pymatgen
data_Ho10NiPd3
_symmetry_space_group_name_H-M   'P 1'
_cell_length_a   9.36908700
_cell_length_b   9.36908731
_cell_length_c   9.16552800
_cell_angle_alpha   90.00000000
_cell_angle_beta   90.00000000
_cell_angle_gamma   119.99999537
_symmetry_Int_Tables_number   1
_chemical_formula_structural   Ho10NiPd3
_chemical_formula_sum   'Ho20 Ni2 Pd6'
_cell_volume   696.75917841
_cell_formula_units_Z   2
loop_
 _symmetry_equiv_pos_site_id
 _symmetry_equiv_pos_as_xyz
  1  'x, y, z'
loop_
 _atom_site_type_symbol
 _atom_site_label
 _atom_site_symmetry_multiplicity
 _atom_site_fract_x
 _atom_site_fract_y
 _atom_site_fract_z
 _atom_site_occupancy
  Ho  Ho0  1  0.000000  0.000000  0.500000  1
  Ho  Ho1  1  0.000000  0.000000  0.000000  1
  Ho  Ho2  1  0.542835  0.457165  0.250000  1
  Ho  Ho3  1  0.542835  0.085671  0.250000  1
  Ho  Ho4  1  0.914329  0.457165  0.250000  1
  Ho  Ho5  1  0.457165  0.542835  0.750000  1
  Ho  Ho6  1  0.457165  0.914329  0.750000  1
  Ho  Ho7  1  0.085671  0.542835  0.750000  1
  Ho  Ho8  1  0.207233  0.792767  0.441410  1
  Ho  Ho9  1  0.207233  0.414466  0.441410  1
  Ho  Ho10  1  0.585534  0.792767  0.441410  1
  Ho  Ho11  1  0.792767  0.207233  0.558590  1
  Ho  Ho12  1  0.792767  0.585534  0.558590  1
  Ho  Ho13  1  0.414466  0.207233  0.558590  1
  Ho  Ho14  1  0.792767  0.207233  0.941410  1
  Ho  Ho15  1  0.792767  0.585534  0.941410  1
  Ho  Ho16  1  0.414466  0.207233  0.941410  1
  Ho  Ho17  1  0.207233  0.792767  0.058590  1
  Ho  Ho18  1  0.207233  0.414466  0.058590  1
  Ho  Ho19  1  0.585534  0.792767  0.058590  1
  Ni  Ni20  1  0.333333  0.666667  0.250000  1
  Ni  Ni21  1  0.666667  0.333333  0.750000  1
  Pd  Pd22  1  0.878813  0.121187  0.250000  1
  Pd  Pd23  1  0.878813  0.757625  0.250000  1
  Pd  Pd24  1  0.242375  0.121187  0.250000  1
  Pd  Pd25  1  0.121187  0.878813  0.750000  1
  Pd  Pd26  1  0.121187  0.242375  0.750000  1
  Pd  Pd27  1  0.757625  0.878813  0.750000  1
