# generated using pymatgen
data_GdEr3(As4O9)2
_symmetry_space_group_name_H-M   'P 1'
_cell_length_a   6.73658498
_cell_length_b   7.53243010
_cell_length_c   9.82408568
_cell_angle_alpha   94.74751411
_cell_angle_beta   104.00064004
_cell_angle_gamma   104.80877705
_symmetry_Int_Tables_number   1
_chemical_formula_structural   GdEr3(As4O9)2
_chemical_formula_sum   'Gd1 Er3 As8 O18'
_cell_volume   462.03768712
_cell_formula_units_Z   1
loop_
 _symmetry_equiv_pos_site_id
 _symmetry_equiv_pos_as_xyz
  1  'x, y, z'
loop_
 _atom_site_type_symbol
 _atom_site_label
 _atom_site_symmetry_multiplicity
 _atom_site_fract_x
 _atom_site_fract_y
 _atom_site_fract_z
 _atom_site_occupancy
  Gd  Gd0  1  0.242473  0.940322  0.614163  1
  Er  Er1  1  0.756932  0.061898  0.384705  1
  Er  Er2  1  0.720529  0.528626  0.408815  1
  Er  Er3  1  0.279115  0.470267  0.589925  1
  As  As4  1  0.682589  0.774864  0.080278  1
  As  As5  1  0.317982  0.227271  0.922526  1
  As  As6  1  0.170930  0.751417  0.913400  1
  As  As7  1  0.828496  0.247679  0.087665  1
  As  As8  1  0.743661  0.913571  0.708098  1
  As  As9  1  0.258025  0.085450  0.289075  1
  As  As10  1  0.810140  0.351619  0.700474  1
  As  As11  1  0.191432  0.647518  0.298517  1
  O  O12  1  0.721024  0.748409  0.260351  1
  O  O13  1  0.279283  0.255557  0.742469  1
  O  O14  1  0.316947  0.979766  0.872671  1
  O  O15  1  0.685044  0.021964  0.133509  1
  O  O16  1  0.607858  0.324818  0.985767  1
  O  O17  1  0.392540  0.675384  0.015249  1
  O  O18  1  0.128176  0.644843  0.738779  1
  O  O19  1  0.871554  0.356100  0.261271  1
  O  O20  1  0.841462  0.874390  0.555178  1
  O  O21  1  0.149078  0.128283  0.436300  1
  O  O22  1  0.483844  0.764976  0.667497  1
  O  O23  1  0.519829  0.231880  0.334865  1
  O  O24  1  0.373982  0.533031  0.380803  1
  O  O25  1  0.626523  0.465081  0.617617  1
  O  O26  1  0.087288  0.665027  0.452752  1
  O  O27  1  0.911789  0.329489  0.545420  1
  O  O28  1  0.376964  0.899922  0.360064  1
  O  O29  1  0.624511  0.100581  0.641795  1
