# generated using pymatgen
data_Sr17Th3Pt16
_symmetry_space_group_name_H-M   'P 1'
_cell_length_a   7.97741476
_cell_length_b   8.09517392
_cell_length_c   15.66325597
_cell_angle_alpha   90.13093408
_cell_angle_beta   89.98938142
_cell_angle_gamma   89.82294579
_symmetry_Int_Tables_number   1
_chemical_formula_structural   Sr17Th3Pt16
_chemical_formula_sum   'Sr17 Th3 Pt16'
_cell_volume   1011.50302546
_cell_formula_units_Z   1
loop_
 _symmetry_equiv_pos_site_id
 _symmetry_equiv_pos_as_xyz
  1  'x, y, z'
loop_
 _atom_site_type_symbol
 _atom_site_label
 _atom_site_symmetry_multiplicity
 _atom_site_fract_x
 _atom_site_fract_y
 _atom_site_fract_z
 _atom_site_occupancy
  Sr  Sr0  1  0.163496  0.332580  0.121157  1
  Sr  Sr1  1  0.661283  0.168686  0.120217  1
  Sr  Sr2  1  0.158435  0.332567  0.382073  1
  Sr  Sr3  1  0.342094  0.830764  0.618197  1
  Sr  Sr4  1  0.839490  0.672044  0.879544  1
  Sr  Sr5  1  0.495649  0.323800  0.904498  1
  Sr  Sr6  1  0.993518  0.177262  0.596175  1
  Sr  Sr7  1  0.505669  0.677592  0.401925  1
  Sr  Sr8  1  0.006495  0.816004  0.095300  1
  Sr  Sr9  1  0.503238  0.679397  0.095597  1
  Sr  Sr10  1  0.005701  0.819606  0.404195  1
  Sr  Sr11  1  0.496723  0.319148  0.594836  1
  Sr  Sr12  1  0.996314  0.182645  0.906637  1
  Sr  Sr13  1  0.181847  0.482980  0.749673  1
  Sr  Sr14  1  0.682243  0.018446  0.750196  1
  Sr  Sr15  1  0.826479  0.514069  0.247857  1
  Sr  Sr16  1  0.314769  0.988661  0.248797  1
  Th  Th17  1  0.339517  0.834323  0.874402  1
  Th  Th18  1  0.839135  0.666164  0.624125  1
  Th  Th19  1  0.660693  0.167017  0.376524  1
  Pt  Pt20  1  0.319129  0.020772  0.029891  1
  Pt  Pt21  1  0.807244  0.452180  0.467246  1
  Pt  Pt22  1  0.693823  0.950126  0.535032  1
  Pt  Pt23  1  0.185638  0.558325  0.956751  1
  Pt  Pt24  1  0.641892  0.966279  0.952529  1
  Pt  Pt25  1  0.133347  0.538112  0.546624  1
  Pt  Pt26  1  0.367323  0.040374  0.454393  1
  Pt  Pt27  1  0.842249  0.471238  0.041123  1
  Pt  Pt28  1  0.547517  0.632014  0.751365  1
  Pt  Pt29  1  0.046522  0.869072  0.744247  1
  Pt  Pt30  1  0.462801  0.375117  0.261231  1
  Pt  Pt31  1  0.938583  0.120270  0.260081  1
  Pt  Pt32  1  0.293353  0.111763  0.760521  1
  Pt  Pt33  1  0.795272  0.388602  0.738764  1
  Pt  Pt34  1  0.695624  0.879899  0.258220  1
  Pt  Pt35  1  0.216896  0.622102  0.250058  1
