# generated using pymatgen
data_Sm8Tm12Si15P
_symmetry_space_group_name_H-M   'P 1'
_cell_length_a   7.69921513
_cell_length_b   7.73090715
_cell_length_c   14.14949300
_cell_angle_alpha   89.39203535
_cell_angle_beta   90.26140792
_cell_angle_gamma   90.11152553
_symmetry_Int_Tables_number   1
_chemical_formula_structural   Sm8Tm12Si15P
_chemical_formula_sum   'Sm8 Tm12 Si15 P1'
_cell_volume   842.14725697
_cell_formula_units_Z   1
loop_
 _symmetry_equiv_pos_site_id
 _symmetry_equiv_pos_as_xyz
  1  'x, y, z'
loop_
 _atom_site_type_symbol
 _atom_site_label
 _atom_site_symmetry_multiplicity
 _atom_site_fract_x
 _atom_site_fract_y
 _atom_site_fract_z
 _atom_site_occupancy
  Sm  Sm0  1  0.639138  0.993269  0.461548  1
  Sm  Sm1  1  0.356867  0.003626  0.958386  1
  Sm  Sm2  1  0.997965  0.644703  0.539264  1
  Sm  Sm3  1  0.493979  0.851480  0.211492  1
  Sm  Sm4  1  0.506727  0.149202  0.710906  1
  Sm  Sm5  1  0.855274  0.496975  0.789627  1
  Sm  Sm6  1  0.140137  0.498874  0.288265  1
  Sm  Sm7  1  0.005149  0.354466  0.040404  1
  Tm  Tm8  1  0.492510  0.355227  0.123521  1
  Tm  Tm9  1  0.996122  0.146733  0.627814  1
  Tm  Tm10  1  0.856837  0.006709  0.873886  1
  Tm  Tm11  1  0.146458  0.986209  0.380304  1
  Tm  Tm12  1  0.499467  0.653381  0.618088  1
  Tm  Tm13  1  0.357411  0.495086  0.876129  1
  Tm  Tm14  1  0.647668  0.500170  0.375065  1
  Tm  Tm15  1  0.006630  0.856601  0.126682  1
  Tm  Tm16  1  0.319652  0.322686  0.499491  1
  Tm  Tm17  1  0.180808  0.823520  0.749309  1
  Tm  Tm18  1  0.819498  0.175679  0.250878  1
  Tm  Tm19  1  0.680663  0.680020  0.999746  1
  Si  Si20  1  0.708108  0.057226  0.061793  1
  Si  Si21  1  0.942340  0.287950  0.439339  1
  Si  Si22  1  0.441615  0.200802  0.312298  1
  Si  Si23  1  0.558691  0.793143  0.810527  1
  Si  Si24  1  0.208442  0.449298  0.687260  1
  Si  Si25  1  0.789400  0.556410  0.186974  1
  Si  Si26  1  0.058506  0.707416  0.937708  1
  Si  Si27  1  0.795965  0.852938  0.683286  1
  Si  Si28  1  0.205203  0.145543  0.188812  1
  Si  Si29  1  0.851054  0.795697  0.315473  1
  Si  Si30  1  0.354856  0.687918  0.422279  1
  Si  Si31  1  0.649909  0.296205  0.936423  1
  Si  Si32  1  0.703048  0.354459  0.565601  1
  Si  Si33  1  0.293996  0.648413  0.062688  1
  Si  Si34  1  0.148072  0.205994  0.816531  1
  P  P35  1  0.291836  0.965971  0.572204  1
