# generated using pymatgen
data_PrTh2(MgPt)3
_symmetry_space_group_name_H-M   'P 1'
_cell_length_a   7.68705762
_cell_length_b   7.61985935
_cell_length_c   4.07209600
_cell_angle_alpha   90.00000000
_cell_angle_beta   90.00000000
_cell_angle_gamma   119.71125277
_symmetry_Int_Tables_number   1
_chemical_formula_structural   PrTh2(MgPt)3
_chemical_formula_sum   'Pr1 Th2 Mg3 Pt3'
_cell_volume   207.16291765
_cell_formula_units_Z   1
loop_
 _symmetry_equiv_pos_site_id
 _symmetry_equiv_pos_as_xyz
  1  'x, y, z'
loop_
 _atom_site_type_symbol
 _atom_site_label
 _atom_site_symmetry_multiplicity
 _atom_site_fract_x
 _atom_site_fract_y
 _atom_site_fract_z
 _atom_site_occupancy
  Pr  Pr0  1  0.000000  0.587156  0.000000  1
  Th  Th1  1  0.416662  0.415746  0.000000  1
  Th  Th2  1  0.583338  0.999084  0.000000  1
  Mg  Mg3  1  0.000000  0.243755  0.500000  1
  Mg  Mg4  1  0.765223  0.761940  0.500000  1
  Mg  Mg5  1  0.234777  0.996717  0.500000  1
  Pt  Pt6  1  0.000000  0.008708  0.000000  1
  Pt  Pt7  1  0.647331  0.317112  0.500000  1
  Pt  Pt8  1  0.352669  0.669782  0.500000  1
