# generated using pymatgen
data_Ac2La(InAu)3
_symmetry_space_group_name_H-M   'P 1'
_cell_length_a   8.03522050
_cell_length_b   8.00153511
_cell_length_c   4.40583200
_cell_angle_alpha   90.00000000
_cell_angle_beta   90.00000000
_cell_angle_gamma   119.86141244
_symmetry_Int_Tables_number   1
_chemical_formula_structural   Ac2La(InAu)3
_chemical_formula_sum   'Ac2 La1 In3 Au3'
_cell_volume   245.66001797
_cell_formula_units_Z   1
loop_
 _symmetry_equiv_pos_site_id
 _symmetry_equiv_pos_as_xyz
  1  'x, y, z'
loop_
 _atom_site_type_symbol
 _atom_site_label
 _atom_site_symmetry_multiplicity
 _atom_site_fract_x
 _atom_site_fract_y
 _atom_site_fract_z
 _atom_site_occupancy
  Ac  Ac0  1  0.586795  0.001037  0.500000  1
  Ac  Ac1  1  0.413205  0.414242  0.500000  1
  La  La2  1  0.000000  0.587206  0.500000  1
  In  In3  1  0.000000  0.246951  0.000000  1
  In  In4  1  0.760383  0.755401  0.000000  1
  In  In5  1  0.239617  0.995018  0.000000  1
  Au  Au6  1  0.671895  0.337381  0.000000  1
  Au  Au7  1  0.328105  0.665487  0.000000  1
  Au  Au8  1  0.000000  0.997278  0.500000  1
