# generated using pymatgen
data_Pr5NdTaWO14
_symmetry_space_group_name_H-M   'P 1'
_cell_length_a   6.71595926
_cell_length_b   6.72010048
_cell_length_c   7.78670954
_cell_angle_alpha   89.69612098
_cell_angle_beta   90.30769433
_cell_angle_gamma   109.51798795
_symmetry_Int_Tables_number   1
_chemical_formula_structural   Pr5NdTaWO14
_chemical_formula_sum   'Pr5 Nd1 Ta1 W1 O14'
_cell_volume   331.22778978
_cell_formula_units_Z   1
loop_
 _symmetry_equiv_pos_site_id
 _symmetry_equiv_pos_as_xyz
  1  'x, y, z'
loop_
 _atom_site_type_symbol
 _atom_site_label
 _atom_site_symmetry_multiplicity
 _atom_site_fract_x
 _atom_site_fract_y
 _atom_site_fract_z
 _atom_site_occupancy
  Pr  Pr0  1  0.499540  0.499414  0.499681  1
  Pr  Pr1  1  0.499425  0.499180  0.000302  1
  Pr  Pr2  1  0.999165  0.534978  0.249238  1
  Pr  Pr3  1  0.000645  0.465112  0.750732  1
  Pr  Pr4  1  0.534697  0.999187  0.750786  1
  Nd  Nd5  1  0.465297  0.000434  0.249203  1
  Ta  Ta6  1  0.999903  0.999991  0.000382  1
  W  W7  1  0.000026  0.000013  0.499548  1
  O  O8  1  0.941200  0.058354  0.750589  1
  O  O9  1  0.059648  0.941083  0.249415  1
  O  O10  1  0.365621  0.636882  0.249677  1
  O  O11  1  0.634210  0.365248  0.750308  1
  O  O12  1  0.370296  0.629859  0.749918  1
  O  O13  1  0.628625  0.367755  0.250078  1
  O  O14  1  0.312194  0.067700  0.972128  1
  O  O15  1  0.686982  0.930257  0.471954  1
  O  O16  1  0.313703  0.070586  0.525424  1
  O  O17  1  0.688759  0.933406  0.030770  1
  O  O18  1  0.071903  0.313532  0.473393  1
  O  O19  1  0.931191  0.688387  0.970833  1
  O  O20  1  0.928103  0.686708  0.526536  1
  O  O21  1  0.068867  0.311932  0.029106  1
