# generated using pymatgen
data_BaNb2Tl2Se11
_symmetry_space_group_name_H-M   'P 1'
_cell_length_a   14.30379800
_cell_length_b   8.01111769
_cell_length_c   17.29627400
_cell_angle_alpha   83.73888642
_cell_angle_beta   90.00000000
_cell_angle_gamma   90.00000000
_symmetry_Int_Tables_number   1
_chemical_formula_structural   BaNb2Tl2Se11
_chemical_formula_sum   'Ba4 Nb8 Tl8 Se44'
_cell_volume   1970.14777144
_cell_formula_units_Z   4
loop_
 _symmetry_equiv_pos_site_id
 _symmetry_equiv_pos_as_xyz
  1  'x, y, z'
loop_
 _atom_site_type_symbol
 _atom_site_label
 _atom_site_symmetry_multiplicity
 _atom_site_fract_x
 _atom_site_fract_y
 _atom_site_fract_z
 _atom_site_occupancy
  Ba  Ba0  1  0.875838  0.250065  0.033404  1
  Ba  Ba1  1  0.624162  0.250065  0.533404  1
  Ba  Ba2  1  0.375838  0.749935  0.466596  1
  Ba  Ba3  1  0.124162  0.749935  0.966596  1
  Nb  Nb4  1  0.328303  0.139489  0.195534  1
  Nb  Nb5  1  0.171697  0.139489  0.695534  1
  Nb  Nb6  1  0.716466  0.722109  0.605772  1
  Nb  Nb7  1  0.671697  0.860511  0.804466  1
  Nb  Nb8  1  0.216466  0.277891  0.894228  1
  Nb  Nb9  1  0.783534  0.722109  0.105772  1
  Nb  Nb10  1  0.828303  0.860511  0.304466  1
  Nb  Nb11  1  0.283534  0.277891  0.394228  1
  Tl  Tl12  1  0.525387  0.199063  0.909930  1
  Tl  Tl13  1  0.474613  0.800937  0.090070  1
  Tl  Tl14  1  0.974613  0.199063  0.409930  1
  Tl  Tl15  1  0.885865  0.271689  0.728515  1
  Tl  Tl16  1  0.025387  0.800937  0.590070  1
  Tl  Tl17  1  0.385865  0.728311  0.771485  1
  Tl  Tl18  1  0.614135  0.271689  0.228515  1
  Tl  Tl19  1  0.114135  0.728311  0.271485  1
  Se  Se20  1  0.164417  0.142402  0.302119  1
  Se  Se21  1  0.124130  0.162346  0.023766  1
  Se  Se22  1  0.281055  0.958415  0.611679  1
  Se  Se23  1  0.875870  0.837654  0.976234  1
  Se  Se24  1  0.192156  0.499531  0.437135  1
  Se  Se25  1  0.825716  0.563854  0.250403  1
  Se  Se26  1  0.453011  0.195361  0.104123  1
  Se  Se27  1  0.545405  0.605994  0.603844  1
  Se  Se28  1  0.781055  0.041585  0.888321  1
  Se  Se29  1  0.218945  0.958415  0.111679  1
  Se  Se30  1  0.292917  0.374108  0.656057  1
  Se  Se31  1  0.573237  0.927735  0.675876  1
  Se  Se32  1  0.812625  0.991101  0.564649  1
  Se  Se33  1  0.454595  0.394006  0.396156  1
  Se  Se34  1  0.045405  0.394006  0.896156  1
  Se  Se35  1  0.707083  0.625892  0.343943  1
  Se  Se36  1  0.624130  0.837654  0.476234  1
  Se  Se37  1  0.635801  0.164471  0.738172  1
  Se  Se38  1  0.664417  0.857598  0.197881  1
  Se  Se39  1  0.046989  0.195361  0.604123  1
  Se  Se40  1  0.835583  0.857598  0.697881  1
  Se  Se41  1  0.207083  0.374108  0.156057  1
  Se  Se42  1  0.307844  0.499531  0.937135  1
  Se  Se43  1  0.135801  0.835529  0.761828  1
  Se  Se44  1  0.864199  0.164471  0.238172  1
  Se  Se45  1  0.426763  0.072265  0.324124  1
  Se  Se46  1  0.953011  0.804639  0.395877  1
  Se  Se47  1  0.364199  0.835529  0.261828  1
  Se  Se48  1  0.335583  0.142402  0.802119  1
  Se  Se49  1  0.954595  0.605994  0.103844  1
  Se  Se50  1  0.325716  0.436146  0.249597  1
  Se  Se51  1  0.174284  0.436146  0.749597  1
  Se  Se52  1  0.926763  0.927735  0.175876  1
  Se  Se53  1  0.546989  0.804639  0.895877  1
  Se  Se54  1  0.792917  0.625892  0.843943  1
  Se  Se55  1  0.674284  0.563854  0.750403  1
  Se  Se56  1  0.187375  0.008899  0.435351  1
  Se  Se57  1  0.718945  0.041585  0.388321  1
  Se  Se58  1  0.687375  0.991101  0.064649  1
  Se  Se59  1  0.807844  0.500469  0.562865  1
  Se  Se60  1  0.073237  0.072265  0.824124  1
  Se  Se61  1  0.312625  0.008899  0.935351  1
  Se  Se62  1  0.692156  0.500469  0.062865  1
  Se  Se63  1  0.375870  0.162346  0.523766  1
