# generated using pymatgen
data_Zr6Nb4Ge6C
_symmetry_space_group_name_H-M   'P 1'
_cell_length_a   7.94987300
_cell_length_b   7.94987277
_cell_length_c   5.48198400
_cell_angle_alpha   90.00000000
_cell_angle_beta   90.00000000
_cell_angle_gamma   119.99999679
_symmetry_Int_Tables_number   1
_chemical_formula_structural   Zr6Nb4Ge6C
_chemical_formula_sum   'Zr6 Nb4 Ge6 C1'
_cell_volume   300.04664744
_cell_formula_units_Z   1
loop_
 _symmetry_equiv_pos_site_id
 _symmetry_equiv_pos_as_xyz
  1  'x, y, z'
loop_
 _atom_site_type_symbol
 _atom_site_label
 _atom_site_symmetry_multiplicity
 _atom_site_fract_x
 _atom_site_fract_y
 _atom_site_fract_z
 _atom_site_occupancy
  Zr  Zr0  1  0.000000  0.757518  0.255857  1
  Zr  Zr1  1  0.242482  0.242482  0.255857  1
  Zr  Zr2  1  0.757518  0.000000  0.255857  1
  Zr  Zr3  1  0.000000  0.242482  0.744143  1
  Zr  Zr4  1  0.757518  0.757518  0.744143  1
  Zr  Zr5  1  0.242482  0.000000  0.744143  1
  Nb  Nb6  1  0.333333  0.666667  0.000000  1
  Nb  Nb7  1  0.666667  0.333333  0.000000  1
  Nb  Nb8  1  0.666667  0.333333  0.500000  1
  Nb  Nb9  1  0.333333  0.666667  0.500000  1
  Ge  Ge10  1  0.000000  0.399497  0.244816  1
  Ge  Ge11  1  0.600503  0.600503  0.244816  1
  Ge  Ge12  1  0.399497  0.000000  0.244816  1
  Ge  Ge13  1  0.000000  0.600503  0.755184  1
  Ge  Ge14  1  0.399497  0.399497  0.755184  1
  Ge  Ge15  1  0.600503  0.000000  0.755184  1
  C  C16  1  0.000000  0.000000  0.500000  1
