# generated using pymatgen
data_Ca20GaHg3Pd8
_symmetry_space_group_name_H-M   'P 1'
_cell_length_a   7.75742300
_cell_length_b   7.75742300
_cell_length_c   14.72998400
_cell_angle_alpha   90.00000000
_cell_angle_beta   90.00000000
_cell_angle_gamma   90.00000000
_symmetry_Int_Tables_number   1
_chemical_formula_structural   Ca20GaHg3Pd8
_chemical_formula_sum   'Ca20 Ga1 Hg3 Pd8'
_cell_volume   886.41525604
_cell_formula_units_Z   1
loop_
 _symmetry_equiv_pos_site_id
 _symmetry_equiv_pos_as_xyz
  1  'x, y, z'
loop_
 _atom_site_type_symbol
 _atom_site_label
 _atom_site_symmetry_multiplicity
 _atom_site_fract_x
 _atom_site_fract_y
 _atom_site_fract_z
 _atom_site_occupancy
  Ca  Ca0  1  0.670856  0.163785  0.110639  1
  Ca  Ca1  1  0.167413  0.666625  0.614352  1
  Ca  Ca2  1  0.329144  0.836215  0.110639  1
  Ca  Ca3  1  0.832587  0.333375  0.614352  1
  Ca  Ca4  1  0.836215  0.670856  0.110639  1
  Ca  Ca5  1  0.333375  0.167413  0.614352  1
  Ca  Ca6  1  0.163785  0.329144  0.110639  1
  Ca  Ca7  1  0.666625  0.832587  0.614352  1
  Ca  Ca8  1  0.836215  0.329144  0.889361  1
  Ca  Ca9  1  0.333375  0.832587  0.385648  1
  Ca  Ca10  1  0.163785  0.670856  0.889361  1
  Ca  Ca11  1  0.666625  0.167413  0.385648  1
  Ca  Ca12  1  0.670856  0.836215  0.889361  1
  Ca  Ca13  1  0.167413  0.333375  0.385648  1
  Ca  Ca14  1  0.329144  0.163785  0.889361  1
  Ca  Ca15  1  0.832587  0.666625  0.385648  1
  Ca  Ca16  1  0.500000  0.500000  0.754925  1
  Ca  Ca17  1  0.000000  0.000000  0.248392  1
  Ca  Ca18  1  0.000000  0.000000  0.751608  1
  Ca  Ca19  1  0.500000  0.500000  0.245075  1
  Ga  Ga20  1  0.000000  0.000000  0.000000  1
  Hg  Hg21  1  0.500000  0.500000  0.500000  1
  Hg  Hg22  1  0.500000  0.500000  0.000000  1
  Hg  Hg23  1  0.000000  0.000000  0.500000  1
  Pd  Pd24  1  0.628322  0.128483  0.751212  1
  Pd  Pd25  1  0.128483  0.628322  0.248788  1
  Pd  Pd26  1  0.871517  0.371678  0.248788  1
  Pd  Pd27  1  0.371678  0.871517  0.751212  1
  Pd  Pd28  1  0.871517  0.628322  0.751212  1
  Pd  Pd29  1  0.371678  0.128483  0.248788  1
  Pd  Pd30  1  0.128483  0.371678  0.751212  1
  Pd  Pd31  1  0.628322  0.871517  0.248788  1
