# generated using pymatgen
data_Tb8Ti5Si16Mo7
_symmetry_space_group_name_H-M   'P 1'
_cell_length_a   6.96688935
_cell_length_b   6.95889936
_cell_length_c   12.89123745
_cell_angle_alpha   89.87683019
_cell_angle_beta   90.01204969
_cell_angle_gamma   90.03395017
_symmetry_Int_Tables_number   1
_chemical_formula_structural   Tb8Ti5Si16Mo7
_chemical_formula_sum   'Tb8 Ti5 Si16 Mo7'
_cell_volume   624.98988293
_cell_formula_units_Z   1
loop_
 _symmetry_equiv_pos_site_id
 _symmetry_equiv_pos_as_xyz
  1  'x, y, z'
loop_
 _atom_site_type_symbol
 _atom_site_label
 _atom_site_symmetry_multiplicity
 _atom_site_fract_x
 _atom_site_fract_y
 _atom_site_fract_z
 _atom_site_occupancy
  Tb  Tb0  1  0.340901  0.004192  0.467097  1
  Tb  Tb1  1  0.496427  0.840490  0.718647  1
  Tb  Tb2  1  0.503215  0.159946  0.218304  1
  Tb  Tb3  1  0.840086  0.495695  0.281006  1
  Tb  Tb4  1  0.159555  0.502924  0.782965  1
  Tb  Tb5  1  0.659511  0.996480  0.968299  1
  Tb  Tb6  1  0.003530  0.340086  0.531900  1
  Tb  Tb7  1  0.995719  0.660558  0.031329  1
  Ti  Ti8  1  0.328757  0.329003  0.999466  1
  Ti  Ti9  1  0.170707  0.828303  0.250037  1
  Ti  Ti10  1  0.826892  0.172622  0.750423  1
  Ti  Ti11  1  0.670484  0.668807  0.499235  1
  Ti  Ti12  1  0.993480  0.841368  0.625374  1
  Si  Si13  1  0.201461  0.129147  0.684858  1
  Si  Si14  1  0.371890  0.700338  0.934816  1
  Si  Si15  1  0.629667  0.300703  0.434835  1
  Si  Si16  1  0.698721  0.371072  0.065278  1
  Si  Si17  1  0.301351  0.628772  0.564538  1
  Si  Si18  1  0.800367  0.871629  0.184639  1
  Si  Si19  1  0.127514  0.199798  0.315497  1
  Si  Si20  1  0.872444  0.800366  0.815176  1
  Si  Si21  1  0.288264  0.958088  0.062888  1
  Si  Si22  1  0.542043  0.788127  0.312759  1
  Si  Si23  1  0.457395  0.211569  0.812872  1
  Si  Si24  1  0.788491  0.543314  0.687438  1
  Si  Si25  1  0.211826  0.457741  0.186798  1
  Si  Si26  1  0.711235  0.043700  0.563421  1
  Si  Si27  1  0.957761  0.288424  0.937337  1
  Si  Si28  1  0.043999  0.711527  0.436962  1
  Mo  Mo29  1  0.159891  0.008836  0.875673  1
  Mo  Mo30  1  0.492157  0.658663  0.124642  1
  Mo  Mo31  1  0.507313  0.341213  0.623958  1
  Mo  Mo32  1  0.657396  0.491029  0.877225  1
  Mo  Mo33  1  0.342399  0.505348  0.374355  1
  Mo  Mo34  1  0.839959  0.991091  0.373808  1
  Mo  Mo35  1  0.007189  0.159032  0.126145  1
