# generated using pymatgen
data_Pr2Dy4CoCl10
_symmetry_space_group_name_H-M   'P 1'
_cell_length_a   7.16895630
_cell_length_b   8.96381764
_cell_length_c   8.93338603
_cell_angle_alpha   109.21936812
_cell_angle_beta   96.76215984
_cell_angle_gamma   104.19633539
_symmetry_Int_Tables_number   1
_chemical_formula_structural   Pr2Dy4CoCl10
_chemical_formula_sum   'Pr2 Dy4 Co1 Cl10'
_cell_volume   513.01932973
_cell_formula_units_Z   1
loop_
 _symmetry_equiv_pos_site_id
 _symmetry_equiv_pos_as_xyz
  1  'x, y, z'
loop_
 _atom_site_type_symbol
 _atom_site_label
 _atom_site_symmetry_multiplicity
 _atom_site_fract_x
 _atom_site_fract_y
 _atom_site_fract_z
 _atom_site_occupancy
  Pr  Pr0  1  0.464635  0.796765  0.596688  1
  Pr  Pr1  1  0.535365  0.203235  0.403312  1
  Dy  Dy2  1  0.370968  0.452782  0.750582  1
  Dy  Dy3  1  0.629032  0.547218  0.249418  1
  Dy  Dy4  1  0.861165  0.633743  0.686105  1
  Dy  Dy5  1  0.138835  0.366257  0.313895  1
  Co  Co6  1  0.500000  0.500000  0.500000  1
  Cl  Cl7  1  0.410126  0.143969  0.679379  1
  Cl  Cl8  1  0.589874  0.856031  0.320621  1
  Cl  Cl9  1  0.036365  0.667315  0.417122  1
  Cl  Cl10  1  0.963635  0.332685  0.582878  1
  Cl  Cl11  1  0.271435  0.740829  0.849763  1
  Cl  Cl12  1  0.728565  0.259171  0.150237  1
  Cl  Cl13  1  0.260011  0.418823  0.047827  1
  Cl  Cl14  1  0.739989  0.581177  0.952173  1
  Cl  Cl15  1  0.857645  0.941571  0.771437  1
  Cl  Cl16  1  0.142355  0.058429  0.228563  1
