# generated using pymatgen
data_Er4Tm4Os3WC8
_symmetry_space_group_name_H-M   'P 1'
_cell_length_a   5.04630500
_cell_length_b   6.49621126
_cell_length_c   9.71658020
_cell_angle_alpha   89.66228757
_cell_angle_beta   90.00000000
_cell_angle_gamma   90.00000000
_symmetry_Int_Tables_number   1
_chemical_formula_structural   Er4Tm4Os3WC8
_chemical_formula_sum   'Er4 Tm4 Os3 W1 C8'
_cell_volume   318.52207114
_cell_formula_units_Z   1
loop_
 _symmetry_equiv_pos_site_id
 _symmetry_equiv_pos_as_xyz
  1  'x, y, z'
loop_
 _atom_site_type_symbol
 _atom_site_label
 _atom_site_symmetry_multiplicity
 _atom_site_fract_x
 _atom_site_fract_y
 _atom_site_fract_z
 _atom_site_occupancy
  Er  Er0  1  0.250000  0.532859  0.214200  1
  Er  Er1  1  0.750000  0.465443  0.780390  1
  Er  Er2  1  0.750000  0.968846  0.716185  1
  Er  Er3  1  0.250000  0.031013  0.285309  1
  Tm  Tm4  1  0.250000  0.676626  0.555524  1
  Tm  Tm5  1  0.750000  0.324604  0.443528  1
  Tm  Tm6  1  0.750000  0.826156  0.056591  1
  Tm  Tm7  1  0.250000  0.178388  0.942974  1
  Os  Os8  1  0.750000  0.281512  0.133490  1
  Os  Os9  1  0.750000  0.779983  0.365635  1
  Os  Os10  1  0.250000  0.221300  0.630499  1
  W  W11  1  0.250000  0.718493  0.869668  1
  C  C12  1  0.250000  0.450353  0.759720  1
  C  C13  1  0.750000  0.545606  0.242094  1
  C  C14  1  0.750000  0.046895  0.259131  1
  C  C15  1  0.250000  0.954899  0.739825  1
  C  C16  1  0.250000  0.827715  0.059482  1
  C  C17  1  0.750000  0.171832  0.947738  1
  C  C18  1  0.750000  0.670536  0.552984  1
  C  C19  1  0.250000  0.326940  0.445032  1
