# generated using pymatgen
data_ErHf(SnRh)2
_symmetry_space_group_name_H-M   'P 1'
_cell_length_a   7.46553700
_cell_length_b   7.46553578
_cell_length_c   7.47566800
_cell_angle_alpha   90.00000000
_cell_angle_beta   90.00000000
_cell_angle_gamma   120.00000215
_symmetry_Int_Tables_number   1
_chemical_formula_structural   ErHf(SnRh)2
_chemical_formula_sum   'Er3 Hf3 Sn6 Rh6'
_cell_volume   360.83001938
_cell_formula_units_Z   3
loop_
 _symmetry_equiv_pos_site_id
 _symmetry_equiv_pos_as_xyz
  1  'x, y, z'
loop_
 _atom_site_type_symbol
 _atom_site_label
 _atom_site_symmetry_multiplicity
 _atom_site_fract_x
 _atom_site_fract_y
 _atom_site_fract_z
 _atom_site_occupancy
  Er  Er0  1  0.999900  0.405583  0.250000  1
  Er  Er1  1  0.594417  0.594316  0.250000  1
  Er  Er2  1  0.405684  0.000100  0.250000  1
  Hf  Hf3  1  0.000515  0.393740  0.750000  1
  Hf  Hf4  1  0.606260  0.606774  0.750000  1
  Hf  Hf5  1  0.393226  0.999485  0.750000  1
  Sn  Sn6  1  0.267423  0.266996  0.505777  1
  Sn  Sn7  1  0.999572  0.732577  0.505777  1
  Sn  Sn8  1  0.999572  0.732577  0.994223  1
  Sn  Sn9  1  0.733004  0.000428  0.505777  1
  Sn  Sn10  1  0.733004  0.000428  0.994223  1
  Sn  Sn11  1  0.267423  0.266996  0.994223  1
  Rh  Rh12  1  0.333333  0.666667  0.536713  1
  Rh  Rh13  1  0.666667  0.333333  0.537787  1
  Rh  Rh14  1  0.333333  0.666667  0.963287  1
  Rh  Rh15  1  0.000000  0.000000  0.750000  1
  Rh  Rh16  1  0.000000  0.000000  0.250000  1
  Rh  Rh17  1  0.666667  0.333333  0.962213  1
