# generated using pymatgen
data_Th4Zn5Cd3Cu16
_symmetry_space_group_name_H-M   'P 1'
_cell_length_a   5.14003400
_cell_length_b   8.32807739
_cell_length_c   10.58767251
_cell_angle_alpha   89.96465937
_cell_angle_beta   90.00000000
_cell_angle_gamma   90.00000000
_symmetry_Int_Tables_number   1
_chemical_formula_structural   Th4Zn5Cd3Cu16
_chemical_formula_sum   'Th4 Zn5 Cd3 Cu16'
_cell_volume   453.22218585
_cell_formula_units_Z   1
loop_
 _symmetry_equiv_pos_site_id
 _symmetry_equiv_pos_as_xyz
  1  'x, y, z'
loop_
 _atom_site_type_symbol
 _atom_site_label
 _atom_site_symmetry_multiplicity
 _atom_site_fract_x
 _atom_site_fract_y
 _atom_site_fract_z
 _atom_site_occupancy
  Th  Th0  1  0.250000  0.254076  0.562632  1
  Th  Th1  1  0.750000  0.745222  0.441938  1
  Th  Th2  1  0.250000  0.758958  0.940551  1
  Th  Th3  1  0.750000  0.243394  0.053722  1
  Zn  Zn4  1  0.250000  0.143035  0.863666  1
  Zn  Zn5  1  0.750000  0.684194  0.754042  1
  Zn  Zn6  1  0.250000  0.314355  0.245953  1
  Zn  Zn7  1  0.750000  0.183816  0.749539  1
  Zn  Zn8  1  0.250000  0.816043  0.252656  1
  Cd  Cd9  1  0.750000  0.360164  0.362687  1
  Cd  Cd10  1  0.250000  0.639365  0.637393  1
  Cd  Cd11  1  0.750000  0.860687  0.137376  1
  Cu  Cu12  1  0.502642  0.563310  0.185730  1
  Cu  Cu13  1  0.004950  0.432043  0.813325  1
  Cu  Cu14  1  0.997382  0.063840  0.312074  1
  Cu  Cu15  1  0.493459  0.939932  0.691134  1
  Cu  Cu16  1  0.750000  0.939132  0.895175  1
  Cu  Cu17  1  0.250000  0.065201  0.098053  1
  Cu  Cu18  1  0.750000  0.438614  0.606611  1
  Cu  Cu19  1  0.250000  0.560163  0.393920  1
  Cu  Cu20  1  0.750000  0.587187  0.983715  1
  Cu  Cu21  1  0.250000  0.408170  0.013998  1
  Cu  Cu22  1  0.750000  0.087168  0.516169  1
  Cu  Cu23  1  0.250000  0.912807  0.485676  1
  Cu  Cu24  1  0.502618  0.063840  0.312074  1
  Cu  Cu25  1  0.006541  0.939932  0.691134  1
  Cu  Cu26  1  0.997358  0.563310  0.185730  1
  Cu  Cu27  1  0.495050  0.432043  0.813325  1
