# generated using pymatgen
data_Li2ZrNi11As4P3
_symmetry_space_group_name_H-M   'P 1'
_cell_length_a   3.63380300
_cell_length_b   9.20918397
_cell_length_c   9.26646025
_cell_angle_alpha   120.20439654
_cell_angle_beta   90.00000000
_cell_angle_gamma   90.00000000
_symmetry_Int_Tables_number   1
_chemical_formula_structural   Li2ZrNi11As4P3
_chemical_formula_sum   'Li2 Zr1 Ni11 As4 P3'
_cell_volume   267.99633107
_cell_formula_units_Z   1
loop_
 _symmetry_equiv_pos_site_id
 _symmetry_equiv_pos_as_xyz
  1  'x, y, z'
loop_
 _atom_site_type_symbol
 _atom_site_label
 _atom_site_symmetry_multiplicity
 _atom_site_fract_x
 _atom_site_fract_y
 _atom_site_fract_z
 _atom_site_occupancy
  Li  Li0  1  0.500000  0.328725  0.664224  1
  Li  Li1  1  0.500000  0.122572  0.900575  1
  Zr  Zr2  1  0.000000  0.669844  0.336483  1
  Ni  Ni3  1  0.000000  0.873912  0.713245  1
  Ni  Ni4  1  0.000000  0.289739  0.161850  1
  Ni  Ni5  1  0.000000  0.836484  0.127535  1
  Ni  Ni6  1  0.500000  0.939764  0.557704  1
  Ni  Ni7  1  0.500000  0.443829  0.382400  1
  Ni  Ni8  1  0.500000  0.619674  0.060490  1
  Ni  Ni9  1  0.000000  0.385341  0.957755  1
  Ni  Ni10  1  0.000000  0.045468  0.426527  1
  Ni  Ni11  1  0.000000  0.569936  0.615523  1
  Ni  Ni12  1  0.500000  0.089487  0.221204  1
  Ni  Ni13  1  0.500000  0.778652  0.869559  1
  As  As14  1  0.000000  0.996428  0.002697  1
  As  As15  1  0.000000  0.126761  0.704923  1
  As  As16  1  0.000000  0.288177  0.414424  1
  As  As17  1  0.000000  0.582759  0.871261  1
  P  P18  1  0.500000  0.710774  0.590648  1
  P  P19  1  0.500000  0.421969  0.128159  1
  P  P20  1  0.500000  0.879708  0.292814  1
