# generated using pymatgen
data_Hf18Ta6FeMo2Se
_symmetry_space_group_name_H-M   'P 1'
_cell_length_a   8.62931600
_cell_length_b   8.82234316
_cell_length_c   8.82234300
_cell_angle_alpha   120.00236778
_cell_angle_beta   90.00000000
_cell_angle_gamma   90.00000000
_symmetry_Int_Tables_number   1
_chemical_formula_structural   Hf18Ta6FeMo2Se
_chemical_formula_sum   'Hf18 Ta6 Fe1 Mo2 Se1'
_cell_volume   581.65374297
_cell_formula_units_Z   1
loop_
 _symmetry_equiv_pos_site_id
 _symmetry_equiv_pos_as_xyz
  1  'x, y, z'
loop_
 _atom_site_type_symbol
 _atom_site_label
 _atom_site_symmetry_multiplicity
 _atom_site_fract_x
 _atom_site_fract_y
 _atom_site_fract_z
 _atom_site_occupancy
  Hf  Hf0  1  0.549347  0.804856  0.609706  1
  Hf  Hf1  1  0.549302  0.804847  0.195153  1
  Hf  Hf2  1  0.549347  0.390294  0.195144  1
  Hf  Hf3  1  0.440052  0.204378  0.408748  1
  Hf  Hf4  1  0.440091  0.204386  0.795614  1
  Hf  Hf5  1  0.440052  0.591252  0.795622  1
  Hf  Hf6  1  0.059948  0.204378  0.408748  1
  Hf  Hf7  1  0.059909  0.204386  0.795614  1
  Hf  Hf8  1  0.059948  0.591252  0.795622  1
  Hf  Hf9  1  0.950653  0.804856  0.609706  1
  Hf  Hf10  1  0.950698  0.804847  0.195153  1
  Hf  Hf11  1  0.950653  0.390294  0.195144  1
  Hf  Hf12  1  0.750000  0.452684  0.905349  1
  Hf  Hf13  1  0.750000  0.452630  0.547370  1
  Hf  Hf14  1  0.750000  0.094651  0.547315  1
  Hf  Hf15  1  0.250000  0.540133  0.080292  1
  Hf  Hf16  1  0.250000  0.540165  0.459835  1
  Hf  Hf17  1  0.250000  0.919708  0.459866  1
  Ta  Ta18  1  0.750000  0.111015  0.222001  1
  Ta  Ta19  1  0.750000  0.111022  0.888978  1
  Ta  Ta20  1  0.750000  0.777999  0.888985  1
  Ta  Ta21  1  0.250000  0.887284  0.774608  1
  Ta  Ta22  1  0.250000  0.887289  0.112711  1
  Ta  Ta23  1  0.250000  0.225392  0.112716  1
  Fe  Fe24  1  0.250000  0.333310  0.666690  1
  Mo  Mo25  1  0.497780  0.000004  0.999996  1
  Mo  Mo26  1  0.002220  0.000004  0.999996  1
  Se  Se27  1  0.750000  0.666683  0.333317  1
