# generated using pymatgen
data_Er3Lu(B4Ru5)2
_symmetry_space_group_name_H-M   'P 1'
_cell_length_a   3.04833800
_cell_length_b   8.79119869
_cell_length_c   10.17491600
_cell_angle_alpha   90.02316306
_cell_angle_beta   90.00000000
_cell_angle_gamma   90.00000000
_symmetry_Int_Tables_number   1
_chemical_formula_structural   Er3Lu(B4Ru5)2
_chemical_formula_sum   'Er3 Lu1 B8 Ru10'
_cell_volume   272.67292229
_cell_formula_units_Z   1
loop_
 _symmetry_equiv_pos_site_id
 _symmetry_equiv_pos_as_xyz
  1  'x, y, z'
loop_
 _atom_site_type_symbol
 _atom_site_label
 _atom_site_symmetry_multiplicity
 _atom_site_fract_x
 _atom_site_fract_y
 _atom_site_fract_z
 _atom_site_occupancy
  Er  Er0  1  0.500000  0.838143  0.182089  1
  Er  Er1  1  0.500000  0.162040  0.818730  1
  Er  Er2  1  0.500000  0.661651  0.680920  1
  Lu  Lu3  1  0.500000  0.338498  0.318322  1
  B  B4  1  0.500000  0.968210  0.586744  1
  B  B5  1  0.500000  0.032712  0.412689  1
  B  B6  1  0.500000  0.854386  0.899264  1
  B  B7  1  0.500000  0.146290  0.101733  1
  B  B8  1  0.500000  0.644875  0.398847  1
  B  B9  1  0.500000  0.354121  0.600436  1
  B  B10  1  0.500000  0.468054  0.913100  1
  B  B11  1  0.500000  0.531583  0.087369  1
  Ru  Ru12  1  0.000000  0.663400  0.953117  1
  Ru  Ru13  1  0.000000  0.336842  0.047879  1
  Ru  Ru14  1  0.000000  0.836134  0.452377  1
  Ru  Ru15  1  0.000000  0.163407  0.546482  1
  Ru  Ru16  1  0.000000  0.000265  0.000619  1
  Ru  Ru17  1  0.000000  0.409499  0.762168  1
  Ru  Ru18  1  0.000000  0.589236  0.237640  1
  Ru  Ru19  1  0.000000  0.498283  0.499148  1
  Ru  Ru20  1  0.000000  0.909723  0.737599  1
  Ru  Ru21  1  0.000000  0.092650  0.262729  1
