# generated using pymatgen
data_Lu4MnRe7
_symmetry_space_group_name_H-M   'P 1'
_cell_length_a   5.33632853
_cell_length_b   5.33636828
_cell_length_c   8.76025400
_cell_angle_alpha   89.99761784
_cell_angle_beta   90.00165473
_cell_angle_gamma   120.01356257
_symmetry_Int_Tables_number   1
_chemical_formula_structural   Lu4MnRe7
_chemical_formula_sum   'Lu4 Mn1 Re7'
_cell_volume   216.01122186
_cell_formula_units_Z   1
loop_
 _symmetry_equiv_pos_site_id
 _symmetry_equiv_pos_as_xyz
  1  'x, y, z'
loop_
 _atom_site_type_symbol
 _atom_site_label
 _atom_site_symmetry_multiplicity
 _atom_site_fract_x
 _atom_site_fract_y
 _atom_site_fract_z
 _atom_site_occupancy
  Lu  Lu0  1  0.666572  0.333445  0.063068  1
  Lu  Lu1  1  0.333428  0.666555  0.936932  1
  Lu  Lu2  1  0.333446  0.666548  0.561879  1
  Lu  Lu3  1  0.666554  0.333452  0.438121  1
  Mn  Mn4  1  0.000000  0.000000  0.500000  1
  Re  Re5  1  0.000000  0.000000  0.000000  1
  Re  Re6  1  0.170113  0.341008  0.252286  1
  Re  Re7  1  0.170099  0.829903  0.252275  1
  Re  Re8  1  0.658993  0.829886  0.252288  1
  Re  Re9  1  0.829887  0.658992  0.747714  1
  Re  Re10  1  0.829901  0.170097  0.747725  1
  Re  Re11  1  0.341007  0.170114  0.747712  1
