# generated using pymatgen
data_Tb9Lu3(Si3Pd)4
_symmetry_space_group_name_H-M   'P 1'
_cell_length_a   4.23332400
_cell_length_b   10.63860769
_cell_length_c   12.29185200
_cell_angle_alpha   89.85796420
_cell_angle_beta   90.00000000
_cell_angle_gamma   90.00000000
_symmetry_Int_Tables_number   1
_chemical_formula_structural   Tb9Lu3(Si3Pd)4
_chemical_formula_sum   'Tb9 Lu3 Si12 Pd4'
_cell_volume   553.58242126
_cell_formula_units_Z   1
loop_
 _symmetry_equiv_pos_site_id
 _symmetry_equiv_pos_as_xyz
  1  'x, y, z'
loop_
 _atom_site_type_symbol
 _atom_site_label
 _atom_site_symmetry_multiplicity
 _atom_site_fract_x
 _atom_site_fract_y
 _atom_site_fract_z
 _atom_site_occupancy
  Tb  Tb0  1  0.250000  0.880992  0.021791  1
  Tb  Tb1  1  0.250000  0.620025  0.519570  1
  Tb  Tb2  1  0.750000  0.120591  0.979014  1
  Tb  Tb3  1  0.750000  0.378976  0.478643  1
  Tb  Tb4  1  0.250000  0.920593  0.599197  1
  Tb  Tb5  1  0.250000  0.580348  0.101390  1
  Tb  Tb6  1  0.750000  0.079596  0.399983  1
  Tb  Tb7  1  0.750000  0.419473  0.900583  1
  Tb  Tb8  1  0.250000  0.661521  0.801028  1
  Lu  Lu9  1  0.250000  0.838500  0.300190  1
  Lu  Lu10  1  0.750000  0.336639  0.200216  1
  Lu  Lu11  1  0.750000  0.162474  0.699958  1
  Si  Si12  1  0.250000  0.018925  0.820393  1
  Si  Si13  1  0.250000  0.480305  0.320547  1
  Si  Si14  1  0.750000  0.981629  0.179623  1
  Si  Si15  1  0.750000  0.517443  0.677788  1
  Si  Si16  1  0.250000  0.245510  0.844426  1
  Si  Si17  1  0.250000  0.254552  0.344740  1
  Si  Si18  1  0.750000  0.755503  0.156760  1
  Si  Si19  1  0.750000  0.745397  0.653762  1
  Si  Si20  1  0.250000  0.195270  0.542334  1
  Si  Si21  1  0.250000  0.304457  0.042614  1
  Si  Si22  1  0.750000  0.804010  0.456873  1
  Si  Si23  1  0.750000  0.697419  0.961108  1
  Pd  Pd24  1  0.250000  0.386816  0.681858  1
  Pd  Pd25  1  0.250000  0.111337  0.184530  1
  Pd  Pd26  1  0.750000  0.610655  0.315976  1
  Pd  Pd27  1  0.750000  0.891042  0.815106  1
