# generated using pymatgen
data_Dy4Ho(Tm5Bi4)3
_symmetry_space_group_name_H-M   'P 1'
_cell_length_a   8.19888907
_cell_length_b   9.44751100
_cell_length_c   11.93893210
_cell_angle_alpha   90.00000000
_cell_angle_beta   90.01464226
_cell_angle_gamma   90.00000000
_symmetry_Int_Tables_number   1
_chemical_formula_structural   Dy4Ho(Tm5Bi4)3
_chemical_formula_sum   'Dy4 Ho1 Tm15 Bi12'
_cell_volume   924.77884113
_cell_formula_units_Z   1
loop_
 _symmetry_equiv_pos_site_id
 _symmetry_equiv_pos_as_xyz
  1  'x, y, z'
loop_
 _atom_site_type_symbol
 _atom_site_label
 _atom_site_symmetry_multiplicity
 _atom_site_fract_x
 _atom_site_fract_y
 _atom_site_fract_z
 _atom_site_occupancy
  Dy  Dy0  1  0.312627  0.250000  0.218253  1
  Dy  Dy1  1  0.812456  0.250000  0.281847  1
  Dy  Dy2  1  0.687506  0.750000  0.781716  1
  Dy  Dy3  1  0.187459  0.750000  0.718227  1
  Ho  Ho4  1  0.352663  0.750000  0.216843  1
  Tm  Tm5  1  0.852495  0.750000  0.282869  1
  Tm  Tm6  1  0.647375  0.250000  0.782859  1
  Tm  Tm7  1  0.147263  0.250000  0.717226  1
  Tm  Tm8  1  0.692558  0.565758  0.059318  1
  Tm  Tm9  1  0.192393  0.934347  0.440919  1
  Tm  Tm10  1  0.307498  0.065735  0.940605  1
  Tm  Tm11  1  0.807499  0.434204  0.559355  1
  Tm  Tm12  1  0.307498  0.434265  0.940605  1
  Tm  Tm13  1  0.807499  0.065796  0.559355  1
  Tm  Tm14  1  0.692558  0.934242  0.059318  1
  Tm  Tm15  1  0.192393  0.565653  0.440919  1
  Tm  Tm16  1  0.476358  0.250000  0.488990  1
  Tm  Tm17  1  0.976175  0.250000  0.010995  1
  Tm  Tm18  1  0.523934  0.750000  0.511338  1
  Tm  Tm19  1  0.023751  0.750000  0.988894  1
  Bi  Bi20  1  0.405231  0.750000  0.957698  1
  Bi  Bi21  1  0.904982  0.750000  0.541495  1
  Bi  Bi22  1  0.594966  0.250000  0.041570  1
  Bi  Bi23  1  0.094987  0.250000  0.458490  1
  Bi  Bi24  1  0.565640  0.995215  0.326134  1
  Bi  Bi25  1  0.064971  0.505036  0.174038  1
  Bi  Bi26  1  0.434676  0.494787  0.674062  1
  Bi  Bi27  1  0.934650  0.005253  0.825913  1
  Bi  Bi28  1  0.434676  0.005213  0.674062  1
  Bi  Bi29  1  0.934650  0.494747  0.825913  1
  Bi  Bi30  1  0.565640  0.504785  0.326134  1
  Bi  Bi31  1  0.064971  0.994964  0.174038  1
