# generated using pymatgen
data_Na6Ca6Al2BiSb7
_symmetry_space_group_name_H-M   'P 1'
_cell_length_a   10.14146200
_cell_length_b   10.14146174
_cell_length_c   7.63880800
_cell_angle_alpha   90.00000000
_cell_angle_beta   90.00000000
_cell_angle_gamma   119.99999433
_symmetry_Int_Tables_number   1
_chemical_formula_structural   Na6Ca6Al2BiSb7
_chemical_formula_sum   'Na6 Ca6 Al2 Bi1 Sb7'
_cell_volume   680.38914312
_cell_formula_units_Z   1
loop_
 _symmetry_equiv_pos_site_id
 _symmetry_equiv_pos_as_xyz
  1  'x, y, z'
loop_
 _atom_site_type_symbol
 _atom_site_label
 _atom_site_symmetry_multiplicity
 _atom_site_fract_x
 _atom_site_fract_y
 _atom_site_fract_z
 _atom_site_occupancy
  Na  Na0  1  0.855508  0.144492  0.548717  1
  Na  Na1  1  0.288984  0.144492  0.548717  1
  Na  Na2  1  0.855508  0.711016  0.548717  1
  Na  Na3  1  0.144027  0.855973  0.048688  1
  Na  Na4  1  0.711945  0.855973  0.048688  1
  Na  Na5  1  0.144027  0.288055  0.048688  1
  Ca  Ca6  1  0.480544  0.519456  0.728742  1
  Ca  Ca7  1  0.038911  0.519456  0.728742  1
  Ca  Ca8  1  0.480544  0.961089  0.728742  1
  Ca  Ca9  1  0.520795  0.479205  0.230350  1
  Ca  Ca10  1  0.958410  0.479205  0.230350  1
  Ca  Ca11  1  0.520795  0.041590  0.230350  1
  Al  Al12  1  0.666667  0.333333  0.859497  1
  Al  Al13  1  0.333333  0.666667  0.364595  1
  Bi  Bi14  1  0.333333  0.666667  0.994825  1
  Sb  Sb15  1  0.812356  0.187644  0.963884  1
  Sb  Sb16  1  0.375289  0.187644  0.963884  1
  Sb  Sb17  1  0.812356  0.624711  0.963884  1
  Sb  Sb18  1  0.187326  0.812674  0.464250  1
  Sb  Sb19  1  0.625347  0.812674  0.464250  1
  Sb  Sb20  1  0.187326  0.374653  0.464250  1
  Sb  Sb21  1  0.666667  0.333333  0.497915  1
