# generated using pymatgen
data_Tb2NdYNi14
_symmetry_space_group_name_H-M   'P 1'
_cell_length_a   12.52457460
_cell_length_b   12.52457482
_cell_length_c   12.52457625
_cell_angle_alpha   22.91259924
_cell_angle_beta   22.91259542
_cell_angle_gamma   22.91259878
_symmetry_Int_Tables_number   1
_chemical_formula_structural   Tb2NdYNi14
_chemical_formula_sum   'Tb2 Nd1 Y1 Ni14'
_cell_volume   261.33301085
_cell_formula_units_Z   1
loop_
 _symmetry_equiv_pos_site_id
 _symmetry_equiv_pos_as_xyz
  1  'x, y, z'
loop_
 _atom_site_type_symbol
 _atom_site_label
 _atom_site_symmetry_multiplicity
 _atom_site_fract_x
 _atom_site_fract_y
 _atom_site_fract_z
 _atom_site_occupancy
  Tb  Tb0  1  0.949081  0.949081  0.949081  1
  Tb  Tb1  1  0.147439  0.147439  0.147439  1
  Nd  Nd2  1  0.050770  0.050770  0.050770  1
  Y  Y3  1  0.852783  0.852783  0.852783  1
  Ni  Ni4  1  0.721892  0.721892  0.721892  1
  Ni  Ni5  1  0.388261  0.388261  0.388261  1
  Ni  Ni6  1  0.390432  0.891123  0.390432  1
  Ni  Ni7  1  0.611728  0.611728  0.611728  1
  Ni  Ni8  1  0.999556  0.499532  0.499532  1
  Ni  Ni9  1  0.609995  0.609995  0.109334  1
  Ni  Ni10  1  0.500024  0.500024  0.500024  1
  Ni  Ni11  1  0.390432  0.390432  0.891123  1
  Ni  Ni12  1  0.278091  0.278091  0.278091  1
  Ni  Ni13  1  0.609995  0.109334  0.609995  1
  Ni  Ni14  1  0.891123  0.390432  0.390432  1
  Ni  Ni15  1  0.499532  0.999556  0.499532  1
  Ni  Ni16  1  0.499532  0.499532  0.999556  1
  Ni  Ni17  1  0.109334  0.609995  0.609995  1
