# generated using pymatgen
data_Y7Ho(LuIr2)2
_symmetry_space_group_name_H-M   'P 1'
_cell_length_a   6.47443778
_cell_length_b   7.23165572
_cell_length_c   8.50388300
_cell_angle_alpha   96.94074923
_cell_angle_beta   111.90543485
_cell_angle_gamma   89.70958416
_symmetry_Int_Tables_number   1
_chemical_formula_structural   Y7Ho(LuIr2)2
_chemical_formula_sum   'Y7 Ho1 Lu2 Ir4'
_cell_volume   366.35927246
_cell_formula_units_Z   1
loop_
 _symmetry_equiv_pos_site_id
 _symmetry_equiv_pos_as_xyz
  1  'x, y, z'
loop_
 _atom_site_type_symbol
 _atom_site_label
 _atom_site_symmetry_multiplicity
 _atom_site_fract_x
 _atom_site_fract_y
 _atom_site_fract_z
 _atom_site_occupancy
  Y  Y0  1  0.792585  0.083058  0.817929  1
  Y  Y1  1  0.975575  0.418531  0.185633  1
  Y  Y2  1  0.209854  0.918170  0.185075  1
  Y  Y3  1  0.027425  0.581169  0.815101  1
  Y  Y4  1  0.208937  0.184771  0.561120  1
  Y  Y5  1  0.647651  0.316359  0.439102  1
  Y  Y6  1  0.791109  0.815606  0.440340  1
  Ho  Ho7  1  0.570789  0.749438  0.998626  1
  Lu  Lu8  1  0.351004  0.682490  0.561574  1
  Lu  Lu9  1  0.429912  0.250014  0.000343  1
  Ir  Ir10  1  0.599549  0.427477  0.779783  1
  Ir  Ir11  1  0.817712  0.074223  0.213746  1
  Ir  Ir12  1  0.397080  0.573568  0.221236  1
  Ir  Ir13  1  0.180820  0.925127  0.780393  1
