# generated using pymatgen
data_Lu12TlCu5
_symmetry_space_group_name_H-M   'P 1'
_cell_length_a   8.24056656
_cell_length_b   8.24056641
_cell_length_c   8.24056641
_cell_angle_alpha   111.53691982
_cell_angle_beta   110.75306694
_cell_angle_gamma   106.17417697
_symmetry_Int_Tables_number   1
_chemical_formula_structural   Lu12TlCu5
_chemical_formula_sum   'Lu12 Tl1 Cu5'
_cell_volume   429.69045859
_cell_formula_units_Z   1
loop_
 _symmetry_equiv_pos_site_id
 _symmetry_equiv_pos_as_xyz
  1  'x, y, z'
loop_
 _atom_site_type_symbol
 _atom_site_label
 _atom_site_symmetry_multiplicity
 _atom_site_fract_x
 _atom_site_fract_y
 _atom_site_fract_z
 _atom_site_occupancy
  Lu  Lu0  1  0.421822  0.228183  0.193638  1
  Lu  Lu1  1  0.578178  0.771817  0.806362  1
  Lu  Lu2  1  0.034544  0.228183  0.806362  1
  Lu  Lu3  1  0.965456  0.771817  0.193638  1
  Lu  Lu4  1  0.181324  0.280404  0.461729  1
  Lu  Lu5  1  0.818676  0.719596  0.538271  1
  Lu  Lu6  1  0.181324  0.719596  0.900921  1
  Lu  Lu7  1  0.818676  0.280404  0.099079  1
  Lu  Lu8  1  0.322249  0.621308  0.299059  1
  Lu  Lu9  1  0.677751  0.378692  0.700941  1
  Lu  Lu10  1  0.322249  0.023190  0.700941  1
  Lu  Lu11  1  0.677751  0.976810  0.299059  1
  Tl  Tl12  1  0.500000  0.500000  0.000000  1
  Cu  Cu13  1  0.358342  0.000000  0.358342  1
  Cu  Cu14  1  0.641658  0.000000  0.641658  1
  Cu  Cu15  1  0.123167  0.623167  0.500000  1
  Cu  Cu16  1  0.876833  0.376833  0.500000  1
  Cu  Cu17  1  0.000000  0.000000  0.000000  1
