# generated using pymatgen
data_Ca2Nd3PPb3
_symmetry_space_group_name_H-M   'P 1'
_cell_length_a   9.39180500
_cell_length_b   9.39251184
_cell_length_c   7.06668000
_cell_angle_alpha   90.00000000
_cell_angle_beta   90.00000000
_cell_angle_gamma   120.00248707
_symmetry_Int_Tables_number   1
_chemical_formula_structural   Ca2Nd3PPb3
_chemical_formula_sum   'Ca4 Nd6 P2 Pb6'
_cell_volume   539.84115601
_cell_formula_units_Z   2
loop_
 _symmetry_equiv_pos_site_id
 _symmetry_equiv_pos_as_xyz
  1  'x, y, z'
loop_
 _atom_site_type_symbol
 _atom_site_label
 _atom_site_symmetry_multiplicity
 _atom_site_fract_x
 _atom_site_fract_y
 _atom_site_fract_z
 _atom_site_occupancy
  Ca  Ca0  1  0.666748  0.333374  0.500000  1
  Ca  Ca1  1  0.333252  0.666626  0.500000  1
  Ca  Ca2  1  0.333252  0.666626  0.000000  1
  Ca  Ca3  1  0.666748  0.333374  0.000000  1
  Nd  Nd4  1  0.761126  0.761028  0.250000  1
  Nd  Nd5  1  0.238874  0.999902  0.250000  1
  Nd  Nd6  1  0.000000  0.239419  0.250000  1
  Nd  Nd7  1  0.238874  0.238972  0.750000  1
  Nd  Nd8  1  0.761126  0.000098  0.750000  1
  Nd  Nd9  1  0.000000  0.760581  0.750000  1
  P  P10  1  0.000000  0.000000  0.500000  1
  P  P11  1  0.000000  0.000000  0.000000  1
  Pb  Pb12  1  0.402730  0.403079  0.250000  1
  Pb  Pb13  1  0.597270  0.000349  0.250000  1
  Pb  Pb14  1  0.000000  0.597033  0.250000  1
  Pb  Pb15  1  0.597270  0.596921  0.750000  1
  Pb  Pb16  1  0.402730  0.999651  0.750000  1
  Pb  Pb17  1  0.000000  0.402967  0.750000  1
