# generated using pymatgen
data_Y6Fe18P13Pt2
_symmetry_space_group_name_H-M   'P 1'
_cell_length_a   12.69340500
_cell_length_b   12.69340509
_cell_length_c   3.73640100
_cell_angle_alpha   90.00000000
_cell_angle_beta   90.00000000
_cell_angle_gamma   120.00000238
_symmetry_Int_Tables_number   1
_chemical_formula_structural   Y6Fe18P13Pt2
_chemical_formula_sum   'Y6 Fe18 P13 Pt2'
_cell_volume   521.36320511
_cell_formula_units_Z   1
loop_
 _symmetry_equiv_pos_site_id
 _symmetry_equiv_pos_as_xyz
  1  'x, y, z'
loop_
 _atom_site_type_symbol
 _atom_site_label
 _atom_site_symmetry_multiplicity
 _atom_site_fract_x
 _atom_site_fract_y
 _atom_site_fract_z
 _atom_site_occupancy
  Y  Y0  1  0.463617  0.185724  0.000000  1
  Y  Y1  1  0.722108  0.536383  0.000000  1
  Y  Y2  1  0.814276  0.277892  0.000000  1
  Y  Y3  1  0.536714  0.814829  0.500000  1
  Y  Y4  1  0.278116  0.463286  0.500000  1
  Y  Y5  1  0.185171  0.721884  0.500000  1
  Fe  Fe6  1  0.193681  0.090095  0.000000  1
  Fe  Fe7  1  0.896413  0.806319  0.000000  1
  Fe  Fe8  1  0.909905  0.103587  0.000000  1
  Fe  Fe9  1  0.850082  0.931082  0.500000  1
  Fe  Fe10  1  0.081000  0.149918  0.500000  1
  Fe  Fe11  1  0.068918  0.919000  0.500000  1
  Fe  Fe12  1  0.439058  0.417521  0.000000  1
  Fe  Fe13  1  0.978464  0.560942  0.000000  1
  Fe  Fe14  1  0.582479  0.021536  0.000000  1
  Fe  Fe15  1  0.568393  0.590262  0.500000  1
  Fe  Fe16  1  0.021868  0.431607  0.500000  1
  Fe  Fe17  1  0.409738  0.978132  0.500000  1
  Fe  Fe18  1  0.075201  0.310925  0.000000  1
  Fe  Fe19  1  0.235723  0.924799  0.000000  1
  Fe  Fe20  1  0.689075  0.764277  0.000000  1
  Fe  Fe21  1  0.930241  0.684131  0.500000  1
  Fe  Fe22  1  0.753890  0.069759  0.500000  1
  Fe  Fe23  1  0.315869  0.246110  0.500000  1
  P  P24  1  0.235440  0.279069  0.000000  1
  P  P25  1  0.043630  0.764560  0.000000  1
  P  P26  1  0.720931  0.956370  0.000000  1
  P  P27  1  0.773767  0.727209  0.500000  1
  P  P28  1  0.953441  0.226233  0.500000  1
  P  P29  1  0.272791  0.046559  0.500000  1
  P  P30  1  0.492910  0.614557  0.000000  1
  P  P31  1  0.121647  0.507090  0.000000  1
  P  P32  1  0.385443  0.878353  0.000000  1
  P  P33  1  0.511288  0.390739  0.500000  1
  P  P34  1  0.879450  0.488712  0.500000  1
  P  P35  1  0.609261  0.120550  0.500000  1
  P  P36  1  0.000000  0.000000  0.000000  1
  Pt  Pt37  1  0.333333  0.666667  0.000000  1
  Pt  Pt38  1  0.666667  0.333333  0.500000  1
