# generated using pymatgen
data_HoPu(AlB4)2
_symmetry_space_group_name_H-M   'P 1'
_cell_length_a   3.57326900
_cell_length_b   5.94764629
_cell_length_c   11.52939107
_cell_angle_alpha   89.98849519
_cell_angle_beta   90.00000000
_cell_angle_gamma   90.00000000
_symmetry_Int_Tables_number   1
_chemical_formula_structural   HoPu(AlB4)2
_chemical_formula_sum   'Ho2 Pu2 Al4 B16'
_cell_volume   245.02884117
_cell_formula_units_Z   2
loop_
 _symmetry_equiv_pos_site_id
 _symmetry_equiv_pos_as_xyz
  1  'x, y, z'
loop_
 _atom_site_type_symbol
 _atom_site_label
 _atom_site_symmetry_multiplicity
 _atom_site_fract_x
 _atom_site_fract_y
 _atom_site_fract_z
 _atom_site_occupancy
  Ho  Ho0  1  0.500000  0.128054  0.650153  1
  Ho  Ho1  1  0.500000  0.871946  0.349847  1
  Pu  Pu2  1  0.500000  0.370670  0.150387  1
  Pu  Pu3  1  0.500000  0.629330  0.849613  1
  Al  Al4  1  0.500000  0.362516  0.408739  1
  Al  Al5  1  0.500000  0.637484  0.591261  1
  Al  Al6  1  0.500000  0.138939  0.910011  1
  Al  Al7  1  0.500000  0.861061  0.089989  1
  B  B8  1  0.000000  0.113458  0.047290  1
  B  B9  1  0.000000  0.886542  0.952710  1
  B  B10  1  0.000000  0.385408  0.546260  1
  B  B11  1  0.000000  0.614592  0.453740  1
  B  B12  1  0.000000  0.133231  0.468918  1
  B  B13  1  0.000000  0.866769  0.531082  1
  B  B14  1  0.000000  0.366833  0.968523  1
  B  B15  1  0.000000  0.633167  0.031477  1
  B  B16  1  0.000000  0.027509  0.192903  1
  B  B17  1  0.000000  0.972491  0.807097  1
  B  B18  1  0.000000  0.472584  0.692515  1
  B  B19  1  0.000000  0.527416  0.307485  1
  B  B20  1  0.000000  0.211180  0.312380  1
  B  B21  1  0.000000  0.788820  0.687620  1
  B  B22  1  0.000000  0.289696  0.812225  1
  B  B23  1  0.000000  0.710304  0.187775  1
