# generated using pymatgen
data_Ho5SiBi2
_symmetry_space_group_name_H-M   'P 1'
_cell_length_a   8.04140900
_cell_length_b   9.16776200
_cell_length_c   11.98709600
_cell_angle_alpha   90.00000000
_cell_angle_beta   90.00000000
_cell_angle_gamma   90.00000000
_symmetry_Int_Tables_number   1
_chemical_formula_structural   Ho5SiBi2
_chemical_formula_sum   'Ho20 Si4 Bi8'
_cell_volume   883.70938116
_cell_formula_units_Z   4
loop_
 _symmetry_equiv_pos_site_id
 _symmetry_equiv_pos_as_xyz
  1  'x, y, z'
loop_
 _atom_site_type_symbol
 _atom_site_label
 _atom_site_symmetry_multiplicity
 _atom_site_fract_x
 _atom_site_fract_y
 _atom_site_fract_z
 _atom_site_occupancy
  Ho  Ho0  1  0.820986  0.553293  0.062721  1
  Ho  Ho1  1  0.679014  0.946707  0.562721  1
  Ho  Ho2  1  0.179014  0.053293  0.937279  1
  Ho  Ho3  1  0.320986  0.446707  0.437279  1
  Ho  Ho4  1  0.179014  0.446707  0.937279  1
  Ho  Ho5  1  0.320986  0.053293  0.437279  1
  Ho  Ho6  1  0.820986  0.946707  0.062721  1
  Ho  Ho7  1  0.679014  0.553293  0.562721  1
  Ho  Ho8  1  0.167270  0.750000  0.211538  1
  Ho  Ho9  1  0.332730  0.750000  0.711538  1
  Ho  Ho10  1  0.832730  0.250000  0.788462  1
  Ho  Ho11  1  0.667270  0.250000  0.288462  1
  Ho  Ho12  1  0.461563  0.750000  0.001586  1
  Ho  Ho13  1  0.038437  0.750000  0.501586  1
  Ho  Ho14  1  0.538437  0.250000  0.998414  1
  Ho  Ho15  1  0.961563  0.250000  0.498414  1
  Ho  Ho16  1  0.636817  0.750000  0.295578  1
  Ho  Ho17  1  0.863183  0.750000  0.795578  1
  Ho  Ho18  1  0.363183  0.250000  0.704422  1
  Ho  Ho19  1  0.136817  0.250000  0.204422  1
  Si  Si20  1  0.411692  0.750000  0.478506  1
  Si  Si21  1  0.088308  0.750000  0.978506  1
  Si  Si22  1  0.588308  0.250000  0.521494  1
  Si  Si23  1  0.911692  0.250000  0.021494  1
  Bi  Bi24  1  0.933554  0.511137  0.325239  1
  Bi  Bi25  1  0.566446  0.988863  0.825239  1
  Bi  Bi26  1  0.066446  0.011137  0.674761  1
  Bi  Bi27  1  0.433554  0.488863  0.174761  1
  Bi  Bi28  1  0.066446  0.488863  0.674761  1
  Bi  Bi29  1  0.433554  0.011137  0.174761  1
  Bi  Bi30  1  0.933554  0.988863  0.325239  1
  Bi  Bi31  1  0.566446  0.511137  0.825239  1
