# generated using pymatgen
data_Er4CdHgPd3Pt
_symmetry_space_group_name_H-M   'P 1'
_cell_length_a   7.69238417
_cell_length_b   7.71307943
_cell_length_c   3.67072600
_cell_angle_alpha   90.00000000
_cell_angle_beta   90.00000000
_cell_angle_gamma   90.18737871
_symmetry_Int_Tables_number   1
_chemical_formula_structural   Er4CdHgPd3Pt
_chemical_formula_sum   'Er4 Cd1 Hg1 Pd3 Pt1'
_cell_volume   217.79024054
_cell_formula_units_Z   1
loop_
 _symmetry_equiv_pos_site_id
 _symmetry_equiv_pos_as_xyz
  1  'x, y, z'
loop_
 _atom_site_type_symbol
 _atom_site_label
 _atom_site_symmetry_multiplicity
 _atom_site_fract_x
 _atom_site_fract_y
 _atom_site_fract_z
 _atom_site_occupancy
  Er  Er0  1  0.681861  0.154554  0.500000  1
  Er  Er1  1  0.313778  0.839172  0.500000  1
  Er  Er2  1  0.158894  0.322296  0.500000  1
  Er  Er3  1  0.848103  0.683747  0.500000  1
  Cd  Cd4  1  0.501555  0.499996  0.000000  1
  Hg  Hg5  1  0.000203  0.006797  0.000000  1
  Pd  Pd6  1  0.853721  0.379798  0.000000  1
  Pd  Pd7  1  0.619154  0.858985  0.000000  1
  Pd  Pd8  1  0.382611  0.138911  0.000000  1
  Pt  Pt9  1  0.140119  0.615744  0.000000  1
