# generated using pymatgen
data_Tb2DyTi(Co4P3)2
_symmetry_space_group_name_H-M   'P 1'
_cell_length_a   3.69913500
_cell_length_b   10.60713800
_cell_length_c   12.29686400
_cell_angle_alpha   90.00000000
_cell_angle_beta   90.00000000
_cell_angle_gamma   90.00000000
_symmetry_Int_Tables_number   1
_chemical_formula_structural   Tb2DyTi(Co4P3)2
_chemical_formula_sum   'Tb4 Dy2 Ti2 Co16 P12'
_cell_volume   482.49494776
_cell_formula_units_Z   2
loop_
 _symmetry_equiv_pos_site_id
 _symmetry_equiv_pos_as_xyz
  1  'x, y, z'
loop_
 _atom_site_type_symbol
 _atom_site_label
 _atom_site_symmetry_multiplicity
 _atom_site_fract_x
 _atom_site_fract_y
 _atom_site_fract_z
 _atom_site_occupancy
  Tb  Tb0  1  0.000000  0.500000  0.525007  1
  Tb  Tb1  1  0.500000  0.000000  0.474899  1
  Tb  Tb2  1  0.000000  0.680055  0.795512  1
  Tb  Tb3  1  0.000000  0.319945  0.795512  1
  Dy  Dy4  1  0.500000  0.820082  0.204418  1
  Dy  Dy5  1  0.500000  0.179918  0.204418  1
  Ti  Ti6  1  0.500000  0.500000  0.153280  1
  Ti  Ti7  1  0.000000  0.000000  0.846788  1
  Co  Co8  1  0.500000  0.500000  0.702705  1
  Co  Co9  1  0.000000  0.000000  0.296994  1
  Co  Co10  1  0.000000  0.500000  0.987455  1
  Co  Co11  1  0.500000  0.000000  0.012867  1
  Co  Co12  1  0.500000  0.332199  0.994186  1
  Co  Co13  1  0.500000  0.667801  0.994186  1
  Co  Co14  1  0.000000  0.167570  0.006186  1
  Co  Co15  1  0.000000  0.832430  0.006186  1
  Co  Co16  1  0.500000  0.295698  0.431571  1
  Co  Co17  1  0.500000  0.704302  0.431571  1
  Co  Co18  1  0.000000  0.204205  0.568222  1
  Co  Co19  1  0.000000  0.795795  0.568222  1
  Co  Co20  1  0.500000  0.878794  0.706203  1
  Co  Co21  1  0.500000  0.121206  0.706203  1
  Co  Co22  1  0.000000  0.621465  0.293645  1
  Co  Co23  1  0.000000  0.378535  0.293645  1
  P  P24  1  0.500000  0.500000  0.883580  1
  P  P25  1  0.000000  0.000000  0.116899  1
  P  P26  1  0.500000  0.500000  0.352462  1
  P  P27  1  0.000000  0.000000  0.647562  1
  P  P28  1  0.500000  0.309799  0.615359  1
  P  P29  1  0.500000  0.690201  0.615359  1
  P  P30  1  0.000000  0.190035  0.384231  1
  P  P31  1  0.000000  0.809965  0.384231  1
  P  P32  1  0.500000  0.843250  0.892594  1
  P  P33  1  0.500000  0.156750  0.892594  1
  P  P34  1  0.000000  0.657117  0.107622  1
  P  P35  1  0.000000  0.342883  0.107622  1
