# generated using pymatgen
data_Nb3Fe6Si2Pt
_symmetry_space_group_name_H-M   'P 1'
_cell_length_a   4.83325600
_cell_length_b   4.83325559
_cell_length_c   7.78895500
_cell_angle_alpha   90.00000000
_cell_angle_beta   90.00000000
_cell_angle_gamma   120.00000284
_symmetry_Int_Tables_number   1
_chemical_formula_structural   Nb3Fe6Si2Pt
_chemical_formula_sum   'Nb3 Fe6 Si2 Pt1'
_cell_volume   157.57574687
_cell_formula_units_Z   1
loop_
 _symmetry_equiv_pos_site_id
 _symmetry_equiv_pos_as_xyz
  1  'x, y, z'
loop_
 _atom_site_type_symbol
 _atom_site_label
 _atom_site_symmetry_multiplicity
 _atom_site_fract_x
 _atom_site_fract_y
 _atom_site_fract_z
 _atom_site_occupancy
  Nb  Nb0  1  0.333334  0.666667  0.423477  1
  Nb  Nb1  1  0.666666  0.333332  0.567807  1
  Nb  Nb2  1  0.666666  0.333332  0.947109  1
  Fe  Fe3  1  0.341263  0.170632  0.250422  1
  Fe  Fe4  1  0.829369  0.170632  0.250422  1
  Fe  Fe5  1  0.829369  0.658738  0.250422  1
  Fe  Fe6  1  0.170527  0.341054  0.749999  1
  Fe  Fe7  1  0.170526  0.829473  0.749999  1
  Fe  Fe8  1  0.658946  0.829473  0.749999  1
  Si  Si9  1  0.000000  0.000000  0.001388  1
  Si  Si10  1  0.000000  0.000000  0.500673  1
  Pt  Pt11  1  0.333334  0.666667  0.058284  1
