# generated using pymatgen
data_TbHo2Th(Al3Ir)6
_symmetry_space_group_name_H-M   'P 1'
_cell_length_a   7.58471707
_cell_length_b   7.59495576
_cell_length_c   9.48896000
_cell_angle_alpha   90.00000000
_cell_angle_beta   90.00000000
_cell_angle_gamma   119.52632044
_symmetry_Int_Tables_number   1
_chemical_formula_structural   TbHo2Th(Al3Ir)6
_chemical_formula_sum   'Tb1 Ho2 Th1 Al18 Ir6'
_cell_volume   475.62764607
_cell_formula_units_Z   1
loop_
 _symmetry_equiv_pos_site_id
 _symmetry_equiv_pos_as_xyz
  1  'x, y, z'
loop_
 _atom_site_type_symbol
 _atom_site_label
 _atom_site_symmetry_multiplicity
 _atom_site_fract_x
 _atom_site_fract_y
 _atom_site_fract_z
 _atom_site_occupancy
  Tb  Tb0  1  0.671757  0.994877  0.250000  1
  Ho  Ho1  1  0.004156  0.329094  0.750000  1
  Ho  Ho2  1  0.328247  0.004661  0.750000  1
  Th  Th3  1  0.995147  0.670737  0.250000  1
  Al  Al4  1  0.131343  0.132943  0.250000  1
  Al  Al5  1  0.871644  0.874027  0.750000  1
  Al  Al6  1  0.001556  0.330993  0.071838  1
  Al  Al7  1  0.999220  0.664554  0.918541  1
  Al  Al8  1  0.999220  0.664554  0.581459  1
  Al  Al9  1  0.339700  0.005151  0.428163  1
  Al  Al10  1  0.001556  0.330993  0.428162  1
  Al  Al11  1  0.664911  0.000390  0.575749  1
  Al  Al12  1  0.664911  0.000390  0.924251  1
  Al  Al13  1  0.339700  0.005151  0.071837  1
  Al  Al14  1  0.332366  0.332433  0.555477  1
  Al  Al15  1  0.662944  0.666192  0.453768  1
  Al  Al16  1  0.662944  0.666192  0.046232  1
  Al  Al17  1  0.332366  0.332433  0.944523  1
  Al  Al18  1  0.343810  0.547981  0.250000  1
  Al  Al19  1  0.658099  0.449219  0.750000  1
  Al  Al20  1  0.543852  0.336912  0.250000  1
  Al  Al21  1  0.450232  0.660788  0.750000  1
  Ir  Ir22  1  0.673172  0.329587  0.000204  1
  Ir  Ir23  1  0.326547  0.671473  0.000253  1
  Ir  Ir24  1  0.326547  0.671473  0.499747  1
  Ir  Ir25  1  0.673172  0.329587  0.499796  1
  Ir  Ir26  1  0.000441  0.998607  0.000432  1
  Ir  Ir27  1  0.000441  0.998607  0.499568  1
