# generated using pymatgen
data_Ho4Er11Tm5(CoSb2)4
_symmetry_space_group_name_H-M   'P 1'
_cell_length_a   7.79802908
_cell_length_b   8.74182905
_cell_length_c   12.08811411
_cell_angle_alpha   90.00715953
_cell_angle_beta   89.98609837
_cell_angle_gamma   89.99048668
_symmetry_Int_Tables_number   1
_chemical_formula_structural   Ho4Er11Tm5(CoSb2)4
_chemical_formula_sum   'Ho4 Er11 Tm5 Co4 Sb8'
_cell_volume   824.03505808
_cell_formula_units_Z   1
loop_
 _symmetry_equiv_pos_site_id
 _symmetry_equiv_pos_as_xyz
  1  'x, y, z'
loop_
 _atom_site_type_symbol
 _atom_site_label
 _atom_site_symmetry_multiplicity
 _atom_site_fract_x
 _atom_site_fract_y
 _atom_site_fract_z
 _atom_site_occupancy
  Ho  Ho0  1  0.622722  0.749943  0.307664  1
  Ho  Ho1  1  0.122760  0.249946  0.192223  1
  Ho  Ho2  1  0.377253  0.249949  0.692361  1
  Ho  Ho3  1  0.877411  0.750116  0.807747  1
  Er  Er4  1  0.156577  0.750064  0.203856  1
  Er  Er5  1  0.656602  0.249939  0.296064  1
  Er  Er6  1  0.843518  0.249974  0.796105  1
  Er  Er7  1  0.343332  0.749978  0.703983  1
  Er  Er8  1  0.451331  0.750062  0.998124  1
  Er  Er9  1  0.951526  0.250030  0.501879  1
  Er  Er10  1  0.548361  0.249883  0.001854  1
  Er  Er11  1  0.048437  0.750047  0.498147  1
  Er  Er12  1  0.676793  0.963096  0.565400  1
  Er  Er13  1  0.823247  0.536914  0.065366  1
  Er  Er14  1  0.323217  0.463076  0.434611  1
  Tm  Tm15  1  0.823725  0.963089  0.065313  1
  Tm  Tm16  1  0.323533  0.036943  0.434593  1
  Tm  Tm17  1  0.176454  0.463016  0.934609  1
  Tm  Tm18  1  0.676490  0.536968  0.565409  1
  Tm  Tm19  1  0.176263  0.036967  0.934649  1
  Co  Co20  1  0.431902  0.749952  0.490549  1
  Co  Co21  1  0.932192  0.249860  0.009372  1
  Co  Co22  1  0.568122  0.249952  0.509445  1
  Co  Co23  1  0.068254  0.750188  0.990547  1
  Sb  Sb24  1  0.930527  0.991800  0.327317  1
  Sb  Sb25  1  0.430582  0.008233  0.172676  1
  Sb  Sb26  1  0.069482  0.491772  0.672671  1
  Sb  Sb27  1  0.569488  0.508213  0.827339  1
  Sb  Sb28  1  0.069635  0.008267  0.672722  1
  Sb  Sb29  1  0.569391  0.991788  0.827429  1
  Sb  Sb30  1  0.930436  0.508238  0.327332  1
  Sb  Sb31  1  0.430437  0.491737  0.172644  1
