# generated using pymatgen
data_LaEu(NiSn)4
_symmetry_space_group_name_H-M   'P 1'
_cell_length_a   4.50381000
_cell_length_b   4.50381000
_cell_length_c   10.11913300
_cell_angle_alpha   90.00000000
_cell_angle_beta   90.00000000
_cell_angle_gamma   90.00000000
_symmetry_Int_Tables_number   1
_chemical_formula_structural   LaEu(NiSn)4
_chemical_formula_sum   'La1 Eu1 Ni4 Sn4'
_cell_volume   205.25957521
_cell_formula_units_Z   1
loop_
 _symmetry_equiv_pos_site_id
 _symmetry_equiv_pos_as_xyz
  1  'x, y, z'
loop_
 _atom_site_type_symbol
 _atom_site_label
 _atom_site_symmetry_multiplicity
 _atom_site_fract_x
 _atom_site_fract_y
 _atom_site_fract_z
 _atom_site_occupancy
  La  La0  1  0.500000  0.000000  0.759449  1
  Eu  Eu1  1  0.000000  0.500000  0.239864  1
  Ni  Ni2  1  0.000000  0.000000  0.999988  1
  Ni  Ni3  1  0.500000  0.500000  0.999988  1
  Ni  Ni4  1  0.000000  0.500000  0.628099  1
  Ni  Ni5  1  0.500000  0.000000  0.373143  1
  Sn  Sn6  1  0.000000  0.000000  0.499572  1
  Sn  Sn7  1  0.500000  0.500000  0.499572  1
  Sn  Sn8  1  0.000000  0.500000  0.878681  1
  Sn  Sn9  1  0.500000  0.000000  0.121644  1
