# generated using pymatgen
data_ZnCu(OsO3)4
_symmetry_space_group_name_H-M   'P 1'
_cell_length_a   4.60374701
_cell_length_b   4.60374701
_cell_length_c   9.36787900
_cell_angle_alpha   90.00000000
_cell_angle_beta   90.00000000
_cell_angle_gamma   90.00866204
_symmetry_Int_Tables_number   1
_chemical_formula_structural   ZnCu(OsO3)4
_chemical_formula_sum   'Zn1 Cu1 Os4 O12'
_cell_volume   198.54738330
_cell_formula_units_Z   1
loop_
 _symmetry_equiv_pos_site_id
 _symmetry_equiv_pos_as_xyz
  1  'x, y, z'
loop_
 _atom_site_type_symbol
 _atom_site_label
 _atom_site_symmetry_multiplicity
 _atom_site_fract_x
 _atom_site_fract_y
 _atom_site_fract_z
 _atom_site_occupancy
  Zn  Zn0  1  0.000000  0.000000  0.000000  1
  Cu  Cu1  1  0.500000  0.500000  0.500000  1
  Os  Os2  1  0.000000  0.000000  0.667937  1
  Os  Os3  1  0.500000  0.500000  0.169606  1
  Os  Os4  1  0.500000  0.500000  0.830394  1
  Os  Os5  1  0.000000  0.000000  0.332063  1
  O  O6  1  0.205244  0.794756  0.822741  1
  O  O7  1  0.706468  0.706468  0.321636  1
  O  O8  1  0.814283  0.185717  0.500000  1
  O  O9  1  0.293532  0.293532  0.678364  1
  O  O10  1  0.794756  0.205244  0.822741  1
  O  O11  1  0.185717  0.814283  0.500000  1
  O  O12  1  0.315395  0.315395  0.000000  1
  O  O13  1  0.684605  0.684605  0.000000  1
  O  O14  1  0.293532  0.293532  0.321636  1
  O  O15  1  0.205244  0.794756  0.177259  1
  O  O16  1  0.706468  0.706468  0.678364  1
  O  O17  1  0.794756  0.205244  0.177259  1
