# generated using pymatgen
data_Ac9HoTl6
_symmetry_space_group_name_H-M   'P 1'
_cell_length_a   6.76495706
_cell_length_b   9.93509859
_cell_length_c   9.93509950
_cell_angle_alpha   83.34974738
_cell_angle_beta   70.06623471
_cell_angle_gamma   70.06622865
_symmetry_Int_Tables_number   1
_chemical_formula_structural   Ac9HoTl6
_chemical_formula_sum   'Ac9 Ho1 Tl6'
_cell_volume   590.12745146
_cell_formula_units_Z   1
loop_
 _symmetry_equiv_pos_site_id
 _symmetry_equiv_pos_as_xyz
  1  'x, y, z'
loop_
 _atom_site_type_symbol
 _atom_site_label
 _atom_site_symmetry_multiplicity
 _atom_site_fract_x
 _atom_site_fract_y
 _atom_site_fract_z
 _atom_site_occupancy
  Ac  Ac0  1  0.722484  0.867258  0.696917  1
  Ac  Ac1  1  0.287037  0.132676  0.303162  1
  Ac  Ac2  1  0.777516  0.303083  0.132742  1
  Ac  Ac3  1  0.212963  0.696838  0.867324  1
  Ac  Ac4  1  0.580118  0.697124  0.132732  1
  Ac  Ac5  1  0.410371  0.302863  0.867310  1
  Ac  Ac6  1  0.089629  0.132690  0.697137  1
  Ac  Ac7  1  0.919882  0.867268  0.302876  1
  Ac  Ac8  1  0.750000  0.500300  0.499700  1
  Ho  Ho9  1  0.250000  0.499892  0.500108  1
  Tl  Tl10  1  0.173072  0.500064  0.185913  1
  Tl  Tl11  1  0.860178  0.500265  0.814405  1
  Tl  Tl12  1  0.326928  0.814087  0.499936  1
  Tl  Tl13  1  0.639822  0.185595  0.499735  1
  Tl  Tl14  1  0.250000  0.999605  0.000395  1
  Tl  Tl15  1  0.750000  0.000391  0.999609  1
