# generated using pymatgen
data_Eu3Mg3GaSn2
_symmetry_space_group_name_H-M   'P 1'
_cell_length_a   7.70287483
_cell_length_b   7.70287466
_cell_length_c   4.69096700
_cell_angle_alpha   90.00000000
_cell_angle_beta   90.00000000
_cell_angle_gamma   120.01010493
_symmetry_Int_Tables_number   1
_chemical_formula_structural   Eu3Mg3GaSn2
_chemical_formula_sum   'Eu3 Mg3 Ga1 Sn2'
_cell_volume   241.02075949
_cell_formula_units_Z   1
loop_
 _symmetry_equiv_pos_site_id
 _symmetry_equiv_pos_as_xyz
  1  'x, y, z'
loop_
 _atom_site_type_symbol
 _atom_site_label
 _atom_site_symmetry_multiplicity
 _atom_site_fract_x
 _atom_site_fract_y
 _atom_site_fract_z
 _atom_site_occupancy
  Eu  Eu0  1  0.999985  0.583580  0.000000  1
  Eu  Eu1  1  0.416422  0.416422  0.000000  1
  Eu  Eu2  1  0.583580  0.999985  0.000000  1
  Mg  Mg3  1  0.000049  0.238068  0.500000  1
  Mg  Mg4  1  0.761933  0.761933  0.500000  1
  Mg  Mg5  1  0.238068  0.000049  0.500000  1
  Ga  Ga6  1  0.999987  0.999987  0.000000  1
  Sn  Sn7  1  0.333258  0.666719  0.500000  1
  Sn  Sn8  1  0.666719  0.333258  0.500000  1
