# generated using pymatgen
data_Pr2Er6Cd2IrPd
_symmetry_space_group_name_H-M   'P 1'
_cell_length_a   9.68342076
_cell_length_b   9.66159682
_cell_length_c   9.64535855
_cell_angle_alpha   60.20525797
_cell_angle_beta   59.98050691
_cell_angle_gamma   60.32947614
_symmetry_Int_Tables_number   1
_chemical_formula_structural   Pr2Er6Cd2IrPd
_chemical_formula_sum   'Pr4 Er12 Cd4 Ir2 Pd2'
_cell_volume   640.55859261
_cell_formula_units_Z   2
loop_
 _symmetry_equiv_pos_site_id
 _symmetry_equiv_pos_as_xyz
  1  'x, y, z'
loop_
 _atom_site_type_symbol
 _atom_site_label
 _atom_site_symmetry_multiplicity
 _atom_site_fract_x
 _atom_site_fract_y
 _atom_site_fract_z
 _atom_site_occupancy
  Pr  Pr0  1  0.565366  0.937834  0.561953  1
  Pr  Pr1  1  0.937834  0.565366  0.934846  1
  Pr  Pr2  1  0.563370  0.563370  0.936630  1
  Pr  Pr3  1  0.936857  0.936857  0.563143  1
  Er  Er4  1  0.350831  0.349789  0.343896  1
  Er  Er5  1  0.349789  0.350831  0.955482  1
  Er  Er6  1  0.358879  0.942795  0.350016  1
  Er  Er7  1  0.942795  0.358879  0.348307  1
  Er  Er8  1  0.807660  0.188637  0.186030  1
  Er  Er9  1  0.188637  0.807660  0.817672  1
  Er  Er10  1  0.188483  0.807746  0.188185  1
  Er  Er11  1  0.807746  0.188483  0.815585  1
  Er  Er12  1  0.189085  0.189085  0.810915  1
  Er  Er13  1  0.813279  0.813279  0.186721  1
  Er  Er14  1  0.944017  0.558999  0.554627  1
  Er  Er15  1  0.558999  0.944017  0.942357  1
  Cd  Cd16  1  0.582373  0.578912  0.579394  1
  Cd  Cd17  1  0.578912  0.582373  0.259322  1
  Cd  Cd18  1  0.577968  0.260764  0.582253  1
  Cd  Cd19  1  0.260764  0.577968  0.579016  1
  Ir  Ir20  1  0.139089  0.572746  0.146297  1
  Ir  Ir21  1  0.572746  0.139089  0.141869  1
  Pd  Pd22  1  0.143829  0.140692  0.144666  1
  Pd  Pd23  1  0.140692  0.143829  0.570813  1
