# generated using pymatgen
data_Dy4Er5Lu11Sb12
_symmetry_space_group_name_H-M   'P 1'
_cell_length_a   7.96880002
_cell_length_b   9.17474008
_cell_length_c   11.61464600
_cell_angle_alpha   90.00226067
_cell_angle_beta   89.95923981
_cell_angle_gamma   89.99294482
_symmetry_Int_Tables_number   1
_chemical_formula_structural   Dy4Er5Lu11Sb12
_chemical_formula_sum   'Dy4 Er5 Lu11 Sb12'
_cell_volume   849.16593047
_cell_formula_units_Z   1
loop_
 _symmetry_equiv_pos_site_id
 _symmetry_equiv_pos_as_xyz
  1  'x, y, z'
loop_
 _atom_site_type_symbol
 _atom_site_label
 _atom_site_symmetry_multiplicity
 _atom_site_fract_x
 _atom_site_fract_y
 _atom_site_fract_z
 _atom_site_occupancy
  Dy  Dy0  1  0.314434  0.250036  0.219173  1
  Dy  Dy1  1  0.814127  0.250028  0.280822  1
  Dy  Dy2  1  0.685909  0.750368  0.780640  1
  Dy  Dy3  1  0.185797  0.750167  0.719051  1
  Er  Er4  1  0.351737  0.750542  0.215900  1
  Er  Er5  1  0.852763  0.750544  0.284544  1
  Er  Er6  1  0.648071  0.250418  0.784211  1
  Er  Er7  1  0.147839  0.250243  0.715674  1
  Er  Er8  1  0.691280  0.561174  0.059694  1
  Lu  Lu9  1  0.191594  0.937098  0.440521  1
  Lu  Lu10  1  0.307884  0.062609  0.940133  1
  Lu  Lu11  1  0.808563  0.437006  0.559634  1
  Lu  Lu12  1  0.308791  0.436938  0.940500  1
  Lu  Lu13  1  0.808430  0.063028  0.559528  1
  Lu  Lu14  1  0.691515  0.936646  0.059744  1
  Lu  Lu15  1  0.191588  0.563028  0.440484  1
  Lu  Lu16  1  0.474757  0.250204  0.489299  1
  Lu  Lu17  1  0.974801  0.250043  0.010831  1
  Lu  Lu18  1  0.525267  0.750094  0.510885  1
  Lu  Lu19  1  0.025839  0.750266  0.989040  1
  Sb  Sb20  1  0.406584  0.750303  0.959021  1
  Sb  Sb21  1  0.906580  0.749970  0.540929  1
  Sb  Sb22  1  0.592579  0.247539  0.040419  1
  Sb  Sb23  1  0.093429  0.250056  0.459107  1
  Sb  Sb24  1  0.565066  0.995062  0.328156  1
  Sb  Sb25  1  0.065598  0.505188  0.172072  1
  Sb  Sb26  1  0.434589  0.495086  0.671937  1
  Sb  Sb27  1  0.934953  0.005265  0.827954  1
  Sb  Sb28  1  0.434802  0.005317  0.671991  1
  Sb  Sb29  1  0.934766  0.495180  0.827881  1
  Sb  Sb30  1  0.564878  0.505302  0.328183  1
  Sb  Sb31  1  0.065192  0.995254  0.172041  1
