# generated using pymatgen
data_LiTi3Be2(B2Rh5)2
_symmetry_space_group_name_H-M   'P 1'
_cell_length_a   2.90388300
_cell_length_b   9.12008721
_cell_length_c   9.12008721
_cell_angle_alpha   88.77960106
_cell_angle_beta   90.00000000
_cell_angle_gamma   90.00000000
_symmetry_Int_Tables_number   1
_chemical_formula_structural   LiTi3Be2(B2Rh5)2
_chemical_formula_sum   'Li1 Ti3 Be2 B4 Rh10'
_cell_volume   241.47855677
_cell_formula_units_Z   1
loop_
 _symmetry_equiv_pos_site_id
 _symmetry_equiv_pos_as_xyz
  1  'x, y, z'
loop_
 _atom_site_type_symbol
 _atom_site_label
 _atom_site_symmetry_multiplicity
 _atom_site_fract_x
 _atom_site_fract_y
 _atom_site_fract_z
 _atom_site_occupancy
  Li  Li0  1  0.000000  0.823603  0.176398  1
  Ti  Ti1  1  0.000000  0.325557  0.320461  1
  Ti  Ti2  1  0.000000  0.679539  0.674443  1
  Ti  Ti3  1  0.000000  0.172059  0.827942  1
  Be  Be4  1  0.000000  0.498267  0.999598  1
  Be  Be5  1  0.000000  0.000402  0.501733  1
  B  B6  1  0.000000  0.124442  0.130985  1
  B  B7  1  0.000000  0.638087  0.361914  1
  B  B8  1  0.000000  0.372021  0.627980  1
  B  B9  1  0.000000  0.869016  0.875559  1
  Rh  Rh10  1  0.499999  0.996984  0.003016  1
  Rh  Rh11  1  0.499999  0.290352  0.066261  1
  Rh  Rh12  1  0.499999  0.563789  0.206617  1
  Rh  Rh13  1  0.499999  0.075538  0.296834  1
  Rh  Rh14  1  0.499999  0.793385  0.436213  1
  Rh  Rh15  1  0.499999  0.501636  0.498364  1
  Rh  Rh16  1  0.499999  0.209500  0.571078  1
  Rh  Rh17  1  0.499999  0.933740  0.709650  1
  Rh  Rh18  1  0.499999  0.428924  0.790502  1
  Rh  Rh19  1  0.499999  0.703168  0.924463  1
