# generated using pymatgen
data_DyTm4Lu(Al3Ru)8
_symmetry_space_group_name_H-M   'P 1'
_cell_length_a   8.76292901
_cell_length_b   8.76292913
_cell_length_c   9.58104100
_cell_angle_alpha   90.00015360
_cell_angle_beta   89.99984380
_cell_angle_gamma   120.01911457
_symmetry_Int_Tables_number   1
_chemical_formula_structural   DyTm4Lu(Al3Ru)8
_chemical_formula_sum   'Dy1 Tm4 Lu1 Al24 Ru8'
_cell_volume   637.02758754
_cell_formula_units_Z   1
loop_
 _symmetry_equiv_pos_site_id
 _symmetry_equiv_pos_as_xyz
  1  'x, y, z'
loop_
 _atom_site_type_symbol
 _atom_site_label
 _atom_site_symmetry_multiplicity
 _atom_site_fract_x
 _atom_site_fract_y
 _atom_site_fract_z
 _atom_site_occupancy
  Dy  Dy0  1  0.193832  0.806168  0.250003  1
  Tm  Tm1  1  0.387845  0.193929  0.750000  1
  Tm  Tm2  1  0.611731  0.805722  0.250002  1
  Tm  Tm3  1  0.806071  0.612155  0.750000  1
  Tm  Tm4  1  0.194278  0.388269  0.250002  1
  Lu  Lu5  1  0.805059  0.194941  0.749908  1
  Al  Al6  1  0.666719  0.333281  0.979784  1
  Al  Al7  1  0.333549  0.666451  0.019428  1
  Al  Al8  1  0.333542  0.666458  0.480580  1
  Al  Al9  1  0.666726  0.333274  0.520223  1
  Al  Al10  1  0.837260  0.162740  0.422875  1
  Al  Al11  1  0.162776  0.837224  0.578101  1
  Al  Al12  1  0.325723  0.162943  0.422579  1
  Al  Al13  1  0.162770  0.837230  0.921902  1
  Al  Al14  1  0.674613  0.837534  0.577893  1
  Al  Al15  1  0.837261  0.162739  0.077131  1
  Al  Al16  1  0.837057  0.674277  0.422579  1
  Al  Al17  1  0.674615  0.837531  0.922112  1
  Al  Al18  1  0.162466  0.325387  0.577893  1
  Al  Al19  1  0.325730  0.162950  0.077424  1
  Al  Al20  1  0.162469  0.325385  0.922112  1
  Al  Al21  1  0.837050  0.674270  0.077424  1
  Al  Al22  1  0.438673  0.561327  0.750008  1
  Al  Al23  1  0.561378  0.438622  0.249998  1
  Al  Al24  1  0.122311  0.560967  0.749999  1
  Al  Al25  1  0.876876  0.437993  0.250007  1
  Al  Al26  1  0.439033  0.877689  0.749999  1
  Al  Al27  1  0.562007  0.123124  0.250007  1
  Al  Al28  1  0.999334  0.000666  0.750004  1
  Al  Al29  1  0.999932  0.000068  0.250001  1
  Ru  Ru30  1  0.500168  0.499832  0.999971  1
  Ru  Ru31  1  0.999674  0.499282  0.999593  1
  Ru  Ru32  1  0.500164  0.499836  0.500034  1
  Ru  Ru33  1  0.500718  0.000326  0.999593  1
  Ru  Ru34  1  0.999679  0.499284  0.500412  1
  Ru  Ru35  1  0.500716  0.000321  0.500412  1
  Ru  Ru36  1  0.000097  0.999903  0.000197  1
  Ru  Ru37  1  0.000097  0.999903  0.499814  1
