# generated using pymatgen
data_TbDy3(Lu3Pt4)2
_symmetry_space_group_name_H-M   'P 1'
_cell_length_a   7.39856500
_cell_length_b   7.47684324
_cell_length_c   14.51601600
_cell_angle_alpha   89.98542479
_cell_angle_beta   90.00000000
_cell_angle_gamma   90.00000000
_symmetry_Int_Tables_number   1
_chemical_formula_structural   TbDy3(Lu3Pt4)2
_chemical_formula_sum   'Tb2 Dy6 Lu12 Pt16'
_cell_volume   802.99565112
_cell_formula_units_Z   2
loop_
 _symmetry_equiv_pos_site_id
 _symmetry_equiv_pos_as_xyz
  1  'x, y, z'
loop_
 _atom_site_type_symbol
 _atom_site_label
 _atom_site_symmetry_multiplicity
 _atom_site_fract_x
 _atom_site_fract_y
 _atom_site_fract_z
 _atom_site_occupancy
  Tb  Tb0  1  0.500303  0.678936  0.907290  1
  Tb  Tb1  1  0.000303  0.821064  0.592710  1
  Dy  Dy2  1  0.500286  0.678811  0.592604  1
  Dy  Dy3  1  0.000286  0.821189  0.907396  1
  Dy  Dy4  1  0.499665  0.321408  0.092561  1
  Dy  Dy5  1  0.999665  0.178592  0.407439  1
  Dy  Dy6  1  0.499638  0.321292  0.407395  1
  Dy  Dy7  1  0.999638  0.178708  0.092605  1
  Lu  Lu8  1  0.656526  0.167176  0.622962  1
  Lu  Lu9  1  0.156526  0.332824  0.877038  1
  Lu  Lu10  1  0.343673  0.832752  0.122855  1
  Lu  Lu11  1  0.843673  0.667248  0.377145  1
  Lu  Lu12  1  0.343460  0.832876  0.377085  1
  Lu  Lu13  1  0.843460  0.667124  0.122915  1
  Lu  Lu14  1  0.656427  0.167181  0.876998  1
  Lu  Lu15  1  0.156427  0.332819  0.623002  1
  Lu  Lu16  1  0.819438  0.509034  0.749999  1
  Lu  Lu17  1  0.319438  0.990966  0.750001  1
  Lu  Lu18  1  0.180486  0.490943  0.249995  1
  Lu  Lu19  1  0.680486  0.009057  0.250005  1
  Pt  Pt20  1  0.682628  0.964949  0.458259  1
  Pt  Pt21  1  0.182628  0.535051  0.041741  1
  Pt  Pt22  1  0.316803  0.035640  0.958155  1
  Pt  Pt23  1  0.816803  0.464360  0.541845  1
  Pt  Pt24  1  0.317528  0.035608  0.541790  1
  Pt  Pt25  1  0.817528  0.464392  0.958210  1
  Pt  Pt26  1  0.683089  0.965023  0.041724  1
  Pt  Pt27  1  0.183089  0.534977  0.458276  1
  Pt  Pt28  1  0.454232  0.383537  0.749828  1
  Pt  Pt29  1  0.954232  0.116463  0.750172  1
  Pt  Pt30  1  0.545696  0.616303  0.250066  1
  Pt  Pt31  1  0.045696  0.883697  0.249934  1
  Pt  Pt32  1  0.682321  0.857675  0.749845  1
  Pt  Pt33  1  0.182321  0.642325  0.750155  1
  Pt  Pt34  1  0.317801  0.142818  0.249968  1
  Pt  Pt35  1  0.817801  0.357182  0.250032  1
