# generated using pymatgen
data_NdDy3(CuP)6
_symmetry_space_group_name_H-M   'P 1'
_cell_length_a   3.89315200
_cell_length_b   10.73415600
_cell_length_c   12.98414800
_cell_angle_alpha   90.00000000
_cell_angle_beta   90.00000000
_cell_angle_gamma   90.00000000
_symmetry_Int_Tables_number   1
_chemical_formula_structural   NdDy3(CuP)6
_chemical_formula_sum   'Nd2 Dy6 Cu12 P12'
_cell_volume   542.60366136
_cell_formula_units_Z   2
loop_
 _symmetry_equiv_pos_site_id
 _symmetry_equiv_pos_as_xyz
  1  'x, y, z'
loop_
 _atom_site_type_symbol
 _atom_site_label
 _atom_site_symmetry_multiplicity
 _atom_site_fract_x
 _atom_site_fract_y
 _atom_site_fract_z
 _atom_site_occupancy
  Nd  Nd0  1  0.250000  0.931313  0.793255  1
  Nd  Nd1  1  0.750000  0.431313  0.706745  1
  Dy  Dy2  1  0.250000  0.569759  0.292560  1
  Dy  Dy3  1  0.750000  0.069759  0.207440  1
  Dy  Dy4  1  0.250000  0.841094  0.501257  1
  Dy  Dy5  1  0.750000  0.341094  0.998743  1
  Dy  Dy6  1  0.250000  0.657771  0.004005  1
  Dy  Dy7  1  0.750000  0.157771  0.495995  1
  Cu  Cu8  1  0.250000  0.402203  0.511406  1
  Cu  Cu9  1  0.750000  0.902203  0.988594  1
  Cu  Cu10  1  0.250000  0.097634  0.014276  1
  Cu  Cu11  1  0.750000  0.597634  0.485724  1
  Cu  Cu12  1  0.250000  0.272987  0.331918  1
  Cu  Cu13  1  0.750000  0.772987  0.168082  1
  Cu  Cu14  1  0.250000  0.228208  0.832993  1
  Cu  Cu15  1  0.750000  0.728208  0.667007  1
  Cu  Cu16  1  0.250000  0.860561  0.279551  1
  Cu  Cu17  1  0.750000  0.360561  0.220449  1
  Cu  Cu18  1  0.250000  0.640257  0.780834  1
  Cu  Cu19  1  0.750000  0.140257  0.719166  1
  P  P20  1  0.250000  0.236570  0.642323  1
  P  P21  1  0.750000  0.736570  0.857677  1
  P  P22  1  0.250000  0.258916  0.144154  1
  P  P23  1  0.750000  0.758916  0.355846  1
  P  P24  1  0.250000  0.606557  0.599441  1
  P  P25  1  0.750000  0.106557  0.900559  1
  P  P26  1  0.250000  0.896101  0.100435  1
  P  P27  1  0.750000  0.396101  0.399565  1
  P  P28  1  0.250000  0.057457  0.368122  1
  P  P29  1  0.750000  0.557457  0.131878  1
  P  P30  1  0.250000  0.442613  0.873273  1
  P  P31  1  0.750000  0.942613  0.626727  1
