# generated using pymatgen
data_Dy6Ho4Ir3Os
_symmetry_space_group_name_H-M   'P 1'
_cell_length_a   6.47278814
_cell_length_b   7.24088054
_cell_length_c   8.44804248
_cell_angle_alpha   96.49718595
_cell_angle_beta   112.26132936
_cell_angle_gamma   89.95868862
_symmetry_Int_Tables_number   1
_chemical_formula_structural   Dy6Ho4Ir3Os
_chemical_formula_sum   'Dy6 Ho4 Ir3 Os1'
_cell_volume   363.70075839
_cell_formula_units_Z   1
loop_
 _symmetry_equiv_pos_site_id
 _symmetry_equiv_pos_as_xyz
  1  'x, y, z'
loop_
 _atom_site_type_symbol
 _atom_site_label
 _atom_site_symmetry_multiplicity
 _atom_site_fract_x
 _atom_site_fract_y
 _atom_site_fract_z
 _atom_site_occupancy
  Dy  Dy0  1  0.971637  0.916628  0.183252  1
  Dy  Dy1  1  0.790227  0.582551  0.821388  1
  Dy  Dy2  1  0.028498  0.083122  0.818028  1
  Dy  Dy3  1  0.210457  0.417720  0.183311  1
  Dy  Dy4  1  0.656089  0.817080  0.439735  1
  Dy  Dy5  1  0.210927  0.681595  0.557532  1
  Ho  Ho6  1  0.346022  0.181943  0.559670  1
  Ho  Ho7  1  0.786081  0.318812  0.439255  1
  Ho  Ho8  1  0.427207  0.749631  0.000366  1
  Ho  Ho9  1  0.574796  0.251402  0.000595  1
  Ir  Ir10  1  0.605935  0.927314  0.779645  1
  Ir  Ir11  1  0.173366  0.425303  0.780157  1
  Ir  Ir12  1  0.393240  0.073756  0.220105  1
  Os  Os13  1  0.825517  0.573144  0.216960  1
