# generated using pymatgen
data_PaAl2(Fe3Re2)2
_symmetry_space_group_name_H-M   'P 1'
_cell_length_a   6.56065829
_cell_length_b   6.56065833
_cell_length_c   6.56065848
_cell_angle_alpha   137.27581564
_cell_angle_beta   97.78713000
_cell_angle_gamma   97.46257618
_symmetry_Int_Tables_number   1
_chemical_formula_structural   PaAl2(Fe3Re2)2
_chemical_formula_sum   'Pa1 Al2 Fe6 Re4'
_cell_volume   178.42625777
_cell_formula_units_Z   1
loop_
 _symmetry_equiv_pos_site_id
 _symmetry_equiv_pos_as_xyz
  1  'x, y, z'
loop_
 _atom_site_type_symbol
 _atom_site_label
 _atom_site_symmetry_multiplicity
 _atom_site_fract_x
 _atom_site_fract_y
 _atom_site_fract_z
 _atom_site_occupancy
  Pa  Pa0  1  0.000000  0.000000  0.000000  1
  Al  Al1  1  0.789001  0.289001  0.500000  1
  Al  Al2  1  0.210999  0.710999  0.500000  1
  Fe  Fe3  1  0.500000  0.000000  0.000000  1
  Fe  Fe4  1  0.500000  0.500000  0.500000  1
  Fe  Fe5  1  0.000000  0.000000  0.500000  1
  Fe  Fe6  1  0.000000  0.500000  0.000000  1
  Fe  Fe7  1  0.223805  0.500000  0.723805  1
  Fe  Fe8  1  0.776195  0.500000  0.276195  1
  Re  Re9  1  0.355601  0.355601  0.000000  1
  Re  Re10  1  0.644399  0.644399  0.000000  1
  Re  Re11  1  0.644305  0.000000  0.644305  1
  Re  Re12  1  0.355695  0.000000  0.355695  1
