# generated using pymatgen
data_Dy16In4RuRh3
_symmetry_space_group_name_H-M   'P 1'
_cell_length_a   9.66880992
_cell_length_b   9.66880983
_cell_length_c   9.66881002
_cell_angle_alpha   59.99478567
_cell_angle_beta   59.99478524
_cell_angle_gamma   59.99478567
_symmetry_Int_Tables_number   1
_chemical_formula_structural   Dy16In4RuRh3
_chemical_formula_sum   'Dy16 In4 Ru1 Rh3'
_cell_volume   639.07631255
_cell_formula_units_Z   1
loop_
 _symmetry_equiv_pos_site_id
 _symmetry_equiv_pos_as_xyz
  1  'x, y, z'
loop_
 _atom_site_type_symbol
 _atom_site_label
 _atom_site_symmetry_multiplicity
 _atom_site_fract_x
 _atom_site_fract_y
 _atom_site_fract_z
 _atom_site_occupancy
  Dy  Dy0  1  0.687683  0.311044  0.311044  1
  Dy  Dy1  1  0.690452  0.690452  0.312579  1
  Dy  Dy2  1  0.311044  0.687683  0.311044  1
  Dy  Dy3  1  0.936483  0.936483  0.563769  1
  Dy  Dy4  1  0.150308  0.150308  0.546780  1
  Dy  Dy5  1  0.559978  0.942105  0.559978  1
  Dy  Dy6  1  0.151896  0.151896  0.151896  1
  Dy  Dy7  1  0.311044  0.311044  0.687683  1
  Dy  Dy8  1  0.942105  0.559978  0.559978  1
  Dy  Dy9  1  0.559978  0.559978  0.942105  1
  Dy  Dy10  1  0.563769  0.936483  0.936483  1
  Dy  Dy11  1  0.936483  0.563769  0.936483  1
  Dy  Dy12  1  0.150308  0.546780  0.150308  1
  Dy  Dy13  1  0.312579  0.690452  0.690452  1
  Dy  Dy14  1  0.690452  0.312579  0.690452  1
  Dy  Dy15  1  0.546780  0.150308  0.150308  1
  In  In16  1  0.917833  0.917833  0.248367  1
  In  In17  1  0.248367  0.917833  0.917833  1
  In  In18  1  0.917833  0.248367  0.917833  1
  In  In19  1  0.917243  0.917243  0.917243  1
  Ru  Ru20  1  0.357428  0.357428  0.357428  1
  Rh  Rh21  1  0.924050  0.357953  0.357953  1
  Rh  Rh22  1  0.357953  0.357953  0.924050  1
  Rh  Rh23  1  0.357953  0.924050  0.357953  1
