# generated using pymatgen
data_VZn4PN6
_symmetry_space_group_name_H-M   'P 1'
_cell_length_a   5.47608053
_cell_length_b   5.47608091
_cell_length_c   5.18958637
_cell_angle_alpha   90.09921208
_cell_angle_beta   90.09922050
_cell_angle_gamma   119.33698533
_symmetry_Int_Tables_number   1
_chemical_formula_structural   VZn4PN6
_chemical_formula_sum   'V1 Zn4 P1 N6'
_cell_volume   135.66362468
_cell_formula_units_Z   1
loop_
 _symmetry_equiv_pos_site_id
 _symmetry_equiv_pos_as_xyz
  1  'x, y, z'
loop_
 _atom_site_type_symbol
 _atom_site_label
 _atom_site_symmetry_multiplicity
 _atom_site_fract_x
 _atom_site_fract_y
 _atom_site_fract_z
 _atom_site_occupancy
  V  V0  1  0.844712  0.844712  0.963793  1
  Zn  Zn1  1  0.494413  0.827931  0.470625  1
  Zn  Zn2  1  0.827931  0.494413  0.470625  1
  Zn  Zn3  1  0.493474  0.168471  0.974116  1
  Zn  Zn4  1  0.168471  0.493474  0.974116  1
  P  P5  1  0.167542  0.167542  0.457276  1
  N  N6  1  0.529048  0.831872  0.866063  1
  N  N7  1  0.831872  0.529048  0.866063  1
  N  N8  1  0.452630  0.163833  0.364681  1
  N  N9  1  0.163833  0.452630  0.364681  1
  N  N10  1  0.884218  0.884218  0.333168  1
  N  N11  1  0.141858  0.141858  0.783553  1
