# generated using pymatgen
data_Y2Lu2HfIr3
_symmetry_space_group_name_H-M   'P 1'
_cell_length_a   10.76783400
_cell_length_b   10.76783400
_cell_length_c   6.21823800
_cell_angle_alpha   90.00000000
_cell_angle_beta   90.00000000
_cell_angle_gamma   90.00000000
_symmetry_Int_Tables_number   1
_chemical_formula_structural   Y2Lu2HfIr3
_chemical_formula_sum   'Y8 Lu8 Hf4 Ir12'
_cell_volume   720.98137181
_cell_formula_units_Z   4
loop_
 _symmetry_equiv_pos_site_id
 _symmetry_equiv_pos_as_xyz
  1  'x, y, z'
loop_
 _atom_site_type_symbol
 _atom_site_label
 _atom_site_symmetry_multiplicity
 _atom_site_fract_x
 _atom_site_fract_y
 _atom_site_fract_z
 _atom_site_occupancy
  Y  Y0  1  0.212593  0.412088  0.627567  1
  Y  Y1  1  0.212593  0.587912  0.127567  1
  Y  Y2  1  0.787407  0.412088  0.127567  1
  Y  Y3  1  0.787407  0.587912  0.627567  1
  Y  Y4  1  0.912088  0.712593  0.127567  1
  Y  Y5  1  0.912088  0.287407  0.627567  1
  Y  Y6  1  0.087912  0.712593  0.627567  1
  Y  Y7  1  0.087912  0.287407  0.127567  1
  Lu  Lu8  1  0.291699  0.083676  0.376021  1
  Lu  Lu9  1  0.291699  0.916324  0.876021  1
  Lu  Lu10  1  0.708301  0.083676  0.876021  1
  Lu  Lu11  1  0.708301  0.916324  0.376021  1
  Lu  Lu12  1  0.583676  0.791699  0.876021  1
  Lu  Lu13  1  0.583676  0.208301  0.376021  1
  Lu  Lu14  1  0.416324  0.791699  0.376021  1
  Lu  Lu15  1  0.416324  0.208301  0.876021  1
  Hf  Hf16  1  0.000000  0.000000  0.496079  1
  Hf  Hf17  1  0.000000  0.000000  0.996079  1
  Hf  Hf18  1  0.500000  0.500000  0.996079  1
  Hf  Hf19  1  0.500000  0.500000  0.496079  1
  Ir  Ir20  1  0.852445  0.140499  0.248217  1
  Ir  Ir21  1  0.852445  0.859501  0.748217  1
  Ir  Ir22  1  0.147555  0.140499  0.748217  1
  Ir  Ir23  1  0.147555  0.859501  0.248217  1
  Ir  Ir24  1  0.640499  0.352445  0.748217  1
  Ir  Ir25  1  0.640499  0.647555  0.248217  1
  Ir  Ir26  1  0.359501  0.352445  0.248217  1
  Ir  Ir27  1  0.359501  0.647555  0.748217  1
  Ir  Ir28  1  0.500000  0.000000  0.122693  1
  Ir  Ir29  1  0.500000  0.000000  0.622693  1
  Ir  Ir30  1  0.000000  0.500000  0.877926  1
  Ir  Ir31  1  0.000000  0.500000  0.377926  1
