# generated using pymatgen
data_Hf4Ti2Nb2SiP3
_symmetry_space_group_name_H-M   'P 1'
_cell_length_a   3.56642200
_cell_length_b   6.80970416
_cell_length_c   8.28918484
_cell_angle_alpha   89.58292867
_cell_angle_beta   90.00000000
_cell_angle_gamma   90.00000000
_symmetry_Int_Tables_number   1
_chemical_formula_structural   Hf4Ti2Nb2SiP3
_chemical_formula_sum   'Hf4 Ti2 Nb2 Si1 P3'
_cell_volume   201.30811979
_cell_formula_units_Z   1
loop_
 _symmetry_equiv_pos_site_id
 _symmetry_equiv_pos_as_xyz
  1  'x, y, z'
loop_
 _atom_site_type_symbol
 _atom_site_label
 _atom_site_symmetry_multiplicity
 _atom_site_fract_x
 _atom_site_fract_y
 _atom_site_fract_z
 _atom_site_occupancy
  Hf  Hf0  1  0.250000  0.037687  0.666553  1
  Hf  Hf1  1  0.250000  0.536082  0.830317  1
  Hf  Hf2  1  0.750000  0.464459  0.163825  1
  Hf  Hf3  1  0.750000  0.958180  0.331402  1
  Ti  Ti4  1  0.750000  0.861853  0.942581  1
  Ti  Ti5  1  0.250000  0.638222  0.444235  1
  Nb  Nb6  1  0.750000  0.368183  0.561996  1
  Nb  Nb7  1  0.250000  0.134837  0.056319  1
  Si  Si8  1  0.250000  0.260092  0.358734  1
  P  P9  1  0.250000  0.759036  0.143828  1
  P  P10  1  0.750000  0.745179  0.643189  1
  P  P11  1  0.750000  0.236190  0.857023  1
