# generated using pymatgen
data_Hf4ZrSn4
_symmetry_space_group_name_H-M   'P 1'
_cell_length_a   8.78134780
_cell_length_b   8.78267097
_cell_length_c   5.93413600
_cell_angle_alpha   90.00000000
_cell_angle_beta   90.00000000
_cell_angle_gamma   119.94681120
_symmetry_Int_Tables_number   1
_chemical_formula_structural   Hf4ZrSn4
_chemical_formula_sum   'Hf8 Zr2 Sn8'
_cell_volume   396.55957094
_cell_formula_units_Z   2
loop_
 _symmetry_equiv_pos_site_id
 _symmetry_equiv_pos_as_xyz
  1  'x, y, z'
loop_
 _atom_site_type_symbol
 _atom_site_label
 _atom_site_symmetry_multiplicity
 _atom_site_fract_x
 _atom_site_fract_y
 _atom_site_fract_z
 _atom_site_occupancy
  Hf  Hf0  1  0.283572  0.999530  0.250001  1
  Hf  Hf1  1  0.333398  0.666557  0.499458  1
  Hf  Hf2  1  0.667735  0.333358  0.000555  1
  Hf  Hf3  1  0.667735  0.333358  0.499444  1
  Hf  Hf4  1  0.333398  0.666557  0.000541  1
  Hf  Hf5  1  0.715854  0.715534  0.250001  1
  Hf  Hf6  1  0.999849  0.283952  0.250001  1
  Hf  Hf7  1  0.719755  0.000653  0.750000  1
  Zr  Zr8  1  0.000238  0.720699  0.750000  1
  Zr  Zr9  1  0.279473  0.279900  0.750000  1
  Sn  Sn10  1  0.999219  0.999994  0.496696  1
  Sn  Sn11  1  0.999219  0.999994  0.003303  1
  Sn  Sn12  1  0.999867  0.387050  0.750000  1
  Sn  Sn13  1  0.612669  0.613290  0.750000  1
  Sn  Sn14  1  0.385260  0.384491  0.250001  1
  Sn  Sn15  1  0.000142  0.615227  0.250001  1
  Sn  Sn16  1  0.388195  0.000492  0.750000  1
  Sn  Sn17  1  0.614423  0.999371  0.250001  1
