# generated using pymatgen
data_Er2Si7(IrRh)6
_symmetry_space_group_name_H-M   'P 1'
_cell_length_a   9.74612300
_cell_length_b   9.74612179
_cell_length_c   3.87192800
_cell_angle_alpha   90.00000000
_cell_angle_beta   90.00000000
_cell_angle_gamma   120.00000071
_symmetry_Int_Tables_number   1
_chemical_formula_structural   Er2Si7(IrRh)6
_chemical_formula_sum   'Er2 Si7 Ir6 Rh6'
_cell_volume   318.50893777
_cell_formula_units_Z   1
loop_
 _symmetry_equiv_pos_site_id
 _symmetry_equiv_pos_as_xyz
  1  'x, y, z'
loop_
 _atom_site_type_symbol
 _atom_site_label
 _atom_site_symmetry_multiplicity
 _atom_site_fract_x
 _atom_site_fract_y
 _atom_site_fract_z
 _atom_site_occupancy
  Er  Er0  1  0.333333  0.666667  0.750212  1
  Er  Er1  1  0.666667  0.333333  0.249788  1
  Si  Si2  1  0.000000  0.000000  0.500000  1
  Si  Si3  1  0.402706  0.289382  0.751885  1
  Si  Si4  1  0.710618  0.113324  0.751885  1
  Si  Si5  1  0.886676  0.597294  0.751885  1
  Si  Si6  1  0.597294  0.710618  0.248115  1
  Si  Si7  1  0.289382  0.886676  0.248115  1
  Si  Si8  1  0.113324  0.402706  0.248115  1
  Ir  Ir9  1  0.444192  0.063819  0.751134  1
  Ir  Ir10  1  0.936181  0.380372  0.751134  1
  Ir  Ir11  1  0.619628  0.555808  0.751134  1
  Ir  Ir12  1  0.555808  0.936181  0.248866  1
  Ir  Ir13  1  0.063819  0.619628  0.248866  1
  Ir  Ir14  1  0.380372  0.444192  0.248866  1
  Rh  Rh15  1  0.144025  0.260995  0.744188  1
  Rh  Rh16  1  0.739005  0.883031  0.744188  1
  Rh  Rh17  1  0.116969  0.855975  0.744188  1
  Rh  Rh18  1  0.855975  0.739005  0.255812  1
  Rh  Rh19  1  0.260995  0.116969  0.255812  1
  Rh  Rh20  1  0.883031  0.144025  0.255812  1
