# generated using pymatgen
data_Tb2Si7(Pt3Rh)3
_symmetry_space_group_name_H-M   'P 1'
_cell_length_a   9.91988800
_cell_length_b   9.91988699
_cell_length_c   3.91819000
_cell_angle_alpha   90.00000000
_cell_angle_beta   90.00000000
_cell_angle_gamma   119.99999003
_symmetry_Int_Tables_number   1
_chemical_formula_structural   Tb2Si7(Pt3Rh)3
_chemical_formula_sum   'Tb2 Si7 Pt9 Rh3'
_cell_volume   333.91018072
_cell_formula_units_Z   1
loop_
 _symmetry_equiv_pos_site_id
 _symmetry_equiv_pos_as_xyz
  1  'x, y, z'
loop_
 _atom_site_type_symbol
 _atom_site_label
 _atom_site_symmetry_multiplicity
 _atom_site_fract_x
 _atom_site_fract_y
 _atom_site_fract_z
 _atom_site_occupancy
  Tb  Tb0  1  0.333333  0.666667  0.751908  1
  Tb  Tb1  1  0.666667  0.333333  0.249489  1
  Si  Si2  1  0.000000  0.000000  0.479684  1
  Si  Si3  1  0.399594  0.284055  0.751463  1
  Si  Si4  1  0.715945  0.115539  0.751463  1
  Si  Si5  1  0.884461  0.600406  0.751463  1
  Si  Si6  1  0.600436  0.712579  0.251128  1
  Si  Si7  1  0.287421  0.887857  0.251128  1
  Si  Si8  1  0.112143  0.399564  0.251128  1
  Pt  Pt9  1  0.453905  0.073143  0.749783  1
  Pt  Pt10  1  0.926857  0.380762  0.749783  1
  Pt  Pt11  1  0.619238  0.546095  0.749783  1
  Pt  Pt12  1  0.547042  0.927038  0.248621  1
  Pt  Pt13  1  0.072962  0.620003  0.248621  1
  Pt  Pt14  1  0.379997  0.452958  0.248621  1
  Pt  Pt15  1  0.143914  0.260097  0.752518  1
  Pt  Pt16  1  0.739903  0.883817  0.752518  1
  Pt  Pt17  1  0.116183  0.856086  0.752518  1
  Rh  Rh18  1  0.854920  0.738467  0.252792  1
  Rh  Rh19  1  0.261533  0.116453  0.252792  1
  Rh  Rh20  1  0.883547  0.145080  0.252792  1
