# generated using pymatgen
data_SmDy2Co8P6Ru
_symmetry_space_group_name_H-M   'P 1'
_cell_length_a   3.71664500
_cell_length_b   10.53200900
_cell_length_c   12.27664800
_cell_angle_alpha   90.00000000
_cell_angle_beta   90.00000000
_cell_angle_gamma   90.00000000
_symmetry_Int_Tables_number   1
_chemical_formula_structural   SmDy2Co8P6Ru
_chemical_formula_sum   'Sm2 Dy4 Co16 P12 Ru2'
_cell_volume   480.55390007
_cell_formula_units_Z   2
loop_
 _symmetry_equiv_pos_site_id
 _symmetry_equiv_pos_as_xyz
  1  'x, y, z'
loop_
 _atom_site_type_symbol
 _atom_site_label
 _atom_site_symmetry_multiplicity
 _atom_site_fract_x
 _atom_site_fract_y
 _atom_site_fract_z
 _atom_site_occupancy
  Sm  Sm0  1  0.000000  0.500000  0.524862  1
  Sm  Sm1  1  0.500000  0.000000  0.475138  1
  Dy  Dy2  1  0.500000  0.816793  0.206088  1
  Dy  Dy3  1  0.500000  0.183207  0.206088  1
  Dy  Dy4  1  0.000000  0.683207  0.793912  1
  Dy  Dy5  1  0.000000  0.316793  0.793912  1
  Co  Co6  1  0.500000  0.500000  0.705632  1
  Co  Co7  1  0.000000  0.000000  0.294368  1
  Co  Co8  1  0.000000  0.500000  0.986306  1
  Co  Co9  1  0.500000  0.000000  0.013694  1
  Co  Co10  1  0.500000  0.332469  0.990754  1
  Co  Co11  1  0.500000  0.667531  0.990754  1
  Co  Co12  1  0.000000  0.167531  0.009246  1
  Co  Co13  1  0.000000  0.832469  0.009246  1
  Co  Co14  1  0.500000  0.296715  0.430308  1
  Co  Co15  1  0.500000  0.703285  0.430308  1
  Co  Co16  1  0.000000  0.203285  0.569692  1
  Co  Co17  1  0.000000  0.796715  0.569692  1
  Co  Co18  1  0.500000  0.879509  0.709058  1
  Co  Co19  1  0.500000  0.120491  0.709058  1
  Co  Co20  1  0.000000  0.620491  0.290942  1
  Co  Co21  1  0.000000  0.379509  0.290942  1
  P  P22  1  0.500000  0.500000  0.882874  1
  P  P23  1  0.000000  0.000000  0.117126  1
  P  P24  1  0.500000  0.500000  0.348039  1
  P  P25  1  0.000000  0.000000  0.651961  1
  P  P26  1  0.500000  0.309472  0.616944  1
  P  P27  1  0.500000  0.690528  0.616944  1
  P  P28  1  0.000000  0.190528  0.383056  1
  P  P29  1  0.000000  0.809472  0.383056  1
  P  P30  1  0.500000  0.846617  0.894037  1
  P  P31  1  0.500000  0.153383  0.894037  1
  P  P32  1  0.000000  0.653383  0.105963  1
  P  P33  1  0.000000  0.346617  0.105963  1
  Ru  Ru34  1  0.500000  0.500000  0.158430  1
  Ru  Ru35  1  0.000000  0.000000  0.841570  1
