# generated using pymatgen
data_NaAc9Pb8
_symmetry_space_group_name_H-M   'P 1'
_cell_length_a   8.86429894
_cell_length_b   17.23616900
_cell_length_c   8.94300400
_cell_angle_alpha   90.00000000
_cell_angle_beta   89.75515596
_cell_angle_gamma   90.00000000
_symmetry_Int_Tables_number   1
_chemical_formula_structural   NaAc9Pb8
_chemical_formula_sum   'Na2 Ac18 Pb16'
_cell_volume   1366.35829256
_cell_formula_units_Z   2
loop_
 _symmetry_equiv_pos_site_id
 _symmetry_equiv_pos_as_xyz
  1  'x, y, z'
loop_
 _atom_site_type_symbol
 _atom_site_label
 _atom_site_symmetry_multiplicity
 _atom_site_fract_x
 _atom_site_fract_y
 _atom_site_fract_z
 _atom_site_occupancy
  Na  Na0  1  0.788049  0.750000  0.499031  1
  Na  Na1  1  0.711451  0.250000  0.999069  1
  Ac  Ac2  1  0.622634  0.619755  0.166605  1
  Ac  Ac3  1  0.116207  0.881043  0.343464  1
  Ac  Ac4  1  0.384083  0.118756  0.842836  1
  Ac  Ac5  1  0.877406  0.380422  0.666484  1
  Ac  Ac6  1  0.384083  0.381244  0.842836  1
  Ac  Ac7  1  0.877406  0.119578  0.666484  1
  Ac  Ac8  1  0.622634  0.880245  0.166605  1
  Ac  Ac9  1  0.116207  0.618957  0.343464  1
  Ac  Ac10  1  0.477949  0.599777  0.676881  1
  Ac  Ac11  1  0.969248  0.899741  0.812956  1
  Ac  Ac12  1  0.531202  0.100922  0.313956  1
  Ac  Ac13  1  0.021555  0.401023  0.178058  1
  Ac  Ac14  1  0.531202  0.399078  0.313956  1
  Ac  Ac15  1  0.021555  0.098977  0.178058  1
  Ac  Ac16  1  0.477949  0.900223  0.676881  1
  Ac  Ac17  1  0.969248  0.600259  0.812956  1
  Ac  Ac18  1  0.293418  0.750000  0.000121  1
  Ac  Ac19  1  0.206455  0.250000  0.500845  1
  Pb  Pb20  1  0.716872  0.460085  0.967420  1
  Pb  Pb21  1  0.217011  0.044283  0.532569  1
  Pb  Pb22  1  0.283492  0.955041  0.031605  1
  Pb  Pb23  1  0.782790  0.538706  0.465641  1
  Pb  Pb24  1  0.283492  0.544959  0.031605  1
  Pb  Pb25  1  0.782790  0.961294  0.465641  1
  Pb  Pb26  1  0.716872  0.039915  0.967420  1
  Pb  Pb27  1  0.217011  0.455717  0.532569  1
  Pb  Pb28  1  0.426348  0.750000  0.394395  1
  Pb  Pb29  1  0.919518  0.750000  0.113065  1
  Pb  Pb30  1  0.580801  0.250000  0.614807  1
  Pb  Pb31  1  0.073298  0.250000  0.895849  1
  Pb  Pb32  1  0.672730  0.750000  0.852989  1
  Pb  Pb33  1  0.167668  0.750000  0.640230  1
  Pb  Pb34  1  0.332792  0.250000  0.140078  1
  Pb  Pb35  1  0.826571  0.250000  0.352567  1
