# generated using pymatgen
data_Tb2YIn3IrRh2
_symmetry_space_group_name_H-M   'P 1'
_cell_length_a   7.58169702
_cell_length_b   7.58057601
_cell_length_c   3.91322800
_cell_angle_alpha   90.00000000
_cell_angle_beta   90.00000000
_cell_angle_gamma   119.99587236
_symmetry_Int_Tables_number   1
_chemical_formula_structural   Tb2YIn3IrRh2
_chemical_formula_sum   'Tb2 Y1 In3 Ir1 Rh2'
_cell_volume   194.78364035
_cell_formula_units_Z   1
loop_
 _symmetry_equiv_pos_site_id
 _symmetry_equiv_pos_as_xyz
  1  'x, y, z'
loop_
 _atom_site_type_symbol
 _atom_site_label
 _atom_site_symmetry_multiplicity
 _atom_site_fract_x
 _atom_site_fract_y
 _atom_site_fract_z
 _atom_site_occupancy
  Tb  Tb0  1  0.408444  0.411776  0.500000  1
  Tb  Tb1  1  0.588138  0.996473  0.500000  1
  Y  Y2  1  0.003432  0.591950  0.500000  1
  In  In3  1  0.744083  0.742844  0.000000  1
  In  In4  1  0.999157  0.256374  0.000000  1
  In  In5  1  0.256704  0.000433  0.000000  1
  Ir  Ir6  1  0.333759  0.666789  0.000000  1
  Rh  Rh7  1  0.999990  0.000332  0.500000  1
  Rh  Rh8  1  0.666292  0.333029  0.000000  1
