# generated using pymatgen
data_Pr4HoTm5Pb6
_symmetry_space_group_name_H-M   'P 1'
_cell_length_a   9.14407500
_cell_length_b   9.14407527
_cell_length_c   6.69727200
_cell_angle_alpha   90.00000000
_cell_angle_beta   90.00000000
_cell_angle_gamma   119.45131465
_symmetry_Int_Tables_number   1
_chemical_formula_structural   Pr4HoTm5Pb6
_chemical_formula_sum   'Pr4 Ho1 Tm5 Pb6'
_cell_volume   487.62152054
_cell_formula_units_Z   1
loop_
 _symmetry_equiv_pos_site_id
 _symmetry_equiv_pos_as_xyz
  1  'x, y, z'
loop_
 _atom_site_type_symbol
 _atom_site_label
 _atom_site_symmetry_multiplicity
 _atom_site_fract_x
 _atom_site_fract_y
 _atom_site_fract_z
 _atom_site_occupancy
  Pr  Pr0  1  0.238171  0.001019  0.750000  1
  Pr  Pr1  1  0.001019  0.238171  0.750000  1
  Pr  Pr2  1  0.762289  0.998564  0.250000  1
  Pr  Pr3  1  0.998564  0.762289  0.250000  1
  Ho  Ho4  1  0.243963  0.243963  0.250000  1
  Tm  Tm5  1  0.666376  0.333197  0.999906  1
  Tm  Tm6  1  0.333197  0.666376  0.999906  1
  Tm  Tm7  1  0.333197  0.666376  0.500094  1
  Tm  Tm8  1  0.666376  0.333197  0.500094  1
  Tm  Tm9  1  0.757345  0.757345  0.750000  1
  Pb  Pb10  1  0.404289  0.404289  0.750000  1
  Pb  Pb11  1  0.602591  0.995635  0.750000  1
  Pb  Pb12  1  0.995635  0.602591  0.750000  1
  Pb  Pb13  1  0.596679  0.596679  0.250000  1
  Pb  Pb14  1  0.397773  0.002536  0.250000  1
  Pb  Pb15  1  0.002536  0.397773  0.250000  1
