# generated using pymatgen
data_Tb2Sm2Ga18(PdRu)3
_symmetry_space_group_name_H-M   'P 1'
_cell_length_a   7.64678594
_cell_length_b   7.64770135
_cell_length_c   9.63533836
_cell_angle_alpha   89.95858913
_cell_angle_beta   89.91123974
_cell_angle_gamma   119.81559601
_symmetry_Int_Tables_number   1
_chemical_formula_structural   Tb2Sm2Ga18(PdRu)3
_chemical_formula_sum   'Tb2 Sm2 Ga18 Pd3 Ru3'
_cell_volume   488.88902897
_cell_formula_units_Z   1
loop_
 _symmetry_equiv_pos_site_id
 _symmetry_equiv_pos_as_xyz
  1  'x, y, z'
loop_
 _atom_site_type_symbol
 _atom_site_label
 _atom_site_symmetry_multiplicity
 _atom_site_fract_x
 _atom_site_fract_y
 _atom_site_fract_z
 _atom_site_occupancy
  Tb  Tb0  1  0.670505  0.997940  0.251637  1
  Tb  Tb1  1  0.330696  0.003661  0.748804  1
  Sm  Sm2  1  0.995893  0.669464  0.251011  1
  Sm  Sm3  1  0.002243  0.329342  0.748582  1
  Ga  Ga4  1  0.131905  0.129896  0.250066  1
  Ga  Ga5  1  0.870498  0.867736  0.749938  1
  Ga  Ga6  1  0.006510  0.338311  0.080674  1
  Ga  Ga7  1  0.002670  0.665492  0.919426  1
  Ga  Ga8  1  0.999188  0.661529  0.578326  1
  Ga  Ga9  1  0.339783  0.001215  0.422126  1
  Ga  Ga10  1  0.002430  0.338920  0.420320  1
  Ga  Ga11  1  0.659623  0.997095  0.579093  1
  Ga  Ga12  1  0.660270  0.992910  0.919831  1
  Ga  Ga13  1  0.335995  0.998029  0.080118  1
  Ga  Ga14  1  0.341189  0.340262  0.562597  1
  Ga  Ga15  1  0.659146  0.659516  0.437349  1
  Ga  Ga16  1  0.659218  0.665334  0.066480  1
  Ga  Ga17  1  0.335293  0.340318  0.933623  1
  Ga  Ga18  1  0.337408  0.551592  0.250703  1
  Ga  Ga19  1  0.664439  0.453766  0.746378  1
  Ga  Ga20  1  0.545719  0.334612  0.253601  1
  Ga  Ga21  1  0.449062  0.663573  0.749275  1
  Pd  Pd22  1  0.671537  0.327881  0.999975  1
  Pd  Pd23  1  0.000670  0.999320  0.999989  1
  Pd  Pd24  1  0.999587  0.000385  0.499997  1
  Ru  Ru25  1  0.328108  0.672523  0.000004  1
  Ru  Ru26  1  0.327612  0.672742  0.500053  1
  Ru  Ru27  1  0.672803  0.326632  0.500024  1
