# generated using pymatgen
data_HfBe8Re2W
_symmetry_space_group_name_H-M   'P 1'
_cell_length_a   4.46561700
_cell_length_b   4.46561659
_cell_length_c   7.42757100
_cell_angle_alpha   90.00000000
_cell_angle_beta   90.00000000
_cell_angle_gamma   120.00001047
_symmetry_Int_Tables_number   1
_chemical_formula_structural   HfBe8Re2W
_chemical_formula_sum   'Hf1 Be8 Re2 W1'
_cell_volume   128.27449174
_cell_formula_units_Z   1
loop_
 _symmetry_equiv_pos_site_id
 _symmetry_equiv_pos_as_xyz
  1  'x, y, z'
loop_
 _atom_site_type_symbol
 _atom_site_label
 _atom_site_symmetry_multiplicity
 _atom_site_fract_x
 _atom_site_fract_y
 _atom_site_fract_z
 _atom_site_occupancy
  Hf  Hf0  1  0.333333  0.666667  0.063584  1
  Be  Be1  1  0.000000  0.000000  0.997271  1
  Be  Be2  1  0.000000  0.000000  0.500819  1
  Be  Be3  1  0.830925  0.661850  0.257493  1
  Be  Be4  1  0.168224  0.831776  0.746273  1
  Be  Be5  1  0.663551  0.831776  0.746273  1
  Be  Be6  1  0.338150  0.169075  0.257493  1
  Be  Be7  1  0.830925  0.169075  0.257493  1
  Be  Be8  1  0.168224  0.336449  0.746273  1
  Re  Re9  1  0.666667  0.333333  0.920942  1
  Re  Re10  1  0.333333  0.666667  0.442156  1
  W  W11  1  0.666667  0.333333  0.563928  1
