# generated using pymatgen
data_Ho6Lu10CdIn3Ir4
_symmetry_space_group_name_H-M   'P 1'
_cell_length_a   9.52427270
_cell_length_b   9.53298866
_cell_length_c   9.53298900
_cell_angle_alpha   59.99999537
_cell_angle_beta   59.96971841
_cell_angle_gamma   59.96971924
_symmetry_Int_Tables_number   1
_chemical_formula_structural   Ho6Lu10CdIn3Ir4
_chemical_formula_sum   'Ho6 Lu10 Cd1 In3 Ir4'
_cell_volume   611.75291683
_cell_formula_units_Z   1
loop_
 _symmetry_equiv_pos_site_id
 _symmetry_equiv_pos_as_xyz
  1  'x, y, z'
loop_
 _atom_site_type_symbol
 _atom_site_label
 _atom_site_symmetry_multiplicity
 _atom_site_fract_x
 _atom_site_fract_y
 _atom_site_fract_z
 _atom_site_occupancy
  Ho  Ho0  1  0.193100  0.809103  0.809103  1
  Ho  Ho1  1  0.811853  0.189394  0.189394  1
  Ho  Ho2  1  0.811853  0.189394  0.809359  1
  Ho  Ho3  1  0.193100  0.809103  0.188693  1
  Ho  Ho4  1  0.811853  0.809359  0.189394  1
  Ho  Ho5  1  0.193100  0.188693  0.809103  1
  Lu  Lu6  1  0.598916  0.597186  0.597186  1
  Lu  Lu7  1  0.598916  0.597186  0.206713  1
  Lu  Lu8  1  0.598916  0.206713  0.597186  1
  Lu  Lu9  1  0.204128  0.598624  0.598624  1
  Lu  Lu10  1  0.057763  0.441556  0.441556  1
  Lu  Lu11  1  0.439898  0.059993  0.059993  1
  Lu  Lu12  1  0.439898  0.059993  0.440115  1
  Lu  Lu13  1  0.057763  0.441556  0.059125  1
  Lu  Lu14  1  0.439898  0.440115  0.059993  1
  Lu  Lu15  1  0.057763  0.059125  0.441556  1
  Cd  Cd16  1  0.504707  0.831764  0.831764  1
  In  In17  1  0.830190  0.833694  0.833694  1
  In  In18  1  0.830190  0.833694  0.502421  1
  In  In19  1  0.830190  0.502421  0.833694  1
  Ir  Ir20  1  0.389424  0.391185  0.391185  1
  Ir  Ir21  1  0.389424  0.391185  0.828207  1
  Ir  Ir22  1  0.389424  0.828207  0.391185  1
  Ir  Ir23  1  0.827736  0.390755  0.390755  1
