# generated using pymatgen
data_LaCe4Pr5(Bi3Br)2
_symmetry_space_group_name_H-M   'P 1'
_cell_length_a   9.68842836
_cell_length_b   9.68704334
_cell_length_c   6.65075900
_cell_angle_alpha   90.00000000
_cell_angle_beta   90.00000000
_cell_angle_gamma   119.99526419
_symmetry_Int_Tables_number   1
_chemical_formula_structural   LaCe4Pr5(Bi3Br)2
_chemical_formula_sum   'La1 Ce4 Pr5 Bi6 Br2'
_cell_volume   540.58892093
_cell_formula_units_Z   1
loop_
 _symmetry_equiv_pos_site_id
 _symmetry_equiv_pos_as_xyz
  1  'x, y, z'
loop_
 _atom_site_type_symbol
 _atom_site_label
 _atom_site_symmetry_multiplicity
 _atom_site_fract_x
 _atom_site_fract_y
 _atom_site_fract_z
 _atom_site_occupancy
  La  La0  1  0.000000  0.726705  0.750000  1
  Ce  Ce1  1  0.333251  0.666155  0.499741  1
  Ce  Ce2  1  0.333251  0.666155  0.000259  1
  Ce  Ce3  1  0.666749  0.332904  0.499741  1
  Ce  Ce4  1  0.666749  0.332904  0.000259  1
  Pr  Pr5  1  0.725944  0.999817  0.750000  1
  Pr  Pr6  1  0.000000  0.275353  0.250000  1
  Pr  Pr7  1  0.724428  0.724724  0.250000  1
  Pr  Pr8  1  0.275572  0.000295  0.250000  1
  Pr  Pr9  1  0.274056  0.273874  0.750000  1
  Bi  Bi10  1  0.385212  0.000572  0.750000  1
  Bi  Bi11  1  0.616725  0.999848  0.250000  1
  Bi  Bi12  1  0.000000  0.617011  0.250000  1
  Bi  Bi13  1  0.614788  0.615360  0.750000  1
  Bi  Bi14  1  0.000000  0.382996  0.750000  1
  Bi  Bi15  1  0.383275  0.383122  0.250000  1
  Br  Br16  1  0.000000  0.001103  0.498829  1
  Br  Br17  1  0.000000  0.001103  0.001171  1
