# generated using pymatgen
data_K2CuAgS2
_symmetry_space_group_name_H-M   'P 1'
_cell_length_a   5.56443208
_cell_length_b   6.38539300
_cell_length_c   10.70960591
_cell_angle_alpha   90.00000000
_cell_angle_beta   85.95120428
_cell_angle_gamma   90.00000000
_symmetry_Int_Tables_number   1
_chemical_formula_structural   K2CuAgS2
_chemical_formula_sum   'K4 Cu2 Ag2 S4'
_cell_volume   379.57424387
_cell_formula_units_Z   2
loop_
 _symmetry_equiv_pos_site_id
 _symmetry_equiv_pos_as_xyz
  1  'x, y, z'
loop_
 _atom_site_type_symbol
 _atom_site_label
 _atom_site_symmetry_multiplicity
 _atom_site_fract_x
 _atom_site_fract_y
 _atom_site_fract_z
 _atom_site_occupancy
  K  K0  1  0.750122  0.522989  0.846461  1
  K  K1  1  0.249878  0.022989  0.653539  1
  K  K2  1  0.750122  0.977011  0.346461  1
  K  K3  1  0.249878  0.477011  0.153539  1
  Cu  Cu4  1  0.000000  0.500000  0.500000  1
  Cu  Cu5  1  0.000000  0.000000  0.000000  1
  Ag  Ag6  1  0.500000  0.000000  0.000000  1
  Ag  Ag7  1  0.500000  0.500000  0.500000  1
  S  S8  1  0.770500  0.234491  0.092689  1
  S  S9  1  0.770500  0.265509  0.592689  1
  S  S10  1  0.229500  0.765509  0.907311  1
  S  S11  1  0.229500  0.734491  0.407311  1
