# generated using pymatgen
data_Li3DyY2Pt3
_symmetry_space_group_name_H-M   'P 1'
_cell_length_a   7.11185606
_cell_length_b   7.12431473
_cell_length_c   4.08546800
_cell_angle_alpha   90.00000000
_cell_angle_beta   90.00000000
_cell_angle_gamma   120.05794673
_symmetry_Int_Tables_number   1
_chemical_formula_structural   Li3DyY2Pt3
_chemical_formula_sum   'Li3 Dy1 Y2 Pt3'
_cell_volume   179.16146910
_cell_formula_units_Z   1
loop_
 _symmetry_equiv_pos_site_id
 _symmetry_equiv_pos_as_xyz
  1  'x, y, z'
loop_
 _atom_site_type_symbol
 _atom_site_label
 _atom_site_symmetry_multiplicity
 _atom_site_fract_x
 _atom_site_fract_y
 _atom_site_fract_z
 _atom_site_occupancy
  Li  Li0  1  0.766977  0.767350  0.500000  1
  Li  Li1  1  0.233023  0.000373  0.500000  1
  Li  Li2  1  0.000000  0.231060  0.500000  1
  Dy  Dy3  1  0.000000  0.591082  0.000000  1
  Y  Y4  1  0.411261  0.410635  0.000000  1
  Y  Y5  1  0.588739  0.999374  0.000000  1
  Pt  Pt6  1  0.000000  0.000034  0.000000  1
  Pt  Pt7  1  0.667848  0.333968  0.500000  1
  Pt  Pt8  1  0.332152  0.666121  0.500000  1
