# generated using pymatgen
data_Dy3Lu7(Bi3C)2
_symmetry_space_group_name_H-M   'P 1'
_cell_length_a   9.07797500
_cell_length_b   9.07797478
_cell_length_c   6.39414600
_cell_angle_alpha   90.00000000
_cell_angle_beta   90.00000000
_cell_angle_gamma   119.99999716
_symmetry_Int_Tables_number   1
_chemical_formula_structural   Dy3Lu7(Bi3C)2
_chemical_formula_sum   'Dy3 Lu7 Bi6 C2'
_cell_volume   456.34274126
_cell_formula_units_Z   1
loop_
 _symmetry_equiv_pos_site_id
 _symmetry_equiv_pos_as_xyz
  1  'x, y, z'
loop_
 _atom_site_type_symbol
 _atom_site_label
 _atom_site_symmetry_multiplicity
 _atom_site_fract_x
 _atom_site_fract_y
 _atom_site_fract_z
 _atom_site_occupancy
  Dy  Dy0  1  0.666667  0.333333  0.500000  1
  Dy  Dy1  1  0.333333  0.666667  0.500000  1
  Dy  Dy2  1  0.333333  0.666667  0.000000  1
  Lu  Lu3  1  0.666667  0.333333  0.000000  1
  Lu  Lu4  1  0.796980  0.797178  0.249863  1
  Lu  Lu5  1  0.202822  0.999802  0.249863  1
  Lu  Lu6  1  0.000198  0.203020  0.249863  1
  Lu  Lu7  1  0.202822  0.203020  0.750137  1
  Lu  Lu8  1  0.796980  0.999802  0.750137  1
  Lu  Lu9  1  0.000198  0.797178  0.750137  1
  Bi  Bi10  1  0.399050  0.397444  0.248356  1
  Bi  Bi11  1  0.602556  0.001606  0.248356  1
  Bi  Bi12  1  0.998394  0.600950  0.248356  1
  Bi  Bi13  1  0.602556  0.600950  0.751644  1
  Bi  Bi14  1  0.399050  0.001606  0.751644  1
  Bi  Bi15  1  0.998394  0.397444  0.751644  1
  C  C16  1  0.000000  0.000000  0.500000  1
  C  C17  1  0.000000  0.000000  0.000000  1
