# generated using pymatgen
data_LaTh3Ir8
_symmetry_space_group_name_H-M   'P 1'
_cell_length_a   9.44806854
_cell_length_b   9.44806882
_cell_length_c   9.44806888
_cell_angle_alpha   33.62840638
_cell_angle_beta   33.62840235
_cell_angle_gamma   33.62840186
_symmetry_Int_Tables_number   1
_chemical_formula_structural   LaTh3Ir8
_chemical_formula_sum   'La1 Th3 Ir8'
_cell_volume   230.42822607
_cell_formula_units_Z   1
loop_
 _symmetry_equiv_pos_site_id
 _symmetry_equiv_pos_as_xyz
  1  'x, y, z'
loop_
 _atom_site_type_symbol
 _atom_site_label
 _atom_site_symmetry_multiplicity
 _atom_site_fract_x
 _atom_site_fract_y
 _atom_site_fract_z
 _atom_site_occupancy
  La  La0  1  0.125308  0.125308  0.125308  1
  Th  Th1  1  0.624339  0.624339  0.624339  1
  Th  Th2  1  0.001380  0.001380  0.001380  1
  Th  Th3  1  0.498870  0.498870  0.498870  1
  Ir  Ir4  1  0.562645  0.562645  0.059688  1
  Ir  Ir5  1  0.062517  0.062517  0.565116  1
  Ir  Ir6  1  0.562645  0.059688  0.562645  1
  Ir  Ir7  1  0.062517  0.565116  0.062517  1
  Ir  Ir8  1  0.812436  0.812436  0.812436  1
  Ir  Ir9  1  0.312542  0.312542  0.312542  1
  Ir  Ir10  1  0.059688  0.562645  0.562645  1
  Ir  Ir11  1  0.565116  0.062517  0.062517  1
