# generated using pymatgen
data_TiSiGeMo5
_symmetry_space_group_name_H-M   'P 1'
_cell_length_a   4.89315800
_cell_length_b   4.95562500
_cell_length_c   4.97363800
_cell_angle_alpha   90.00000000
_cell_angle_beta   90.00000000
_cell_angle_gamma   90.00000000
_symmetry_Int_Tables_number   1
_chemical_formula_structural   TiSiGeMo5
_chemical_formula_sum   'Ti1 Si1 Ge1 Mo5'
_cell_volume   120.60403750
_cell_formula_units_Z   1
loop_
 _symmetry_equiv_pos_site_id
 _symmetry_equiv_pos_as_xyz
  1  'x, y, z'
loop_
 _atom_site_type_symbol
 _atom_site_label
 _atom_site_symmetry_multiplicity
 _atom_site_fract_x
 _atom_site_fract_y
 _atom_site_fract_z
 _atom_site_occupancy
  Ti  Ti0  1  0.249226  0.000000  0.500000  1
  Si  Si1  1  0.004523  0.000000  0.000000  1
  Ge  Ge2  1  0.494790  0.500000  0.500000  1
  Mo  Mo3  1  0.752405  0.000000  0.500000  1
  Mo  Mo4  1  0.997420  0.500000  0.247252  1
  Mo  Mo5  1  0.997420  0.500000  0.752748  1
  Mo  Mo6  1  0.502108  0.750846  0.000000  1
  Mo  Mo7  1  0.502108  0.249154  0.000000  1
