# generated using pymatgen
data_Nd5ErCr2(Co4P3)4
_symmetry_space_group_name_H-M   'P 1'
_cell_length_a   3.74442400
_cell_length_b   10.64014913
_cell_length_c   12.34069134
_cell_angle_alpha   89.94689874
_cell_angle_beta   90.00000000
_cell_angle_gamma   90.00000000
_symmetry_Int_Tables_number   1
_chemical_formula_structural   Nd5ErCr2(Co4P3)4
_chemical_formula_sum   'Nd5 Er1 Cr2 Co16 P12'
_cell_volume   491.66810797
_cell_formula_units_Z   1
loop_
 _symmetry_equiv_pos_site_id
 _symmetry_equiv_pos_as_xyz
  1  'x, y, z'
loop_
 _atom_site_type_symbol
 _atom_site_label
 _atom_site_symmetry_multiplicity
 _atom_site_fract_x
 _atom_site_fract_y
 _atom_site_fract_z
 _atom_site_occupancy
  Nd  Nd0  1  0.000000  0.500103  0.521296  1
  Nd  Nd1  1  0.500000  0.999438  0.477668  1
  Nd  Nd2  1  0.500000  0.181269  0.204892  1
  Nd  Nd3  1  0.000000  0.682476  0.794392  1
  Nd  Nd4  1  0.000000  0.317870  0.796659  1
  Er  Er5  1  0.500000  0.817044  0.203709  1
  Cr  Cr6  1  0.500000  0.501385  0.153631  1
  Cr  Cr7  1  0.000000  0.999101  0.847109  1
  Co  Co8  1  0.500000  0.500847  0.703442  1
  Co  Co9  1  0.000000  0.996175  0.295282  1
  Co  Co10  1  0.000000  0.502053  0.989783  1
  Co  Co11  1  0.500000  0.997465  0.013739  1
  Co  Co12  1  0.500000  0.333201  0.994958  1
  Co  Co13  1  0.500000  0.669114  0.995273  1
  Co  Co14  1  0.000000  0.165394  0.007561  1
  Co  Co15  1  0.000000  0.832023  0.008844  1
  Co  Co16  1  0.500000  0.295696  0.430153  1
  Co  Co17  1  0.500000  0.704536  0.426482  1
  Co  Co18  1  0.000000  0.203813  0.570130  1
  Co  Co19  1  0.000000  0.795995  0.567156  1
  Co  Co20  1  0.500000  0.881664  0.709306  1
  Co  Co21  1  0.500000  0.118758  0.711286  1
  Co  Co22  1  0.000000  0.621036  0.287491  1
  Co  Co23  1  0.000000  0.382169  0.289595  1
  P  P24  1  0.500000  0.501138  0.887066  1
  P  P25  1  0.000000  0.996354  0.116615  1
  P  P26  1  0.500000  0.500133  0.337605  1
  P  P27  1  0.000000  0.000527  0.661747  1
  P  P28  1  0.500000  0.307483  0.614858  1
  P  P29  1  0.500000  0.693556  0.612226  1
  P  P30  1  0.000000  0.191968  0.385811  1
  P  P31  1  0.000000  0.807810  0.380599  1
  P  P32  1  0.500000  0.850095  0.893533  1
  P  P33  1  0.500000  0.149207  0.895943  1
  P  P34  1  0.000000  0.653231  0.108074  1
  P  P35  1  0.000000  0.349875  0.106085  1
