# generated using pymatgen
data_PrBi3Pt4F28
_symmetry_space_group_name_H-M   'P 1'
_cell_length_a   5.65901930
_cell_length_b   9.21111548
_cell_length_c   12.26792225
_cell_angle_alpha   61.66586916
_cell_angle_beta   90.11511101
_cell_angle_gamma   89.92814105
_symmetry_Int_Tables_number   1
_chemical_formula_structural   PrBi3Pt4F28
_chemical_formula_sum   'Pr1 Bi3 Pt4 F28'
_cell_volume   562.86075078
_cell_formula_units_Z   1
loop_
 _symmetry_equiv_pos_site_id
 _symmetry_equiv_pos_as_xyz
  1  'x, y, z'
loop_
 _atom_site_type_symbol
 _atom_site_label
 _atom_site_symmetry_multiplicity
 _atom_site_fract_x
 _atom_site_fract_y
 _atom_site_fract_z
 _atom_site_occupancy
  Pr  Pr0  1  0.740259  0.809040  0.264169  1
  Bi  Bi1  1  0.763288  0.814967  0.762362  1
  Bi  Bi2  1  0.262042  0.184916  0.738264  1
  Bi  Bi3  1  0.235263  0.183395  0.237630  1
  Pt  Pt4  1  0.758424  0.272845  0.957402  1
  Pt  Pt5  1  0.257250  0.727976  0.542907  1
  Pt  Pt6  1  0.243314  0.728515  0.039591  1
  Pt  Pt7  1  0.742543  0.270396  0.459711  1
  F  F8  1  0.432430  0.707066  0.913442  1
  F  F9  1  0.933488  0.292285  0.586208  1
  F  F10  1  0.568748  0.293284  0.083921  1
  F  F11  1  0.067991  0.707088  0.415763  1
  F  F12  1  0.445628  0.279515  0.542062  1
  F  F13  1  0.945071  0.720062  0.958297  1
  F  F14  1  0.551270  0.718504  0.460206  1
  F  F15  1  0.055371  0.281426  0.040100  1
  F  F16  1  0.767222  0.514741  0.860760  1
  F  F17  1  0.266545  0.486351  0.639672  1
  F  F18  1  0.233521  0.488053  0.137593  1
  F  F19  1  0.732481  0.512336  0.362239  1
  F  F20  1  0.757498  0.029184  0.050298  1
  F  F21  1  0.258015  0.972660  0.449848  1
  F  F22  1  0.243298  0.973834  0.947170  1
  F  F23  1  0.743029  0.026550  0.551597  1
  F  F24  1  0.966572  0.729022  0.630506  1
  F  F25  1  0.467686  0.272186  0.868642  1
  F  F26  1  0.032171  0.271613  0.370736  1
  F  F27  1  0.531750  0.728135  0.129430  1
  F  F28  1  0.060252  0.742299  0.171089  1
  F  F29  1  0.558492  0.256937  0.328144  1
  F  F30  1  0.942707  0.257886  0.825884  1
  F  F31  1  0.441111  0.742674  0.673968  1
  F  F32  1  0.396863  0.970505  0.230021  1
  F  F33  1  0.910234  0.034916  0.269862  1
  F  F34  1  0.594256  0.029771  0.769865  1
  F  F35  1  0.093918  0.969066  0.730642  1
