# generated using pymatgen
data_Ho2SnP6(Ir3Rh)3
_symmetry_space_group_name_H-M   'P 1'
_cell_length_a   9.72365100
_cell_length_b   9.72365034
_cell_length_c   3.97428900
_cell_angle_alpha   90.00000000
_cell_angle_beta   90.00000000
_cell_angle_gamma   120.00000249
_symmetry_Int_Tables_number   1
_chemical_formula_structural   Ho2SnP6(Ir3Rh)3
_chemical_formula_sum   'Ho2 Sn1 P6 Ir9 Rh3'
_cell_volume   325.42338753
_cell_formula_units_Z   1
loop_
 _symmetry_equiv_pos_site_id
 _symmetry_equiv_pos_as_xyz
  1  'x, y, z'
loop_
 _atom_site_type_symbol
 _atom_site_label
 _atom_site_symmetry_multiplicity
 _atom_site_fract_x
 _atom_site_fract_y
 _atom_site_fract_z
 _atom_site_occupancy
  Ho  Ho0  1  0.333333  0.666667  0.758062  1
  Ho  Ho1  1  0.666667  0.333333  0.238506  1
  Sn  Sn2  1  0.000000  0.000000  0.540764  1
  P  P3  1  0.410358  0.285381  0.738165  1
  P  P4  1  0.714619  0.124976  0.738165  1
  P  P5  1  0.875024  0.589642  0.738165  1
  P  P6  1  0.596294  0.720174  0.258540  1
  P  P7  1  0.279826  0.876120  0.258540  1
  P  P8  1  0.123880  0.403706  0.258540  1
  Ir  Ir9  1  0.455046  0.070327  0.742965  1
  Ir  Ir10  1  0.929673  0.384717  0.742965  1
  Ir  Ir11  1  0.615283  0.544954  0.742965  1
  Ir  Ir12  1  0.538691  0.931392  0.253951  1
  Ir  Ir13  1  0.068608  0.607300  0.253951  1
  Ir  Ir14  1  0.392700  0.461309  0.253951  1
  Ir  Ir15  1  0.171651  0.294853  0.765247  1
  Ir  Ir16  1  0.705147  0.876797  0.765247  1
  Ir  Ir17  1  0.123203  0.828349  0.765247  1
  Rh  Rh18  1  0.839468  0.715597  0.228687  1
  Rh  Rh19  1  0.284403  0.123871  0.228687  1
  Rh  Rh20  1  0.876129  0.160532  0.228687  1
