# generated using pymatgen
data_Tb3ZnIn3HgRh
_symmetry_space_group_name_H-M   'P 1'
_cell_length_a   7.90917000
_cell_length_b   7.90917038
_cell_length_c   3.83800100
_cell_angle_alpha   90.00000000
_cell_angle_beta   90.00000000
_cell_angle_gamma   120.00000679
_symmetry_Int_Tables_number   1
_chemical_formula_structural   Tb3ZnIn3HgRh
_chemical_formula_sum   'Tb3 Zn1 In3 Hg1 Rh1'
_cell_volume   207.92060345
_cell_formula_units_Z   1
loop_
 _symmetry_equiv_pos_site_id
 _symmetry_equiv_pos_as_xyz
  1  'x, y, z'
loop_
 _atom_site_type_symbol
 _atom_site_label
 _atom_site_symmetry_multiplicity
 _atom_site_fract_x
 _atom_site_fract_y
 _atom_site_fract_z
 _atom_site_occupancy
  Tb  Tb0  1  0.969696  0.583419  0.500000  1
  Tb  Tb1  1  0.416581  0.386277  0.500000  1
  Tb  Tb2  1  0.613723  0.030304  0.500000  1
  Zn  Zn3  1  0.000000  0.000000  0.500000  1
  In  In4  1  0.740722  0.739359  0.000000  1
  In  In5  1  0.998637  0.259278  0.000000  1
  In  In6  1  0.260641  0.001363  0.000000  1
  Hg  Hg7  1  0.333333  0.666667  0.000000  1
  Rh  Rh8  1  0.666667  0.333333  0.000000  1
