# generated using pymatgen
data_Tb7Y12ErPb16
_symmetry_space_group_name_H-M   'P 1'
_cell_length_a   8.21458503
_cell_length_b   8.29534054
_cell_length_c   15.67309707
_cell_angle_alpha   90.00601155
_cell_angle_beta   90.00904178
_cell_angle_gamma   90.02082108
_symmetry_Int_Tables_number   1
_chemical_formula_structural   Tb7Y12ErPb16
_chemical_formula_sum   'Tb7 Y12 Er1 Pb16'
_cell_volume   1068.00831870
_cell_formula_units_Z   1
loop_
 _symmetry_equiv_pos_site_id
 _symmetry_equiv_pos_as_xyz
  1  'x, y, z'
loop_
 _atom_site_type_symbol
 _atom_site_label
 _atom_site_symmetry_multiplicity
 _atom_site_fract_x
 _atom_site_fract_y
 _atom_site_fract_z
 _atom_site_occupancy
  Tb  Tb0  1  0.034516  0.176760  0.600109  1
  Tb  Tb1  1  0.465346  0.676974  0.399815  1
  Tb  Tb2  1  0.965615  0.823402  0.100197  1
  Tb  Tb3  1  0.465348  0.676971  0.100175  1
  Tb  Tb4  1  0.965630  0.823382  0.399807  1
  Tb  Tb5  1  0.534543  0.323254  0.600156  1
  Tb  Tb6  1  0.034514  0.176771  0.899895  1
  Y  Y7  1  0.377395  0.840560  0.879641  1
  Y  Y8  1  0.877397  0.659448  0.620455  1
  Y  Y9  1  0.622334  0.159254  0.379472  1
  Y  Y10  1  0.122802  0.340401  0.120499  1
  Y  Y11  1  0.622337  0.159243  0.120528  1
  Y  Y12  1  0.122802  0.340416  0.379492  1
  Y  Y13  1  0.377370  0.840559  0.620369  1
  Y  Y14  1  0.877391  0.659423  0.879547  1
  Y  Y15  1  0.534602  0.323286  0.899811  1
  Y  Y16  1  0.208920  0.503676  0.750024  1
  Y  Y17  1  0.708907  0.996332  0.750002  1
  Y  Y18  1  0.791105  0.496364  0.250000  1
  Er  Er19  1  0.290918  0.003790  0.250025  1
  Pb  Pb20  1  0.280859  0.032561  0.043043  1
  Pb  Pb21  1  0.780837  0.467285  0.457344  1
  Pb  Pb22  1  0.719156  0.967222  0.542544  1
  Pb  Pb23  1  0.219134  0.532701  0.957444  1
  Pb  Pb24  1  0.719134  0.967252  0.957463  1
  Pb  Pb25  1  0.219122  0.532728  0.542543  1
  Pb  Pb26  1  0.280866  0.032571  0.456965  1
  Pb  Pb27  1  0.780798  0.467242  0.042637  1
  Pb  Pb28  1  0.572860  0.626140  0.749980  1
  Pb  Pb29  1  0.072852  0.873918  0.750004  1
  Pb  Pb30  1  0.426942  0.373351  0.249992  1
  Pb  Pb31  1  0.928010  0.125674  0.250003  1
  Pb  Pb32  1  0.345838  0.151748  0.750021  1
  Pb  Pb33  1  0.845881  0.348112  0.749998  1
  Pb  Pb34  1  0.653638  0.848334  0.249996  1
  Pb  Pb35  1  0.154284  0.652892  0.250001  1
