# generated using pymatgen
data_TmMg3Ge5AsIr7
_symmetry_space_group_name_H-M   'P 1'
_cell_length_a   7.14776509
_cell_length_b   7.14776438
_cell_length_c   7.00310363
_cell_angle_alpha   108.94886499
_cell_angle_beta   108.94886297
_cell_angle_gamma   110.14348719
_symmetry_Int_Tables_number   1
_chemical_formula_structural   TmMg3Ge5AsIr7
_chemical_formula_sum   'Tm1 Mg3 Ge5 As1 Ir7'
_cell_volume   276.65722832
_cell_formula_units_Z   1
loop_
 _symmetry_equiv_pos_site_id
 _symmetry_equiv_pos_as_xyz
  1  'x, y, z'
loop_
 _atom_site_type_symbol
 _atom_site_label
 _atom_site_symmetry_multiplicity
 _atom_site_fract_x
 _atom_site_fract_y
 _atom_site_fract_z
 _atom_site_occupancy
  Tm  Tm0  1  0.001397  0.001397  0.499507  1
  Mg  Mg1  1  0.002327  0.499932  0.999962  1
  Mg  Mg2  1  0.499932  0.002327  0.999962  1
  Mg  Mg3  1  0.500441  0.500441  0.498518  1
  Ge  Ge4  1  0.315365  0.000336  0.307617  1
  Ge  Ge5  1  0.000336  0.315365  0.307617  1
  Ge  Ge6  1  0.310105  0.310105  0.006928  1
  Ge  Ge7  1  0.686371  0.000145  0.691254  1
  Ge  Ge8  1  0.000145  0.686371  0.691254  1
  As  As9  1  0.683408  0.683408  0.995122  1
  Ir  Ir10  1  0.748772  0.254245  0.501787  1
  Ir  Ir11  1  0.747157  0.495064  0.246621  1
  Ir  Ir12  1  0.503881  0.253089  0.752520  1
  Ir  Ir13  1  0.253089  0.503881  0.752520  1
  Ir  Ir14  1  0.254245  0.748772  0.501787  1
  Ir  Ir15  1  0.495064  0.747157  0.246621  1
  Ir  Ir16  1  0.997965  0.997965  0.000403  1
