# generated using pymatgen
data_Pa4Si8Tc5
_symmetry_space_group_name_H-M   'P 1'
_cell_length_a   7.15219272
_cell_length_b   7.22468613
_cell_length_c   7.15219426
_cell_angle_alpha   110.03396811
_cell_angle_beta   107.93279480
_cell_angle_gamma   110.03397160
_symmetry_Int_Tables_number   1
_chemical_formula_structural   Pa4Si8Tc5
_chemical_formula_sum   'Pa4 Si8 Tc5'
_cell_volume   285.84050877
_cell_formula_units_Z   1
loop_
 _symmetry_equiv_pos_site_id
 _symmetry_equiv_pos_as_xyz
  1  'x, y, z'
loop_
 _atom_site_type_symbol
 _atom_site_label
 _atom_site_symmetry_multiplicity
 _atom_site_fract_x
 _atom_site_fract_y
 _atom_site_fract_z
 _atom_site_occupancy
  Pa  Pa0  1  0.497561  0.500000  0.502439  1
  Pa  Pa1  1  0.997561  0.500000  0.002439  1
  Pa  Pa2  1  0.499167  0.000000  0.996800  1
  Pa  Pa3  1  0.003200  0.000000  0.500833  1
  Si  Si4  1  0.695527  0.000000  0.696259  1
  Si  Si5  1  0.686607  0.684366  0.997759  1
  Si  Si6  1  0.311491  0.305669  0.994178  1
  Si  Si7  1  0.005822  0.694331  0.688509  1
  Si  Si8  1  0.002241  0.315634  0.313393  1
  Si  Si9  1  0.303741  0.000000  0.304473  1
  Si  Si10  1  0.495332  0.741702  0.246370  1
  Si  Si11  1  0.753630  0.258298  0.504668  1
  Tc  Tc12  1  0.254020  0.749445  0.495426  1
  Tc  Tc13  1  0.245735  0.500000  0.754265  1
  Tc  Tc14  1  0.998058  0.000000  0.001942  1
  Tc  Tc15  1  0.504574  0.250555  0.745980  1
  Tc  Tc16  1  0.745735  0.500000  0.254265  1
