# generated using pymatgen
data_Er3Tm9Os3Pt
_symmetry_space_group_name_H-M   'P 1'
_cell_length_a   7.29597821
_cell_length_b   8.92152800
_cell_length_c   6.33964154
_cell_angle_alpha   90.00000000
_cell_angle_beta   89.79496918
_cell_angle_gamma   90.00000000
_symmetry_Int_Tables_number   1
_chemical_formula_structural   Er3Tm9Os3Pt
_chemical_formula_sum   'Er3 Tm9 Os3 Pt1'
_cell_volume   412.65270213
_cell_formula_units_Z   1
loop_
 _symmetry_equiv_pos_site_id
 _symmetry_equiv_pos_as_xyz
  1  'x, y, z'
loop_
 _atom_site_type_symbol
 _atom_site_label
 _atom_site_symmetry_multiplicity
 _atom_site_fract_x
 _atom_site_fract_y
 _atom_site_fract_z
 _atom_site_occupancy
  Er  Er0  1  0.036811  0.250000  0.623191  1
  Er  Er1  1  0.966713  0.750000  0.375258  1
  Er  Er2  1  0.461910  0.750000  0.122401  1
  Tm  Tm3  1  0.538005  0.250000  0.871236  1
  Tm  Tm4  1  0.176415  0.062356  0.169362  1
  Tm  Tm5  1  0.828205  0.940732  0.836543  1
  Tm  Tm6  1  0.318238  0.941237  0.671426  1
  Tm  Tm7  1  0.828205  0.559268  0.836543  1
  Tm  Tm8  1  0.676039  0.066258  0.324481  1
  Tm  Tm9  1  0.176415  0.437644  0.169362  1
  Tm  Tm10  1  0.676039  0.433742  0.324481  1
  Tm  Tm11  1  0.318238  0.558763  0.671426  1
  Os  Os12  1  0.385442  0.250000  0.464605  1
  Os  Os13  1  0.115742  0.750000  0.962448  1
  Os  Os14  1  0.884313  0.250000  0.034155  1
  Pt  Pt15  1  0.613271  0.750000  0.543083  1
