# generated using pymatgen
data_Zr6InSn5Rh12
_symmetry_space_group_name_H-M   'P 1'
_cell_length_a   4.33870300
_cell_length_b   7.41325300
_cell_length_c   12.96854800
_cell_angle_alpha   89.99995472
_cell_angle_beta   90.00028664
_cell_angle_gamma   89.99992174
_symmetry_Int_Tables_number   1
_chemical_formula_structural   Zr6InSn5Rh12
_chemical_formula_sum   'Zr6 In1 Sn5 Rh12'
_cell_volume   417.11912032
_cell_formula_units_Z   1
loop_
 _symmetry_equiv_pos_site_id
 _symmetry_equiv_pos_as_xyz
  1  'x, y, z'
loop_
 _atom_site_type_symbol
 _atom_site_label
 _atom_site_symmetry_multiplicity
 _atom_site_fract_x
 _atom_site_fract_y
 _atom_site_fract_z
 _atom_site_occupancy
  Zr  Zr0  1  0.000000  0.500000  0.000000  1
  Zr  Zr1  1  0.500062  0.000001  0.165091  1
  Zr  Zr2  1  0.000062  0.500000  0.333425  1
  Zr  Zr3  1  0.500000  0.000000  0.500000  1
  Zr  Zr4  1  0.999938  0.500000  0.666576  1
  Zr  Zr5  1  0.499938  0.999999  0.834909  1
  In  In6  1  0.000000  0.000000  0.000000  1
  Sn  Sn7  1  0.500097  0.500000  0.166481  1
  Sn  Sn8  1  0.000071  0.000000  0.332284  1
  Sn  Sn9  1  0.500000  0.500000  0.500000  1
  Sn  Sn10  1  0.999929  0.000000  0.667716  1
  Sn  Sn11  1  0.499903  0.500000  0.833519  1
  Rh  Rh12  1  0.500001  0.251250  0.000000  1
  Rh  Rh13  1  0.499999  0.748750  0.000000  1
  Rh  Rh14  1  0.000070  0.251924  0.167825  1
  Rh  Rh15  1  0.000071  0.748075  0.167825  1
  Rh  Rh16  1  0.500067  0.249861  0.334086  1
  Rh  Rh17  1  0.500073  0.750139  0.334086  1
  Rh  Rh18  1  0.000002  0.250054  0.500000  1
  Rh  Rh19  1  0.999998  0.749947  0.500000  1
  Rh  Rh20  1  0.499927  0.249861  0.665914  1
  Rh  Rh21  1  0.499933  0.750139  0.665914  1
  Rh  Rh22  1  0.999929  0.251926  0.832176  1
  Rh  Rh23  1  0.999930  0.748077  0.832176  1
