# generated using pymatgen
data_Sr6Fe3RuO14
_symmetry_space_group_name_H-M   'P 1'
_cell_length_a   10.74879210
_cell_length_b   10.74879219
_cell_length_c   5.55279517
_cell_angle_alpha   90.00724294
_cell_angle_beta   90.00724046
_cell_angle_gamma   149.97934815
_symmetry_Int_Tables_number   1
_chemical_formula_structural   Sr6Fe3RuO14
_chemical_formula_sum   'Sr6 Fe3 Ru1 O14'
_cell_volume   320.97555275
_cell_formula_units_Z   1
loop_
 _symmetry_equiv_pos_site_id
 _symmetry_equiv_pos_as_xyz
  1  'x, y, z'
loop_
 _atom_site_type_symbol
 _atom_site_label
 _atom_site_symmetry_multiplicity
 _atom_site_fract_x
 _atom_site_fract_y
 _atom_site_fract_z
 _atom_site_occupancy
  Sr  Sr0  1  0.187525  0.812475  0.000000  1
  Sr  Sr1  1  0.816668  0.183332  0.000000  1
  Sr  Sr2  1  0.318084  0.681916  0.500000  1
  Sr  Sr3  1  0.994322  0.005678  0.000000  1
  Sr  Sr4  1  0.686379  0.313621  0.500000  1
  Sr  Sr5  1  0.494543  0.505457  0.500000  1
  Fe  Fe6  1  0.897557  0.102443  0.500000  1
  Fe  Fe7  1  0.402320  0.597680  0.000000  1
  Fe  Fe8  1  0.597512  0.402488  0.000000  1
  Ru  Ru9  1  0.096427  0.903573  0.500000  1
  O  O10  1  0.156183  0.346695  0.259078  1
  O  O11  1  0.310018  0.115417  0.221183  1
  O  O12  1  0.653305  0.843817  0.740922  1
  O  O13  1  0.374280  0.180609  0.713173  1
  O  O14  1  0.802151  0.197849  0.500000  1
  O  O15  1  0.819391  0.625720  0.286827  1
  O  O16  1  0.193857  0.806143  0.500000  1
  O  O17  1  0.693842  0.306158  0.000000  1
  O  O18  1  0.663389  0.854195  0.248515  1
  O  O19  1  0.306769  0.693231  0.000000  1
  O  O20  1  0.004586  0.995414  0.500000  1
  O  O21  1  0.884583  0.689982  0.778817  1
  O  O22  1  0.500507  0.499493  0.000000  1
  O  O23  1  0.145805  0.336611  0.751485  1
