# generated using pymatgen
data_DyGeF7
_symmetry_space_group_name_H-M   'P 1'
_cell_length_a   5.41833800
_cell_length_b   8.72005301
_cell_length_c   11.68514524
_cell_angle_alpha   62.20171155
_cell_angle_beta   90.00000000
_cell_angle_gamma   90.00000000
_symmetry_Int_Tables_number   1
_chemical_formula_structural   DyGeF7
_chemical_formula_sum   'Dy4 Ge4 F28'
_cell_volume   488.38663105
_cell_formula_units_Z   4
loop_
 _symmetry_equiv_pos_site_id
 _symmetry_equiv_pos_as_xyz
  1  'x, y, z'
loop_
 _atom_site_type_symbol
 _atom_site_label
 _atom_site_symmetry_multiplicity
 _atom_site_fract_x
 _atom_site_fract_y
 _atom_site_fract_z
 _atom_site_occupancy
  Dy  Dy0  1  0.760598  0.810785  0.764261  1
  Dy  Dy1  1  0.260598  0.189215  0.735739  1
  Dy  Dy2  1  0.239402  0.189215  0.235739  1
  Dy  Dy3  1  0.739402  0.810785  0.264261  1
  Ge  Ge4  1  0.757624  0.274107  0.957068  1
  Ge  Ge5  1  0.257624  0.725893  0.542932  1
  Ge  Ge6  1  0.242376  0.725893  0.042932  1
  Ge  Ge7  1  0.742376  0.274107  0.457068  1
  F  F8  1  0.432095  0.705892  0.921659  1
  F  F9  1  0.932095  0.294108  0.578341  1
  F  F10  1  0.567905  0.294108  0.078341  1
  F  F11  1  0.067905  0.705892  0.421659  1
  F  F12  1  0.455961  0.280782  0.539736  1
  F  F13  1  0.955961  0.719218  0.960264  1
  F  F14  1  0.544039  0.719218  0.460264  1
  F  F15  1  0.044039  0.280782  0.039736  1
  F  F16  1  0.772985  0.509666  0.863334  1
  F  F17  1  0.272985  0.490334  0.636666  1
  F  F18  1  0.227015  0.490334  0.136666  1
  F  F19  1  0.727015  0.509666  0.363334  1
  F  F20  1  0.759481  0.038234  0.047375  1
  F  F21  1  0.259481  0.961766  0.452625  1
  F  F22  1  0.240519  0.961766  0.952625  1
  F  F23  1  0.740519  0.038234  0.547375  1
  F  F24  1  0.981046  0.727140  0.632375  1
  F  F25  1  0.481046  0.272860  0.867625  1
  F  F26  1  0.018954  0.272860  0.367625  1
  F  F27  1  0.518954  0.727140  0.132375  1
  F  F28  1  0.055096  0.741093  0.168893  1
  F  F29  1  0.555096  0.258907  0.331107  1
  F  F30  1  0.944904  0.258907  0.831107  1
  F  F31  1  0.444904  0.741093  0.668893  1
  F  F32  1  0.403473  0.967980  0.227314  1
  F  F33  1  0.903473  0.032020  0.272686  1
  F  F34  1  0.596527  0.032020  0.772686  1
  F  F35  1  0.096527  0.967980  0.727314  1
