# generated using pymatgen
data_Dy5Y3Cd2IrRu
_symmetry_space_group_name_H-M   'P 1'
_cell_length_a   9.65015115
_cell_length_b   9.65015063
_cell_length_c   9.68201200
_cell_angle_alpha   59.89072225
_cell_angle_beta   59.89072403
_cell_angle_gamma   59.78722838
_symmetry_Int_Tables_number   1
_chemical_formula_structural   Dy5Y3Cd2IrRu
_chemical_formula_sum   'Dy10 Y6 Cd4 Ir2 Ru2'
_cell_volume   635.47518973
_cell_formula_units_Z   2
loop_
 _symmetry_equiv_pos_site_id
 _symmetry_equiv_pos_as_xyz
  1  'x, y, z'
loop_
 _atom_site_type_symbol
 _atom_site_label
 _atom_site_symmetry_multiplicity
 _atom_site_fract_x
 _atom_site_fract_y
 _atom_site_fract_z
 _atom_site_occupancy
  Dy  Dy0  1  0.347545  0.347545  0.347457  1
  Dy  Dy1  1  0.347545  0.347545  0.957452  1
  Dy  Dy2  1  0.346866  0.958906  0.347113  1
  Dy  Dy3  1  0.958906  0.346866  0.347113  1
  Dy  Dy4  1  0.811993  0.188315  0.189820  1
  Dy  Dy5  1  0.188315  0.811993  0.809872  1
  Dy  Dy6  1  0.188315  0.811993  0.189820  1
  Dy  Dy7  1  0.811993  0.188315  0.809872  1
  Dy  Dy8  1  0.188100  0.188100  0.811900  1
  Dy  Dy9  1  0.809585  0.809585  0.190415  1
  Y  Y10  1  0.938852  0.560071  0.562231  1
  Y  Y11  1  0.560071  0.938852  0.938846  1
  Y  Y12  1  0.560071  0.938852  0.562231  1
  Y  Y13  1  0.938852  0.560071  0.938846  1
  Y  Y14  1  0.561524  0.561524  0.938476  1
  Y  Y15  1  0.939404  0.939404  0.560596  1
  Cd  Cd16  1  0.580271  0.580271  0.580664  1
  Cd  Cd17  1  0.580271  0.580271  0.258794  1
  Cd  Cd18  1  0.580288  0.258116  0.580798  1
  Cd  Cd19  1  0.258116  0.580288  0.580798  1
  Ir  Ir20  1  0.143058  0.577882  0.139530  1
  Ir  Ir21  1  0.577882  0.143058  0.139530  1
  Ru  Ru22  1  0.141087  0.141087  0.137658  1
  Ru  Ru23  1  0.141087  0.141087  0.580168  1
