# generated using pymatgen
data_Dy3Y2GaBi2
_symmetry_space_group_name_H-M   'P 1'
_cell_length_a   9.07575100
_cell_length_b   9.07160984
_cell_length_c   6.49071000
_cell_angle_alpha   90.00000000
_cell_angle_beta   90.00000000
_cell_angle_gamma   120.38467566
_symmetry_Int_Tables_number   1
_chemical_formula_structural   Dy3Y2GaBi2
_chemical_formula_sum   'Dy6 Y4 Ga2 Bi4'
_cell_volume   460.99185879
_cell_formula_units_Z   2
loop_
 _symmetry_equiv_pos_site_id
 _symmetry_equiv_pos_as_xyz
  1  'x, y, z'
loop_
 _atom_site_type_symbol
 _atom_site_label
 _atom_site_symmetry_multiplicity
 _atom_site_fract_x
 _atom_site_fract_y
 _atom_site_fract_z
 _atom_site_occupancy
  Dy  Dy0  1  0.654747  0.345435  0.000023  1
  Dy  Dy1  1  0.345361  0.654397  0.000043  1
  Dy  Dy2  1  0.345361  0.654397  0.499957  1
  Dy  Dy3  1  0.654747  0.345435  0.499977  1
  Dy  Dy4  1  0.754370  0.754339  0.750000  1
  Dy  Dy5  1  0.245226  0.017585  0.750000  1
  Y  Y6  1  0.016838  0.244831  0.750000  1
  Y  Y7  1  0.245396  0.245208  0.250000  1
  Y  Y8  1  0.754486  0.982902  0.250000  1
  Y  Y9  1  0.983189  0.755220  0.250000  1
  Ga  Ga10  1  0.398625  0.398562  0.750000  1
  Ga  Ga11  1  0.601474  0.601493  0.250000  1
  Bi  Bi12  1  0.611439  0.006663  0.750000  1
  Bi  Bi13  1  0.007135  0.612041  0.750000  1
  Bi  Bi14  1  0.388402  0.993062  0.250000  1
  Bi  Bi15  1  0.993204  0.388433  0.250000  1
