# generated using pymatgen
data_Sm3LuRe3PN12
_symmetry_space_group_name_H-M   'P 1'
_cell_length_a   7.28296063
_cell_length_b   7.22238167
_cell_length_c   6.04545180
_cell_angle_alpha   75.52242191
_cell_angle_beta   75.78939015
_cell_angle_gamma   84.54543418
_symmetry_Int_Tables_number   1
_chemical_formula_structural   Sm3LuRe3PN12
_chemical_formula_sum   'Sm3 Lu1 Re3 P1 N12'
_cell_volume   298.28114454
_cell_formula_units_Z   1
loop_
 _symmetry_equiv_pos_site_id
 _symmetry_equiv_pos_as_xyz
  1  'x, y, z'
loop_
 _atom_site_type_symbol
 _atom_site_label
 _atom_site_symmetry_multiplicity
 _atom_site_fract_x
 _atom_site_fract_y
 _atom_site_fract_z
 _atom_site_occupancy
  Sm  Sm0  1  0.100977  0.909064  0.246384  1
  Sm  Sm1  1  0.685175  0.287624  0.255976  1
  Sm  Sm2  1  0.313297  0.692556  0.735018  1
  Lu  Lu3  1  0.900080  0.087191  0.758868  1
  Re  Re4  1  0.196187  0.383617  0.249061  1
  Re  Re5  1  0.383978  0.197168  0.745423  1
  Re  Re6  1  0.788344  0.626843  0.768208  1
  P  P7  1  0.618745  0.810427  0.259586  1
  N  N8  1  0.653483  0.656111  0.067048  1
  N  N9  1  0.397897  0.867208  0.328507  1
  N  N10  1  0.349717  0.368000  0.466823  1
  N  N11  1  0.120541  0.624782  0.136996  1
  N  N12  1  0.997879  0.222584  0.351974  1
  N  N13  1  0.771610  0.977712  0.146694  1
  N  N14  1  0.215269  0.007007  0.828162  1
  N  N15  1  0.628944  0.113052  0.658176  1
  N  N16  1  0.365989  0.340017  0.972008  1
  N  N17  1  0.866095  0.381763  0.833454  1
  N  N18  1  0.656520  0.667946  0.524530  1
  N  N19  1  0.989270  0.779326  0.667107  1
