# generated using pymatgen
data_TmLu9(InBi)4
_symmetry_space_group_name_H-M   'P 1'
_cell_length_a   8.92020701
_cell_length_b   8.91761309
_cell_length_c   8.15864500
_cell_angle_alpha   89.97870751
_cell_angle_beta   89.99725732
_cell_angle_gamma   125.70422571
_symmetry_Int_Tables_number   1
_chemical_formula_structural   TmLu9(InBi)4
_chemical_formula_sum   'Tm1 Lu9 In4 Bi4'
_cell_volume   527.01044790
_cell_formula_units_Z   1
loop_
 _symmetry_equiv_pos_site_id
 _symmetry_equiv_pos_as_xyz
  1  'x, y, z'
loop_
 _atom_site_type_symbol
 _atom_site_label
 _atom_site_symmetry_multiplicity
 _atom_site_fract_x
 _atom_site_fract_y
 _atom_site_fract_z
 _atom_site_occupancy
  Tm  Tm0  1  0.034697  0.297838  0.333717  1
  Lu  Lu1  1  0.535179  0.795826  0.165631  1
  Lu  Lu2  1  0.295874  0.034960  0.334555  1
  Lu  Lu3  1  0.204244  0.464868  0.834487  1
  Lu  Lu4  1  0.964829  0.703718  0.665607  1
  Lu  Lu5  1  0.704006  0.964738  0.665730  1
  Lu  Lu6  1  0.464947  0.203866  0.834288  1
  Lu  Lu7  1  0.795941  0.535002  0.165485  1
  Lu  Lu8  1  0.500232  0.499958  0.500125  1
  Lu  Lu9  1  0.000034  0.999655  0.999802  1
  In  In10  1  0.633575  0.633419  0.867508  1
  In  In11  1  0.133476  0.133377  0.632644  1
  In  In12  1  0.866468  0.866293  0.367534  1
  In  In13  1  0.366844  0.366370  0.132359  1
  Bi  Bi14  1  0.295155  0.706684  0.500693  1
  Bi  Bi15  1  0.205731  0.793900  0.000272  1
  Bi  Bi16  1  0.704993  0.294090  0.500299  1
  Bi  Bi17  1  0.793776  0.205434  0.999261  1
