# generated using pymatgen
data_Pr9Th(Al2Ru3)2
_symmetry_space_group_name_H-M   'P 1'
_cell_length_a   8.63373212
_cell_length_b   8.59764326
_cell_length_c   8.59764244
_cell_angle_alpha   109.00276569
_cell_angle_beta   109.92044525
_cell_angle_gamma   109.32051102
_symmetry_Int_Tables_number   1
_chemical_formula_structural   Pr9Th(Al2Ru3)2
_chemical_formula_sum   'Pr9 Th1 Al4 Ru6'
_cell_volume   492.29043773
_cell_formula_units_Z   1
loop_
 _symmetry_equiv_pos_site_id
 _symmetry_equiv_pos_as_xyz
  1  'x, y, z'
loop_
 _atom_site_type_symbol
 _atom_site_label
 _atom_site_symmetry_multiplicity
 _atom_site_fract_x
 _atom_site_fract_y
 _atom_site_fract_z
 _atom_site_occupancy
  Pr  Pr0  1  0.750000  0.814494  0.064494  1
  Pr  Pr1  1  0.437094  0.250388  0.686578  1
  Pr  Pr2  1  0.684904  0.436785  0.249846  1
  Pr  Pr3  1  0.062906  0.749484  0.813294  1
  Pr  Pr4  1  0.815096  0.064942  0.751881  1
  Pr  Pr5  1  0.216513  0.214948  0.216441  1
  Pr  Pr6  1  0.502368  0.000145  0.285975  1
  Pr  Pr7  1  0.283487  0.499927  0.998435  1
  Pr  Pr8  1  0.997632  0.283607  0.497778  1
  Th  Th9  1  0.250000  0.690487  0.440487  1
  Al  Al10  1  0.592535  0.591611  0.590698  1
  Al  Al11  1  0.502033  0.004121  0.910832  1
  Al  Al12  1  0.907465  0.498163  0.999076  1
  Al  Al13  1  0.997967  0.908798  0.502088  1
  Ru  Ru14  1  0.250000  0.119538  0.869538  1
  Ru  Ru15  1  0.750000  0.381630  0.631630  1
  Ru  Ru16  1  0.873162  0.252487  0.122456  1
  Ru  Ru17  1  0.125901  0.854722  0.260328  1
  Ru  Ru18  1  0.626837  0.749293  0.379324  1
  Ru  Ru19  1  0.374099  0.634428  0.728822  1
