# generated using pymatgen
data_Tb4Fe5Ni11(MoP3)4
_symmetry_space_group_name_H-M   'P 1'
_cell_length_a   3.70826400
_cell_length_b   10.48331841
_cell_length_c   12.07789963
_cell_angle_alpha   89.94049134
_cell_angle_beta   90.00000000
_cell_angle_gamma   90.00000000
_symmetry_Int_Tables_number   1
_chemical_formula_structural   Tb4Fe5Ni11(MoP3)4
_chemical_formula_sum   'Tb4 Fe5 Ni11 Mo4 P12'
_cell_volume   469.52703526
_cell_formula_units_Z   1
loop_
 _symmetry_equiv_pos_site_id
 _symmetry_equiv_pos_as_xyz
  1  'x, y, z'
loop_
 _atom_site_type_symbol
 _atom_site_label
 _atom_site_symmetry_multiplicity
 _atom_site_fract_x
 _atom_site_fract_y
 _atom_site_fract_z
 _atom_site_occupancy
  Tb  Tb0  1  0.250000  0.578721  0.708281  1
  Tb  Tb1  1  0.250000  0.918875  0.206579  1
  Tb  Tb2  1  0.750000  0.419063  0.293643  1
  Tb  Tb3  1  0.750000  0.083390  0.791939  1
  Fe  Fe4  1  0.750000  0.380396  0.800307  1
  Fe  Fe5  1  0.250000  0.465096  0.935409  1
  Fe  Fe6  1  0.250000  0.034810  0.434581  1
  Fe  Fe7  1  0.750000  0.536374  0.067094  1
  Fe  Fe8  1  0.750000  0.963897  0.565970  1
  Ni  Ni9  1  0.250000  0.411063  0.488473  1
  Ni  Ni10  1  0.250000  0.092730  0.985379  1
  Ni  Ni11  1  0.750000  0.589077  0.511889  1
  Ni  Ni12  1  0.750000  0.912170  0.009577  1
  Ni  Ni13  1  0.250000  0.222585  0.177835  1
  Ni  Ni14  1  0.250000  0.276295  0.675342  1
  Ni  Ni15  1  0.750000  0.774437  0.822933  1
  Ni  Ni16  1  0.750000  0.723413  0.321890  1
  Ni  Ni17  1  0.250000  0.882284  0.702025  1
  Ni  Ni18  1  0.250000  0.616675  0.202263  1
  Ni  Ni19  1  0.750000  0.116512  0.298382  1
  Mo  Mo20  1  0.250000  0.705917  0.990500  1
  Mo  Mo21  1  0.250000  0.793699  0.491040  1
  Mo  Mo22  1  0.750000  0.296229  0.010893  1
  Mo  Mo23  1  0.750000  0.205998  0.509522  1
  P  P24  1  0.250000  0.423215  0.112500  1
  P  P25  1  0.250000  0.075102  0.612210  1
  P  P26  1  0.750000  0.571279  0.887232  1
  P  P27  1  0.750000  0.923763  0.387894  1
  P  P28  1  0.250000  0.273572  0.862630  1
  P  P29  1  0.250000  0.233358  0.368194  1
  P  P30  1  0.750000  0.733923  0.131530  1
  P  P31  1  0.750000  0.765603  0.633124  1
  P  P32  1  0.250000  0.599669  0.390685  1
  P  P33  1  0.250000  0.901189  0.890092  1
  P  P34  1  0.750000  0.399413  0.613262  1
  P  P35  1  0.750000  0.100210  0.108904  1
