# generated using pymatgen
data_SmZnHgPt3
_symmetry_space_group_name_H-M   'P 1'
_cell_length_a   5.53183932
_cell_length_b   5.53183974
_cell_length_c   5.27259173
_cell_angle_alpha   58.35971877
_cell_angle_beta   58.35971904
_cell_angle_gamma   59.99999371
_symmetry_Int_Tables_number   1
_chemical_formula_structural   SmZnHgPt3
_chemical_formula_sum   'Sm1 Zn1 Hg1 Pt3'
_cell_volume   111.17923188
_cell_formula_units_Z   1
loop_
 _symmetry_equiv_pos_site_id
 _symmetry_equiv_pos_as_xyz
  1  'x, y, z'
loop_
 _atom_site_type_symbol
 _atom_site_label
 _atom_site_symmetry_multiplicity
 _atom_site_fract_x
 _atom_site_fract_y
 _atom_site_fract_z
 _atom_site_occupancy
  Sm  Sm0  1  0.005220  0.005220  0.984339  1
  Zn  Zn1  1  0.622718  0.622718  0.131844  1
  Hg  Hg2  1  0.251677  0.251677  0.244968  1
  Pt  Pt3  1  0.623117  0.124149  0.629616  1
  Pt  Pt4  1  0.124149  0.623117  0.629616  1
  Pt  Pt5  1  0.623117  0.623117  0.629616  1
