# generated using pymatgen
data_ReMo2Rh5
_symmetry_space_group_name_H-M   'P 1'
_cell_length_a   5.50038800
_cell_length_b   5.54372850
_cell_length_c   4.39846400
_cell_angle_alpha   90.00000000
_cell_angle_beta   90.00000000
_cell_angle_gamma   119.74172006
_symmetry_Int_Tables_number   1
_chemical_formula_structural   ReMo2Rh5
_chemical_formula_sum   'Re1 Mo2 Rh5'
_cell_volume   116.45318579
_cell_formula_units_Z   1
loop_
 _symmetry_equiv_pos_site_id
 _symmetry_equiv_pos_as_xyz
  1  'x, y, z'
loop_
 _atom_site_type_symbol
 _atom_site_label
 _atom_site_symmetry_multiplicity
 _atom_site_fract_x
 _atom_site_fract_y
 _atom_site_fract_z
 _atom_site_occupancy
  Re  Re0  1  0.166643  0.333287  0.250000  1
  Mo  Mo1  1  0.669646  0.339291  0.250000  1
  Mo  Mo2  1  0.331622  0.663246  0.750000  1
  Rh  Rh3  1  0.833102  0.166564  0.750000  1
  Rh  Rh4  1  0.333463  0.166564  0.750000  1
  Rh  Rh5  1  0.832318  0.664634  0.750000  1
  Rh  Rh6  1  0.166487  0.833207  0.250000  1
  Rh  Rh7  1  0.666719  0.833207  0.250000  1
