# generated using pymatgen
data_Lu20IrOsPt10
_symmetry_space_group_name_H-M   'P 1'
_cell_length_a   10.74216200
_cell_length_b   10.74216200
_cell_length_c   6.29960800
_cell_angle_alpha   90.00000000
_cell_angle_beta   90.00000000
_cell_angle_gamma   90.00000000
_symmetry_Int_Tables_number   1
_chemical_formula_structural   Lu20IrOsPt10
_chemical_formula_sum   'Lu20 Ir1 Os1 Pt10'
_cell_volume   726.93724547
_cell_formula_units_Z   1
loop_
 _symmetry_equiv_pos_site_id
 _symmetry_equiv_pos_as_xyz
  1  'x, y, z'
loop_
 _atom_site_type_symbol
 _atom_site_label
 _atom_site_symmetry_multiplicity
 _atom_site_fract_x
 _atom_site_fract_y
 _atom_site_fract_z
 _atom_site_occupancy
  Lu  Lu0  1  0.291976  0.088512  0.375593  1
  Lu  Lu1  1  0.292223  0.912012  0.876004  1
  Lu  Lu2  1  0.707777  0.087988  0.876004  1
  Lu  Lu3  1  0.708024  0.911488  0.375593  1
  Lu  Lu4  1  0.587988  0.792223  0.876004  1
  Lu  Lu5  1  0.588512  0.208024  0.375593  1
  Lu  Lu6  1  0.411488  0.791976  0.375593  1
  Lu  Lu7  1  0.412012  0.207777  0.876004  1
  Lu  Lu8  1  0.204057  0.413056  0.626961  1
  Lu  Lu9  1  0.203619  0.586911  0.122957  1
  Lu  Lu10  1  0.796381  0.413089  0.122957  1
  Lu  Lu11  1  0.795943  0.586944  0.626961  1
  Lu  Lu12  1  0.913089  0.703619  0.122957  1
  Lu  Lu13  1  0.913056  0.295943  0.626961  1
  Lu  Lu14  1  0.086944  0.704057  0.626961  1
  Lu  Lu15  1  0.086911  0.296381  0.122957  1
  Lu  Lu16  1  0.000000  0.000000  0.501983  1
  Lu  Lu17  1  0.000000  0.000000  0.002126  1
  Lu  Lu18  1  0.500000  0.500000  0.002126  1
  Lu  Lu19  1  0.500000  0.500000  0.501983  1
  Ir  Ir20  1  0.000000  0.500000  0.376412  1
  Os  Os21  1  0.000000  0.500000  0.875129  1
  Pt  Pt22  1  0.845195  0.152512  0.250344  1
  Pt  Pt23  1  0.844744  0.847835  0.750356  1
  Pt  Pt24  1  0.155256  0.152165  0.750356  1
  Pt  Pt25  1  0.154805  0.847488  0.250344  1
  Pt  Pt26  1  0.652165  0.344744  0.750356  1
  Pt  Pt27  1  0.652512  0.654805  0.250344  1
  Pt  Pt28  1  0.347488  0.345195  0.250344  1
  Pt  Pt29  1  0.347835  0.655256  0.750356  1
  Pt  Pt30  1  0.500000  0.000000  0.116783  1
  Pt  Pt31  1  0.500000  0.000000  0.614600  1
