# generated using pymatgen
data_Tm2Th(SnIr)3
_symmetry_space_group_name_H-M   'P 1'
_cell_length_a   7.42242416
_cell_length_b   7.49636170
_cell_length_c   4.06005100
_cell_angle_alpha   90.00000000
_cell_angle_beta   90.00000000
_cell_angle_gamma   120.33008074
_symmetry_Int_Tables_number   1
_chemical_formula_structural   Tm2Th(SnIr)3
_chemical_formula_sum   'Tm2 Th1 Sn3 Ir3'
_cell_volume   194.98638144
_cell_formula_units_Z   1
loop_
 _symmetry_equiv_pos_site_id
 _symmetry_equiv_pos_as_xyz
  1  'x, y, z'
loop_
 _atom_site_type_symbol
 _atom_site_label
 _atom_site_symmetry_multiplicity
 _atom_site_fract_x
 _atom_site_fract_y
 _atom_site_fract_z
 _atom_site_occupancy
  Tm  Tm0  1  0.595651  0.595279  0.500000  1
  Tm  Tm1  1  0.404349  0.999627  0.500000  1
  Th  Th2  1  0.000000  0.413601  0.500000  1
  Sn  Sn3  1  0.000000  0.754307  0.000000  1
  Sn  Sn4  1  0.266399  0.254999  0.000000  1
  Sn  Sn5  1  0.733601  0.988600  0.000000  1
  Ir  Ir6  1  0.323750  0.656788  0.000000  1
  Ir  Ir7  1  0.676250  0.333036  0.000000  1
  Ir  Ir8  1  0.000000  0.003763  0.500000  1
