# generated using pymatgen
data_Tb4AlOs2Ru5
_symmetry_space_group_name_H-M   'P 1'
_cell_length_a   5.31561486
_cell_length_b   5.19700252
_cell_length_c   8.95619500
_cell_angle_alpha   90.00000000
_cell_angle_beta   90.00000000
_cell_angle_gamma   117.56517246
_symmetry_Int_Tables_number   1
_chemical_formula_structural   Tb4AlOs2Ru5
_chemical_formula_sum   'Tb4 Al1 Os2 Ru5'
_cell_volume   219.33168867
_cell_formula_units_Z   1
loop_
 _symmetry_equiv_pos_site_id
 _symmetry_equiv_pos_as_xyz
  1  'x, y, z'
loop_
 _atom_site_type_symbol
 _atom_site_label
 _atom_site_symmetry_multiplicity
 _atom_site_fract_x
 _atom_site_fract_y
 _atom_site_fract_z
 _atom_site_occupancy
  Tb  Tb0  1  0.328310  0.665983  0.432455  1
  Tb  Tb1  1  0.670278  0.333789  0.563254  1
  Tb  Tb2  1  0.670278  0.333789  0.936746  1
  Tb  Tb3  1  0.328310  0.665983  0.067545  1
  Al  Al4  1  0.165461  0.836208  0.750000  1
  Os  Os5  1  0.838044  0.161278  0.250000  1
  Os  Os6  1  0.829044  0.651739  0.250000  1
  Ru  Ru7  1  0.991244  0.002322  0.499502  1
  Ru  Ru8  1  0.991244  0.002322  0.000498  1
  Ru  Ru9  1  0.352710  0.174822  0.250000  1
  Ru  Ru10  1  0.179045  0.347311  0.750000  1
  Ru  Ru11  1  0.656034  0.824453  0.750000  1
