# generated using pymatgen
data_ReTc2Ir4W
_symmetry_space_group_name_H-M   'P 1'
_cell_length_a   5.49906600
_cell_length_b   5.56093410
_cell_length_c   4.41366700
_cell_angle_alpha   90.00000000
_cell_angle_beta   90.00000000
_cell_angle_gamma   119.63264926
_symmetry_Int_Tables_number   1
_chemical_formula_structural   ReTc2Ir4W
_chemical_formula_sum   'Re1 Tc2 Ir4 W1'
_cell_volume   117.31745090
_cell_formula_units_Z   1
loop_
 _symmetry_equiv_pos_site_id
 _symmetry_equiv_pos_as_xyz
  1  'x, y, z'
loop_
 _atom_site_type_symbol
 _atom_site_label
 _atom_site_symmetry_multiplicity
 _atom_site_fract_x
 _atom_site_fract_y
 _atom_site_fract_z
 _atom_site_occupancy
  Re  Re0  1  0.167427  0.334855  0.250000  1
  Tc  Tc1  1  0.331159  0.662317  0.750000  1
  Tc  Tc2  1  0.665299  0.330598  0.250000  1
  Ir  Ir3  1  0.664292  0.834152  0.250000  1
  Ir  Ir4  1  0.169861  0.834152  0.250000  1
  Ir  Ir5  1  0.333576  0.169500  0.750000  1
  Ir  Ir6  1  0.835923  0.169500  0.750000  1
  W  W7  1  0.832463  0.664927  0.750000  1
