# generated using pymatgen
data_HfTh3In2Ir3
_symmetry_space_group_name_H-M   'P 1'
_cell_length_a   7.62075268
_cell_length_b   7.42024581
_cell_length_c   4.23920900
_cell_angle_alpha   90.00000000
_cell_angle_beta   90.00000000
_cell_angle_gamma   119.13339330
_symmetry_Int_Tables_number   1
_chemical_formula_structural   HfTh3In2Ir3
_chemical_formula_sum   'Hf1 Th3 In2 Ir3'
_cell_volume   209.39111212
_cell_formula_units_Z   1
loop_
 _symmetry_equiv_pos_site_id
 _symmetry_equiv_pos_as_xyz
  1  'x, y, z'
loop_
 _atom_site_type_symbol
 _atom_site_label
 _atom_site_symmetry_multiplicity
 _atom_site_fract_x
 _atom_site_fract_y
 _atom_site_fract_z
 _atom_site_occupancy
  Hf  Hf0  1  0.000000  0.755358  0.500000  1
  Th  Th1  1  0.584823  0.583668  0.000000  1
  Th  Th2  1  0.415177  0.998845  0.000000  1
  Th  Th3  1  0.000000  0.403905  0.000000  1
  In  In4  1  0.247049  0.246681  0.500000  1
  In  In5  1  0.752951  0.999632  0.500000  1
  Ir  Ir6  1  0.000000  0.969644  0.000000  1
  Ir  Ir7  1  0.683485  0.362876  0.500000  1
  Ir  Ir8  1  0.316515  0.679392  0.500000  1
