# generated using pymatgen
data_TbY3TmSi3
_symmetry_space_group_name_H-M   'P 1'
_cell_length_a   8.44685500
_cell_length_b   8.44685437
_cell_length_c   6.35053900
_cell_angle_alpha   90.00000000
_cell_angle_beta   90.00000000
_cell_angle_gamma   120.00000637
_symmetry_Int_Tables_number   1
_chemical_formula_structural   TbY3TmSi3
_chemical_formula_sum   'Tb2 Y6 Tm2 Si6'
_cell_volume   392.40202259
_cell_formula_units_Z   2
loop_
 _symmetry_equiv_pos_site_id
 _symmetry_equiv_pos_as_xyz
  1  'x, y, z'
loop_
 _atom_site_type_symbol
 _atom_site_label
 _atom_site_symmetry_multiplicity
 _atom_site_fract_x
 _atom_site_fract_y
 _atom_site_fract_z
 _atom_site_occupancy
  Tb  Tb0  1  0.666667  0.333333  0.500000  1
  Tb  Tb1  1  0.333333  0.666667  0.500000  1
  Y  Y2  1  0.755946  0.755946  0.248138  1
  Y  Y3  1  0.244054  0.000000  0.248138  1
  Y  Y4  1  0.000000  0.244054  0.248138  1
  Y  Y5  1  0.244054  0.244054  0.751862  1
  Y  Y6  1  0.755946  0.000000  0.751862  1
  Y  Y7  1  0.000000  0.755946  0.751862  1
  Tm  Tm8  1  0.333333  0.666667  0.000000  1
  Tm  Tm9  1  0.666667  0.333333  0.000000  1
  Si  Si10  1  0.394711  0.394711  0.244601  1
  Si  Si11  1  0.605289  0.000000  0.244601  1
  Si  Si12  1  0.000000  0.605289  0.244601  1
  Si  Si13  1  0.605289  0.605289  0.755399  1
  Si  Si14  1  0.394711  0.000000  0.755399  1
  Si  Si15  1  0.000000  0.394711  0.755399  1
