# generated using pymatgen
data_La16Dy3HoSn16
_symmetry_space_group_name_H-M   'P 1'
_cell_length_a   8.41539400
_cell_length_b   8.51415500
_cell_length_c   16.28359800
_cell_angle_alpha   90.00000000
_cell_angle_beta   90.00000000
_cell_angle_gamma   90.00362128
_symmetry_Int_Tables_number   1
_chemical_formula_structural   La16Dy3HoSn16
_chemical_formula_sum   'La16 Dy3 Ho1 Sn16'
_cell_volume   1166.71928915
_cell_formula_units_Z   1
loop_
 _symmetry_equiv_pos_site_id
 _symmetry_equiv_pos_as_xyz
  1  'x, y, z'
loop_
 _atom_site_type_symbol
 _atom_site_label
 _atom_site_symmetry_multiplicity
 _atom_site_fract_x
 _atom_site_fract_y
 _atom_site_fract_z
 _atom_site_occupancy
  La  La0  1  0.971238  0.819309  0.899976  1
  La  La1  1  0.471236  0.680686  0.600025  1
  La  La2  1  0.528772  0.319307  0.100024  1
  La  La3  1  0.028754  0.180688  0.399974  1
  La  La4  1  0.971238  0.819309  0.600024  1
  La  La5  1  0.471236  0.680686  0.899975  1
  La  La6  1  0.528772  0.319307  0.399976  1
  La  La7  1  0.028754  0.180688  0.100026  1
  La  La8  1  0.876587  0.658577  0.382080  1
  La  La9  1  0.376611  0.841439  0.117920  1
  La  La10  1  0.623403  0.158569  0.617917  1
  La  La11  1  0.123400  0.341428  0.882081  1
  La  La12  1  0.123400  0.341428  0.617919  1
  La  La13  1  0.623403  0.158569  0.882083  1
  La  La14  1  0.376611  0.841439  0.382080  1
  La  La15  1  0.876587  0.658577  0.117920  1
  Dy  Dy16  1  0.289312  0.003071  0.750000  1
  Dy  Dy17  1  0.789310  0.496931  0.750000  1
  Dy  Dy18  1  0.210689  0.503063  0.250000  1
  Ho  Ho19  1  0.710712  0.996925  0.250000  1
  Sn  Sn20  1  0.782590  0.470528  0.547329  1
  Sn  Sn21  1  0.282586  0.029470  0.952670  1
  Sn  Sn22  1  0.717409  0.970534  0.452657  1
  Sn  Sn23  1  0.217411  0.529469  0.047330  1
  Sn  Sn24  1  0.217411  0.529469  0.452670  1
  Sn  Sn25  1  0.717409  0.970534  0.047343  1
  Sn  Sn26  1  0.282586  0.029470  0.547330  1
  Sn  Sn27  1  0.782590  0.470528  0.952671  1
  Sn  Sn28  1  0.167466  0.647136  0.750000  1
  Sn  Sn29  1  0.667471  0.852873  0.750000  1
  Sn  Sn30  1  0.332530  0.147125  0.250000  1
  Sn  Sn31  1  0.832536  0.352840  0.250000  1
  Sn  Sn32  1  0.926238  0.118508  0.750000  1
  Sn  Sn33  1  0.426244  0.381490  0.750000  1
  Sn  Sn34  1  0.573754  0.618525  0.250000  1
  Sn  Sn35  1  0.073743  0.881503  0.250000  1
