# generated using pymatgen
data_Bi2Ir3Rh(PbO7)2
_symmetry_space_group_name_H-M   'P 1'
_cell_length_a   7.35184423
_cell_length_b   7.37504089
_cell_length_c   7.36560066
_cell_angle_alpha   59.95759916
_cell_angle_beta   59.84755112
_cell_angle_gamma   59.89556627
_symmetry_Int_Tables_number   1
_chemical_formula_structural   Bi2Ir3Rh(PbO7)2
_chemical_formula_sum   'Bi2 Ir3 Rh1 Pb2 O14'
_cell_volume   281.75333259
_cell_formula_units_Z   1
loop_
 _symmetry_equiv_pos_site_id
 _symmetry_equiv_pos_as_xyz
  1  'x, y, z'
loop_
 _atom_site_type_symbol
 _atom_site_label
 _atom_site_symmetry_multiplicity
 _atom_site_fract_x
 _atom_site_fract_y
 _atom_site_fract_z
 _atom_site_occupancy
  Bi  Bi0  1  0.125000  0.625000  0.125000  1
  Bi  Bi1  1  0.125000  0.125000  0.125000  1
  Ir  Ir2  1  0.125000  0.625000  0.625000  1
  Ir  Ir3  1  0.625000  0.125000  0.625000  1
  Ir  Ir4  1  0.625000  0.625000  0.625000  1
  Rh  Rh5  1  0.625000  0.625000  0.125000  1
  Pb  Pb6  1  0.625000  0.125000  0.125000  1
  Pb  Pb7  1  0.125000  0.125000  0.625000  1
  O  O8  1  0.707220  0.704286  0.297192  1
  O  O9  1  0.295853  0.296489  0.703494  1
  O  O10  1  0.704659  0.296828  0.701684  1
  O  O11  1  0.290195  0.706897  0.296012  1
  O  O12  1  0.295853  0.704163  0.703494  1
  O  O13  1  0.707220  0.291301  0.297192  1
  O  O14  1  0.542780  0.545714  0.952808  1
  O  O15  1  0.954147  0.953511  0.546506  1
  O  O16  1  0.545341  0.953172  0.548316  1
  O  O17  1  0.959805  0.543103  0.953988  1
  O  O18  1  0.954147  0.545837  0.546506  1
  O  O19  1  0.542780  0.958699  0.952808  1
  O  O20  1  0.246762  0.252697  0.247845  1
  O  O21  1  0.003238  0.997303  0.002155  1
