# generated using pymatgen
data_Tm3ZnSn3Rh2
_symmetry_space_group_name_H-M   'P 1'
_cell_length_a   7.56217800
_cell_length_b   7.56217778
_cell_length_c   3.83698300
_cell_angle_alpha   90.00000000
_cell_angle_beta   90.00000000
_cell_angle_gamma   120.00000097
_symmetry_Int_Tables_number   1
_chemical_formula_structural   Tm3ZnSn3Rh2
_chemical_formula_sum   'Tm3 Zn1 Sn3 Rh2'
_cell_volume   190.02654887
_cell_formula_units_Z   1
loop_
 _symmetry_equiv_pos_site_id
 _symmetry_equiv_pos_as_xyz
  1  'x, y, z'
loop_
 _atom_site_type_symbol
 _atom_site_label
 _atom_site_symmetry_multiplicity
 _atom_site_fract_x
 _atom_site_fract_y
 _atom_site_fract_z
 _atom_site_occupancy
  Tm  Tm0  1  0.015985  0.407827  0.000000  1
  Tm  Tm1  1  0.592173  0.608158  0.000000  1
  Tm  Tm2  1  0.391842  0.984015  0.000000  1
  Zn  Zn3  1  0.666667  0.333333  0.500000  1
  Sn  Sn4  1  0.262918  0.260349  0.500000  1
  Sn  Sn5  1  0.997431  0.737082  0.500000  1
  Sn  Sn6  1  0.739651  0.002569  0.500000  1
  Rh  Rh7  1  0.333333  0.666667  0.500000  1
  Rh  Rh8  1  0.000000  0.000000  0.000000  1
