# generated using pymatgen
data_Th2NbOs3
_symmetry_space_group_name_H-M   'P 1'
_cell_length_a   5.34038145
_cell_length_b   5.80907307
_cell_length_c   5.80907300
_cell_angle_alpha   59.99999471
_cell_angle_beta   57.05170793
_cell_angle_gamma   57.05170277
_symmetry_Int_Tables_number   1
_chemical_formula_structural   Th2NbOs3
_chemical_formula_sum   'Th2 Nb1 Os3'
_cell_volume   121.45233481
_cell_formula_units_Z   1
loop_
 _symmetry_equiv_pos_site_id
 _symmetry_equiv_pos_as_xyz
  1  'x, y, z'
loop_
 _atom_site_type_symbol
 _atom_site_label
 _atom_site_symmetry_multiplicity
 _atom_site_fract_x
 _atom_site_fract_y
 _atom_site_fract_z
 _atom_site_occupancy
  Th  Th0  1  0.745086  0.751638  0.751638  1
  Th  Th1  1  0.504914  0.498362  0.498362  1
  Nb  Nb2  1  0.625000  0.125000  0.125000  1
  Os  Os3  1  0.125000  0.125000  0.125000  1
  Os  Os4  1  0.125000  0.625000  0.125000  1
  Os  Os5  1  0.125000  0.125000  0.625000  1
