# generated using pymatgen
data_Ho9Er7(Ga3Fe)2
_symmetry_space_group_name_H-M   'P 1'
_cell_length_a   9.91607900
_cell_length_b   9.91607847
_cell_length_c   6.92935800
_cell_angle_alpha   90.00000000
_cell_angle_beta   90.00000000
_cell_angle_gamma   119.99999842
_symmetry_Int_Tables_number   1
_chemical_formula_structural   Ho9Er7(Ga3Fe)2
_chemical_formula_sum   'Ho9 Er7 Ga6 Fe2'
_cell_volume   590.07004894
_cell_formula_units_Z   1
loop_
 _symmetry_equiv_pos_site_id
 _symmetry_equiv_pos_as_xyz
  1  'x, y, z'
loop_
 _atom_site_type_symbol
 _atom_site_label
 _atom_site_symmetry_multiplicity
 _atom_site_fract_x
 _atom_site_fract_y
 _atom_site_fract_z
 _atom_site_occupancy
  Ho  Ho0  1  0.666667  0.333333  0.329499  1
  Ho  Ho1  1  0.463289  0.536711  0.207472  1
  Ho  Ho2  1  0.073422  0.536711  0.207472  1
  Ho  Ho3  1  0.463289  0.926578  0.207472  1
  Ho  Ho4  1  0.536631  0.463369  0.707844  1
  Ho  Ho5  1  0.926738  0.463369  0.707844  1
  Ho  Ho6  1  0.536631  0.073262  0.707844  1
  Ho  Ho7  1  0.000000  0.000000  0.231592  1
  Ho  Ho8  1  0.000000  0.000000  0.731258  1
  Er  Er9  1  0.173534  0.826466  0.511028  1
  Er  Er10  1  0.652930  0.826466  0.511028  1
  Er  Er11  1  0.173534  0.347070  0.511028  1
  Er  Er12  1  0.826702  0.173298  0.010869  1
  Er  Er13  1  0.346598  0.173298  0.010869  1
  Er  Er14  1  0.826702  0.653402  0.010869  1
  Er  Er15  1  0.333333  0.666667  0.828984  1
  Ga  Ga16  1  0.163791  0.836209  0.958017  1
  Ga  Ga17  1  0.672417  0.836209  0.958017  1
  Ga  Ga18  1  0.163791  0.327583  0.958017  1
  Ga  Ga19  1  0.836566  0.163434  0.457969  1
  Ga  Ga20  1  0.326869  0.163434  0.457969  1
  Ga  Ga21  1  0.836566  0.673131  0.457969  1
  Fe  Fe22  1  0.333333  0.666667  0.446241  1
  Fe  Fe23  1  0.666667  0.333333  0.946866  1
