# generated using pymatgen
data_Nd3Th(Al3Ir)6
_symmetry_space_group_name_H-M   'P 1'
_cell_length_a   7.62942401
_cell_length_b   7.63518426
_cell_length_c   9.57335400
_cell_angle_alpha   90.00000000
_cell_angle_beta   90.00000000
_cell_angle_gamma   119.39494781
_symmetry_Int_Tables_number   1
_chemical_formula_structural   Nd3Th(Al3Ir)6
_chemical_formula_sum   'Nd3 Th1 Al18 Ir6'
_cell_volume   485.87183007
_cell_formula_units_Z   1
loop_
 _symmetry_equiv_pos_site_id
 _symmetry_equiv_pos_as_xyz
  1  'x, y, z'
loop_
 _atom_site_type_symbol
 _atom_site_label
 _atom_site_symmetry_multiplicity
 _atom_site_fract_x
 _atom_site_fract_y
 _atom_site_fract_z
 _atom_site_occupancy
  Nd  Nd0  1  0.004156  0.329128  0.750000  1
  Nd  Nd1  1  0.671720  0.994237  0.250000  1
  Nd  Nd2  1  0.328858  0.004279  0.750000  1
  Th  Th3  1  0.995422  0.671465  0.250000  1
  Al  Al4  1  0.132618  0.132260  0.250000  1
  Al  Al5  1  0.869492  0.871166  0.750000  1
  Al  Al6  1  0.002799  0.332903  0.073515  1
  Al  Al7  1  0.997221  0.664342  0.922526  1
  Al  Al8  1  0.997221  0.664342  0.577474  1
  Al  Al9  1  0.338537  0.005006  0.426564  1
  Al  Al10  1  0.002799  0.332903  0.426485  1
  Al  Al11  1  0.665005  0.998676  0.573767  1
  Al  Al12  1  0.665005  0.998676  0.926233  1
  Al  Al13  1  0.338537  0.005006  0.073436  1
  Al  Al14  1  0.333215  0.333103  0.548579  1
  Al  Al15  1  0.663746  0.665637  0.455244  1
  Al  Al16  1  0.663746  0.665637  0.044756  1
  Al  Al17  1  0.333215  0.333103  0.951421  1
  Al  Al18  1  0.341896  0.547353  0.250000  1
  Al  Al19  1  0.657908  0.451688  0.750000  1
  Al  Al20  1  0.545744  0.340453  0.250000  1
  Al  Al21  1  0.451774  0.660077  0.750000  1
  Ir  Ir22  1  0.672787  0.330726  0.001458  1
  Ir  Ir23  1  0.327189  0.670944  0.001394  1
  Ir  Ir24  1  0.327189  0.670944  0.498606  1
  Ir  Ir25  1  0.672787  0.330726  0.498542  1
  Ir  Ir26  1  0.999707  0.997611  0.001924  1
  Ir  Ir27  1  0.999707  0.997611  0.498076  1
