# generated using pymatgen
data_Na14SrPb4
_symmetry_space_group_name_H-M   'P 1'
_cell_length_a   11.62433668
_cell_length_b   11.63013209
_cell_length_c   11.62302587
_cell_angle_alpha   109.42642468
_cell_angle_beta   109.53383014
_cell_angle_gamma   109.43099084
_symmetry_Int_Tables_number   1
_chemical_formula_structural   Na14SrPb4
_chemical_formula_sum   'Na28 Sr2 Pb8'
_cell_volume   1209.95679634
_cell_formula_units_Z   2
loop_
 _symmetry_equiv_pos_site_id
 _symmetry_equiv_pos_as_xyz
  1  'x, y, z'
loop_
 _atom_site_type_symbol
 _atom_site_label
 _atom_site_symmetry_multiplicity
 _atom_site_fract_x
 _atom_site_fract_y
 _atom_site_fract_z
 _atom_site_occupancy
  Na  Na0  1  0.750524  0.875238  0.124394  1
  Na  Na1  1  0.124117  0.749740  0.875546  1
  Na  Na2  1  0.374376  0.250260  0.625806  1
  Na  Na3  1  0.875286  0.124762  0.749156  1
  Na  Na4  1  0.077836  0.264866  0.105813  1
  Na  Na5  1  0.692788  0.032117  0.916792  1
  Na  Na6  1  0.881110  0.465464  0.150210  1
  Na  Na7  1  0.158823  0.894396  0.471078  1
  Na  Na8  1  0.340609  0.812495  0.734324  1
  Na  Na9  1  0.722859  0.337604  0.806621  1
  Na  Na10  1  0.031269  0.917496  0.693076  1
  Na  Na11  1  0.223643  0.306209  0.839390  1
  Na  Na12  1  0.191795  0.409362  0.536734  1
  Na  Na13  1  0.967534  0.383393  0.661349  1
  Na  Na14  1  0.308053  0.845540  0.218937  1
  Na  Na15  1  0.528114  0.187505  0.421831  1
  Na  Na16  1  0.385256  0.662396  0.969017  1
  Na  Na17  1  0.113774  0.082504  0.275581  1
  Na  Na18  1  0.264427  0.105604  0.076681  1
  Na  Na19  1  0.847048  0.218532  0.308656  1
  Na  Na20  1  0.415647  0.534536  0.184746  1
  Na  Na21  1  0.660671  0.967883  0.384674  1
  Na  Na22  1  0.628516  0.781468  0.590123  1
  Na  Na23  1  0.584140  0.616607  0.777956  1
  Na  Na24  1  0.782434  0.590638  0.627373  1
  Na  Na25  1  0.812971  0.735134  0.340947  1
  Na  Na26  1  0.917435  0.693791  0.033181  1
  Na  Na27  1  0.462513  0.154460  0.873397  1
  Sr  Sr28  1  0.624895  0.373647  0.250200  1
  Sr  Sr29  1  0.251248  0.626353  0.376552  1
  Pb  Pb30  1  0.419586  0.421659  0.415533  1
  Pb  Pb31  1  0.495477  0.992740  0.578790  1
  Pb  Pb32  1  0.582333  0.496738  0.002269  1
  Pb  Pb33  1  0.997927  0.578341  0.493874  1
  Pb  Pb34  1  0.085595  0.503262  0.005530  1
  Pb  Pb35  1  0.000917  0.085201  0.501506  1
  Pb  Pb36  1  0.502737  0.007260  0.086050  1
  Pb  Pb37  1  0.915716  0.914799  0.916305  1
