# generated using pymatgen
data_Y20IrPd3Rh8
_symmetry_space_group_name_H-M   'P 1'
_cell_length_a   11.05570360
_cell_length_b   11.05570360
_cell_length_c   6.35972012
_cell_angle_alpha   89.98450355
_cell_angle_beta   89.98450355
_cell_angle_gamma   90.26470907
_symmetry_Int_Tables_number   1
_chemical_formula_structural   Y20IrPd3Rh8
_chemical_formula_sum   'Y20 Ir1 Pd3 Rh8'
_cell_volume   777.33121905
_cell_formula_units_Z   1
loop_
 _symmetry_equiv_pos_site_id
 _symmetry_equiv_pos_as_xyz
  1  'x, y, z'
loop_
 _atom_site_type_symbol
 _atom_site_label
 _atom_site_symmetry_multiplicity
 _atom_site_fract_x
 _atom_site_fract_y
 _atom_site_fract_z
 _atom_site_occupancy
  Y  Y0  1  0.290435  0.085290  0.379814  1
  Y  Y1  1  0.291163  0.907823  0.880527  1
  Y  Y2  1  0.709341  0.085867  0.879985  1
  Y  Y3  1  0.709336  0.913529  0.379707  1
  Y  Y4  1  0.585702  0.792808  0.871113  1
  Y  Y5  1  0.591079  0.205618  0.373956  1
  Y  Y6  1  0.407057  0.791601  0.379537  1
  Y  Y7  1  0.408848  0.204259  0.872919  1
  Y  Y8  1  0.207192  0.414298  0.628887  1
  Y  Y9  1  0.208399  0.592943  0.120463  1
  Y  Y10  1  0.794382  0.408921  0.126044  1
  Y  Y11  1  0.795741  0.591152  0.627081  1
  Y  Y12  1  0.914710  0.709565  0.120186  1
  Y  Y13  1  0.914133  0.290659  0.620015  1
  Y  Y14  1  0.092177  0.708837  0.619473  1
  Y  Y15  1  0.086471  0.290664  0.120293  1
  Y  Y16  1  0.999696  0.999559  0.500876  1
  Y  Y17  1  0.000441  0.000304  0.999124  1
  Y  Y18  1  0.497419  0.501697  0.999736  1
  Y  Y19  1  0.498303  0.502581  0.500264  1
  Ir  Ir20  1  0.346875  0.653125  0.750000  1
  Pd  Pd21  1  0.654062  0.345938  0.750000  1
  Pd  Pd22  1  0.656195  0.655563  0.250182  1
  Pd  Pd23  1  0.344437  0.343805  0.249818  1
  Rh  Rh24  1  0.845017  0.154983  0.250000  1
  Rh  Rh25  1  0.844115  0.844796  0.750911  1
  Rh  Rh26  1  0.155204  0.155885  0.749089  1
  Rh  Rh27  1  0.153268  0.846732  0.250000  1
  Rh  Rh28  1  0.500484  0.000723  0.126742  1
  Rh  Rh29  1  0.500221  0.001181  0.625082  1
  Rh  Rh30  1  0.998819  0.499779  0.874918  1
  Rh  Rh31  1  0.999277  0.499516  0.373258  1
