# generated using pymatgen
data_Dy4Al15(GaIr2)3
_symmetry_space_group_name_H-M   'P 1'
_cell_length_a   7.52825813
_cell_length_b   7.52837936
_cell_length_c   9.52983500
_cell_angle_alpha   90.00000000
_cell_angle_beta   90.00000000
_cell_angle_gamma   119.49270338
_symmetry_Int_Tables_number   1
_chemical_formula_structural   Dy4Al15(GaIr2)3
_chemical_formula_sum   'Dy4 Al15 Ga3 Ir6'
_cell_volume   470.12077271
_cell_formula_units_Z   1
loop_
 _symmetry_equiv_pos_site_id
 _symmetry_equiv_pos_as_xyz
  1  'x, y, z'
loop_
 _atom_site_type_symbol
 _atom_site_label
 _atom_site_symmetry_multiplicity
 _atom_site_fract_x
 _atom_site_fract_y
 _atom_site_fract_z
 _atom_site_occupancy
  Dy  Dy0  1  0.997659  0.674635  0.250000  1
  Dy  Dy1  1  0.005752  0.326232  0.750000  1
  Dy  Dy2  1  0.670268  0.991294  0.250000  1
  Dy  Dy3  1  0.325416  0.003802  0.750000  1
  Al  Al4  1  0.001447  0.335368  0.072946  1
  Al  Al5  1  0.998352  0.664244  0.926191  1
  Al  Al6  1  0.998352  0.664244  0.573809  1
  Al  Al7  1  0.336007  0.002940  0.426792  1
  Al  Al8  1  0.001447  0.335368  0.427054  1
  Al  Al9  1  0.664425  0.999160  0.573582  1
  Al  Al10  1  0.664425  0.999160  0.926418  1
  Al  Al11  1  0.336007  0.002940  0.073208  1
  Al  Al12  1  0.334216  0.334157  0.557039  1
  Al  Al13  1  0.666074  0.665727  0.447140  1
  Al  Al14  1  0.666074  0.665727  0.052860  1
  Al  Al15  1  0.334216  0.334157  0.942961  1
  Al  Al16  1  0.662660  0.450678  0.750000  1
  Al  Al17  1  0.550002  0.339236  0.250000  1
  Al  Al18  1  0.451306  0.662639  0.750000  1
  Ga  Ga19  1  0.131569  0.132202  0.250000  1
  Ga  Ga20  1  0.865500  0.865353  0.750000  1
  Ga  Ga21  1  0.339122  0.546212  0.250000  1
  Ir  Ir22  1  0.671323  0.329159  0.000288  1
  Ir  Ir23  1  0.328409  0.672573  0.997795  1
  Ir  Ir24  1  0.328409  0.672573  0.502205  1
  Ir  Ir25  1  0.671323  0.329159  0.499712  1
  Ir  Ir26  1  0.000122  0.000531  0.999941  1
  Ir  Ir27  1  0.000122  0.000531  0.500059  1
