# generated using pymatgen
data_ErTm2ThMgRh
_symmetry_space_group_name_H-M   'P 1'
_cell_length_a   9.71781245
_cell_length_b   9.71634461
_cell_length_c   9.71634411
_cell_angle_alpha   60.00999819
_cell_angle_beta   59.99499444
_cell_angle_gamma   59.99499783
_symmetry_Int_Tables_number   1
_chemical_formula_structural   ErTm2ThMgRh
_chemical_formula_sum   'Er4 Tm8 Th4 Mg4 Rh4'
_cell_volume   648.72294786
_cell_formula_units_Z   4
loop_
 _symmetry_equiv_pos_site_id
 _symmetry_equiv_pos_as_xyz
  1  'x, y, z'
loop_
 _atom_site_type_symbol
 _atom_site_label
 _atom_site_symmetry_multiplicity
 _atom_site_fract_x
 _atom_site_fract_y
 _atom_site_fract_z
 _atom_site_occupancy
  Er  Er0  1  0.566801  0.933199  0.566801  1
  Er  Er1  1  0.933199  0.566801  0.933199  1
  Er  Er2  1  0.566801  0.566801  0.933199  1
  Er  Er3  1  0.933199  0.933199  0.566801  1
  Tm  Tm4  1  0.813532  0.186468  0.186468  1
  Tm  Tm5  1  0.186468  0.813532  0.813532  1
  Tm  Tm6  1  0.186523  0.813477  0.186523  1
  Tm  Tm7  1  0.813477  0.186523  0.813477  1
  Tm  Tm8  1  0.186523  0.186523  0.813477  1
  Tm  Tm9  1  0.813477  0.813477  0.186523  1
  Tm  Tm10  1  0.933435  0.566565  0.566565  1
  Tm  Tm11  1  0.566565  0.933435  0.933435  1
  Th  Th12  1  0.348972  0.349145  0.349145  1
  Th  Th13  1  0.349145  0.348972  0.952736  1
  Th  Th14  1  0.349145  0.952736  0.348972  1
  Th  Th15  1  0.952736  0.349145  0.349145  1
  Mg  Mg16  1  0.581071  0.580956  0.580956  1
  Mg  Mg17  1  0.580956  0.581071  0.257015  1
  Mg  Mg18  1  0.580956  0.257015  0.581071  1
  Mg  Mg19  1  0.257015  0.580956  0.580956  1
  Rh  Rh20  1  0.143484  0.143277  0.143277  1
  Rh  Rh21  1  0.143277  0.143484  0.569960  1
  Rh  Rh22  1  0.143277  0.569960  0.143484  1
  Rh  Rh23  1  0.569960  0.143277  0.143277  1
