# generated using pymatgen
data_Ho3TmZn4(IrRh)2
_symmetry_space_group_name_H-M   'P 1'
_cell_length_a   4.04473300
_cell_length_b   6.95230699
_cell_length_c   8.07423045
_cell_angle_alpha   89.81832164
_cell_angle_beta   90.00000000
_cell_angle_gamma   90.00000000
_symmetry_Int_Tables_number   1
_chemical_formula_structural   Ho3TmZn4(IrRh)2
_chemical_formula_sum   'Ho3 Tm1 Zn4 Ir2 Rh2'
_cell_volume   227.04803951
_cell_formula_units_Z   1
loop_
 _symmetry_equiv_pos_site_id
 _symmetry_equiv_pos_as_xyz
  1  'x, y, z'
loop_
 _atom_site_type_symbol
 _atom_site_label
 _atom_site_symmetry_multiplicity
 _atom_site_fract_x
 _atom_site_fract_y
 _atom_site_fract_z
 _atom_site_occupancy
  Ho  Ho0  1  0.250000  0.534878  0.182799  1
  Ho  Ho1  1  0.750000  0.465223  0.817394  1
  Ho  Ho2  1  0.750000  0.962781  0.684032  1
  Tm  Tm3  1  0.250000  0.037403  0.315579  1
  Zn  Zn4  1  0.250000  0.638235  0.565019  1
  Zn  Zn5  1  0.750000  0.361605  0.434719  1
  Zn  Zn6  1  0.750000  0.861514  0.065859  1
  Zn  Zn7  1  0.250000  0.138704  0.934664  1
  Ir  Ir8  1  0.250000  0.756956  0.876840  1
  Ir  Ir9  1  0.750000  0.242293  0.123773  1
  Rh  Rh10  1  0.750000  0.745140  0.378832  1
  Rh  Rh11  1  0.250000  0.255269  0.620489  1
