# generated using pymatgen
data_La4Mg2SnAu10
_symmetry_space_group_name_H-M   'P 1'
_cell_length_a   8.82977241
_cell_length_b   8.82977224
_cell_length_c   10.52746403
_cell_angle_alpha   90.44121318
_cell_angle_beta   89.55878697
_cell_angle_gamma   108.92712164
_symmetry_Int_Tables_number   1
_chemical_formula_structural   La4Mg2SnAu10
_chemical_formula_sum   'La8 Mg4 Sn2 Au20'
_cell_volume   776.36011014
_cell_formula_units_Z   2
loop_
 _symmetry_equiv_pos_site_id
 _symmetry_equiv_pos_as_xyz
  1  'x, y, z'
loop_
 _atom_site_type_symbol
 _atom_site_label
 _atom_site_symmetry_multiplicity
 _atom_site_fract_x
 _atom_site_fract_y
 _atom_site_fract_z
 _atom_site_occupancy
  La  La0  1  0.703954  0.302195  0.999134  1
  La  La1  1  0.296046  0.697805  0.000866  1
  La  La2  1  0.802195  0.203954  0.500866  1
  La  La3  1  0.197805  0.796046  0.499134  1
  La  La4  1  0.296959  0.302444  0.203011  1
  La  La5  1  0.703041  0.697556  0.796989  1
  La  La6  1  0.197556  0.203041  0.703011  1
  La  La7  1  0.802444  0.796959  0.296989  1
  Mg  Mg8  1  0.487758  0.987758  0.750000  1
  Mg  Mg9  1  0.512242  0.012242  0.250000  1
  Mg  Mg10  1  0.000000  0.000000  0.000000  1
  Mg  Mg11  1  0.500000  0.500000  0.500000  1
  Sn  Sn12  1  0.012050  0.512050  0.250000  1
  Sn  Sn13  1  0.987950  0.487950  0.750000  1
  Au  Au14  1  0.097033  0.095604  0.405234  1
  Au  Au15  1  0.902967  0.904396  0.594766  1
  Au  Au16  1  0.404396  0.402967  0.905234  1
  Au  Au17  1  0.595604  0.597033  0.094766  1
  Au  Au18  1  0.883514  0.160982  0.205066  1
  Au  Au19  1  0.116486  0.839018  0.794934  1
  Au  Au20  1  0.601685  0.327554  0.705152  1
  Au  Au21  1  0.660982  0.383514  0.294934  1
  Au  Au22  1  0.398315  0.672446  0.294848  1
  Au  Au23  1  0.339018  0.616486  0.705066  1
  Au  Au24  1  0.827554  0.101685  0.794848  1
  Au  Au25  1  0.172446  0.898315  0.205152  1
  Au  Au26  1  0.931262  0.668888  0.024780  1
  Au  Au27  1  0.068738  0.331112  0.975220  1
  Au  Au28  1  0.564313  0.840649  0.525040  1
  Au  Au29  1  0.168888  0.431262  0.475220  1
  Au  Au30  1  0.435687  0.159351  0.474960  1
  Au  Au31  1  0.831112  0.568738  0.524780  1
  Au  Au32  1  0.340649  0.064313  0.974960  1
  Au  Au33  1  0.659351  0.935687  0.025040  1
