# generated using pymatgen
data_Gd11DyCo6Sn
_symmetry_space_group_name_H-M   'P 1'
_cell_length_a   8.39354731
_cell_length_b   8.39354773
_cell_length_c   8.39505400
_cell_angle_alpha   109.48694544
_cell_angle_beta   109.47550618
_cell_angle_gamma   109.44394434
_symmetry_Int_Tables_number   1
_chemical_formula_structural   Gd11DyCo6Sn
_chemical_formula_sum   'Gd11 Dy1 Co6 Sn1'
_cell_volume   455.33559194
_cell_formula_units_Z   1
loop_
 _symmetry_equiv_pos_site_id
 _symmetry_equiv_pos_as_xyz
  1  'x, y, z'
loop_
 _atom_site_type_symbol
 _atom_site_label
 _atom_site_symmetry_multiplicity
 _atom_site_fract_x
 _atom_site_fract_y
 _atom_site_fract_z
 _atom_site_occupancy
  Gd  Gd0  1  0.193747  0.303508  0.497253  1
  Gd  Gd1  1  0.192809  0.696412  0.889222  1
  Gd  Gd2  1  0.805780  0.305212  0.110991  1
  Gd  Gd3  1  0.697194  0.502588  0.804938  1
  Gd  Gd4  1  0.303840  0.497385  0.194535  1
  Gd  Gd5  1  0.697150  0.890696  0.194535  1
  Gd  Gd6  1  0.302351  0.107743  0.804938  1
  Gd  Gd7  1  0.504313  0.806208  0.697325  1
  Gd  Gd8  1  0.497860  0.194731  0.303742  1
  Gd  Gd9  1  0.109009  0.805881  0.303742  1
  Gd  Gd10  1  0.891119  0.193013  0.697325  1
  Dy  Dy11  1  0.806085  0.695925  0.502011  1
  Co  Co12  1  0.885537  0.387061  0.501220  1
  Co  Co13  1  0.114159  0.615683  0.501220  1
  Co  Co14  1  0.384523  0.499228  0.883751  1
  Co  Co15  1  0.612698  0.499956  0.112654  1
  Co  Co16  1  0.501807  0.885557  0.387364  1
  Co  Co17  1  0.500670  0.113821  0.614491  1
  Sn  Sn18  1  0.999351  0.999391  0.998742  1
