# generated using pymatgen
data_TbYTh2(Ga3Ir)6
_symmetry_space_group_name_H-M   'P 1'
_cell_length_a   7.66281660
_cell_length_b   7.66334966
_cell_length_c   9.51352500
_cell_angle_alpha   90.00000000
_cell_angle_beta   90.00000000
_cell_angle_gamma   119.75332177
_symmetry_Int_Tables_number   1
_chemical_formula_structural   TbYTh2(Ga3Ir)6
_chemical_formula_sum   'Tb1 Y1 Th2 Ga18 Ir6'
_cell_volume   485.01294892
_cell_formula_units_Z   1
loop_
 _symmetry_equiv_pos_site_id
 _symmetry_equiv_pos_as_xyz
  1  'x, y, z'
loop_
 _atom_site_type_symbol
 _atom_site_label
 _atom_site_symmetry_multiplicity
 _atom_site_fract_x
 _atom_site_fract_y
 _atom_site_fract_z
 _atom_site_occupancy
  Tb  Tb0  1  0.002675  0.329644  0.750000  1
  Y  Y1  1  0.329434  0.002737  0.750000  1
  Th  Th2  1  0.996473  0.669925  0.250000  1
  Th  Th3  1  0.670147  0.996519  0.250000  1
  Ga  Ga4  1  0.134691  0.134471  0.250000  1
  Ga  Ga5  1  0.873132  0.873411  0.750000  1
  Ga  Ga6  1  0.004671  0.335104  0.073866  1
  Ga  Ga7  1  0.001894  0.665018  0.914159  1
  Ga  Ga8  1  0.001894  0.665018  0.585841  1
  Ga  Ga9  1  0.335098  0.004505  0.426266  1
  Ga  Ga10  1  0.004671  0.335104  0.426134  1
  Ga  Ga11  1  0.664699  0.001863  0.585838  1
  Ga  Ga12  1  0.664699  0.001863  0.914162  1
  Ga  Ga13  1  0.335098  0.004505  0.073734  1
  Ga  Ga14  1  0.330688  0.330624  0.569636  1
  Ga  Ga15  1  0.663097  0.663113  0.444729  1
  Ga  Ga16  1  0.663097  0.663113  0.055271  1
  Ga  Ga17  1  0.330688  0.330624  0.930364  1
  Ga  Ga18  1  0.340232  0.541627  0.250000  1
  Ga  Ga19  1  0.659651  0.450508  0.750000  1
  Ga  Ga20  1  0.541521  0.339930  0.250000  1
  Ga  Ga21  1  0.450484  0.659374  0.750000  1
  Ir  Ir22  1  0.673539  0.329505  0.001478  1
  Ir  Ir23  1  0.329401  0.673420  0.001463  1
  Ir  Ir24  1  0.329401  0.673420  0.498537  1
  Ir  Ir25  1  0.673539  0.329505  0.498522  1
  Ir  Ir26  1  0.997694  0.997779  0.001743  1
  Ir  Ir27  1  0.997694  0.997779  0.498257  1
