# generated using pymatgen
data_FeBi6(SO8)2
_symmetry_space_group_name_H-M   'P 1'
_cell_length_a   5.79243923
_cell_length_b   8.13937959
_cell_length_c   9.26655152
_cell_angle_alpha   96.24932391
_cell_angle_beta   94.14488602
_cell_angle_gamma   106.80497366
_symmetry_Int_Tables_number   1
_chemical_formula_structural   FeBi6(SO8)2
_chemical_formula_sum   'Fe1 Bi6 S2 O16'
_cell_volume   413.26760025
_cell_formula_units_Z   1
loop_
 _symmetry_equiv_pos_site_id
 _symmetry_equiv_pos_as_xyz
  1  'x, y, z'
loop_
 _atom_site_type_symbol
 _atom_site_label
 _atom_site_symmetry_multiplicity
 _atom_site_fract_x
 _atom_site_fract_y
 _atom_site_fract_z
 _atom_site_occupancy
  Fe  Fe0  1  0.000000  0.500000  0.500000  1
  Bi  Bi1  1  0.688115  0.508328  0.792149  1
  Bi  Bi2  1  0.311885  0.491672  0.207851  1
  Bi  Bi3  1  0.643934  0.830172  0.525818  1
  Bi  Bi4  1  0.356066  0.169828  0.474182  1
  Bi  Bi5  1  0.303157  0.851374  0.816419  1
  Bi  Bi6  1  0.696843  0.148626  0.183581  1
  S  S7  1  0.141683  0.225255  0.850465  1
  S  S8  1  0.858317  0.774745  0.149535  1
  O  O9  1  0.001113  0.660936  0.690557  1
  O  O10  1  0.998887  0.339064  0.309443  1
  O  O11  1  0.523777  0.696885  0.723266  1
  O  O12  1  0.476223  0.303115  0.276734  1
  O  O13  1  0.014658  0.039818  0.790570  1
  O  O14  1  0.985342  0.960182  0.209430  1
  O  O15  1  0.679381  0.368761  0.577723  1
  O  O16  1  0.320619  0.631239  0.422277  1
  O  O17  1  0.361954  0.236228  0.950559  1
  O  O18  1  0.638046  0.763772  0.049441  1
  O  O19  1  0.422492  0.974370  0.630269  1
  O  O20  1  0.577508  0.025630  0.369731  1
  O  O21  1  0.226356  0.326108  0.726710  1
  O  O22  1  0.773644  0.673892  0.273290  1
  O  O23  1  0.975926  0.302995  0.930161  1
  O  O24  1  0.024074  0.697005  0.069839  1
