# generated using pymatgen
data_Zr6Ti4Si2Sn5Sb
_symmetry_space_group_name_H-M   'P 1'
_cell_length_a   8.55997600
_cell_length_b   8.55244593
_cell_length_c   5.73626700
_cell_angle_alpha   90.00000000
_cell_angle_beta   90.00000000
_cell_angle_gamma   120.02912185
_symmetry_Int_Tables_number   1
_chemical_formula_structural   Zr6Ti4Si2Sn5Sb
_chemical_formula_sum   'Zr6 Ti4 Si2 Sn5 Sb1'
_cell_volume   363.57612348
_cell_formula_units_Z   1
loop_
 _symmetry_equiv_pos_site_id
 _symmetry_equiv_pos_as_xyz
  1  'x, y, z'
loop_
 _atom_site_type_symbol
 _atom_site_label
 _atom_site_symmetry_multiplicity
 _atom_site_fract_x
 _atom_site_fract_y
 _atom_site_fract_z
 _atom_site_occupancy
  Zr  Zr0  1  0.260346  0.000000  0.250000  1
  Zr  Zr1  1  0.258355  0.257367  0.750000  1
  Zr  Zr2  1  0.000988  0.742633  0.750000  1
  Zr  Zr3  1  0.999855  0.259355  0.250000  1
  Zr  Zr4  1  0.740501  0.740645  0.250000  1
  Zr  Zr5  1  0.740497  0.000000  0.750000  1
  Ti  Ti6  1  0.333651  0.667894  0.000824  1
  Ti  Ti7  1  0.665757  0.332106  0.499176  1
  Ti  Ti8  1  0.665757  0.332106  0.000824  1
  Ti  Ti9  1  0.333651  0.667894  0.499176  1
  Si  Si10  1  0.999439  0.000000  0.001359  1
  Si  Si11  1  0.999439  0.000000  0.498641  1
  Sn  Sn12  1  0.603802  0.000000  0.250000  1
  Sn  Sn13  1  0.601318  0.601008  0.750000  1
  Sn  Sn14  1  0.000310  0.398992  0.750000  1
  Sn  Sn15  1  0.999116  0.601207  0.250000  1
  Sn  Sn16  1  0.397909  0.398793  0.250000  1
  Sb  Sb17  1  0.399310  0.000000  0.750000  1
