# generated using pymatgen
data_Li2PrThBi4
_symmetry_space_group_name_H-M   'P 1'
_cell_length_a   4.53722800
_cell_length_b   4.53722800
_cell_length_c   10.95978900
_cell_angle_alpha   90.00000000
_cell_angle_beta   90.00000000
_cell_angle_gamma   90.00000000
_symmetry_Int_Tables_number   1
_chemical_formula_structural   Li2PrThBi4
_chemical_formula_sum   'Li2 Pr1 Th1 Bi4'
_cell_volume   225.62301591
_cell_formula_units_Z   1
loop_
 _symmetry_equiv_pos_site_id
 _symmetry_equiv_pos_as_xyz
  1  'x, y, z'
loop_
 _atom_site_type_symbol
 _atom_site_label
 _atom_site_symmetry_multiplicity
 _atom_site_fract_x
 _atom_site_fract_y
 _atom_site_fract_z
 _atom_site_occupancy
  Li  Li0  1  0.000000  0.000000  0.999440  1
  Li  Li1  1  0.500000  0.500000  0.999440  1
  Pr  Pr2  1  0.500000  0.000000  0.734586  1
  Th  Th3  1  0.000000  0.500000  0.264205  1
  Bi  Bi4  1  0.000000  0.500000  0.839589  1
  Bi  Bi5  1  0.500000  0.000000  0.170031  1
  Bi  Bi6  1  0.000000  0.000000  0.496354  1
  Bi  Bi7  1  0.500000  0.500000  0.496354  1
