# generated using pymatgen
data_Tb3Sc7(Si5Ir2)4
_symmetry_space_group_name_H-M   'P 1'
_cell_length_a   12.46256914
_cell_length_b   12.46256914
_cell_length_c   4.14720100
_cell_angle_alpha   90.00000000
_cell_angle_beta   90.00000000
_cell_angle_gamma   90.09340138
_symmetry_Int_Tables_number   1
_chemical_formula_structural   Tb3Sc7(Si5Ir2)4
_chemical_formula_sum   'Tb3 Sc7 Si20 Ir8'
_cell_volume   644.12427839
_cell_formula_units_Z   1
loop_
 _symmetry_equiv_pos_site_id
 _symmetry_equiv_pos_as_xyz
  1  'x, y, z'
loop_
 _atom_site_type_symbol
 _atom_site_label
 _atom_site_symmetry_multiplicity
 _atom_site_fract_x
 _atom_site_fract_y
 _atom_site_fract_z
 _atom_site_occupancy
  Tb  Tb0  1  0.115581  0.615536  0.500000  1
  Tb  Tb1  1  0.884464  0.384419  0.500000  1
  Tb  Tb2  1  0.615150  0.884850  0.500000  1
  Sc  Sc3  1  0.384729  0.115271  0.500000  1
  Sc  Sc4  1  0.673278  0.174268  0.500000  1
  Sc  Sc5  1  0.325732  0.826722  0.500000  1
  Sc  Sc6  1  0.175121  0.324879  0.500000  1
  Sc  Sc7  1  0.825734  0.674266  0.500000  1
  Sc  Sc8  1  0.000495  0.000062  0.000000  1
  Sc  Sc9  1  0.499938  0.499505  0.000000  1
  Si  Si10  1  0.566154  0.067908  0.000000  1
  Si  Si11  1  0.432092  0.933846  0.000000  1
  Si  Si12  1  0.068086  0.431914  0.000000  1
  Si  Si13  1  0.932246  0.567754  0.000000  1
  Si  Si14  1  0.201259  0.165009  0.000000  1
  Si  Si15  1  0.800292  0.834758  0.000000  1
  Si  Si16  1  0.165859  0.801297  0.000000  1
  Si  Si17  1  0.698703  0.334141  0.000000  1
  Si  Si18  1  0.834315  0.199736  0.000000  1
  Si  Si19  1  0.300264  0.665685  0.000000  1
  Si  Si20  1  0.665242  0.699708  0.000000  1
  Si  Si21  1  0.334991  0.298741  0.000000  1
  Si  Si22  1  0.007403  0.150543  0.500000  1
  Si  Si23  1  0.993075  0.849548  0.500000  1
  Si  Si24  1  0.152422  0.994125  0.500000  1
  Si  Si25  1  0.505875  0.347578  0.500000  1
  Si  Si26  1  0.849116  0.007736  0.500000  1
  Si  Si27  1  0.492264  0.650884  0.500000  1
  Si  Si28  1  0.650452  0.506925  0.500000  1
  Si  Si29  1  0.349457  0.492597  0.500000  1
  Ir  Ir30  1  0.021318  0.243386  0.000000  1
  Ir  Ir31  1  0.979402  0.756515  0.000000  1
  Ir  Ir32  1  0.245821  0.980785  0.000000  1
  Ir  Ir33  1  0.519215  0.254179  0.000000  1
  Ir  Ir34  1  0.755271  0.020913  0.000000  1
  Ir  Ir35  1  0.479087  0.744729  0.000000  1
  Ir  Ir36  1  0.743485  0.520598  0.000000  1
  Ir  Ir37  1  0.256614  0.478682  0.000000  1
