# generated using pymatgen
data_Nd5Y(CI5)2
_symmetry_space_group_name_H-M   'P 1'
_cell_length_a   7.88710799
_cell_length_b   9.69278530
_cell_length_c   9.77780798
_cell_angle_alpha   107.11294662
_cell_angle_beta   96.28533699
_cell_angle_gamma   104.51428028
_symmetry_Int_Tables_number   1
_chemical_formula_structural   Nd5Y(CI5)2
_chemical_formula_sum   'Nd5 Y1 C2 I10'
_cell_volume   677.90304315
_cell_formula_units_Z   1
loop_
 _symmetry_equiv_pos_site_id
 _symmetry_equiv_pos_as_xyz
  1  'x, y, z'
loop_
 _atom_site_type_symbol
 _atom_site_label
 _atom_site_symmetry_multiplicity
 _atom_site_fract_x
 _atom_site_fract_y
 _atom_site_fract_z
 _atom_site_occupancy
  Nd  Nd0  1  0.029019  0.734457  0.922473  1
  Nd  Nd1  1  0.106114  0.038857  0.775565  1
  Nd  Nd2  1  0.968789  0.265211  0.076809  1
  Nd  Nd3  1  0.890786  0.959470  0.223540  1
  Nd  Nd4  1  0.374162  0.133425  0.179097  1
  Y  Y5  1  0.631934  0.869595  0.824865  1
  C  C6  1  0.085673  0.029008  0.040110  1
  C  C7  1  0.909880  0.969926  0.959096  1
  I  I8  1  0.207934  0.737396  0.649528  1
  I  I9  1  0.909697  0.629353  0.180229  1
  I  I10  1  0.087384  0.369014  0.817830  1
  I  I11  1  0.738778  0.912891  0.544390  1
  I  I12  1  0.252596  0.083104  0.460999  1
  I  I13  1  0.648531  0.550312  0.726849  1
  I  I14  1  0.457572  0.807584  0.086588  1
  I  I15  1  0.808423  0.267243  0.358185  1
  I  I16  1  0.347147  0.458465  0.271119  1
  I  I17  1  0.545580  0.184687  0.902729  1
