# generated using pymatgen
data_Tb6Tm10Cd4TcPt3
_symmetry_space_group_name_H-M   'P 1'
_cell_length_a   9.63895148
_cell_length_b   9.63895148
_cell_length_c   9.63895207
_cell_angle_alpha   59.33984612
_cell_angle_beta   59.33984718
_cell_angle_gamma   59.33984261
_symmetry_Int_Tables_number   1
_chemical_formula_structural   Tb6Tm10Cd4TcPt3
_chemical_formula_sum   'Tb6 Tm10 Cd4 Tc1 Pt3'
_cell_volume   623.73226520
_cell_formula_units_Z   1
loop_
 _symmetry_equiv_pos_site_id
 _symmetry_equiv_pos_as_xyz
  1  'x, y, z'
loop_
 _atom_site_type_symbol
 _atom_site_label
 _atom_site_symmetry_multiplicity
 _atom_site_fract_x
 _atom_site_fract_y
 _atom_site_fract_z
 _atom_site_occupancy
  Tb  Tb0  1  0.936609  0.563925  0.563925  1
  Tb  Tb1  1  0.555472  0.939131  0.939131  1
  Tb  Tb2  1  0.563925  0.936609  0.563925  1
  Tb  Tb3  1  0.939131  0.555472  0.939131  1
  Tb  Tb4  1  0.563925  0.563925  0.936609  1
  Tb  Tb5  1  0.939131  0.939131  0.555472  1
  Tm  Tm6  1  0.351281  0.351281  0.351281  1
  Tm  Tm7  1  0.350781  0.350781  0.949021  1
  Tm  Tm8  1  0.350781  0.949021  0.350781  1
  Tm  Tm9  1  0.949021  0.350781  0.350781  1
  Tm  Tm10  1  0.816039  0.187063  0.187063  1
  Tm  Tm11  1  0.187428  0.810668  0.810668  1
  Tm  Tm12  1  0.187063  0.816039  0.187063  1
  Tm  Tm13  1  0.810668  0.187428  0.810668  1
  Tm  Tm14  1  0.187063  0.187063  0.816039  1
  Tm  Tm15  1  0.810668  0.810668  0.187428  1
  Cd  Cd16  1  0.579522  0.579522  0.579522  1
  Cd  Cd17  1  0.580333  0.580333  0.255650  1
  Cd  Cd18  1  0.580333  0.255650  0.580333  1
  Cd  Cd19  1  0.255650  0.580333  0.580333  1
  Tc  Tc20  1  0.144254  0.144254  0.144254  1
  Pt  Pt21  1  0.144010  0.144010  0.572905  1
  Pt  Pt22  1  0.144010  0.572905  0.144010  1
  Pt  Pt23  1  0.572905  0.144010  0.144010  1
