# generated using pymatgen
data_Dy3HfAs6Ru7
_symmetry_space_group_name_H-M   'P 1'
_cell_length_a   7.18437401
_cell_length_b   7.18437350
_cell_length_c   7.18437413
_cell_angle_alpha   109.33327377
_cell_angle_beta   109.33328121
_cell_angle_gamma   109.33326875
_symmetry_Int_Tables_number   1
_chemical_formula_structural   Dy3HfAs6Ru7
_chemical_formula_sum   'Dy3 Hf1 As6 Ru7'
_cell_volume   286.90842488
_cell_formula_units_Z   1
loop_
 _symmetry_equiv_pos_site_id
 _symmetry_equiv_pos_as_xyz
  1  'x, y, z'
loop_
 _atom_site_type_symbol
 _atom_site_label
 _atom_site_symmetry_multiplicity
 _atom_site_fract_x
 _atom_site_fract_y
 _atom_site_fract_z
 _atom_site_occupancy
  Dy  Dy0  1  0.000000  0.000000  0.500000  1
  Dy  Dy1  1  0.500000  0.000000  0.000000  1
  Dy  Dy2  1  0.000000  0.500000  0.000000  1
  Hf  Hf3  1  0.500000  0.500000  0.500000  1
  As  As4  1  0.316807  0.004633  0.316807  1
  As  As5  1  0.004633  0.316807  0.316807  1
  As  As6  1  0.995367  0.683193  0.683193  1
  As  As7  1  0.316807  0.316807  0.004633  1
  As  As8  1  0.683193  0.683193  0.995367  1
  As  As9  1  0.683193  0.995367  0.683193  1
  Ru  Ru10  1  0.743140  0.500000  0.256860  1
  Ru  Ru11  1  0.500000  0.743140  0.256860  1
  Ru  Ru12  1  0.500000  0.256860  0.743140  1
  Ru  Ru13  1  0.743140  0.256860  0.500000  1
  Ru  Ru14  1  0.256860  0.743140  0.500000  1
  Ru  Ru15  1  0.256860  0.500000  0.743140  1
  Ru  Ru16  1  0.000000  0.000000  0.000000  1
