# generated using pymatgen
data_Y3Lu7Hg3Os
_symmetry_space_group_name_H-M   'P 1'
_cell_length_a   9.46145000
_cell_length_b   9.46145082
_cell_length_c   9.57908600
_cell_angle_alpha   90.00000000
_cell_angle_beta   90.00000000
_cell_angle_gamma   119.99999714
_symmetry_Int_Tables_number   1
_chemical_formula_structural   Y3Lu7Hg3Os
_chemical_formula_sum   'Y6 Lu14 Hg6 Os2'
_cell_volume   742.62600188
_cell_formula_units_Z   2
loop_
 _symmetry_equiv_pos_site_id
 _symmetry_equiv_pos_as_xyz
  1  'x, y, z'
loop_
 _atom_site_type_symbol
 _atom_site_label
 _atom_site_symmetry_multiplicity
 _atom_site_fract_x
 _atom_site_fract_y
 _atom_site_fract_z
 _atom_site_occupancy
  Y  Y0  1  0.539173  0.460827  0.250000  1
  Y  Y1  1  0.539173  0.078345  0.250000  1
  Y  Y2  1  0.921655  0.460827  0.250000  1
  Y  Y3  1  0.460827  0.539173  0.750000  1
  Y  Y4  1  0.460827  0.921655  0.750000  1
  Y  Y5  1  0.078345  0.539173  0.750000  1
  Lu  Lu6  1  0.000000  0.000000  0.500000  1
  Lu  Lu7  1  0.000000  0.000000  0.000000  1
  Lu  Lu8  1  0.209371  0.790629  0.440373  1
  Lu  Lu9  1  0.209371  0.418743  0.440373  1
  Lu  Lu10  1  0.581257  0.790629  0.440373  1
  Lu  Lu11  1  0.790629  0.209371  0.559627  1
  Lu  Lu12  1  0.790629  0.581257  0.559627  1
  Lu  Lu13  1  0.418743  0.209371  0.559627  1
  Lu  Lu14  1  0.790629  0.209371  0.940373  1
  Lu  Lu15  1  0.790629  0.581257  0.940373  1
  Lu  Lu16  1  0.418743  0.209371  0.940373  1
  Lu  Lu17  1  0.209371  0.790629  0.059627  1
  Lu  Lu18  1  0.209371  0.418743  0.059627  1
  Lu  Lu19  1  0.581257  0.790629  0.059627  1
  Hg  Hg20  1  0.883009  0.116991  0.250000  1
  Hg  Hg21  1  0.883009  0.766017  0.250000  1
  Hg  Hg22  1  0.233983  0.116991  0.250000  1
  Hg  Hg23  1  0.116991  0.883009  0.750000  1
  Hg  Hg24  1  0.116991  0.233983  0.750000  1
  Hg  Hg25  1  0.766017  0.883009  0.750000  1
  Os  Os26  1  0.333333  0.666667  0.250000  1
  Os  Os27  1  0.666667  0.333333  0.750000  1
