# generated using pymatgen
data_Th2Sc3Tl2(InRh)2
_symmetry_space_group_name_H-M   'P 1'
_cell_length_a   3.72882600
_cell_length_b   7.87862600
_cell_length_c   17.65024900
_cell_angle_alpha   90.00000000
_cell_angle_beta   90.00000000
_cell_angle_gamma   90.00000000
_symmetry_Int_Tables_number   1
_chemical_formula_structural   Th2Sc3Tl2(InRh)2
_chemical_formula_sum   'Th4 Sc6 Tl4 In4 Rh4'
_cell_volume   518.52946473
_cell_formula_units_Z   2
loop_
 _symmetry_equiv_pos_site_id
 _symmetry_equiv_pos_as_xyz
  1  'x, y, z'
loop_
 _atom_site_type_symbol
 _atom_site_label
 _atom_site_symmetry_multiplicity
 _atom_site_fract_x
 _atom_site_fract_y
 _atom_site_fract_z
 _atom_site_occupancy
  Th  Th0  1  0.000000  0.763893  0.783124  1
  Th  Th1  1  0.000000  0.236107  0.216876  1
  Th  Th2  1  0.000000  0.263893  0.716876  1
  Th  Th3  1  0.000000  0.736107  0.283124  1
  Sc  Sc4  1  0.000000  0.000000  0.000000  1
  Sc  Sc5  1  0.000000  0.500000  0.500000  1
  Sc  Sc6  1  0.000000  0.895269  0.586848  1
  Sc  Sc7  1  0.000000  0.104731  0.413152  1
  Sc  Sc8  1  0.000000  0.395269  0.913152  1
  Sc  Sc9  1  0.000000  0.604731  0.086848  1
  Tl  Tl10  1  0.500000  0.795904  0.446803  1
  Tl  Tl11  1  0.500000  0.204096  0.553197  1
  Tl  Tl12  1  0.500000  0.295904  0.053197  1
  Tl  Tl13  1  0.500000  0.704096  0.946803  1
  In  In14  1  0.500000  0.902805  0.140520  1
  In  In15  1  0.500000  0.097195  0.859480  1
  In  In16  1  0.500000  0.402805  0.359480  1
  In  In17  1  0.500000  0.597195  0.640520  1
  Rh  Rh18  1  0.500000  0.975964  0.697108  1
  Rh  Rh19  1  0.500000  0.024036  0.302892  1
  Rh  Rh20  1  0.500000  0.475964  0.802892  1
  Rh  Rh21  1  0.500000  0.524036  0.197108  1
