# generated using pymatgen
data_MnCdCl6
_symmetry_space_group_name_H-M   'P 1'
_cell_length_a   6.44748200
_cell_length_b   6.44748182
_cell_length_c   12.73923300
_cell_angle_alpha   90.00000000
_cell_angle_beta   90.00000000
_cell_angle_gamma   120.00000090
_symmetry_Int_Tables_number   1
_chemical_formula_structural   MnCdCl6
_chemical_formula_sum   'Mn2 Cd2 Cl12'
_cell_volume   458.62124987
_cell_formula_units_Z   2
loop_
 _symmetry_equiv_pos_site_id
 _symmetry_equiv_pos_as_xyz
  1  'x, y, z'
loop_
 _atom_site_type_symbol
 _atom_site_label
 _atom_site_symmetry_multiplicity
 _atom_site_fract_x
 _atom_site_fract_y
 _atom_site_fract_z
 _atom_site_occupancy
  Mn  Mn0  1  0.333333  0.666667  0.250000  1
  Mn  Mn1  1  0.666667  0.333333  0.750000  1
  Cd  Cd2  1  0.000000  0.000000  0.250000  1
  Cd  Cd3  1  0.000000  0.000000  0.750000  1
  Cl  Cl4  1  0.623153  0.952203  0.144243  1
  Cl  Cl5  1  0.047797  0.670951  0.144243  1
  Cl  Cl6  1  0.329049  0.376847  0.144243  1
  Cl  Cl7  1  0.047797  0.376847  0.355757  1
  Cl  Cl8  1  0.376847  0.329049  0.644243  1
  Cl  Cl9  1  0.670951  0.047797  0.644243  1
  Cl  Cl10  1  0.952203  0.623153  0.644243  1
  Cl  Cl11  1  0.670951  0.623153  0.855757  1
  Cl  Cl12  1  0.952203  0.329049  0.855757  1
  Cl  Cl13  1  0.376847  0.047797  0.855757  1
  Cl  Cl14  1  0.623153  0.670951  0.355757  1
  Cl  Cl15  1  0.329049  0.952203  0.355757  1
