# generated using pymatgen
data_DyY3Er2(RuI3)2
_symmetry_space_group_name_H-M   'P 1'
_cell_length_a   4.23148900
_cell_length_b   8.87552137
_cell_length_c   12.29871119
_cell_angle_alpha   86.14775274
_cell_angle_beta   90.00000000
_cell_angle_gamma   90.00000000
_symmetry_Int_Tables_number   1
_chemical_formula_structural   DyY3Er2(RuI3)2
_chemical_formula_sum   'Dy1 Y3 Er2 Ru2 I6'
_cell_volume   460.85504520
_cell_formula_units_Z   1
loop_
 _symmetry_equiv_pos_site_id
 _symmetry_equiv_pos_as_xyz
  1  'x, y, z'
loop_
 _atom_site_type_symbol
 _atom_site_label
 _atom_site_symmetry_multiplicity
 _atom_site_fract_x
 _atom_site_fract_y
 _atom_site_fract_z
 _atom_site_occupancy
  Dy  Dy0  1  0.750000  0.098057  0.685120  1
  Y  Y1  1  0.250000  0.901928  0.315879  1
  Y  Y2  1  0.250000  0.261751  0.897491  1
  Y  Y3  1  0.750000  0.738100  0.102363  1
  Er  Er4  1  0.750000  0.128946  0.124824  1
  Er  Er5  1  0.250000  0.871008  0.874965  1
  Ru  Ru6  1  0.750000  0.052032  0.907537  1
  Ru  Ru7  1  0.250000  0.948335  0.091654  1
  I  I8  1  0.250000  0.353096  0.636416  1
  I  I9  1  0.750000  0.647039  0.363616  1
  I  I10  1  0.750000  0.143041  0.392157  1
  I  I11  1  0.250000  0.856739  0.607756  1
  I  I12  1  0.250000  0.425864  0.133421  1
  I  I13  1  0.750000  0.574062  0.866801  1
