# generated using pymatgen
data_SrTb2Tm(Pt2O7)2
_symmetry_space_group_name_H-M   'P 1'
_cell_length_a   7.33435585
_cell_length_b   7.30921719
_cell_length_c   7.30921764
_cell_angle_alpha   60.07378798
_cell_angle_beta   60.07782493
_cell_angle_gamma   60.07782667
_symmetry_Int_Tables_number   1
_chemical_formula_structural   SrTb2Tm(Pt2O7)2
_chemical_formula_sum   'Sr1 Tb2 Tm1 Pt4 O14'
_cell_volume   277.54971488
_cell_formula_units_Z   1
loop_
 _symmetry_equiv_pos_site_id
 _symmetry_equiv_pos_as_xyz
  1  'x, y, z'
loop_
 _atom_site_type_symbol
 _atom_site_label
 _atom_site_symmetry_multiplicity
 _atom_site_fract_x
 _atom_site_fract_y
 _atom_site_fract_z
 _atom_site_occupancy
  Sr  Sr0  1  0.125000  0.625000  0.625000  1
  Tb  Tb1  1  0.625000  0.625000  0.125000  1
  Tb  Tb2  1  0.625000  0.125000  0.625000  1
  Tm  Tm3  1  0.625000  0.625000  0.625000  1
  Pt  Pt4  1  0.125000  0.125000  0.125000  1
  Pt  Pt5  1  0.625000  0.125000  0.125000  1
  Pt  Pt6  1  0.125000  0.625000  0.125000  1
  Pt  Pt7  1  0.125000  0.125000  0.625000  1
  O  O8  1  0.024713  0.459128  0.459128  1
  O  O9  1  0.785867  0.787638  0.215646  1
  O  O10  1  0.786135  0.212781  0.212781  1
  O  O11  1  0.464133  0.034354  0.462362  1
  O  O12  1  0.028079  0.055169  0.458601  1
  O  O13  1  0.028079  0.458601  0.055169  1
  O  O14  1  0.728037  0.754466  0.754466  1
  O  O15  1  0.521963  0.495534  0.495534  1
  O  O16  1  0.785867  0.215646  0.787638  1
  O  O17  1  0.221921  0.791399  0.194831  1
  O  O18  1  0.221921  0.194831  0.791399  1
  O  O19  1  0.463865  0.037219  0.037219  1
  O  O20  1  0.464133  0.462362  0.034354  1
  O  O21  1  0.225287  0.790872  0.790872  1
