# generated using pymatgen
data_Pr6Nd3Hg4
_symmetry_space_group_name_H-M   'P 1'
_cell_length_a   9.19601417
_cell_length_b   9.19601356
_cell_length_c   9.20939399
_cell_angle_alpha   95.26615069
_cell_angle_beta   94.51551912
_cell_angle_gamma   146.02080052
_symmetry_Int_Tables_number   1
_chemical_formula_structural   Pr6Nd3Hg4
_chemical_formula_sum   'Pr6 Nd3 Hg4'
_cell_volume   416.31905823
_cell_formula_units_Z   1
loop_
 _symmetry_equiv_pos_site_id
 _symmetry_equiv_pos_as_xyz
  1  'x, y, z'
loop_
 _atom_site_type_symbol
 _atom_site_label
 _atom_site_symmetry_multiplicity
 _atom_site_fract_x
 _atom_site_fract_y
 _atom_site_fract_z
 _atom_site_occupancy
  Pr  Pr0  1  0.112410  0.594470  0.706879  1
  Pr  Pr1  1  0.887590  0.405530  0.293121  1
  Pr  Pr2  1  0.882684  0.816877  0.699561  1
  Pr  Pr3  1  0.117316  0.183123  0.300439  1
  Pr  Pr4  1  0.185473  0.879977  0.065450  1
  Pr  Pr5  1  0.814527  0.120023  0.934550  1
  Nd  Nd6  1  0.500000  0.500000  0.000000  1
  Nd  Nd7  1  0.597109  0.886608  0.483718  1
  Nd  Nd8  1  0.402891  0.113392  0.516282  1
  Hg  Hg9  1  0.733887  0.602531  0.336418  1
  Hg  Hg10  1  0.266113  0.397469  0.663582  1
  Hg  Hg11  1  0.400401  0.734874  0.135274  1
  Hg  Hg12  1  0.599599  0.265126  0.864726  1
