# generated using pymatgen
data_Ho2(ErPt3)3
_symmetry_space_group_name_H-M   'P 1'
_cell_length_a   9.74021731
_cell_length_b   9.74021731
_cell_length_c   5.75739700
_cell_angle_alpha   90.00000000
_cell_angle_beta   90.00000000
_cell_angle_gamma   90.11960082
_symmetry_Int_Tables_number   1
_chemical_formula_structural   Ho2(ErPt3)3
_chemical_formula_sum   'Ho4 Er6 Pt18'
_cell_volume   546.21361755
_cell_formula_units_Z   2
loop_
 _symmetry_equiv_pos_site_id
 _symmetry_equiv_pos_as_xyz
  1  'x, y, z'
loop_
 _atom_site_type_symbol
 _atom_site_label
 _atom_site_symmetry_multiplicity
 _atom_site_fract_x
 _atom_site_fract_y
 _atom_site_fract_z
 _atom_site_occupancy
  Ho  Ho0  1  0.452536  0.809060  0.000000  1
  Ho  Ho1  1  0.547464  0.190940  0.000000  1
  Ho  Ho2  1  0.190940  0.547464  0.000000  1
  Ho  Ho3  1  0.809060  0.452536  0.000000  1
  Er  Er4  1  0.500000  0.500000  0.500000  1
  Er  Er5  1  0.308913  0.047582  0.500000  1
  Er  Er6  1  0.691087  0.952418  0.500000  1
  Er  Er7  1  0.952418  0.691087  0.500000  1
  Er  Er8  1  0.047582  0.308913  0.500000  1
  Er  Er9  1  0.000000  0.000000  0.000000  1
  Pt  Pt10  1  0.191520  0.808480  0.250946  1
  Pt  Pt11  1  0.808480  0.191520  0.749054  1
  Pt  Pt12  1  0.808480  0.191520  0.250946  1
  Pt  Pt13  1  0.191520  0.808480  0.749054  1
  Pt  Pt14  1  0.441003  0.782043  0.500000  1
  Pt  Pt15  1  0.558997  0.217957  0.500000  1
  Pt  Pt16  1  0.217957  0.558997  0.500000  1
  Pt  Pt17  1  0.782043  0.441003  0.500000  1
  Pt  Pt18  1  0.308066  0.308066  0.249736  1
  Pt  Pt19  1  0.691934  0.691934  0.750264  1
  Pt  Pt20  1  0.691934  0.691934  0.249736  1
  Pt  Pt21  1  0.308066  0.308066  0.750264  1
  Pt  Pt22  1  0.281604  0.059018  0.000000  1
  Pt  Pt23  1  0.718396  0.940982  0.000000  1
  Pt  Pt24  1  0.940982  0.718396  0.000000  1
  Pt  Pt25  1  0.059018  0.281604  0.000000  1
  Pt  Pt26  1  0.000000  0.000000  0.500000  1
  Pt  Pt27  1  0.500000  0.500000  0.000000  1
