# generated using pymatgen
data_ErTm(MnOs)2
_symmetry_space_group_name_H-M   'P 1'
_cell_length_a   5.28482655
_cell_length_b   5.27895560
_cell_length_c   5.27895618
_cell_angle_alpha   58.96724365
_cell_angle_beta   59.96320874
_cell_angle_gamma   59.96320499
_symmetry_Int_Tables_number   1
_chemical_formula_structural   ErTm(MnOs)2
_chemical_formula_sum   'Er1 Tm1 Mn2 Os2'
_cell_volume   103.24500227
_cell_formula_units_Z   1
loop_
 _symmetry_equiv_pos_site_id
 _symmetry_equiv_pos_as_xyz
  1  'x, y, z'
loop_
 _atom_site_type_symbol
 _atom_site_label
 _atom_site_symmetry_multiplicity
 _atom_site_fract_x
 _atom_site_fract_y
 _atom_site_fract_z
 _atom_site_occupancy
  Er  Er0  1  0.997875  0.002125  0.002125  1
  Tm  Tm1  1  0.251899  0.248101  0.248101  1
  Mn  Mn2  1  0.124893  0.624984  0.624984  1
  Mn  Mn3  1  0.625136  0.624984  0.624984  1
  Os  Os4  1  0.625098  0.624927  0.124877  1
  Os  Os5  1  0.625098  0.124877  0.624927  1
