# generated using pymatgen
data_Tb2Ga4CuRh
_symmetry_space_group_name_H-M   'P 1'
_cell_length_a   4.29854598
_cell_length_b   6.68774800
_cell_length_c   5.51920890
_cell_angle_alpha   90.00000000
_cell_angle_beta   113.12239113
_cell_angle_gamma   90.00000000
_symmetry_Int_Tables_number   1
_chemical_formula_structural   Tb2Ga4CuRh
_chemical_formula_sum   'Tb2 Ga4 Cu1 Rh1'
_cell_volume   145.91818952
_cell_formula_units_Z   1
loop_
 _symmetry_equiv_pos_site_id
 _symmetry_equiv_pos_as_xyz
  1  'x, y, z'
loop_
 _atom_site_type_symbol
 _atom_site_label
 _atom_site_symmetry_multiplicity
 _atom_site_fract_x
 _atom_site_fract_y
 _atom_site_fract_z
 _atom_site_occupancy
  Tb  Tb0  1  0.081042  0.250000  0.161575  1
  Tb  Tb1  1  0.919395  0.750001  0.836527  1
  Ga  Ga2  1  0.632720  0.556906  0.267051  1
  Ga  Ga3  1  0.632720  0.943094  0.267051  1
  Ga  Ga4  1  0.366048  0.051017  0.731041  1
  Ga  Ga5  1  0.366048  0.448983  0.731041  1
  Cu  Cu6  1  0.205294  0.750001  0.412946  1
  Rh  Rh7  1  0.796732  0.250000  0.592768  1
