# generated using pymatgen
data_Y2Zn(Co2B)3
_symmetry_space_group_name_H-M   'P 1'
_cell_length_a   5.09388205
_cell_length_b   5.09807926
_cell_length_c   12.64564800
_cell_angle_alpha   90.00000000
_cell_angle_beta   89.99997750
_cell_angle_gamma   119.95044194
_symmetry_Int_Tables_number   1
_chemical_formula_structural   Y2Zn(Co2B)3
_chemical_formula_sum   'Y4 Zn2 Co12 B6'
_cell_volume   284.54034211
_cell_formula_units_Z   2
loop_
 _symmetry_equiv_pos_site_id
 _symmetry_equiv_pos_as_xyz
  1  'x, y, z'
loop_
 _atom_site_type_symbol
 _atom_site_label
 _atom_site_symmetry_multiplicity
 _atom_site_fract_x
 _atom_site_fract_y
 _atom_site_fract_z
 _atom_site_occupancy
  Y  Y0  1  0.000000  0.000000  0.260734  1
  Y  Y1  1  0.000000  0.000000  0.500087  1
  Y  Y2  1  0.000000  0.000000  0.999943  1
  Y  Y3  1  0.000000  0.000000  0.739309  1
  Zn  Zn4  1  0.333354  0.666687  0.999943  1
  Zn  Zn5  1  0.666646  0.333313  0.999943  1
  Co  Co6  1  0.500000  0.000001  0.613718  1
  Co  Co7  1  0.500000  0.000000  0.838180  1
  Co  Co8  1  0.500000  0.500000  0.838216  1
  Co  Co9  1  0.500000  0.500000  0.386337  1
  Co  Co10  1  0.000000  0.500000  0.613688  1
  Co  Co11  1  0.000000  0.500000  0.161773  1
  Co  Co12  1  0.000000  0.500000  0.838197  1
  Co  Co13  1  0.500000  0.500000  0.161758  1
  Co  Co14  1  0.500000  0.000000  0.386350  1
  Co  Co15  1  0.500000  0.000000  0.161745  1
  Co  Co16  1  0.500000  0.500000  0.613709  1
  Co  Co17  1  0.000000  0.500000  0.386348  1
  B  B18  1  0.666785  0.333537  0.730317  1
  B  B19  1  0.333215  0.666463  0.730317  1
  B  B20  1  0.333371  0.666543  0.269645  1
  B  B21  1  0.666651  0.333406  0.500049  1
  B  B22  1  0.666628  0.333457  0.269645  1
  B  B23  1  0.333349  0.666593  0.500049  1
