# generated using pymatgen
data_Tb3Ho7(IrRu)2
_symmetry_space_group_name_H-M   'P 1'
_cell_length_a   6.39785745
_cell_length_b   7.27681718
_cell_length_c   8.48070169
_cell_angle_alpha   96.82816242
_cell_angle_beta   112.10162467
_cell_angle_gamma   89.99658449
_symmetry_Int_Tables_number   1
_chemical_formula_structural   Tb3Ho7(IrRu)2
_chemical_formula_sum   'Tb3 Ho7 Ir2 Ru2'
_cell_volume   362.79194217
_cell_formula_units_Z   1
loop_
 _symmetry_equiv_pos_site_id
 _symmetry_equiv_pos_as_xyz
  1  'x, y, z'
loop_
 _atom_site_type_symbol
 _atom_site_label
 _atom_site_symmetry_multiplicity
 _atom_site_fract_x
 _atom_site_fract_y
 _atom_site_fract_z
 _atom_site_occupancy
  Tb  Tb0  1  0.978831  0.917817  0.186833  1
  Tb  Tb1  1  0.792194  0.582132  0.813593  1
  Tb  Tb2  1  0.024479  0.084906  0.814461  1
  Ho  Ho3  1  0.209610  0.415040  0.185641  1
  Ho  Ho4  1  0.642561  0.816257  0.435141  1
  Ho  Ho5  1  0.207160  0.683693  0.564433  1
  Ho  Ho6  1  0.355708  0.185936  0.563235  1
  Ho  Ho7  1  0.792103  0.314289  0.436466  1
  Ho  Ho8  1  0.422949  0.749776  0.999994  1
  Ho  Ho9  1  0.576063  0.250106  0.000118  1
  Ir  Ir10  1  0.823709  0.575895  0.221901  1
  Ir  Ir11  1  0.600966  0.923502  0.778336  1
  Ru  Ru12  1  0.176588  0.425177  0.779122  1
  Ru  Ru13  1  0.397077  0.075475  0.220725  1
