# generated using pymatgen
data_Ho16MgIn3Pd4
_symmetry_space_group_name_H-M   'P 1'
_cell_length_a   9.70059093
_cell_length_b   9.70059060
_cell_length_c   9.70059198
_cell_angle_alpha   59.89459045
_cell_angle_beta   59.89459762
_cell_angle_gamma   59.89458948
_symmetry_Int_Tables_number   1
_chemical_formula_structural   Ho16MgIn3Pd4
_chemical_formula_sum   'Ho16 Mg1 In3 Pd4'
_cell_volume   643.93165934
_cell_formula_units_Z   1
loop_
 _symmetry_equiv_pos_site_id
 _symmetry_equiv_pos_as_xyz
  1  'x, y, z'
loop_
 _atom_site_type_symbol
 _atom_site_label
 _atom_site_symmetry_multiplicity
 _atom_site_fract_x
 _atom_site_fract_y
 _atom_site_fract_z
 _atom_site_occupancy
  Ho  Ho0  1  0.351136  0.351136  0.351136  1
  Ho  Ho1  1  0.352544  0.352544  0.942025  1
  Ho  Ho2  1  0.352544  0.942025  0.352544  1
  Ho  Ho3  1  0.942025  0.352544  0.352544  1
  Ho  Ho4  1  0.810632  0.190504  0.190504  1
  Ho  Ho5  1  0.189672  0.811948  0.811948  1
  Ho  Ho6  1  0.190504  0.810632  0.190504  1
  Ho  Ho7  1  0.811948  0.189672  0.811948  1
  Ho  Ho8  1  0.190504  0.190504  0.810632  1
  Ho  Ho9  1  0.811948  0.811948  0.189672  1
  Ho  Ho10  1  0.933685  0.566263  0.566263  1
  Ho  Ho11  1  0.564156  0.936214  0.936214  1
  Ho  Ho12  1  0.566263  0.933685  0.566263  1
  Ho  Ho13  1  0.936214  0.564156  0.936214  1
  Ho  Ho14  1  0.566263  0.566263  0.933685  1
  Ho  Ho15  1  0.936214  0.936214  0.564156  1
  Mg  Mg16  1  0.577964  0.577964  0.577964  1
  In  In17  1  0.582342  0.582342  0.251340  1
  In  In18  1  0.582342  0.251340  0.582342  1
  In  In19  1  0.251340  0.582342  0.582342  1
  Pd  Pd20  1  0.145067  0.145067  0.145067  1
  Pd  Pd21  1  0.142894  0.142894  0.568904  1
  Pd  Pd22  1  0.142894  0.568904  0.142894  1
  Pd  Pd23  1  0.568904  0.142894  0.142894  1
