# generated using pymatgen
data_LaNd15MgHg3Ir4
_symmetry_space_group_name_H-M   'P 1'
_cell_length_a   9.91829000
_cell_length_b   9.93075849
_cell_length_c   9.91793375
_cell_angle_alpha   60.54917707
_cell_angle_beta   60.52338043
_cell_angle_gamma   60.54750940
_symmetry_Int_Tables_number   1
_chemical_formula_structural   LaNd15MgHg3Ir4
_chemical_formula_sum   'La1 Nd15 Mg1 Hg3 Ir4'
_cell_volume   699.18522678
_cell_formula_units_Z   1
loop_
 _symmetry_equiv_pos_site_id
 _symmetry_equiv_pos_as_xyz
  1  'x, y, z'
loop_
 _atom_site_type_symbol
 _atom_site_label
 _atom_site_symmetry_multiplicity
 _atom_site_fract_x
 _atom_site_fract_y
 _atom_site_fract_z
 _atom_site_occupancy
  La  La0  1  0.652306  0.041714  0.652309  1
  Nd  Nd1  1  0.808366  0.191261  0.808355  1
  Nd  Nd2  1  0.190870  0.808463  0.808364  1
  Nd  Nd3  1  0.060801  0.438585  0.438275  1
  Nd  Nd4  1  0.060707  0.060354  0.439762  1
  Nd  Nd5  1  0.437756  0.061565  0.437738  1
  Nd  Nd6  1  0.812011  0.189672  0.188667  1
  Nd  Nd7  1  0.439783  0.060361  0.060690  1
  Nd  Nd8  1  0.189162  0.812037  0.189149  1
  Nd  Nd9  1  0.438268  0.438603  0.060783  1
  Nd  Nd10  1  0.808371  0.808464  0.190867  1
  Nd  Nd11  1  0.188653  0.189677  0.812021  1
  Nd  Nd12  1  0.046457  0.650393  0.651239  1
  Nd  Nd13  1  0.649601  0.649095  0.649609  1
  Nd  Nd14  1  0.060074  0.440051  0.060075  1
  Nd  Nd15  1  0.651226  0.650412  0.046471  1
  Mg  Mg16  1  0.429093  0.431168  0.429117  1
  Hg  Hg17  1  0.412539  0.414145  0.755103  1
  Hg  Hg18  1  0.755110  0.414132  0.412540  1
  Hg  Hg19  1  0.413174  0.754874  0.413183  1
  Ir  Ir20  1  0.857946  0.857711  0.857947  1
  Ir  Ir21  1  0.856395  0.424562  0.856401  1
  Ir  Ir22  1  0.856875  0.856352  0.424459  1
  Ir  Ir23  1  0.424456  0.856350  0.856876  1
