# generated using pymatgen
data_Na(MnSb3)4
_symmetry_space_group_name_H-M   'P 1'
_cell_length_a   8.11046830
_cell_length_b   8.11046825
_cell_length_c   8.11046900
_cell_angle_alpha   109.47121750
_cell_angle_beta   109.47121738
_cell_angle_gamma   109.47122048
_symmetry_Int_Tables_number   1
_chemical_formula_structural   Na(MnSb3)4
_chemical_formula_sum   'Na1 Mn4 Sb12'
_cell_volume   410.69174444
_cell_formula_units_Z   1
loop_
 _symmetry_equiv_pos_site_id
 _symmetry_equiv_pos_as_xyz
  1  'x, y, z'
loop_
 _atom_site_type_symbol
 _atom_site_label
 _atom_site_symmetry_multiplicity
 _atom_site_fract_x
 _atom_site_fract_y
 _atom_site_fract_z
 _atom_site_occupancy
  Na  Na0  1  0.000000  0.000000  0.000000  1
  Mn  Mn1  1  0.000000  0.000000  0.500000  1
  Mn  Mn2  1  0.500000  0.000000  0.000000  1
  Mn  Mn3  1  0.000000  0.500000  0.000000  1
  Mn  Mn4  1  0.500000  0.500000  0.500000  1
  Sb  Sb5  1  0.335937  0.177734  0.841795  1
  Sb  Sb6  1  0.664062  0.822266  0.158205  1
  Sb  Sb7  1  0.664062  0.505858  0.841795  1
  Sb  Sb8  1  0.335938  0.494142  0.158205  1
  Sb  Sb9  1  0.177734  0.841795  0.335938  1
  Sb  Sb10  1  0.822266  0.158205  0.664063  1
  Sb  Sb11  1  0.505858  0.841795  0.664063  1
  Sb  Sb12  1  0.494142  0.158205  0.335938  1
  Sb  Sb13  1  0.841795  0.335937  0.177734  1
  Sb  Sb14  1  0.158205  0.664062  0.822266  1
  Sb  Sb15  1  0.841795  0.664062  0.505858  1
  Sb  Sb16  1  0.158205  0.335938  0.494142  1
