# generated using pymatgen
data_Ti3CrSiB2Mo
_symmetry_space_group_name_H-M   'P 1'
_cell_length_a   7.07902089
_cell_length_b   7.06635319
_cell_length_c   7.06635337
_cell_angle_alpha   130.36737068
_cell_angle_beta   130.48671696
_cell_angle_gamma   72.68718599
_symmetry_Int_Tables_number   1
_chemical_formula_structural   Ti3CrSiB2Mo
_chemical_formula_sum   'Ti6 Cr2 Si2 B4 Mo2'
_cell_volume   200.16924594
_cell_formula_units_Z   2
loop_
 _symmetry_equiv_pos_site_id
 _symmetry_equiv_pos_as_xyz
  1  'x, y, z'
loop_
 _atom_site_type_symbol
 _atom_site_label
 _atom_site_symmetry_multiplicity
 _atom_site_fract_x
 _atom_site_fract_y
 _atom_site_fract_z
 _atom_site_occupancy
  Ti  Ti0  1  0.807123  0.960347  0.500428  1
  Ti  Ti1  1  0.307123  0.806695  0.846776  1
  Ti  Ti2  1  0.193580  0.041616  0.500506  1
  Ti  Ti3  1  0.540477  0.692282  0.500903  1
  Ti  Ti4  1  0.040477  0.539575  0.848195  1
  Ti  Ti5  1  0.693580  0.193074  0.151964  1
  Cr  Cr6  1  0.003074  0.002136  0.000998  1
  Cr  Cr7  1  0.503074  0.502076  0.000939  1
  Si  Si8  1  0.749265  0.747484  0.998991  1
  Si  Si9  1  0.249265  0.250274  0.001781  1
  B  B10  1  0.385709  0.886638  0.271815  1
  B  B11  1  0.885709  0.613895  0.499072  1
  B  B12  1  0.615047  0.115243  0.730135  1
  B  B13  1  0.115047  0.384912  0.499804  1
  Mo  Mo14  1  0.955724  0.456607  0.148579  1
  Mo  Mo15  1  0.455724  0.307145  0.499117  1
