# generated using pymatgen
data_Cs(CrTe2)2
_symmetry_space_group_name_H-M   'P 1'
_cell_length_a   6.78693800
_cell_length_b   7.76279900
_cell_length_c   18.82878800
_cell_angle_alpha   90.00000000
_cell_angle_beta   90.00000000
_cell_angle_gamma   90.00000000
_symmetry_Int_Tables_number   1
_chemical_formula_structural   Cs(CrTe2)2
_chemical_formula_sum   'Cs4 Cr8 Te16'
_cell_volume   992.00666184
_cell_formula_units_Z   4
loop_
 _symmetry_equiv_pos_site_id
 _symmetry_equiv_pos_as_xyz
  1  'x, y, z'
loop_
 _atom_site_type_symbol
 _atom_site_label
 _atom_site_symmetry_multiplicity
 _atom_site_fract_x
 _atom_site_fract_y
 _atom_site_fract_z
 _atom_site_occupancy
  Cs  Cs0  1  0.355022  0.000000  0.000000  1
  Cs  Cs1  1  0.644978  0.500000  0.500000  1
  Cs  Cs2  1  0.035149  0.000000  0.500000  1
  Cs  Cs3  1  0.964851  0.500000  0.000000  1
  Cr  Cr4  1  0.002373  0.000000  0.250645  1
  Cr  Cr5  1  0.002373  0.000000  0.749355  1
  Cr  Cr6  1  0.997627  0.500000  0.249355  1
  Cr  Cr7  1  0.997627  0.500000  0.750645  1
  Cr  Cr8  1  0.500000  0.250000  0.250000  1
  Cr  Cr9  1  0.500000  0.750000  0.750000  1
  Cr  Cr10  1  0.500000  0.750000  0.250000  1
  Cr  Cr11  1  0.500000  0.250000  0.750000  1
  Te  Te12  1  0.832743  0.249977  0.332470  1
  Te  Te13  1  0.832743  0.750023  0.667530  1
  Te  Te14  1  0.167257  0.749977  0.167530  1
  Te  Te15  1  0.167257  0.250023  0.832470  1
  Te  Te16  1  0.167257  0.250023  0.167530  1
  Te  Te17  1  0.167257  0.749977  0.832470  1
  Te  Te18  1  0.832743  0.750023  0.332470  1
  Te  Te19  1  0.832743  0.249977  0.667530  1
  Te  Te20  1  0.672575  0.000000  0.167697  1
  Te  Te21  1  0.672575  0.000000  0.832303  1
  Te  Te22  1  0.327425  0.500000  0.332303  1
  Te  Te23  1  0.327425  0.500000  0.667697  1
  Te  Te24  1  0.337363  0.000000  0.332377  1
  Te  Te25  1  0.337363  0.000000  0.667623  1
  Te  Te26  1  0.662637  0.500000  0.167623  1
  Te  Te27  1  0.662637  0.500000  0.832377  1
