# generated using pymatgen
data_Ac(PO3)3
_symmetry_space_group_name_H-M   'P 1'
_cell_length_a   7.32421335
_cell_length_b   7.32421379
_cell_length_c   7.62556600
_cell_angle_alpha   90.00000000
_cell_angle_beta   90.00000000
_cell_angle_gamma   105.06042135
_symmetry_Int_Tables_number   1
_chemical_formula_structural   Ac(PO3)3
_chemical_formula_sum   'Ac2 P6 O18'
_cell_volume   395.01618078
_cell_formula_units_Z   2
loop_
 _symmetry_equiv_pos_site_id
 _symmetry_equiv_pos_as_xyz
  1  'x, y, z'
loop_
 _atom_site_type_symbol
 _atom_site_label
 _atom_site_symmetry_multiplicity
 _atom_site_fract_x
 _atom_site_fract_y
 _atom_site_fract_z
 _atom_site_occupancy
  Ac  Ac0  1  0.869978  0.869978  0.000000  1
  Ac  Ac1  1  0.130022  0.130022  0.500000  1
  P  P2  1  0.331039  0.678310  0.050890  1
  P  P3  1  0.668961  0.321690  0.550890  1
  P  P4  1  0.678310  0.331039  0.949110  1
  P  P5  1  0.321690  0.668961  0.449110  1
  P  P6  1  0.254785  0.254785  0.000000  1
  P  P7  1  0.745215  0.745215  0.500000  1
  O  O8  1  0.254152  0.468819  0.965361  1
  O  O9  1  0.745848  0.531181  0.465361  1
  O  O10  1  0.468819  0.254152  0.034639  1
  O  O11  1  0.531181  0.745848  0.534639  1
  O  O12  1  0.772380  0.516721  0.031730  1
  O  O13  1  0.227620  0.483279  0.531730  1
  O  O14  1  0.516721  0.772380  0.968270  1
  O  O15  1  0.483279  0.227620  0.468270  1
  O  O16  1  0.373560  0.626440  0.250000  1
  O  O17  1  0.626440  0.373560  0.750000  1
  O  O18  1  0.823658  0.856014  0.336672  1
  O  O19  1  0.176342  0.143986  0.836672  1
  O  O20  1  0.856014  0.823658  0.663328  1
  O  O21  1  0.143986  0.176342  0.163328  1
  O  O22  1  0.228162  0.826943  0.458849  1
  O  O23  1  0.771838  0.173057  0.958849  1
  O  O24  1  0.826943  0.228162  0.541151  1
  O  O25  1  0.173057  0.771838  0.041151  1
