# generated using pymatgen
data_Zr2BIr5Ru
_symmetry_space_group_name_H-M   'P 1'
_cell_length_a   5.75320055
_cell_length_b   5.75320058
_cell_length_c   5.72871500
_cell_angle_alpha   60.14068180
_cell_angle_beta   60.14068161
_cell_angle_gamma   59.71862216
_symmetry_Int_Tables_number   1
_chemical_formula_structural   Zr2BIr5Ru
_chemical_formula_sum   'Zr2 B1 Ir5 Ru1'
_cell_volume   134.07429874
_cell_formula_units_Z   1
loop_
 _symmetry_equiv_pos_site_id
 _symmetry_equiv_pos_as_xyz
  1  'x, y, z'
loop_
 _atom_site_type_symbol
 _atom_site_label
 _atom_site_symmetry_multiplicity
 _atom_site_fract_x
 _atom_site_fract_y
 _atom_site_fract_z
 _atom_site_occupancy
  Zr  Zr0  1  0.750004  0.750004  0.749996  1
  Zr  Zr1  1  0.250004  0.250004  0.249996  1
  B  B2  1  0.998186  0.998186  0.001814  1
  Ir  Ir3  1  0.258847  0.741613  0.258387  1
  Ir  Ir4  1  0.741613  0.258847  0.258387  1
  Ir  Ir5  1  0.257935  0.257935  0.742065  1
  Ir  Ir6  1  0.741613  0.258847  0.741153  1
  Ir  Ir7  1  0.258847  0.741613  0.741153  1
  Ru  Ru8  1  0.742952  0.742952  0.257048  1
