# generated using pymatgen
data_Li2CdTc3O8
_symmetry_space_group_name_H-M   'P 1'
_cell_length_a   5.78008100
_cell_length_b   5.80941606
_cell_length_c   10.44201100
_cell_angle_alpha   90.00000000
_cell_angle_beta   90.00000000
_cell_angle_gamma   120.19923366
_symmetry_Int_Tables_number   1
_chemical_formula_structural   Li2CdTc3O8
_chemical_formula_sum   'Li4 Cd2 Tc6 O16'
_cell_volume   303.04406566
_cell_formula_units_Z   2
loop_
 _symmetry_equiv_pos_site_id
 _symmetry_equiv_pos_as_xyz
  1  'x, y, z'
loop_
 _atom_site_type_symbol
 _atom_site_label
 _atom_site_symmetry_multiplicity
 _atom_site_fract_x
 _atom_site_fract_y
 _atom_site_fract_z
 _atom_site_occupancy
  Li  Li0  1  0.333502  0.666706  0.888307  1
  Li  Li1  1  0.000836  0.000337  0.994514  1
  Li  Li2  1  0.999164  0.999663  0.494514  1
  Li  Li3  1  0.666498  0.333294  0.388307  1
  Cd  Cd4  1  0.332662  0.666402  0.498404  1
  Cd  Cd5  1  0.667338  0.333598  0.998404  1
  Tc  Tc6  1  0.184649  0.814360  0.211879  1
  Tc  Tc7  1  0.184616  0.370125  0.211893  1
  Tc  Tc8  1  0.625204  0.812565  0.212182  1
  Tc  Tc9  1  0.374796  0.187435  0.712182  1
  Tc  Tc10  1  0.815384  0.629875  0.711893  1
  Tc  Tc11  1  0.815351  0.185640  0.711879  1
  O  O12  1  0.154211  0.848425  0.613892  1
  O  O13  1  0.021913  0.510896  0.335095  1
  O  O14  1  0.330902  0.665484  0.076326  1
  O  O15  1  0.999672  0.999748  0.310710  1
  O  O16  1  0.000328  0.000252  0.810710  1
  O  O17  1  0.154248  0.305805  0.613997  1
  O  O18  1  0.491696  0.979967  0.337024  1
  O  O19  1  0.491634  0.511682  0.337058  1
  O  O20  1  0.306017  0.153010  0.112665  1
  O  O21  1  0.693983  0.846990  0.612665  1
  O  O22  1  0.508366  0.488318  0.837058  1
  O  O23  1  0.508304  0.020033  0.837024  1
  O  O24  1  0.669098  0.334516  0.576326  1
  O  O25  1  0.845752  0.694195  0.113997  1
  O  O26  1  0.978087  0.489104  0.835095  1
  O  O27  1  0.845789  0.151575  0.113892  1
