# generated using pymatgen
data_Er3Lu3HfCo17P12
_symmetry_space_group_name_H-M   'P 1'
_cell_length_a   3.67994700
_cell_length_b   10.53303708
_cell_length_c   12.21062910
_cell_angle_alpha   89.98566545
_cell_angle_beta   90.00000000
_cell_angle_gamma   90.00000000
_symmetry_Int_Tables_number   1
_chemical_formula_structural   Er3Lu3HfCo17P12
_chemical_formula_sum   'Er3 Lu3 Hf1 Co17 P12'
_cell_volume   473.29640194
_cell_formula_units_Z   1
loop_
 _symmetry_equiv_pos_site_id
 _symmetry_equiv_pos_as_xyz
  1  'x, y, z'
loop_
 _atom_site_type_symbol
 _atom_site_label
 _atom_site_symmetry_multiplicity
 _atom_site_fract_x
 _atom_site_fract_y
 _atom_site_fract_z
 _atom_site_occupancy
  Er  Er0  1  0.000000  0.499989  0.529583  1
  Er  Er1  1  0.500000  0.000134  0.476517  1
  Er  Er2  1  0.500000  0.822249  0.207351  1
  Lu  Lu3  1  0.500000  0.177815  0.207479  1
  Lu  Lu4  1  0.000000  0.682040  0.796303  1
  Lu  Lu5  1  0.000000  0.317923  0.796134  1
  Hf  Hf6  1  0.500000  0.499642  0.154519  1
  Co  Co7  1  0.000000  0.000052  0.835688  1
  Co  Co8  1  0.500000  0.499926  0.703701  1
  Co  Co9  1  0.000000  0.001022  0.296023  1
  Co  Co10  1  0.000000  0.499737  0.984271  1
  Co  Co11  1  0.500000  0.000366  0.013479  1
  Co  Co12  1  0.500000  0.327299  0.988576  1
  Co  Co13  1  0.500000  0.672349  0.988298  1
  Co  Co14  1  0.000000  0.162372  0.001587  1
  Co  Co15  1  0.000000  0.837980  0.001356  1
  Co  Co16  1  0.500000  0.294405  0.434349  1
  Co  Co17  1  0.500000  0.705449  0.434725  1
  Co  Co18  1  0.000000  0.202095  0.570609  1
  Co  Co19  1  0.000000  0.797948  0.570832  1
  Co  Co20  1  0.500000  0.879240  0.707518  1
  Co  Co21  1  0.500000  0.120807  0.707427  1
  Co  Co22  1  0.000000  0.622890  0.295892  1
  Co  Co23  1  0.000000  0.376160  0.295305  1
  P  P24  1  0.500000  0.499914  0.880782  1
  P  P25  1  0.000000  0.000792  0.116936  1
  P  P26  1  0.500000  0.500105  0.362175  1
  P  P27  1  0.000000  0.000011  0.653142  1
  P  P28  1  0.500000  0.310454  0.619045  1
  P  P29  1  0.500000  0.689481  0.619218  1
  P  P30  1  0.000000  0.187699  0.385340  1
  P  P31  1  0.000000  0.812411  0.386133  1
  P  P32  1  0.500000  0.851266  0.887648  1
  P  P33  1  0.500000  0.148803  0.887427  1
  P  P34  1  0.000000  0.664929  0.101908  1
  P  P35  1  0.000000  0.334244  0.102721  1
