# generated using pymatgen
data_Sr8Ru3N8
_symmetry_space_group_name_H-M   'P 1'
_cell_length_a   9.90031941
_cell_length_b   5.36067627
_cell_length_c   7.62556819
_cell_angle_alpha   90.00001140
_cell_angle_beta   75.01434156
_cell_angle_gamma   74.29214740
_symmetry_Int_Tables_number   1
_chemical_formula_structural   Sr8Ru3N8
_chemical_formula_sum   'Sr8 Ru3 N8'
_cell_volume   375.27554201
_cell_formula_units_Z   1
loop_
 _symmetry_equiv_pos_site_id
 _symmetry_equiv_pos_as_xyz
  1  'x, y, z'
loop_
 _atom_site_type_symbol
 _atom_site_label
 _atom_site_symmetry_multiplicity
 _atom_site_fract_x
 _atom_site_fract_y
 _atom_site_fract_z
 _atom_site_occupancy
  Sr  Sr0  1  0.049567  0.975217  0.743038  1
  Sr  Sr1  1  0.950433  0.024783  0.256962  1
  Sr  Sr2  1  0.666593  0.666703  0.471725  1
  Sr  Sr3  1  0.333407  0.333297  0.528275  1
  Sr  Sr4  1  0.798401  0.600800  0.957385  1
  Sr  Sr5  1  0.201599  0.399200  0.042615  1
  Sr  Sr6  1  0.598089  0.200956  0.802896  1
  Sr  Sr7  1  0.401911  0.799044  0.197104  1
  Ru  Ru8  1  0.000000  0.500000  0.500000  1
  Ru  Ru9  1  0.371438  0.814281  0.795480  1
  Ru  Ru10  1  0.628562  0.185719  0.204520  1
  N  N11  1  0.200243  0.899879  0.997091  1
  N  N12  1  0.799757  0.100121  0.002909  1
  N  N13  1  0.352118  0.823940  0.559924  1
  N  N14  1  0.647882  0.176060  0.440076  1
  N  N15  1  0.560734  0.719634  0.830047  1
  N  N16  1  0.439266  0.280366  0.169953  1
  N  N17  1  0.049686  0.475156  0.715975  1
  N  N18  1  0.950314  0.524844  0.284025  1
