# generated using pymatgen
data_Lu8V5Re7Si16
_symmetry_space_group_name_H-M   'P 1'
_cell_length_a   6.61265052
_cell_length_b   6.77274714
_cell_length_c   12.68504473
_cell_angle_alpha   90.00628326
_cell_angle_beta   89.90186128
_cell_angle_gamma   90.02261881
_symmetry_Int_Tables_number   1
_chemical_formula_structural   Lu8V5Re7Si16
_chemical_formula_sum   'Lu8 V5 Re7 Si16'
_cell_volume   568.10912126
_cell_formula_units_Z   1
loop_
 _symmetry_equiv_pos_site_id
 _symmetry_equiv_pos_as_xyz
  1  'x, y, z'
loop_
 _atom_site_type_symbol
 _atom_site_label
 _atom_site_symmetry_multiplicity
 _atom_site_fract_x
 _atom_site_fract_y
 _atom_site_fract_z
 _atom_site_occupancy
  Lu  Lu0  1  0.496201  0.333971  0.095358  1
  Lu  Lu1  1  0.993725  0.167116  0.405454  1
  Lu  Lu2  1  0.507385  0.665794  0.593228  1
  Lu  Lu3  1  0.005462  0.834004  0.906735  1
  Lu  Lu4  1  0.505562  0.666175  0.906736  1
  Lu  Lu5  1  0.005536  0.833735  0.593148  1
  Lu  Lu6  1  0.496548  0.333523  0.405003  1
  Lu  Lu7  1  0.994258  0.167925  0.094944  1
  V  V8  1  0.163927  0.666675  0.373376  1
  V  V9  1  0.664660  0.835000  0.126198  1
  V  V10  1  0.833814  0.337054  0.872212  1
  V  V11  1  0.334156  0.163004  0.626121  1
  V  V12  1  0.832616  0.500182  0.249490  1
  Re  Re13  1  0.826040  0.342616  0.621345  1
  Re  Re14  1  0.326071  0.156374  0.880697  1
  Re  Re15  1  0.168605  0.655179  0.119327  1
  Re  Re16  1  0.675295  0.839854  0.380859  1
  Re  Re17  1  0.671259  0.989702  0.750378  1
  Re  Re18  1  0.172013  0.511008  0.749394  1
  Re  Re19  1  0.330695  0.004635  0.249885  1
  Si  Si20  1  0.656817  0.046697  0.548158  1
  Si  Si21  1  0.155986  0.453043  0.951520  1
  Si  Si22  1  0.340732  0.952737  0.048906  1
  Si  Si23  1  0.842690  0.543754  0.451324  1
  Si  Si24  1  0.338075  0.957443  0.454914  1
  Si  Si25  1  0.835503  0.541168  0.044236  1
  Si  Si26  1  0.661607  0.042528  0.955373  1
  Si  Si27  1  0.162150  0.458048  0.545340  1
  Si  Si28  1  0.533593  0.360429  0.752899  1
  Si  Si29  1  0.034903  0.139376  0.747328  1
  Si  Si30  1  0.465621  0.637010  0.251912  1
  Si  Si31  1  0.964543  0.862257  0.247274  1
  Si  Si32  1  0.807449  0.630557  0.751382  1
  Si  Si33  1  0.307412  0.869388  0.748588  1
  Si  Si34  1  0.193808  0.371159  0.251931  1
  Si  Si35  1  0.695282  0.130879  0.249026  1
