# generated using pymatgen
data_Na6VF8
_symmetry_space_group_name_H-M   'P 1'
_cell_length_a   6.64720851
_cell_length_b   6.64720892
_cell_length_c   6.64720900
_cell_angle_alpha   59.99999462
_cell_angle_beta   59.99999257
_cell_angle_gamma   59.99999423
_symmetry_Int_Tables_number   1
_chemical_formula_structural   Na6VF8
_chemical_formula_sum   'Na6 V1 F8'
_cell_volume   207.68393588
_cell_formula_units_Z   1
loop_
 _symmetry_equiv_pos_site_id
 _symmetry_equiv_pos_as_xyz
  1  'x, y, z'
loop_
 _atom_site_type_symbol
 _atom_site_label
 _atom_site_symmetry_multiplicity
 _atom_site_fract_x
 _atom_site_fract_y
 _atom_site_fract_z
 _atom_site_occupancy
  Na  Na0  1  0.500000  0.500000  0.000000  1
  Na  Na1  1  0.000000  0.500000  0.000000  1
  Na  Na2  1  0.500000  0.000000  0.000000  1
  Na  Na3  1  0.000000  0.500000  0.500000  1
  Na  Na4  1  0.500000  0.000000  0.500000  1
  Na  Na5  1  0.000000  0.000000  0.500000  1
  V  V6  1  0.000000  0.000000  0.000000  1
  F  F7  1  0.774513  0.225487  0.774513  1
  F  F8  1  0.250000  0.250000  0.250000  1
  F  F9  1  0.750000  0.750000  0.750000  1
  F  F10  1  0.225487  0.774513  0.225487  1
  F  F11  1  0.225487  0.774513  0.774513  1
  F  F12  1  0.774513  0.225487  0.225487  1
  F  F13  1  0.774513  0.774513  0.225487  1
  F  F14  1  0.225487  0.225487  0.774513  1
