# generated using pymatgen
data_LiLa16Zn(CdRu2)2
_symmetry_space_group_name_H-M   'P 1'
_cell_length_a   10.06447391
_cell_length_b   10.06926189
_cell_length_c   10.06065019
_cell_angle_alpha   59.97167148
_cell_angle_beta   59.87889574
_cell_angle_gamma   59.98425622
_symmetry_Int_Tables_number   1
_chemical_formula_structural   LiLa16Zn(CdRu2)2
_chemical_formula_sum   'Li1 La16 Zn1 Cd2 Ru4'
_cell_volume   720.03933697
_cell_formula_units_Z   1
loop_
 _symmetry_equiv_pos_site_id
 _symmetry_equiv_pos_as_xyz
  1  'x, y, z'
loop_
 _atom_site_type_symbol
 _atom_site_label
 _atom_site_symmetry_multiplicity
 _atom_site_fract_x
 _atom_site_fract_y
 _atom_site_fract_z
 _atom_site_occupancy
  Li  Li0  1  0.684446  0.679458  0.956636  1
  La  La1  1  0.905776  0.904258  0.904341  1
  La  La2  1  0.436926  0.437711  0.061132  1
  La  La3  1  0.059548  0.060557  0.439875  1
  La  La4  1  0.436926  0.064231  0.061132  1
  La  La5  1  0.301653  0.691477  0.315393  1
  La  La6  1  0.689907  0.692120  0.312537  1
  La  La7  1  0.689907  0.305435  0.312537  1
  La  La8  1  0.286567  0.904420  0.904594  1
  La  La9  1  0.905776  0.285626  0.904341  1
  La  La10  1  0.303979  0.691703  0.688981  1
  La  La11  1  0.905145  0.901804  0.291248  1
  La  La12  1  0.061313  0.438763  0.061161  1
  La  La13  1  0.303979  0.315337  0.688981  1
  La  La14  1  0.059548  0.440019  0.439875  1
  La  La15  1  0.438673  0.061409  0.438509  1
  La  La16  1  0.689394  0.311773  0.687061  1
  Zn  Zn17  1  0.997133  0.667404  0.668060  1
  Cd  Cd18  1  0.672849  0.984268  0.673056  1
  Cd  Cd19  1  0.672849  0.669827  0.673056  1
  Ru  Ru20  1  0.112385  0.110293  0.667027  1
  Ru  Ru21  1  0.112469  0.111554  0.116211  1
  Ru  Ru22  1  0.112469  0.659765  0.116211  1
  Ru  Ru23  1  0.660379  0.110786  0.118047  1
