# generated using pymatgen
data_Ho15Mg5Pb16
_symmetry_space_group_name_H-M   'P 1'
_cell_length_a   7.79812689
_cell_length_b   8.31466586
_cell_length_c   15.46109919
_cell_angle_alpha   89.87378649
_cell_angle_beta   89.66832070
_cell_angle_gamma   90.05405845
_symmetry_Int_Tables_number   1
_chemical_formula_structural   Ho15Mg5Pb16
_chemical_formula_sum   'Ho15 Mg5 Pb16'
_cell_volume   1002.45973056
_cell_formula_units_Z   1
loop_
 _symmetry_equiv_pos_site_id
 _symmetry_equiv_pos_as_xyz
  1  'x, y, z'
loop_
 _atom_site_type_symbol
 _atom_site_label
 _atom_site_symmetry_multiplicity
 _atom_site_fract_x
 _atom_site_fract_y
 _atom_site_fract_z
 _atom_site_occupancy
  Ho  Ho0  1  0.836114  0.660442  0.627845  1
  Ho  Ho1  1  0.660109  0.161303  0.372975  1
  Ho  Ho2  1  0.161083  0.342134  0.124238  1
  Ho  Ho3  1  0.656559  0.160723  0.127755  1
  Ho  Ho4  1  0.156740  0.335698  0.372211  1
  Ho  Ho5  1  0.348801  0.833738  0.629587  1
  Ho  Ho6  1  0.842682  0.660637  0.872717  1
  Ho  Ho7  1  0.510527  0.310213  0.910327  1
  Ho  Ho8  1  0.013338  0.187490  0.591504  1
  Ho  Ho9  1  0.493693  0.683698  0.410893  1
  Ho  Ho10  1  0.988041  0.811567  0.090305  1
  Ho  Ho11  1  0.488329  0.686577  0.087076  1
  Ho  Ho12  1  0.992899  0.815029  0.408557  1
  Ho  Ho13  1  0.507479  0.312051  0.589690  1
  Ho  Ho14  1  0.010252  0.188906  0.904829  1
  Mg  Mg15  1  0.332591  0.856832  0.874788  1
  Mg  Mg16  1  0.160786  0.502912  0.746850  1
  Mg  Mg17  1  0.665762  0.993606  0.753324  1
  Mg  Mg18  1  0.835173  0.493568  0.250637  1
  Mg  Mg19  1  0.335936  0.003675  0.252289  1
  Pb  Pb20  1  0.308333  0.036091  0.041053  1
  Pb  Pb21  1  0.808397  0.460224  0.459762  1
  Pb  Pb22  1  0.698108  0.962310  0.542834  1
  Pb  Pb23  1  0.194749  0.545652  0.952455  1
  Pb  Pb24  1  0.690779  0.961675  0.958479  1
  Pb  Pb25  1  0.195501  0.539927  0.539837  1
  Pb  Pb26  1  0.307872  0.036977  0.460145  1
  Pb  Pb27  1  0.807420  0.459461  0.040818  1
  Pb  Pb28  1  0.519257  0.602135  0.761384  1
  Pb  Pb29  1  0.031839  0.895783  0.749362  1
  Pb  Pb30  1  0.472124  0.400742  0.250073  1
  Pb  Pb31  1  0.974889  0.099196  0.247673  1
  Pb  Pb32  1  0.315924  0.162384  0.750482  1
  Pb  Pb33  1  0.807776  0.338691  0.748689  1
  Pb  Pb34  1  0.684482  0.834941  0.249456  1
  Pb  Pb35  1  0.185656  0.663014  0.249100  1
