# generated using pymatgen
data_Er2Pa(AlPd)3
_symmetry_space_group_name_H-M   'P 1'
_cell_length_a   7.27201400
_cell_length_b   7.20780684
_cell_length_c   3.94382700
_cell_angle_alpha   90.00000000
_cell_angle_beta   90.00000000
_cell_angle_gamma   120.29510525
_symmetry_Int_Tables_number   1
_chemical_formula_structural   Er2Pa(AlPd)3
_chemical_formula_sum   'Er2 Pa1 Al3 Pd3'
_cell_volume   178.48724508
_cell_formula_units_Z   1
loop_
 _symmetry_equiv_pos_site_id
 _symmetry_equiv_pos_as_xyz
  1  'x, y, z'
loop_
 _atom_site_type_symbol
 _atom_site_label
 _atom_site_symmetry_multiplicity
 _atom_site_fract_x
 _atom_site_fract_y
 _atom_site_fract_z
 _atom_site_occupancy
  Er  Er0  1  0.000111  0.415743  0.500000  1
  Er  Er1  1  0.584368  0.584257  0.500000  1
  Pa  Pa2  1  0.420089  0.000000  0.500000  1
  Al  Al3  1  0.762790  0.000000  0.000000  1
  Al  Al4  1  0.997167  0.755465  0.000000  1
  Al  Al5  1  0.241701  0.244535  0.000000  1
  Pd  Pd6  1  0.334133  0.677141  0.000000  1
  Pd  Pd7  1  0.656993  0.322859  0.000000  1
  Pd  Pd8  1  0.002648  0.000000  0.500000  1
