# generated using pymatgen
data_SrTb(EuSb)6
_symmetry_space_group_name_H-M   'P 1'
_cell_length_a   8.46030797
_cell_length_b   8.34891218
_cell_length_c   8.43873508
_cell_angle_alpha   70.80578647
_cell_angle_beta   70.19732433
_cell_angle_gamma   109.42983006
_symmetry_Int_Tables_number   1
_chemical_formula_structural   SrTb(EuSb)6
_chemical_formula_sum   'Sr1 Tb1 Eu6 Sb6'
_cell_volume   458.76700961
_cell_formula_units_Z   1
loop_
 _symmetry_equiv_pos_site_id
 _symmetry_equiv_pos_as_xyz
  1  'x, y, z'
loop_
 _atom_site_type_symbol
 _atom_site_label
 _atom_site_symmetry_multiplicity
 _atom_site_fract_x
 _atom_site_fract_y
 _atom_site_fract_z
 _atom_site_occupancy
  Sr  Sr0  1  0.856163  0.002411  0.997932  1
  Tb  Tb1  1  0.999885  0.859315  0.500614  1
  Eu  Eu2  1  0.999721  0.356985  0.498912  1
  Eu  Eu3  1  0.498799  0.499222  0.146352  1
  Eu  Eu4  1  0.645432  0.145398  0.355587  1
  Eu  Eu5  1  0.362062  0.001177  0.995646  1
  Eu  Eu6  1  0.495165  0.496853  0.642413  1
  Eu  Eu7  1  0.142044  0.639026  0.862879  1
  Sb  Sb8  1  0.631683  0.872117  0.741412  1
  Sb  Sb9  1  0.877067  0.627229  0.257883  1
  Sb  Sb10  1  0.247390  0.117400  0.618917  1
  Sb  Sb11  1  0.754590  0.389145  0.866405  1
  Sb  Sb12  1  0.363544  0.751573  0.380397  1
  Sb  Sb13  1  0.126456  0.242147  0.134649  1
