# generated using pymatgen
data_Cs5Rb3(Ga2Se5)2
_symmetry_space_group_name_H-M   'P 1'
_cell_length_a   8.52013273
_cell_length_b   9.00232733
_cell_length_c   11.48984529
_cell_angle_alpha   76.51136773
_cell_angle_beta   86.52560229
_cell_angle_gamma   81.02181735
_symmetry_Int_Tables_number   1
_chemical_formula_structural   Cs5Rb3(Ga2Se5)2
_chemical_formula_sum   'Cs5 Rb3 Ga4 Se10'
_cell_volume   846.20525175
_cell_formula_units_Z   1
loop_
 _symmetry_equiv_pos_site_id
 _symmetry_equiv_pos_as_xyz
  1  'x, y, z'
loop_
 _atom_site_type_symbol
 _atom_site_label
 _atom_site_symmetry_multiplicity
 _atom_site_fract_x
 _atom_site_fract_y
 _atom_site_fract_z
 _atom_site_occupancy
  Cs  Cs0  1  0.051593  0.607212  0.761439  1
  Cs  Cs1  1  0.824275  0.908915  0.132255  1
  Cs  Cs2  1  0.950595  0.393849  0.236515  1
  Cs  Cs3  1  0.557110  0.715075  0.503831  1
  Cs  Cs4  1  0.443419  0.278844  0.495473  1
  Rb  Rb5  1  0.436099  0.331470  0.089353  1
  Rb  Rb6  1  0.560141  0.672260  0.906455  1
  Rb  Rb7  1  0.158740  0.093906  0.867569  1
  Ga  Ga8  1  0.903240  0.087874  0.598658  1
  Ga  Ga9  1  0.101758  0.913037  0.403139  1
  Ga  Ga10  1  0.295790  0.729867  0.205867  1
  Ga  Ga11  1  0.704228  0.269767  0.793872  1
  Se  Se12  1  0.864037  0.357439  0.605870  1
  Se  Se13  1  0.185993  0.968097  0.588827  1
  Se  Se14  1  0.430017  0.382909  0.777511  1
  Se  Se15  1  0.177856  0.698993  0.030389  1
  Se  Se16  1  0.824304  0.312395  0.964646  1
  Se  Se17  1  0.564886  0.603196  0.225521  1
  Se  Se18  1  0.133981  0.644391  0.393608  1
  Se  Se19  1  0.258723  0.011963  0.225653  1
  Se  Se20  1  0.753993  0.986079  0.779440  1
  Se  Se21  1  0.819222  0.032461  0.414108  1
