# generated using pymatgen
data_LiAg3(NO3)8
_symmetry_space_group_name_H-M   'P 1'
_cell_length_a   7.94644952
_cell_length_b   7.94644858
_cell_length_c   7.94644906
_cell_angle_alpha   92.43742226
_cell_angle_beta   87.56257781
_cell_angle_gamma   87.56257649
_symmetry_Int_Tables_number   1
_chemical_formula_structural   LiAg3(NO3)8
_chemical_formula_sum   'Li1 Ag3 N8 O24'
_cell_volume   500.38499978
_cell_formula_units_Z   1
loop_
 _symmetry_equiv_pos_site_id
 _symmetry_equiv_pos_as_xyz
  1  'x, y, z'
loop_
 _atom_site_type_symbol
 _atom_site_label
 _atom_site_symmetry_multiplicity
 _atom_site_fract_x
 _atom_site_fract_y
 _atom_site_fract_z
 _atom_site_occupancy
  Li  Li0  1  0.000000  0.000000  0.500000  1
  Ag  Ag1  1  0.500000  0.500000  0.500000  1
  Ag  Ag2  1  0.500000  0.000000  0.000000  1
  Ag  Ag3  1  0.000000  0.500000  0.000000  1
  N  N4  1  0.676832  0.160309  0.329075  1
  N  N5  1  0.667649  0.332351  0.832351  1
  N  N6  1  0.839691  0.829075  0.823168  1
  N  N7  1  0.829075  0.676832  0.339691  1
  N  N8  1  0.160309  0.170925  0.176832  1
  N  N9  1  0.170925  0.323168  0.660309  1
  N  N10  1  0.332351  0.667649  0.167649  1
  N  N11  1  0.323168  0.839691  0.670925  1
  O  O12  1  0.550504  0.231334  0.816404  1
  O  O13  1  0.562118  0.275169  0.313991  1
  O  O14  1  0.683596  0.449496  0.731334  1
  O  O15  1  0.686240  0.038290  0.219433  1
  O  O16  1  0.719433  0.686240  0.461710  1
  O  O17  1  0.724831  0.813991  0.937882  1
  O  O18  1  0.768666  0.316404  0.949496  1
  O  O19  1  0.776788  0.165347  0.445012  1
  O  O20  1  0.834653  0.945012  0.723212  1
  O  O21  1  0.813991  0.562118  0.224831  1
  O  O22  1  0.961710  0.719433  0.813760  1
  O  O23  1  0.945012  0.776788  0.334653  1
  O  O24  1  0.054988  0.223212  0.665347  1
  O  O25  1  0.038290  0.280567  0.186240  1
  O  O26  1  0.186009  0.437882  0.775169  1
  O  O27  1  0.165347  0.054988  0.276788  1
  O  O28  1  0.231334  0.683596  0.050504  1
  O  O29  1  0.223212  0.834653  0.554988  1
  O  O30  1  0.275169  0.186009  0.062118  1
  O  O31  1  0.280567  0.313760  0.538290  1
  O  O32  1  0.316404  0.550504  0.268666  1
  O  O33  1  0.313760  0.961710  0.780567  1
  O  O34  1  0.437882  0.724831  0.686009  1
  O  O35  1  0.449496  0.768666  0.183596  1
