# generated using pymatgen
data_Ta2MnNb2(NiP)4
_symmetry_space_group_name_H-M   'P 1'
_cell_length_a   7.13873775
_cell_length_b   7.13873797
_cell_length_c   7.14079319
_cell_angle_alpha   93.49556326
_cell_angle_beta   93.65105572
_cell_angle_gamma   151.08205231
_symmetry_Int_Tables_number   1
_chemical_formula_structural   Ta2MnNb2(NiP)4
_chemical_formula_sum   'Ta2 Mn1 Nb2 Ni4 P4'
_cell_volume   170.39873788
_cell_formula_units_Z   1
loop_
 _symmetry_equiv_pos_site_id
 _symmetry_equiv_pos_as_xyz
  1  'x, y, z'
loop_
 _atom_site_type_symbol
 _atom_site_label
 _atom_site_symmetry_multiplicity
 _atom_site_fract_x
 _atom_site_fract_y
 _atom_site_fract_z
 _atom_site_occupancy
  Ta  Ta0  1  0.807692  0.125516  0.933208  1
  Ta  Ta1  1  0.125545  0.192246  0.317790  1
  Mn  Mn2  1  0.499981  0.501439  0.001420  1
  Nb  Nb3  1  0.874006  0.808296  0.682302  1
  Nb  Nb4  1  0.192163  0.874142  0.066305  1
  Ni  Ni5  1  0.913658  0.389803  0.303460  1
  Ni  Ni6  1  0.087430  0.609131  0.696563  1
  Ni  Ni7  1  0.609597  0.912871  0.522467  1
  Ni  Ni8  1  0.389701  0.087170  0.476872  1
  P  P9  1  0.557515  0.245230  0.802746  1
  P  P10  1  0.245580  0.442667  0.688246  1
  P  P11  1  0.754556  0.557330  0.311887  1
  P  P12  1  0.442576  0.754158  0.196733  1
