# generated using pymatgen
data_DyHo7(CdRh)2
_symmetry_space_group_name_H-M   'P 1'
_cell_length_a   9.58797390
_cell_length_b   9.58981837
_cell_length_c   9.58977902
_cell_angle_alpha   60.00069068
_cell_angle_beta   59.98788973
_cell_angle_gamma   59.96776902
_symmetry_Int_Tables_number   1
_chemical_formula_structural   DyHo7(CdRh)2
_chemical_formula_sum   'Dy2 Ho14 Cd4 Rh4'
_cell_volume   623.28610912
_cell_formula_units_Z   2
loop_
 _symmetry_equiv_pos_site_id
 _symmetry_equiv_pos_as_xyz
  1  'x, y, z'
loop_
 _atom_site_type_symbol
 _atom_site_label
 _atom_site_symmetry_multiplicity
 _atom_site_fract_x
 _atom_site_fract_y
 _atom_site_fract_z
 _atom_site_occupancy
  Dy  Dy0  1  0.936262  0.936377  0.563687  1
  Dy  Dy1  1  0.563641  0.563683  0.936337  1
  Ho  Ho2  1  0.689040  0.688955  0.310999  1
  Ho  Ho3  1  0.150033  0.549918  0.150019  1
  Ho  Ho4  1  0.688967  0.311139  0.688831  1
  Ho  Ho5  1  0.149948  0.150013  0.150047  1
  Ho  Ho6  1  0.549858  0.150055  0.150071  1
  Ho  Ho7  1  0.688950  0.311166  0.311044  1
  Ho  Ho8  1  0.149986  0.150005  0.549963  1
  Ho  Ho9  1  0.311239  0.688902  0.310997  1
  Ho  Ho10  1  0.311245  0.688899  0.688855  1
  Ho  Ho11  1  0.936256  0.563631  0.563675  1
  Ho  Ho12  1  0.936249  0.563628  0.936467  1
  Ho  Ho13  1  0.563605  0.936332  0.563656  1
  Ho  Ho14  1  0.563615  0.936313  0.936394  1
  Ho  Ho15  1  0.311115  0.310965  0.688953  1
  Cd  Cd16  1  0.918863  0.918835  0.243281  1
  Cd  Cd17  1  0.243241  0.919082  0.918843  1
  Cd  Cd18  1  0.918861  0.918835  0.919017  1
  Cd  Cd19  1  0.919091  0.243275  0.918821  1
  Rh  Rh20  1  0.357208  0.357184  0.928214  1
  Rh  Rh21  1  0.357399  0.928217  0.357186  1
  Rh  Rh22  1  0.928178  0.357409  0.357231  1
  Rh  Rh23  1  0.357151  0.357178  0.357408  1
