# generated using pymatgen
data_Tb3Y3Er4(In2Ni)4
_symmetry_space_group_name_H-M   'P 1'
_cell_length_a   3.58283000
_cell_length_b   8.03416297
_cell_length_c   17.90931033
_cell_angle_alpha   90.05734223
_cell_angle_beta   90.00000000
_cell_angle_gamma   90.00000000
_symmetry_Int_Tables_number   1
_chemical_formula_structural   Tb3Y3Er4(In2Ni)4
_chemical_formula_sum   'Tb3 Y3 Er4 In8 Ni4'
_cell_volume   515.51995791
_cell_formula_units_Z   1
loop_
 _symmetry_equiv_pos_site_id
 _symmetry_equiv_pos_as_xyz
  1  'x, y, z'
loop_
 _atom_site_type_symbol
 _atom_site_label
 _atom_site_symmetry_multiplicity
 _atom_site_fract_x
 _atom_site_fract_y
 _atom_site_fract_z
 _atom_site_occupancy
  Tb  Tb0  1  0.000000  0.743232  0.280998  1
  Tb  Tb1  1  0.000000  0.256827  0.719065  1
  Tb  Tb2  1  0.000000  0.756761  0.780758  1
  Y  Y3  1  0.000000  0.500017  0.499800  1
  Y  Y4  1  0.000000  0.000055  0.999973  1
  Y  Y5  1  0.000000  0.242649  0.218937  1
  Er  Er6  1  0.000000  0.616884  0.088838  1
  Er  Er7  1  0.000000  0.383347  0.911146  1
  Er  Er8  1  0.000000  0.883264  0.588861  1
  Er  Er9  1  0.000000  0.116691  0.411290  1
  In  In10  1  0.500000  0.701447  0.933718  1
  In  In11  1  0.500000  0.298684  0.066375  1
  In  In12  1  0.500000  0.798652  0.433914  1
  In  In13  1  0.500000  0.201347  0.566042  1
  In  In14  1  0.500000  0.577419  0.652399  1
  In  In15  1  0.500000  0.421742  0.347022  1
  In  In16  1  0.500000  0.922690  0.152808  1
  In  In17  1  0.500000  0.077476  0.847310  1
  Ni  Ni18  1  0.500000  0.525357  0.195958  1
  Ni  Ni19  1  0.500000  0.476466  0.804190  1
  Ni  Ni20  1  0.500000  0.975872  0.695649  1
  Ni  Ni21  1  0.500000  0.023119  0.304951  1
