# generated using pymatgen
data_Er8Si12PdRh3
_symmetry_space_group_name_H-M   'P 1'
_cell_length_a   8.15283000
_cell_length_b   8.15283009
_cell_length_c   7.81483600
_cell_angle_alpha   90.00000000
_cell_angle_beta   90.00000000
_cell_angle_gamma   119.99999962
_symmetry_Int_Tables_number   1
_chemical_formula_structural   Er8Si12PdRh3
_chemical_formula_sum   'Er8 Si12 Pd1 Rh3'
_cell_volume   449.84953933
_cell_formula_units_Z   1
loop_
 _symmetry_equiv_pos_site_id
 _symmetry_equiv_pos_as_xyz
  1  'x, y, z'
loop_
 _atom_site_type_symbol
 _atom_site_label
 _atom_site_symmetry_multiplicity
 _atom_site_fract_x
 _atom_site_fract_y
 _atom_site_fract_z
 _atom_site_occupancy
  Er  Er0  1  0.979095  0.489548  0.252277  1
  Er  Er1  1  0.510452  0.489548  0.252277  1
  Er  Er2  1  0.491935  0.983869  0.748014  1
  Er  Er3  1  0.016131  0.508065  0.748014  1
  Er  Er4  1  0.491935  0.508065  0.748014  1
  Er  Er5  1  0.510452  0.020905  0.252277  1
  Er  Er6  1  0.000000  0.000000  0.749213  1
  Er  Er7  1  0.000000  0.000000  0.250000  1
  Si  Si8  1  0.166872  0.833128  0.499331  1
  Si  Si9  1  0.166872  0.333743  0.499331  1
  Si  Si10  1  0.666257  0.833128  0.499331  1
  Si  Si11  1  0.334941  0.167471  0.000053  1
  Si  Si12  1  0.833345  0.666692  0.500414  1
  Si  Si13  1  0.832529  0.167471  0.000053  1
  Si  Si14  1  0.832529  0.665059  0.000053  1
  Si  Si15  1  0.164273  0.328546  0.999565  1
  Si  Si16  1  0.671454  0.835727  0.999565  1
  Si  Si17  1  0.333308  0.166655  0.500414  1
  Si  Si18  1  0.833345  0.166655  0.500414  1
  Si  Si19  1  0.164273  0.835727  0.999565  1
  Pd  Pd20  1  0.333333  0.666667  0.035190  1
  Rh  Rh21  1  0.666667  0.333333  0.964642  1
  Rh  Rh22  1  0.666667  0.333333  0.534942  1
  Rh  Rh23  1  0.333333  0.666667  0.467052  1
