# generated using pymatgen
data_SrTm(NbS2)8
_symmetry_space_group_name_H-M   'P 1'
_cell_length_a   6.68841800
_cell_length_b   6.68841809
_cell_length_c   14.11732900
_cell_angle_alpha   90.00000000
_cell_angle_beta   90.00000000
_cell_angle_gamma   119.99999957
_symmetry_Int_Tables_number   1
_chemical_formula_structural   SrTm(NbS2)8
_chemical_formula_sum   'Sr1 Tm1 Nb8 S16'
_cell_volume   546.92778780
_cell_formula_units_Z   1
loop_
 _symmetry_equiv_pos_site_id
 _symmetry_equiv_pos_as_xyz
  1  'x, y, z'
loop_
 _atom_site_type_symbol
 _atom_site_label
 _atom_site_symmetry_multiplicity
 _atom_site_fract_x
 _atom_site_fract_y
 _atom_site_fract_z
 _atom_site_occupancy
  Sr  Sr0  1  0.000000  0.000000  0.000000  1
  Tm  Tm1  1  0.000000  0.000000  0.500000  1
  Nb  Nb2  1  0.000000  0.000000  0.260524  1
  Nb  Nb3  1  0.000000  0.000000  0.739476  1
  Nb  Nb4  1  0.504616  0.009232  0.260901  1
  Nb  Nb5  1  0.990768  0.495384  0.260901  1
  Nb  Nb6  1  0.504616  0.495384  0.260901  1
  Nb  Nb7  1  0.495384  0.990768  0.739099  1
  Nb  Nb8  1  0.009232  0.504616  0.739099  1
  Nb  Nb9  1  0.495384  0.504616  0.739099  1
  S  S10  1  0.333333  0.666667  0.852973  1
  S  S11  1  0.666667  0.333333  0.147027  1
  S  S12  1  0.666667  0.333333  0.373692  1
  S  S13  1  0.333333  0.666667  0.626308  1
  S  S14  1  0.168718  0.831282  0.371839  1
  S  S15  1  0.168718  0.337436  0.371839  1
  S  S16  1  0.662564  0.831282  0.371839  1
  S  S17  1  0.831282  0.168718  0.628161  1
  S  S18  1  0.831282  0.662564  0.628161  1
  S  S19  1  0.337436  0.168718  0.628161  1
  S  S20  1  0.830745  0.169255  0.848929  1
  S  S21  1  0.830745  0.661490  0.848929  1
  S  S22  1  0.338510  0.169255  0.848929  1
  S  S23  1  0.169255  0.830745  0.151071  1
  S  S24  1  0.169255  0.338510  0.151071  1
  S  S25  1  0.661490  0.830745  0.151071  1
