# generated using pymatgen
data_RbCd11
_symmetry_space_group_name_H-M   'P 1'
_cell_length_a   9.58808822
_cell_length_b   9.58808803
_cell_length_c   9.58808857
_cell_angle_alpha   100.01738633
_cell_angle_beta   100.01739024
_cell_angle_gamma   130.70056266
_symmetry_Int_Tables_number   1
_chemical_formula_structural   RbCd11
_chemical_formula_sum   'Rb2 Cd22'
_cell_volume   607.35487699
_cell_formula_units_Z   2
loop_
 _symmetry_equiv_pos_site_id
 _symmetry_equiv_pos_as_xyz
  1  'x, y, z'
loop_
 _atom_site_type_symbol
 _atom_site_label
 _atom_site_symmetry_multiplicity
 _atom_site_fract_x
 _atom_site_fract_y
 _atom_site_fract_z
 _atom_site_occupancy
  Rb  Rb0  1  0.000000  0.000000  0.000000  1
  Rb  Rb1  1  0.250000  0.750000  0.500000  1
  Cd  Cd2  1  0.067291  0.652882  0.826495  1
  Cd  Cd3  1  0.826387  0.240796  0.173505  1
  Cd  Cd4  1  0.750000  0.250000  0.500000  1
  Cd  Cd5  1  0.500000  0.500000  0.000000  1
  Cd  Cd6  1  0.625000  0.375000  0.750000  1
  Cd  Cd7  1  0.625000  0.375000  0.250000  1
  Cd  Cd8  1  0.125000  0.375000  0.750000  1
  Cd  Cd9  1  0.625000  0.875000  0.250000  1
  Cd  Cd10  1  0.826387  0.652882  0.585590  1
  Cd  Cd11  1  0.902882  0.817291  0.326495  1
  Cd  Cd12  1  0.490796  0.576387  0.673505  1
  Cd  Cd13  1  0.067291  0.240796  0.414410  1
  Cd  Cd14  1  0.759204  0.932709  0.585590  1
  Cd  Cd15  1  0.347118  0.173613  0.414410  1
  Cd  Cd16  1  0.423613  0.509204  0.326495  1
  Cd  Cd17  1  0.182709  0.097118  0.673505  1
  Cd  Cd18  1  0.423613  0.097118  0.914410  1
  Cd  Cd19  1  0.347118  0.932709  0.173505  1
  Cd  Cd20  1  0.759204  0.173613  0.826495  1
  Cd  Cd21  1  0.182709  0.509204  0.085590  1
  Cd  Cd22  1  0.490796  0.817291  0.914410  1
  Cd  Cd23  1  0.902882  0.576387  0.085590  1
