# generated using pymatgen
data_Sc4Zn2B4Ir9Rh
_symmetry_space_group_name_H-M   'P 1'
_cell_length_a   9.44572418
_cell_length_b   3.04426100
_cell_length_c   9.45266318
_cell_angle_alpha   89.99999394
_cell_angle_beta   90.02259890
_cell_angle_gamma   89.99999393
_symmetry_Int_Tables_number   1
_chemical_formula_structural   Sc4Zn2B4Ir9Rh
_chemical_formula_sum   'Sc4 Zn2 B4 Ir9 Rh1'
_cell_volume   271.81366950
_cell_formula_units_Z   1
loop_
 _symmetry_equiv_pos_site_id
 _symmetry_equiv_pos_as_xyz
  1  'x, y, z'
loop_
 _atom_site_type_symbol
 _atom_site_label
 _atom_site_symmetry_multiplicity
 _atom_site_fract_x
 _atom_site_fract_y
 _atom_site_fract_z
 _atom_site_occupancy
  Sc  Sc0  1  0.676571  0.000001  0.177663  1
  Sc  Sc1  1  0.176910  0.999999  0.323080  1
  Sc  Sc2  1  0.822477  0.000000  0.677120  1
  Sc  Sc3  1  0.322782  0.000002  0.823074  1
  Zn  Zn4  1  0.998818  0.000001  0.999479  1
  Zn  Zn5  1  0.500197  0.000000  0.500136  1
  B  B6  1  0.373376  0.000000  0.126747  1
  B  B7  1  0.873355  0.000000  0.373334  1
  B  B8  1  0.126771  0.000001  0.626750  1
  B  B9  1  0.625753  0.000000  0.873005  1
  Ir  Ir10  1  0.500937  0.500002  0.999768  1
  Ir  Ir11  1  0.217109  0.500001  0.068954  1
  Ir  Ir12  1  0.931079  0.500001  0.217052  1
  Ir  Ir13  1  0.431201  0.500000  0.282647  1
  Ir  Ir14  1  0.717215  0.500001  0.430979  1
  Ir  Ir15  1  0.999791  0.500000  0.500495  1
  Ir  Ir16  1  0.283057  0.500000  0.568478  1
  Ir  Ir17  1  0.570121  0.499999  0.717595  1
  Ir  Ir18  1  0.069603  0.500000  0.783121  1
  Rh  Rh19  1  0.782877  0.500002  0.930524  1
