# generated using pymatgen
data_Y4P7Ir8
_symmetry_space_group_name_H-M   'P 1'
_cell_length_a   3.95045700
_cell_length_b   12.69226758
_cell_length_c   13.12867145
_cell_angle_alpha   80.85592827
_cell_angle_beta   90.00000000
_cell_angle_gamma   90.00000000
_symmetry_Int_Tables_number   1
_chemical_formula_structural   Y4P7Ir8
_chemical_formula_sum   'Y8 P14 Ir16'
_cell_volume   649.90951414
_cell_formula_units_Z   2
loop_
 _symmetry_equiv_pos_site_id
 _symmetry_equiv_pos_as_xyz
  1  'x, y, z'
loop_
 _atom_site_type_symbol
 _atom_site_label
 _atom_site_symmetry_multiplicity
 _atom_site_fract_x
 _atom_site_fract_y
 _atom_site_fract_z
 _atom_site_occupancy
  Y  Y0  1  0.250000  0.103061  0.790551  1
  Y  Y1  1  0.750000  0.896939  0.209449  1
  Y  Y2  1  0.250000  0.279042  0.101650  1
  Y  Y3  1  0.750000  0.720958  0.898350  1
  Y  Y4  1  0.250000  0.520601  0.294011  1
  Y  Y5  1  0.750000  0.479399  0.705989  1
  Y  Y6  1  0.250000  0.209251  0.437646  1
  Y  Y7  1  0.750000  0.790749  0.562354  1
  P  P8  1  0.250000  0.051758  0.100122  1
  P  P9  1  0.750000  0.948242  0.899878  1
  P  P10  1  0.250000  0.312060  0.688813  1
  P  P11  1  0.750000  0.687940  0.311187  1
  P  P12  1  0.250000  0.607971  0.566954  1
  P  P13  1  0.750000  0.392029  0.433046  1
  P  P14  1  0.250000  0.843667  0.717904  1
  P  P15  1  0.750000  0.156333  0.282096  1
  P  P16  1  0.750000  0.258286  0.919689  1
  P  P17  1  0.250000  0.741714  0.080311  1
  P  P18  1  0.750000  0.093051  0.588183  1
  P  P19  1  0.250000  0.906949  0.411817  1
  P  P20  1  0.750000  0.472214  0.129314  1
  P  P21  1  0.250000  0.527786  0.870686  1
  Ir  Ir22  1  0.250000  0.990581  0.576191  1
  Ir  Ir23  1  0.750000  0.009419  0.423809  1
  Ir  Ir24  1  0.250000  0.663060  0.731279  1
  Ir  Ir25  1  0.750000  0.336940  0.268721  1
  Ir  Ir26  1  0.250000  0.554962  0.044812  1
  Ir  Ir27  1  0.750000  0.445038  0.955188  1
  Ir  Ir28  1  0.250000  0.059631  0.272522  1
  Ir  Ir29  1  0.750000  0.940369  0.727478  1
  Ir  Ir30  1  0.250000  0.421810  0.523470  1
  Ir  Ir31  1  0.750000  0.578190  0.476530  1
  Ir  Ir32  1  0.250000  0.914688  0.997982  1
  Ir  Ir33  1  0.750000  0.085312  0.002018  1
  Ir  Ir34  1  0.250000  0.729352  0.395439  1
  Ir  Ir35  1  0.750000  0.270648  0.604561  1
  Ir  Ir36  1  0.250000  0.342008  0.857641  1
  Ir  Ir37  1  0.750000  0.657992  0.142359  1
