# generated using pymatgen
data_Ba5Re3AuO15
_symmetry_space_group_name_H-M   'P 1'
_cell_length_a   10.94894200
_cell_length_b   10.94894207
_cell_length_c   7.79281300
_cell_angle_alpha   90.00000000
_cell_angle_beta   90.00000000
_cell_angle_gamma   119.99999978
_symmetry_Int_Tables_number   1
_chemical_formula_structural   Ba5Re3AuO15
_chemical_formula_sum   'Ba10 Re6 Au2 O30'
_cell_volume   809.03852176
_cell_formula_units_Z   2
loop_
 _symmetry_equiv_pos_site_id
 _symmetry_equiv_pos_as_xyz
  1  'x, y, z'
loop_
 _atom_site_type_symbol
 _atom_site_label
 _atom_site_symmetry_multiplicity
 _atom_site_fract_x
 _atom_site_fract_y
 _atom_site_fract_z
 _atom_site_occupancy
  Ba  Ba0  1  0.265039  0.265039  0.772073  1
  Ba  Ba1  1  0.000000  0.734961  0.772073  1
  Ba  Ba2  1  0.734961  0.734961  0.272073  1
  Ba  Ba3  1  0.000000  0.265039  0.272073  1
  Ba  Ba4  1  0.734961  0.000000  0.772073  1
  Ba  Ba5  1  0.265039  0.000000  0.272073  1
  Ba  Ba6  1  0.666667  0.333333  0.531244  1
  Ba  Ba7  1  0.333333  0.666667  0.031244  1
  Ba  Ba8  1  0.666667  0.333333  0.031244  1
  Ba  Ba9  1  0.333333  0.666667  0.531244  1
  Re  Re10  1  0.609231  0.609231  0.824220  1
  Re  Re11  1  0.000000  0.390769  0.824220  1
  Re  Re12  1  0.390769  0.390769  0.324220  1
  Re  Re13  1  0.000000  0.609231  0.324220  1
  Re  Re14  1  0.390769  0.000000  0.824220  1
  Re  Re15  1  0.609231  0.000000  0.324220  1
  Au  Au16  1  0.000000  0.000000  0.004274  1
  Au  Au17  1  0.000000  0.000000  0.504274  1
  O  O18  1  0.705191  0.705191  0.642753  1
  O  O19  1  0.000000  0.294809  0.642753  1
  O  O20  1  0.294809  0.294809  0.142753  1
  O  O21  1  0.000000  0.705191  0.142753  1
  O  O22  1  0.294809  0.000000  0.642753  1
  O  O23  1  0.705191  0.000000  0.142753  1
  O  O24  1  0.868010  0.447415  0.784350  1
  O  O25  1  0.579406  0.131990  0.784350  1
  O  O26  1  0.131990  0.552585  0.284350  1
  O  O27  1  0.579406  0.447415  0.284350  1
  O  O28  1  0.552585  0.420594  0.784350  1
  O  O29  1  0.420594  0.868010  0.284350  1
  O  O30  1  0.552585  0.131990  0.284350  1
  O  O31  1  0.420594  0.552585  0.784350  1
  O  O32  1  0.447415  0.579406  0.284350  1
  O  O33  1  0.447415  0.868010  0.784350  1
  O  O34  1  0.868010  0.420594  0.284350  1
  O  O35  1  0.131990  0.579406  0.784350  1
  O  O36  1  0.866495  0.255261  0.966800  1
  O  O37  1  0.388765  0.133505  0.966800  1
  O  O38  1  0.133505  0.744739  0.466800  1
  O  O39  1  0.388765  0.255261  0.466800  1
  O  O40  1  0.744739  0.611235  0.966800  1
  O  O41  1  0.611235  0.866495  0.466800  1
  O  O42  1  0.744739  0.133505  0.466800  1
  O  O43  1  0.611235  0.744739  0.966800  1
  O  O44  1  0.255261  0.388765  0.466800  1
  O  O45  1  0.255261  0.866495  0.966800  1
  O  O46  1  0.866495  0.611235  0.466800  1
  O  O47  1  0.133505  0.388765  0.966800  1
