# generated using pymatgen
data_SrAl4CdI16
_symmetry_space_group_name_H-M   'P 1'
_cell_length_a   8.73292677
_cell_length_b   8.20001535
_cell_length_c   15.35882600
_cell_angle_alpha   89.73101679
_cell_angle_beta   92.31685545
_cell_angle_gamma   90.28203894
_symmetry_Int_Tables_number   1
_chemical_formula_structural   SrAl4CdI16
_chemical_formula_sum   'Sr1 Al4 Cd1 I16'
_cell_volume   1098.92406778
_cell_formula_units_Z   1
loop_
 _symmetry_equiv_pos_site_id
 _symmetry_equiv_pos_as_xyz
  1  'x, y, z'
loop_
 _atom_site_type_symbol
 _atom_site_label
 _atom_site_symmetry_multiplicity
 _atom_site_fract_x
 _atom_site_fract_y
 _atom_site_fract_z
 _atom_site_occupancy
  Sr  Sr0  1  0.804012  0.120982  0.829957  1
  Al  Al1  1  0.955352  0.219870  0.572182  1
  Al  Al2  1  0.056690  0.172561  0.085227  1
  Al  Al3  1  0.576941  0.669170  0.778810  1
  Al  Al4  1  0.401154  0.644147  0.278396  1
  Cd  Cd5  1  0.238624  0.086014  0.313180  1
  I  I6  1  0.430359  0.636950  0.636621  1
  I  I7  1  0.550796  0.608448  0.144483  1
  I  I8  1  0.866450  0.725967  0.764953  1
  I  I9  1  0.119969  0.734031  0.253925  1
  I  I10  1  0.947482  0.484110  0.489850  1
  I  I11  1  0.013005  0.401111  0.973934  1
  I  I12  1  0.922092  0.922286  0.017325  1
  I  I13  1  0.083577  0.992951  0.481664  1
  I  I14  1  0.684357  0.131050  0.615024  1
  I  I15  1  0.342782  0.123159  0.122974  1
  I  I16  1  0.543827  0.412168  0.875812  1
  I  I17  1  0.410562  0.385598  0.378634  1
  I  I18  1  0.475856  0.914059  0.865495  1
  I  I19  1  0.515424  0.886214  0.370339  1
  I  I20  1  0.949536  0.236879  0.236303  1
  I  I21  1  0.111154  0.227073  0.719315  1
