# generated using pymatgen
data_Sm(TcO4)3
_symmetry_space_group_name_H-M   'P 1'
_cell_length_a   10.25756300
_cell_length_b   10.25755984
_cell_length_c   6.29587000
_cell_angle_alpha   90.00000000
_cell_angle_beta   90.00000000
_cell_angle_gamma   120.00007148
_symmetry_Int_Tables_number   1
_chemical_formula_structural   Sm(TcO4)3
_chemical_formula_sum   'Sm2 Tc6 O24'
_cell_volume   573.68609402
_cell_formula_units_Z   2
loop_
 _symmetry_equiv_pos_site_id
 _symmetry_equiv_pos_as_xyz
  1  'x, y, z'
loop_
 _atom_site_type_symbol
 _atom_site_label
 _atom_site_symmetry_multiplicity
 _atom_site_fract_x
 _atom_site_fract_y
 _atom_site_fract_z
 _atom_site_occupancy
  Sm  Sm0  1  0.666666  0.333333  0.750000  1
  Sm  Sm1  1  0.333334  0.666667  0.250000  1
  Tc  Tc2  1  0.089874  0.394454  0.750000  1
  Tc  Tc3  1  0.394455  0.304581  0.250000  1
  Tc  Tc4  1  0.605545  0.695419  0.750000  1
  Tc  Tc5  1  0.910126  0.605546  0.250000  1
  Tc  Tc6  1  0.304582  0.910129  0.750000  1
  Tc  Tc7  1  0.695418  0.089871  0.250000  1
  O  O8  1  0.490733  0.648143  0.524245  1
  O  O9  1  0.351856  0.842590  0.524247  1
  O  O10  1  0.847833  0.732220  0.250000  1
  O  O11  1  0.115616  0.847834  0.750000  1
  O  O12  1  0.267780  0.115616  0.250000  1
  O  O13  1  0.152167  0.267780  0.750000  1
  O  O14  1  0.509267  0.351857  0.024245  1
  O  O15  1  0.884384  0.152166  0.250000  1
  O  O16  1  0.106445  0.699268  0.250000  1
  O  O17  1  0.157410  0.509266  0.975753  1
  O  O18  1  0.157410  0.509266  0.524247  1
  O  O19  1  0.893555  0.300732  0.750000  1
  O  O20  1  0.300732  0.407176  0.250000  1
  O  O21  1  0.699268  0.592824  0.750000  1
  O  O22  1  0.842590  0.490734  0.475753  1
  O  O23  1  0.407176  0.106447  0.750000  1
  O  O24  1  0.648144  0.157410  0.024247  1
  O  O25  1  0.490733  0.648143  0.975755  1
  O  O26  1  0.351856  0.842590  0.975753  1
  O  O27  1  0.648144  0.157410  0.475753  1
  O  O28  1  0.509267  0.351857  0.475755  1
  O  O29  1  0.842590  0.490734  0.024247  1
  O  O30  1  0.732220  0.884384  0.750000  1
  O  O31  1  0.592824  0.893553  0.250000  1
