# generated using pymatgen
data_Na2Ni3S4
_symmetry_space_group_name_H-M   'P 1'
_cell_length_a   12.70312817
_cell_length_b   12.04731909
_cell_length_c   5.69325634
_cell_angle_alpha   83.22552435
_cell_angle_beta   70.34803282
_cell_angle_gamma   26.42644189
_symmetry_Int_Tables_number   1
_chemical_formula_structural   Na2Ni3S4
_chemical_formula_sum   'Na4 Ni6 S8'
_cell_volume   328.44581861
_cell_formula_units_Z   2
loop_
 _symmetry_equiv_pos_site_id
 _symmetry_equiv_pos_as_xyz
  1  'x, y, z'
loop_
 _atom_site_type_symbol
 _atom_site_label
 _atom_site_symmetry_multiplicity
 _atom_site_fract_x
 _atom_site_fract_y
 _atom_site_fract_z
 _atom_site_occupancy
  Na  Na0  1  0.924975  0.924975  0.075025  1
  Na  Na1  1  0.075025  0.075025  0.924975  1
  Na  Na2  1  0.325025  0.325025  0.174975  1
  Na  Na3  1  0.174975  0.174975  0.325025  1
  Ni  Ni4  1  0.500000  0.500000  0.500000  1
  Ni  Ni5  1  0.750000  0.750000  0.750000  1
  Ni  Ni6  1  0.252261  0.252261  0.747739  1
  Ni  Ni7  1  0.747739  0.747739  0.252261  1
  Ni  Ni8  1  0.997739  0.997739  0.502261  1
  Ni  Ni9  1  0.502261  0.502261  0.997739  1
  S  S10  1  0.383608  0.741520  0.282316  1
  S  S11  1  0.282316  0.592555  0.383608  1
  S  S12  1  0.741520  0.383608  0.592555  1
  S  S13  1  0.592555  0.282316  0.741520  1
  S  S14  1  0.866392  0.508480  0.967684  1
  S  S15  1  0.967684  0.657445  0.866392  1
  S  S16  1  0.508480  0.866392  0.657445  1
  S  S17  1  0.657445  0.967684  0.508480  1
