# generated using pymatgen
data_Pr2Tm3Tl4
_symmetry_space_group_name_H-M   'P 1'
_cell_length_a   8.04899600
_cell_length_b   8.31727900
_cell_length_c   15.95957300
_cell_angle_alpha   90.00000000
_cell_angle_beta   90.00000000
_cell_angle_gamma   90.00000000
_symmetry_Int_Tables_number   1
_chemical_formula_structural   Pr2Tm3Tl4
_chemical_formula_sum   'Pr8 Tm12 Tl16'
_cell_volume   1068.42551078
_cell_formula_units_Z   4
loop_
 _symmetry_equiv_pos_site_id
 _symmetry_equiv_pos_as_xyz
  1  'x, y, z'
loop_
 _atom_site_type_symbol
 _atom_site_label
 _atom_site_symmetry_multiplicity
 _atom_site_fract_x
 _atom_site_fract_y
 _atom_site_fract_z
 _atom_site_occupancy
  Pr  Pr0  1  0.501492  0.317224  0.904618  1
  Pr  Pr1  1  0.001492  0.182776  0.595382  1
  Pr  Pr2  1  0.498508  0.682776  0.404618  1
  Pr  Pr3  1  0.998508  0.817224  0.095382  1
  Pr  Pr4  1  0.498508  0.682776  0.095382  1
  Pr  Pr5  1  0.998508  0.817224  0.404618  1
  Pr  Pr6  1  0.501492  0.317224  0.595382  1
  Pr  Pr7  1  0.001492  0.182776  0.904618  1
  Tm  Tm8  1  0.343314  0.837391  0.875004  1
  Tm  Tm9  1  0.843314  0.662609  0.624996  1
  Tm  Tm10  1  0.656686  0.162609  0.375004  1
  Tm  Tm11  1  0.156686  0.337391  0.124996  1
  Tm  Tm12  1  0.656686  0.162609  0.124996  1
  Tm  Tm13  1  0.156686  0.337391  0.375004  1
  Tm  Tm14  1  0.343314  0.837391  0.624996  1
  Tm  Tm15  1  0.843314  0.662609  0.875004  1
  Tm  Tm16  1  0.178326  0.502238  0.750000  1
  Tm  Tm17  1  0.678326  0.997762  0.750000  1
  Tm  Tm18  1  0.821674  0.497762  0.250000  1
  Tm  Tm19  1  0.321674  0.002238  0.250000  1
  Tl  Tl20  1  0.317351  0.040570  0.039766  1
  Tl  Tl21  1  0.817351  0.459430  0.460234  1
  Tl  Tl22  1  0.682649  0.959430  0.539766  1
  Tl  Tl23  1  0.182649  0.540570  0.960234  1
  Tl  Tl24  1  0.682649  0.959430  0.960234  1
  Tl  Tl25  1  0.182649  0.540570  0.539766  1
  Tl  Tl26  1  0.317351  0.040570  0.460234  1
  Tl  Tl27  1  0.817351  0.459430  0.039766  1
  Tl  Tl28  1  0.539755  0.622152  0.750000  1
  Tl  Tl29  1  0.039755  0.877848  0.750000  1
  Tl  Tl30  1  0.460245  0.377848  0.250000  1
  Tl  Tl31  1  0.960245  0.122152  0.250000  1
  Tl  Tl32  1  0.304826  0.139216  0.750000  1
  Tl  Tl33  1  0.804826  0.360784  0.750000  1
  Tl  Tl34  1  0.695174  0.860784  0.250000  1
  Tl  Tl35  1  0.195174  0.639216  0.250000  1
