# generated using pymatgen
data_Tb3EuCo18(P6Ru)2
_symmetry_space_group_name_H-M   'P 1'
_cell_length_a   3.68711000
_cell_length_b   10.38427399
_cell_length_c   11.81144712
_cell_angle_alpha   90.04991143
_cell_angle_beta   90.00000000
_cell_angle_gamma   90.00000000
_symmetry_Int_Tables_number   1
_chemical_formula_structural   Tb3EuCo18(P6Ru)2
_chemical_formula_sum   'Tb3 Eu1 Co18 P12 Ru2'
_cell_volume   452.23604865
_cell_formula_units_Z   1
loop_
 _symmetry_equiv_pos_site_id
 _symmetry_equiv_pos_as_xyz
  1  'x, y, z'
loop_
 _atom_site_type_symbol
 _atom_site_label
 _atom_site_symmetry_multiplicity
 _atom_site_fract_x
 _atom_site_fract_y
 _atom_site_fract_z
 _atom_site_occupancy
  Tb  Tb0  1  0.250000  0.917479  0.202071  1
  Tb  Tb1  1  0.750000  0.413603  0.295425  1
  Tb  Tb2  1  0.750000  0.085850  0.796042  1
  Eu  Eu3  1  0.250000  0.583713  0.702614  1
  Co  Co4  1  0.750000  0.284575  0.010430  1
  Co  Co5  1  0.750000  0.214984  0.508414  1
  Co  Co6  1  0.250000  0.404375  0.486916  1
  Co  Co7  1  0.250000  0.093971  0.987964  1
  Co  Co8  1  0.750000  0.590458  0.506038  1
  Co  Co9  1  0.750000  0.908908  0.010780  1
  Co  Co10  1  0.250000  0.220282  0.176409  1
  Co  Co11  1  0.250000  0.278519  0.675585  1
  Co  Co12  1  0.750000  0.781733  0.824877  1
  Co  Co13  1  0.750000  0.722768  0.322538  1
  Co  Co14  1  0.250000  0.887805  0.701344  1
  Co  Co15  1  0.250000  0.613401  0.202146  1
  Co  Co16  1  0.750000  0.116487  0.300901  1
  Co  Co17  1  0.750000  0.380078  0.802450  1
  Co  Co18  1  0.250000  0.464124  0.934208  1
  Co  Co19  1  0.250000  0.035561  0.432273  1
  Co  Co20  1  0.750000  0.532611  0.069354  1
  Co  Co21  1  0.750000  0.968119  0.568213  1
  P  P22  1  0.250000  0.417129  0.112319  1
  P  P23  1  0.250000  0.082582  0.611510  1
  P  P24  1  0.750000  0.578425  0.888099  1
  P  P25  1  0.750000  0.921718  0.387236  1
  P  P26  1  0.250000  0.271401  0.868657  1
  P  P27  1  0.250000  0.228435  0.368566  1
  P  P28  1  0.750000  0.727708  0.132920  1
  P  P29  1  0.750000  0.773832  0.632906  1
  P  P30  1  0.250000  0.595632  0.391034  1
  P  P31  1  0.250000  0.903978  0.890897  1
  P  P32  1  0.750000  0.395393  0.607782  1
  P  P33  1  0.750000  0.103343  0.108197  1
  Ru  Ru34  1  0.250000  0.714806  0.992302  1
  Ru  Ru35  1  0.250000  0.786214  0.490587  1
