# generated using pymatgen
data_Sc3Tc2P3Ru
_symmetry_space_group_name_H-M   'P 1'
_cell_length_a   6.76112710
_cell_length_b   6.76112750
_cell_length_c   3.46095000
_cell_angle_alpha   90.00000000
_cell_angle_beta   90.00000000
_cell_angle_gamma   120.41388504
_symmetry_Int_Tables_number   1
_chemical_formula_structural   Sc3Tc2P3Ru
_chemical_formula_sum   'Sc3 Tc2 P3 Ru1'
_cell_volume   136.43876273
_cell_formula_units_Z   1
loop_
 _symmetry_equiv_pos_site_id
 _symmetry_equiv_pos_as_xyz
  1  'x, y, z'
loop_
 _atom_site_type_symbol
 _atom_site_label
 _atom_site_symmetry_multiplicity
 _atom_site_fract_x
 _atom_site_fract_y
 _atom_site_fract_z
 _atom_site_occupancy
  Sc  Sc0  1  0.404907  0.404907  0.500000  1
  Sc  Sc1  1  0.595214  0.000912  0.500000  1
  Sc  Sc2  1  0.000912  0.595214  0.500000  1
  Tc  Tc3  1  0.999901  0.248055  0.000000  1
  Tc  Tc4  1  0.248055  0.999901  0.000000  1
  P  P5  1  0.667222  0.333622  0.000000  1
  P  P6  1  0.333622  0.667222  0.000000  1
  P  P7  1  0.998775  0.998775  0.500000  1
  Ru  Ru8  1  0.751391  0.751391  0.000000  1
