# generated using pymatgen
data_Pr2Er2LuPb4
_symmetry_space_group_name_H-M   'P 1'
_cell_length_a   8.24443700
_cell_length_b   8.36383300
_cell_length_c   15.77265700
_cell_angle_alpha   90.00000000
_cell_angle_beta   90.00000000
_cell_angle_gamma   90.00000000
_symmetry_Int_Tables_number   1
_chemical_formula_structural   Pr2Er2LuPb4
_chemical_formula_sum   'Pr8 Er8 Lu4 Pb16'
_cell_volume   1087.60504996
_cell_formula_units_Z   4
loop_
 _symmetry_equiv_pos_site_id
 _symmetry_equiv_pos_as_xyz
  1  'x, y, z'
loop_
 _atom_site_type_symbol
 _atom_site_label
 _atom_site_symmetry_multiplicity
 _atom_site_fract_x
 _atom_site_fract_y
 _atom_site_fract_z
 _atom_site_occupancy
  Pr  Pr0  1  0.476289  0.677496  0.597240  1
  Pr  Pr1  1  0.976289  0.822504  0.902760  1
  Pr  Pr2  1  0.523711  0.322504  0.097240  1
  Pr  Pr3  1  0.023711  0.177496  0.402760  1
  Pr  Pr4  1  0.523711  0.322504  0.402760  1
  Pr  Pr5  1  0.023711  0.177496  0.097240  1
  Pr  Pr6  1  0.476289  0.677496  0.902760  1
  Pr  Pr7  1  0.976289  0.822504  0.597240  1
  Er  Er8  1  0.633502  0.158266  0.622376  1
  Er  Er9  1  0.133502  0.341734  0.877624  1
  Er  Er10  1  0.366498  0.841734  0.122376  1
  Er  Er11  1  0.866498  0.658266  0.377624  1
  Er  Er12  1  0.366498  0.841734  0.377624  1
  Er  Er13  1  0.866498  0.658266  0.122376  1
  Er  Er14  1  0.633502  0.158266  0.877624  1
  Er  Er15  1  0.133502  0.341734  0.622376  1
  Lu  Lu16  1  0.799156  0.494394  0.750000  1
  Lu  Lu17  1  0.299156  0.005606  0.750000  1
  Lu  Lu18  1  0.200844  0.505606  0.250000  1
  Lu  Lu19  1  0.700844  0.994394  0.250000  1
  Pb  Pb20  1  0.704873  0.958750  0.456099  1
  Pb  Pb21  1  0.204873  0.541250  0.043901  1
  Pb  Pb22  1  0.295127  0.041250  0.956099  1
  Pb  Pb23  1  0.795127  0.458750  0.543901  1
  Pb  Pb24  1  0.295127  0.041250  0.543901  1
  Pb  Pb25  1  0.795127  0.458750  0.956099  1
  Pb  Pb26  1  0.704873  0.958750  0.043901  1
  Pb  Pb27  1  0.204873  0.541250  0.456099  1
  Pb  Pb28  1  0.437890  0.370311  0.750000  1
  Pb  Pb29  1  0.937890  0.129689  0.750000  1
  Pb  Pb30  1  0.562110  0.629689  0.250000  1
  Pb  Pb31  1  0.062110  0.870311  0.250000  1
  Pb  Pb32  1  0.664128  0.850053  0.750000  1
  Pb  Pb33  1  0.164128  0.649947  0.750000  1
  Pb  Pb34  1  0.335872  0.149947  0.250000  1
  Pb  Pb35  1  0.835872  0.350053  0.250000  1
