# generated using pymatgen
data_Dy2Lu10Co5Bi
_symmetry_space_group_name_H-M   'P 1'
_cell_length_a   8.14387098
_cell_length_b   8.16066132
_cell_length_c   8.16066071
_cell_angle_alpha   111.26393340
_cell_angle_beta   110.86987958
_cell_angle_gamma   106.40365104
_symmetry_Int_Tables_number   1
_chemical_formula_structural   Dy2Lu10Co5Bi
_chemical_formula_sum   'Dy2 Lu10 Co5 Bi1'
_cell_volume   416.17887964
_cell_formula_units_Z   1
loop_
 _symmetry_equiv_pos_site_id
 _symmetry_equiv_pos_as_xyz
  1  'x, y, z'
loop_
 _atom_site_type_symbol
 _atom_site_label
 _atom_site_symmetry_multiplicity
 _atom_site_fract_x
 _atom_site_fract_y
 _atom_site_fract_z
 _atom_site_occupancy
  Dy  Dy0  1  0.984848  0.789193  0.195655  1
  Dy  Dy1  1  0.015152  0.210807  0.804345  1
  Lu  Lu2  1  0.816113  0.712735  0.531787  1
  Lu  Lu3  1  0.183887  0.287265  0.468213  1
  Lu  Lu4  1  0.183887  0.715674  0.896621  1
  Lu  Lu5  1  0.816113  0.284326  0.103379  1
  Lu  Lu6  1  0.685679  0.378483  0.688800  1
  Lu  Lu7  1  0.314321  0.621517  0.311200  1
  Lu  Lu8  1  0.685679  0.996879  0.307196  1
  Lu  Lu9  1  0.314321  0.003121  0.692804  1
  Lu  Lu10  1  0.592141  0.788798  0.803343  1
  Lu  Lu11  1  0.407859  0.211202  0.196657  1
  Co  Co12  1  0.624305  0.998340  0.625965  1
  Co  Co13  1  0.375695  0.001660  0.374035  1
  Co  Co14  1  0.114333  0.612176  0.502157  1
  Co  Co15  1  0.885667  0.387824  0.497843  1
  Co  Co16  1  0.000000  0.000000  0.000000  1
  Bi  Bi17  1  0.500000  0.500000  0.000000  1
