# generated using pymatgen
data_Ho6Tm2SnPd24
_symmetry_space_group_name_H-M   'P 1'
_cell_length_a   8.37798201
_cell_length_b   8.37798203
_cell_length_c   8.37798200
_cell_angle_alpha   89.99674471
_cell_angle_beta   90.00325529
_cell_angle_gamma   90.00325548
_symmetry_Int_Tables_number   1
_chemical_formula_structural   Ho6Tm2SnPd24
_chemical_formula_sum   'Ho6 Tm2 Sn1 Pd24'
_cell_volume   588.05543585
_cell_formula_units_Z   1
loop_
 _symmetry_equiv_pos_site_id
 _symmetry_equiv_pos_as_xyz
  1  'x, y, z'
loop_
 _atom_site_type_symbol
 _atom_site_label
 _atom_site_symmetry_multiplicity
 _atom_site_fract_x
 _atom_site_fract_y
 _atom_site_fract_z
 _atom_site_occupancy
  Ho  Ho0  1  0.252904  0.252894  0.252894  1
  Ho  Ho1  1  0.747096  0.747106  0.747106  1
  Ho  Ho2  1  0.747106  0.747096  0.252894  1
  Ho  Ho3  1  0.747106  0.252894  0.747096  1
  Ho  Ho4  1  0.252894  0.252904  0.747106  1
  Ho  Ho5  1  0.252894  0.747106  0.252904  1
  Tm  Tm6  1  0.252989  0.747011  0.747011  1
  Tm  Tm7  1  0.747011  0.252989  0.252989  1
  Sn  Sn8  1  0.000000  0.000000  0.000000  1
  Pd  Pd9  1  0.264553  0.500278  0.999471  1
  Pd  Pd10  1  0.735447  0.499722  0.000529  1
  Pd  Pd11  1  0.999471  0.264553  0.499722  1
  Pd  Pd12  1  0.500278  0.264553  0.000529  1
  Pd  Pd13  1  0.000529  0.735447  0.500278  1
  Pd  Pd14  1  0.499722  0.735447  0.999471  1
  Pd  Pd15  1  0.500278  0.000529  0.264553  1
  Pd  Pd16  1  0.264553  0.999471  0.500278  1
  Pd  Pd17  1  0.499722  0.999471  0.735447  1
  Pd  Pd18  1  0.735447  0.000529  0.499722  1
  Pd  Pd19  1  0.999471  0.499722  0.264553  1
  Pd  Pd20  1  0.000529  0.500278  0.735447  1
  Pd  Pd21  1  0.254716  0.500495  0.500495  1
  Pd  Pd22  1  0.745284  0.499505  0.499505  1
  Pd  Pd23  1  0.500495  0.254716  0.499505  1
  Pd  Pd24  1  0.499505  0.745284  0.500495  1
  Pd  Pd25  1  0.500495  0.499505  0.254716  1
  Pd  Pd26  1  0.499505  0.500495  0.745284  1
  Pd  Pd27  1  0.307435  0.999564  0.999564  1
  Pd  Pd28  1  0.692565  0.000436  0.000436  1
  Pd  Pd29  1  0.999564  0.307435  0.000436  1
  Pd  Pd30  1  0.000436  0.692565  0.999564  1
  Pd  Pd31  1  0.999564  0.000436  0.307435  1
  Pd  Pd32  1  0.000436  0.999564  0.692565  1
