# generated using pymatgen
data_Tb2YCI5
_symmetry_space_group_name_H-M   'P 1'
_cell_length_a   7.70279501
_cell_length_b   9.55339741
_cell_length_c   9.62398221
_cell_angle_alpha   106.92780203
_cell_angle_beta   96.49559687
_cell_angle_gamma   104.34164085
_symmetry_Int_Tables_number   1
_chemical_formula_structural   Tb2YCI5
_chemical_formula_sum   'Tb4 Y2 C2 I10'
_cell_volume   643.16443364
_cell_formula_units_Z   2
loop_
 _symmetry_equiv_pos_site_id
 _symmetry_equiv_pos_as_xyz
  1  'x, y, z'
loop_
 _atom_site_type_symbol
 _atom_site_label
 _atom_site_symmetry_multiplicity
 _atom_site_fract_x
 _atom_site_fract_y
 _atom_site_fract_z
 _atom_site_occupancy
  Tb  Tb0  1  0.103518  0.038529  0.781877  1
  Tb  Tb1  1  0.373204  0.131723  0.177261  1
  Tb  Tb2  1  0.896210  0.961751  0.218153  1
  Tb  Tb3  1  0.028809  0.743100  0.925701  1
  Y  Y4  1  0.971549  0.256014  0.074191  1
  Y  Y5  1  0.627229  0.868435  0.823024  1
  C  C6  1  0.908784  0.969939  0.958753  1
  C  C7  1  0.090968  0.029643  0.041098  1
  I  I8  1  0.194637  0.737750  0.650930  1
  I  I9  1  0.086454  0.363759  0.823076  1
  I  I10  1  0.456559  0.810920  0.092936  1
  I  I11  1  0.253799  0.084483  0.457278  1
  I  I12  1  0.543108  0.188730  0.906545  1
  I  I13  1  0.806892  0.262869  0.348942  1
  I  I14  1  0.343931  0.451857  0.272117  1
  I  I15  1  0.913068  0.636370  0.177472  1
  I  I16  1  0.655476  0.548629  0.727803  1
  I  I17  1  0.745803  0.915498  0.542843  1
