# generated using pymatgen
data_Ni11(SbTe2)2
_symmetry_space_group_name_H-M   'P 1'
_cell_length_a   3.79475600
_cell_length_b   3.79475600
_cell_length_c   19.27628500
_cell_angle_alpha   90.00000000
_cell_angle_beta   90.00000000
_cell_angle_gamma   90.00000000
_symmetry_Int_Tables_number   1
_chemical_formula_structural   Ni11(SbTe2)2
_chemical_formula_sum   'Ni11 Sb2 Te4'
_cell_volume   277.58184072
_cell_formula_units_Z   1
loop_
 _symmetry_equiv_pos_site_id
 _symmetry_equiv_pos_as_xyz
  1  'x, y, z'
loop_
 _atom_site_type_symbol
 _atom_site_label
 _atom_site_symmetry_multiplicity
 _atom_site_fract_x
 _atom_site_fract_y
 _atom_site_fract_z
 _atom_site_occupancy
  Ni  Ni0  1  0.000000  0.500000  0.406227  1
  Ni  Ni1  1  0.500000  0.000000  0.907040  1
  Ni  Ni2  1  0.500000  0.000000  0.406227  1
  Ni  Ni3  1  0.000000  0.500000  0.907040  1
  Ni  Ni4  1  0.500000  0.000000  0.094638  1
  Ni  Ni5  1  0.000000  0.500000  0.594050  1
  Ni  Ni6  1  0.000000  0.500000  0.094638  1
  Ni  Ni7  1  0.500000  0.000000  0.594050  1
  Ni  Ni8  1  0.500000  0.500000  0.000405  1
  Ni  Ni9  1  0.000000  0.000000  0.501036  1
  Ni  Ni10  1  0.500000  0.500000  0.308755  1
  Sb  Sb11  1  0.000000  0.000000  0.000809  1
  Sb  Sb12  1  0.500000  0.500000  0.499259  1
  Te  Te13  1  0.000000  0.000000  0.315446  1
  Te  Te14  1  0.500000  0.500000  0.821735  1
  Te  Te15  1  0.500000  0.500000  0.178733  1
  Te  Te16  1  0.000000  0.000000  0.679514  1
