# generated using pymatgen
data_Dy9ErSi5Pb
_symmetry_space_group_name_H-M   'P 1'
_cell_length_a   8.51927111
_cell_length_b   8.55163121
_cell_length_c   6.40796207
_cell_angle_alpha   90.01280882
_cell_angle_beta   90.00310809
_cell_angle_gamma   119.89265371
_symmetry_Int_Tables_number   1
_chemical_formula_structural   Dy9ErSi5Pb
_chemical_formula_sum   'Dy9 Er1 Si5 Pb1'
_cell_volume   404.73494706
_cell_formula_units_Z   1
loop_
 _symmetry_equiv_pos_site_id
 _symmetry_equiv_pos_as_xyz
  1  'x, y, z'
loop_
 _atom_site_type_symbol
 _atom_site_label
 _atom_site_symmetry_multiplicity
 _atom_site_fract_x
 _atom_site_fract_y
 _atom_site_fract_z
 _atom_site_occupancy
  Dy  Dy0  1  0.987435  0.746978  0.750206  1
  Dy  Dy1  1  0.998377  0.242768  0.249837  1
  Dy  Dy2  1  0.755779  0.757138  0.249797  1
  Dy  Dy3  1  0.766539  0.000150  0.750151  1
  Dy  Dy4  1  0.240634  0.252926  0.750120  1
  Dy  Dy5  1  0.240862  0.000157  0.249835  1
  Dy  Dy6  1  0.331227  0.656313  0.495998  1
  Dy  Dy7  1  0.331273  0.656348  0.003997  1
  Dy  Dy8  1  0.674941  0.343700  0.496062  1
  Er  Er9  1  0.674739  0.343337  0.003998  1
  Si  Si10  1  0.393919  0.391892  0.249589  1
  Si  Si11  1  0.001073  0.607701  0.249499  1
  Si  Si12  1  0.997986  0.394268  0.750451  1
  Si  Si13  1  0.604256  0.605370  0.750441  1
  Si  Si14  1  0.606122  0.000446  0.249644  1
  Pb  Pb15  1  0.394839  0.000506  0.750377  1
