# generated using pymatgen
data_Tb3Ce(Tc3Ge4)2
_symmetry_space_group_name_H-M   'P 1'
_cell_length_a   8.31405028
_cell_length_b   5.72722742
_cell_length_c   7.04217832
_cell_angle_alpha   76.28577840
_cell_angle_beta   90.03254065
_cell_angle_gamma   90.16141610
_symmetry_Int_Tables_number   1
_chemical_formula_structural   Tb3Ce(Tc3Ge4)2
_chemical_formula_sum   'Tb3 Ce1 Tc6 Ge8'
_cell_volume   325.76231158
_cell_formula_units_Z   1
loop_
 _symmetry_equiv_pos_site_id
 _symmetry_equiv_pos_as_xyz
  1  'x, y, z'
loop_
 _atom_site_type_symbol
 _atom_site_label
 _atom_site_symmetry_multiplicity
 _atom_site_fract_x
 _atom_site_fract_y
 _atom_site_fract_z
 _atom_site_occupancy
  Tb  Tb0  1  0.056211  0.423841  0.754171  1
  Tb  Tb1  1  0.442201  0.924808  0.752725  1
  Tb  Tb2  1  0.942386  0.576361  0.245197  1
  Ce  Ce3  1  0.555489  0.078705  0.244166  1
  Tc  Tc4  1  0.210814  0.108123  0.116994  1
  Tc  Tc5  1  0.704491  0.381412  0.891922  1
  Tc  Tc6  1  0.795847  0.889196  0.883715  1
  Tc  Tc7  1  0.295098  0.612857  0.112707  1
  Tc  Tc8  1  0.999345  0.999222  0.498589  1
  Tc  Tc9  1  0.500429  0.500891  0.500896  1
  Ge  Ge10  1  0.905537  0.119509  0.126835  1
  Ge  Ge11  1  0.400124  0.383373  0.869868  1
  Ge  Ge12  1  0.098044  0.879025  0.873986  1
  Ge  Ge13  1  0.597340  0.624463  0.124002  1
  Ge  Ge14  1  0.748188  0.223630  0.580591  1
  Ge  Ge15  1  0.245584  0.281417  0.419350  1
  Ge  Ge16  1  0.250667  0.773497  0.421908  1
  Ge  Ge17  1  0.752205  0.719670  0.582377  1
