# generated using pymatgen
data_Lu2Cu2Pb
_symmetry_space_group_name_H-M   'P 1'
_cell_length_a   7.38844600
_cell_length_b   7.38844600
_cell_length_c   3.80036500
_cell_angle_alpha   90.00000000
_cell_angle_beta   90.00000000
_cell_angle_gamma   90.00000000
_symmetry_Int_Tables_number   1
_chemical_formula_structural   Lu2Cu2Pb
_chemical_formula_sum   'Lu4 Cu4 Pb2'
_cell_volume   207.45863535
_cell_formula_units_Z   2
loop_
 _symmetry_equiv_pos_site_id
 _symmetry_equiv_pos_as_xyz
  1  'x, y, z'
loop_
 _atom_site_type_symbol
 _atom_site_label
 _atom_site_symmetry_multiplicity
 _atom_site_fract_x
 _atom_site_fract_y
 _atom_site_fract_z
 _atom_site_occupancy
  Lu  Lu0  1  0.670320  0.170320  0.500000  1
  Lu  Lu1  1  0.329680  0.829680  0.500000  1
  Lu  Lu2  1  0.170320  0.329680  0.500000  1
  Lu  Lu3  1  0.829680  0.670320  0.500000  1
  Cu  Cu4  1  0.118872  0.618872  0.000000  1
  Cu  Cu5  1  0.881128  0.381128  0.000000  1
  Cu  Cu6  1  0.618872  0.881128  0.000000  1
  Cu  Cu7  1  0.381128  0.118872  0.000000  1
  Pb  Pb8  1  0.500000  0.500000  0.000000  1
  Pb  Pb9  1  0.000000  0.000000  0.000000  1
