# generated using pymatgen
data_Ho5Tm5(In2Bi)2
_symmetry_space_group_name_H-M   'P 1'
_cell_length_a   6.57036700
_cell_length_b   8.97033904
_cell_length_c   8.94679726
_cell_angle_alpha   119.79945614
_cell_angle_beta   90.00015468
_cell_angle_gamma   90.00026750
_symmetry_Int_Tables_number   1
_chemical_formula_structural   Ho5Tm5(In2Bi)2
_chemical_formula_sum   'Ho5 Tm5 In4 Bi2'
_cell_volume   457.58396725
_cell_formula_units_Z   1
loop_
 _symmetry_equiv_pos_site_id
 _symmetry_equiv_pos_as_xyz
  1  'x, y, z'
loop_
 _atom_site_type_symbol
 _atom_site_label
 _atom_site_symmetry_multiplicity
 _atom_site_fract_x
 _atom_site_fract_y
 _atom_site_fract_z
 _atom_site_occupancy
  Ho  Ho0  1  0.749999  0.228531  0.990916  1
  Ho  Ho1  1  0.749989  0.771206  0.761809  1
  Ho  Ho2  1  0.750001  0.999921  0.239268  1
  Ho  Ho3  1  0.250005  0.764969  0.000309  1
  Ho  Ho4  1  0.249995  0.234956  0.235224  1
  Tm  Tm5  1  0.492699  0.328704  0.667327  1
  Tm  Tm6  1  0.492819  0.671335  0.338716  1
  Tm  Tm7  1  0.007185  0.671326  0.338704  1
  Tm  Tm8  1  0.007296  0.328709  0.667326  1
  Tm  Tm9  1  0.250002  0.000091  0.762965  1
  In  In10  1  0.749998  0.000073  0.595493  1
  In  In11  1  0.250009  0.397987  0.002992  1
  In  In12  1  0.249998  0.601779  0.604548  1
  In  In13  1  0.250003  0.000114  0.398533  1
  Bi  Bi14  1  0.750003  0.603652  0.999659  1
  Bi  Bi15  1  0.749998  0.396647  0.396213  1
