# generated using pymatgen
data_ErTm7Ti11Si16Hg
_symmetry_space_group_name_H-M   'P 1'
_cell_length_a   7.03906199
_cell_length_b   7.03951436
_cell_length_c   12.84275612
_cell_angle_alpha   90.11454509
_cell_angle_beta   89.88385381
_cell_angle_gamma   89.64528844
_symmetry_Int_Tables_number   1
_chemical_formula_structural   ErTm7Ti11Si16Hg
_chemical_formula_sum   'Er1 Tm7 Ti11 Si16 Hg1'
_cell_volume   636.36404029
_cell_formula_units_Z   1
loop_
 _symmetry_equiv_pos_site_id
 _symmetry_equiv_pos_as_xyz
  1  'x, y, z'
loop_
 _atom_site_type_symbol
 _atom_site_label
 _atom_site_symmetry_multiplicity
 _atom_site_fract_x
 _atom_site_fract_y
 _atom_site_fract_z
 _atom_site_occupancy
  Er  Er0  1  0.000946  0.657194  0.031502  1
  Tm  Tm1  1  0.340995  0.001271  0.466909  1
  Tm  Tm2  1  0.497977  0.840639  0.716031  1
  Tm  Tm3  1  0.501666  0.156408  0.215190  1
  Tm  Tm4  1  0.840603  0.497929  0.284002  1
  Tm  Tm5  1  0.156425  0.501646  0.784767  1
  Tm  Tm6  1  0.657103  0.001085  0.968435  1
  Tm  Tm7  1  0.001277  0.341011  0.533098  1
  Ti  Ti8  1  0.173812  0.826384  0.250754  1
  Ti  Ti9  1  0.826315  0.173728  0.749302  1
  Ti  Ti10  1  0.672369  0.672376  0.499997  1
  Ti  Ti11  1  0.146616  0.008761  0.876740  1
  Ti  Ti12  1  0.496987  0.649778  0.122925  1
  Ti  Ti13  1  0.505757  0.351823  0.623748  1
  Ti  Ti14  1  0.649689  0.496928  0.877025  1
  Ti  Ti15  1  0.351857  0.505766  0.376270  1
  Ti  Ti16  1  0.850312  0.991527  0.374313  1
  Ti  Ti17  1  0.008690  0.146671  0.123217  1
  Ti  Ti18  1  0.991481  0.850344  0.625691  1
  Si  Si19  1  0.201634  0.133013  0.683354  1
  Si  Si20  1  0.373630  0.725901  0.925895  1
  Si  Si21  1  0.632453  0.293152  0.431633  1
  Si  Si22  1  0.725568  0.373104  0.074083  1
  Si  Si23  1  0.293089  0.632508  0.568332  1
  Si  Si24  1  0.798269  0.866130  0.182549  1
  Si  Si25  1  0.133085  0.201699  0.316618  1
  Si  Si26  1  0.865894  0.798511  0.817465  1
  Si  Si27  1  0.287256  0.933456  0.067431  1
  Si  Si28  1  0.546480  0.791250  0.314692  1
  Si  Si29  1  0.458437  0.205516  0.805510  1
  Si  Si30  1  0.791302  0.546558  0.685306  1
  Si  Si31  1  0.205690  0.458255  0.194642  1
  Si  Si32  1  0.708214  0.047255  0.563877  1
  Si  Si33  1  0.933055  0.286732  0.932526  1
  Si  Si34  1  0.047324  0.708162  0.436165  1
  Hg  Hg35  1  0.327743  0.327532  0.000003  1
