# generated using pymatgen
data_Pr7Tm13(Sn3Pb)4
_symmetry_space_group_name_H-M   'P 1'
_cell_length_a   8.09348347
_cell_length_b   8.26089843
_cell_length_c   15.56298769
_cell_angle_alpha   90.05905930
_cell_angle_beta   90.30854691
_cell_angle_gamma   89.58503294
_symmetry_Int_Tables_number   1
_chemical_formula_structural   Pr7Tm13(Sn3Pb)4
_chemical_formula_sum   'Pr7 Tm13 Sn12 Pb4'
_cell_volume   1040.48982906
_cell_formula_units_Z   1
loop_
 _symmetry_equiv_pos_site_id
 _symmetry_equiv_pos_as_xyz
  1  'x, y, z'
loop_
 _atom_site_type_symbol
 _atom_site_label
 _atom_site_symmetry_multiplicity
 _atom_site_fract_x
 _atom_site_fract_y
 _atom_site_fract_z
 _atom_site_occupancy
  Pr  Pr0  1  0.018935  0.179054  0.599898  1
  Pr  Pr1  1  0.482301  0.677497  0.402568  1
  Pr  Pr2  1  0.981135  0.820792  0.096931  1
  Pr  Pr3  1  0.485542  0.674867  0.097158  1
  Pr  Pr4  1  0.987518  0.823615  0.402069  1
  Pr  Pr5  1  0.510568  0.324513  0.597039  1
  Pr  Pr6  1  0.012595  0.178241  0.901672  1
  Tm  Tm7  1  0.360324  0.837277  0.874151  1
  Tm  Tm8  1  0.858172  0.662242  0.626032  1
  Tm  Tm9  1  0.640437  0.162322  0.374139  1
  Tm  Tm10  1  0.136862  0.338668  0.123759  1
  Tm  Tm11  1  0.640902  0.164007  0.123787  1
  Tm  Tm12  1  0.143527  0.336374  0.375940  1
  Tm  Tm13  1  0.356811  0.837770  0.626333  1
  Tm  Tm14  1  0.858692  0.661790  0.876944  1
  Tm  Tm15  1  0.525999  0.322533  0.900118  1
  Tm  Tm16  1  0.192505  0.502237  0.750019  1
  Tm  Tm17  1  0.690645  0.996331  0.752490  1
  Tm  Tm18  1  0.807633  0.496741  0.247832  1
  Tm  Tm19  1  0.308582  0.003877  0.251052  1
  Sn  Sn20  1  0.691566  0.962175  0.957420  1
  Sn  Sn21  1  0.191621  0.544670  0.542179  1
  Sn  Sn22  1  0.307232  0.041547  0.458858  1
  Sn  Sn23  1  0.798891  0.454967  0.039295  1
  Sn  Sn24  1  0.556780  0.623425  0.750592  1
  Sn  Sn25  1  0.055803  0.873087  0.750694  1
  Sn  Sn26  1  0.442217  0.374774  0.249688  1
  Sn  Sn27  1  0.943356  0.127068  0.249274  1
  Sn  Sn28  1  0.329241  0.147879  0.753542  1
  Sn  Sn29  1  0.820313  0.356765  0.750707  1
  Sn  Sn30  1  0.675629  0.856185  0.250197  1
  Sn  Sn31  1  0.176112  0.642480  0.249543  1
  Pb  Pb32  1  0.305480  0.042575  0.041385  1
  Pb  Pb33  1  0.805763  0.456527  0.458042  1
  Pb  Pb34  1  0.694404  0.958631  0.542510  1
  Pb  Pb35  1  0.205909  0.536493  0.956143  1
