# generated using pymatgen
data_Hf2Mn5CoP4
_symmetry_space_group_name_H-M   'P 1'
_cell_length_a   3.57219200
_cell_length_b   10.60762100
_cell_length_c   12.23698600
_cell_angle_alpha   90.00000000
_cell_angle_beta   90.00000000
_cell_angle_gamma   90.00000000
_symmetry_Int_Tables_number   1
_chemical_formula_structural   Hf2Mn5CoP4
_chemical_formula_sum   'Hf6 Mn15 Co3 P12'
_cell_volume   463.68948876
_cell_formula_units_Z   3
loop_
 _symmetry_equiv_pos_site_id
 _symmetry_equiv_pos_as_xyz
  1  'x, y, z'
loop_
 _atom_site_type_symbol
 _atom_site_label
 _atom_site_symmetry_multiplicity
 _atom_site_fract_x
 _atom_site_fract_y
 _atom_site_fract_z
 _atom_site_occupancy
  Hf  Hf0  1  0.000000  0.500000  0.532699  1
  Hf  Hf1  1  0.500000  0.000000  0.467594  1
  Hf  Hf2  1  0.500000  0.824446  0.206617  1
  Hf  Hf3  1  0.500000  0.175554  0.206617  1
  Hf  Hf4  1  0.000000  0.677098  0.792138  1
  Hf  Hf5  1  0.000000  0.322902  0.792138  1
  Mn  Mn6  1  0.500000  0.500000  0.167660  1
  Mn  Mn7  1  0.000000  0.000000  0.835965  1
  Mn  Mn8  1  0.000000  0.500000  0.990560  1
  Mn  Mn9  1  0.500000  0.332915  0.995809  1
  Mn  Mn10  1  0.500000  0.667085  0.995809  1
  Mn  Mn11  1  0.000000  0.170471  0.003442  1
  Mn  Mn12  1  0.000000  0.829529  0.003442  1
  Mn  Mn13  1  0.500000  0.296408  0.433441  1
  Mn  Mn14  1  0.500000  0.703592  0.433441  1
  Mn  Mn15  1  0.000000  0.202113  0.566658  1
  Mn  Mn16  1  0.000000  0.797887  0.566658  1
  Mn  Mn17  1  0.500000  0.879178  0.701560  1
  Mn  Mn18  1  0.500000  0.120822  0.701560  1
  Mn  Mn19  1  0.000000  0.621939  0.300623  1
  Mn  Mn20  1  0.000000  0.378061  0.300623  1
  Co  Co21  1  0.500000  0.500000  0.703683  1
  Co  Co22  1  0.000000  0.000000  0.291796  1
  Co  Co23  1  0.500000  0.000000  0.008974  1
  P  P24  1  0.500000  0.500000  0.875386  1
  P  P25  1  0.000000  0.000000  0.118266  1
  P  P26  1  0.500000  0.500000  0.364152  1
  P  P27  1  0.000000  0.000000  0.637646  1
  P  P28  1  0.500000  0.322737  0.620779  1
  P  P29  1  0.500000  0.677263  0.620779  1
  P  P30  1  0.000000  0.175284  0.378421  1
  P  P31  1  0.000000  0.824716  0.378421  1
  P  P32  1  0.500000  0.843891  0.883826  1
  P  P33  1  0.500000  0.156109  0.883826  1
  P  P34  1  0.000000  0.657338  0.119497  1
  P  P35  1  0.000000  0.342662  0.119497  1
