# generated using pymatgen
data_Ho12Th8Sn9Sb7
_symmetry_space_group_name_H-M   'P 1'
_cell_length_a   8.13784706
_cell_length_b   8.11393467
_cell_length_c   15.35338200
_cell_angle_alpha   90.02203158
_cell_angle_beta   89.99327617
_cell_angle_gamma   89.99234802
_symmetry_Int_Tables_number   1
_chemical_formula_structural   Ho12Th8Sn9Sb7
_chemical_formula_sum   'Ho12 Th8 Sn9 Sb7'
_cell_volume   1013.78309892
_cell_formula_units_Z   1
loop_
 _symmetry_equiv_pos_site_id
 _symmetry_equiv_pos_as_xyz
  1  'x, y, z'
loop_
 _atom_site_type_symbol
 _atom_site_label
 _atom_site_symmetry_multiplicity
 _atom_site_fract_x
 _atom_site_fract_y
 _atom_site_fract_z
 _atom_site_occupancy
  Ho  Ho0  1  0.361583  0.838615  0.876717  1
  Ho  Ho1  1  0.862337  0.660864  0.623096  1
  Ho  Ho2  1  0.637682  0.160672  0.377002  1
  Ho  Ho3  1  0.137015  0.338960  0.123704  1
  Ho  Ho4  1  0.638670  0.161713  0.123204  1
  Ho  Ho5  1  0.137499  0.338855  0.376975  1
  Ho  Ho6  1  0.362247  0.839179  0.623145  1
  Ho  Ho7  1  0.862108  0.661233  0.876486  1
  Ho  Ho8  1  0.190076  0.494819  0.749794  1
  Ho  Ho9  1  0.689958  0.005051  0.749956  1
  Ho  Ho10  1  0.809842  0.504744  0.249255  1
  Ho  Ho11  1  0.309914  0.995140  0.249867  1
  Th  Th12  1  0.519193  0.321407  0.905397  1
  Th  Th13  1  0.019140  0.178987  0.594345  1
  Th  Th14  1  0.480887  0.679050  0.405606  1
  Th  Th15  1  0.981315  0.821149  0.094961  1
  Th  Th16  1  0.482588  0.678577  0.094465  1
  Th  Th17  1  0.981287  0.820951  0.405838  1
  Th  Th18  1  0.519048  0.320721  0.594546  1
  Th  Th19  1  0.018308  0.179412  0.905392  1
  Sn  Sn20  1  0.798156  0.460341  0.042737  1
  Sn  Sn21  1  0.557234  0.620557  0.749627  1
  Sn  Sn22  1  0.057351  0.879737  0.749741  1
  Sn  Sn23  1  0.442294  0.379746  0.250552  1
  Sn  Sn24  1  0.942639  0.120117  0.250677  1
  Sn  Sn25  1  0.324143  0.142582  0.750021  1
  Sn  Sn26  1  0.824248  0.357276  0.749837  1
  Sn  Sn27  1  0.676002  0.857260  0.250221  1
  Sn  Sn28  1  0.176029  0.642565  0.250145  1
  Sb  Sb29  1  0.297369  0.039852  0.043472  1
  Sb  Sb30  1  0.797343  0.460479  0.456382  1
  Sb  Sb31  1  0.702547  0.960603  0.543875  1
  Sb  Sb32  1  0.201266  0.539478  0.956758  1
  Sb  Sb33  1  0.702419  0.960792  0.956219  1
  Sb  Sb34  1  0.202842  0.539249  0.543726  1
  Sb  Sb35  1  0.297424  0.039267  0.456256  1
