# generated using pymatgen
data_Y4Ho2TiMn5O18
_symmetry_space_group_name_H-M   'P 1'
_cell_length_a   6.21353137
_cell_length_b   6.20670464
_cell_length_c   11.69541713
_cell_angle_alpha   90.22221726
_cell_angle_beta   89.55599621
_cell_angle_gamma   120.03331540
_symmetry_Int_Tables_number   1
_chemical_formula_structural   Y4Ho2TiMn5O18
_chemical_formula_sum   'Y4 Ho2 Ti1 Mn5 O18'
_cell_volume   390.46938412
_cell_formula_units_Z   1
loop_
 _symmetry_equiv_pos_site_id
 _symmetry_equiv_pos_as_xyz
  1  'x, y, z'
loop_
 _atom_site_type_symbol
 _atom_site_label
 _atom_site_symmetry_multiplicity
 _atom_site_fract_x
 _atom_site_fract_y
 _atom_site_fract_z
 _atom_site_occupancy
  Y  Y0  1  0.665840  0.335064  0.228196  1
  Y  Y1  1  0.334755  0.666996  0.734135  1
  Y  Y2  1  0.667757  0.333000  0.734135  1
  Y  Y3  1  0.330774  0.664931  0.228196  1
  Ho  Ho4  1  0.002313  0.999999  0.775784  1
  Ho  Ho5  1  0.998793  0.999999  0.272071  1
  Ti  Ti6  1  0.665867  0.000005  0.499403  1
  Mn  Mn7  1  0.667487  0.667876  0.999357  1
  Mn  Mn8  1  0.999636  0.332167  0.999362  1
  Mn  Mn9  1  0.999819  0.666731  0.498545  1
  Mn  Mn10  1  0.333086  0.333266  0.498546  1
  Mn  Mn11  1  0.332578  0.000022  0.999570  1
  O  O12  1  0.667110  0.333625  0.019833  1
  O  O13  1  0.360145  0.693797  0.518371  1
  O  O14  1  0.666348  0.306199  0.518371  1
  O  O15  1  0.333471  0.666349  0.019833  1
  O  O16  1  0.000534  0.999987  0.973755  1
  O  O17  1  0.972474  0.999997  0.475053  1
  O  O18  1  0.358454  0.000000  0.836575  1
  O  O19  1  0.354586  0.354717  0.331791  1
  O  O20  1  0.999867  0.645282  0.331791  1
  O  O21  1  0.000731  0.358692  0.836881  1
  O  O22  1  0.642038  0.641306  0.836881  1
  O  O23  1  0.638226  0.000000  0.333864  1
  O  O24  1  0.304101  0.999996  0.162299  1
  O  O25  1  0.309425  0.309238  0.665844  1
  O  O26  1  0.000186  0.690760  0.665844  1
  O  O27  1  0.998900  0.303250  0.162265  1
  O  O28  1  0.695651  0.696747  0.162266  1
  O  O29  1  0.699050  0.000000  0.667183  1
