# generated using pymatgen
data_Dy16Tm4Si15Os
_symmetry_space_group_name_H-M   'P 1'
_cell_length_a   7.41225902
_cell_length_b   7.65050113
_cell_length_c   14.57431100
_cell_angle_alpha   89.68990258
_cell_angle_beta   89.66457595
_cell_angle_gamma   90.18821899
_symmetry_Int_Tables_number   1
_chemical_formula_structural   Dy16Tm4Si15Os
_chemical_formula_sum   'Dy16 Tm4 Si15 Os1'
_cell_volume   826.44186987
_cell_formula_units_Z   1
loop_
 _symmetry_equiv_pos_site_id
 _symmetry_equiv_pos_as_xyz
  1  'x, y, z'
loop_
 _atom_site_type_symbol
 _atom_site_label
 _atom_site_symmetry_multiplicity
 _atom_site_fract_x
 _atom_site_fract_y
 _atom_site_fract_z
 _atom_site_occupancy
  Dy  Dy0  1  0.973490  0.814143  0.096949  1
  Dy  Dy1  1  0.471200  0.682852  0.401098  1
  Dy  Dy2  1  0.530555  0.323680  0.900995  1
  Dy  Dy3  1  0.029854  0.184344  0.599556  1
  Dy  Dy4  1  0.026890  0.188241  0.902463  1
  Dy  Dy5  1  0.529883  0.317990  0.598994  1
  Dy  Dy6  1  0.475962  0.681306  0.098945  1
  Dy  Dy7  1  0.969980  0.817330  0.400344  1
  Dy  Dy8  1  0.686185  0.809224  0.883004  1
  Dy  Dy9  1  0.179037  0.681161  0.621782  1
  Dy  Dy10  1  0.817197  0.335416  0.117864  1
  Dy  Dy11  1  0.315040  0.177425  0.376000  1
  Dy  Dy12  1  0.320845  0.179229  0.123870  1
  Dy  Dy13  1  0.819046  0.319286  0.377097  1
  Dy  Dy14  1  0.174632  0.674840  0.878715  1
  Dy  Dy15  1  0.683264  0.818954  0.622392  1
  Tm  Tm16  1  0.648379  0.993574  0.248562  1
  Tm  Tm17  1  0.147913  0.510337  0.247404  1
  Tm  Tm18  1  0.848656  0.488497  0.759349  1
  Tm  Tm19  1  0.353029  0.009993  0.752384  1
  Si  Si20  1  0.765237  0.630468  0.251991  1
  Si  Si21  1  0.266753  0.871085  0.250841  1
  Si  Si22  1  0.731985  0.123911  0.748276  1
  Si  Si23  1  0.236097  0.371973  0.746469  1
  Si  Si24  1  0.018236  0.105642  0.248719  1
  Si  Si25  1  0.521457  0.397343  0.251634  1
  Si  Si26  1  0.472755  0.605157  0.746044  1
  Si  Si27  1  0.978309  0.898980  0.748302  1
  Si  Si28  1  0.354382  0.972407  0.540125  1
  Si  Si29  1  0.645497  0.027218  0.041926  1
  Si  Si30  1  0.146850  0.470939  0.459882  1
  Si  Si31  1  0.154236  0.473118  0.041379  1
  Si  Si32  1  0.643178  0.027930  0.459193  1
  Si  Si33  1  0.353675  0.969851  0.961323  1
  Si  Si34  1  0.854331  0.528189  0.539075  1
  Os  Os35  1  0.855978  0.517965  0.957056  1
