# generated using pymatgen
data_LuThFe3Re14C3
_symmetry_space_group_name_H-M   'P 1'
_cell_length_a   6.93914851
_cell_length_b   6.93915031
_cell_length_c   6.93914859
_cell_angle_alpha   82.60821010
_cell_angle_beta   82.60821903
_cell_angle_gamma   82.60820757
_symmetry_Int_Tables_number   1
_chemical_formula_structural   LuThFe3Re14C3
_chemical_formula_sum   'Lu1 Th1 Fe3 Re14 C3'
_cell_volume   326.46018965
_cell_formula_units_Z   1
loop_
 _symmetry_equiv_pos_site_id
 _symmetry_equiv_pos_as_xyz
  1  'x, y, z'
loop_
 _atom_site_type_symbol
 _atom_site_label
 _atom_site_symmetry_multiplicity
 _atom_site_fract_x
 _atom_site_fract_y
 _atom_site_fract_z
 _atom_site_occupancy
  Lu  Lu0  1  0.651922  0.651922  0.651922  1
  Th  Th1  1  0.351233  0.351233  0.351233  1
  Fe  Fe2  1  0.000887  0.000887  0.498674  1
  Fe  Fe3  1  0.000887  0.498674  0.000887  1
  Fe  Fe4  1  0.498674  0.000887  0.000887  1
  Re  Re5  1  0.102189  0.102189  0.102189  1
  Re  Re6  1  0.897783  0.897783  0.897783  1
  Re  Re7  1  0.722856  0.277422  0.998949  1
  Re  Re8  1  0.277422  0.998949  0.722856  1
  Re  Re9  1  0.998949  0.722856  0.277422  1
  Re  Re10  1  0.277422  0.722856  0.998949  1
  Re  Re11  1  0.722856  0.998949  0.277422  1
  Re  Re12  1  0.998949  0.277422  0.722856  1
  Re  Re13  1  0.136488  0.654287  0.654287  1
  Re  Re14  1  0.654287  0.654287  0.136488  1
  Re  Re15  1  0.654287  0.136488  0.654287  1
  Re  Re16  1  0.347316  0.859404  0.347316  1
  Re  Re17  1  0.347316  0.347316  0.859404  1
  Re  Re18  1  0.859404  0.347316  0.347316  1
  C  C19  1  0.505875  0.505875  0.987123  1
  C  C20  1  0.505875  0.987123  0.505875  1
  C  C21  1  0.987123  0.505875  0.505875  1
