# generated using pymatgen
data_Yb6Er2Cu7Si8Pd
_symmetry_space_group_name_H-M   'P 1'
_cell_length_a   4.23669900
_cell_length_b   7.23000586
_cell_length_c   13.98371651
_cell_angle_alpha   90.20659197
_cell_angle_beta   90.00000000
_cell_angle_gamma   90.00000000
_symmetry_Int_Tables_number   1
_chemical_formula_structural   Yb6Er2Cu7Si8Pd
_chemical_formula_sum   'Yb6 Er2 Cu7 Si8 Pd1'
_cell_volume   428.33745059
_cell_formula_units_Z   1
loop_
 _symmetry_equiv_pos_site_id
 _symmetry_equiv_pos_as_xyz
  1  'x, y, z'
loop_
 _atom_site_type_symbol
 _atom_site_label
 _atom_site_symmetry_multiplicity
 _atom_site_fract_x
 _atom_site_fract_y
 _atom_site_fract_z
 _atom_site_occupancy
  Yb  Yb0  1  0.000000  0.292372  0.498890  1
  Yb  Yb1  1  0.500000  0.707868  0.000780  1
  Yb  Yb2  1  0.000000  0.206715  0.247933  1
  Yb  Yb3  1  0.500000  0.793150  0.251909  1
  Yb  Yb4  1  0.000000  0.203250  0.752473  1
  Yb  Yb5  1  0.500000  0.797271  0.748291  1
  Er  Er6  1  0.000000  0.302218  0.999765  1
  Er  Er7  1  0.500000  0.695514  0.500580  1
  Cu  Cu8  1  0.500000  0.082633  0.604141  1
  Cu  Cu9  1  0.000000  0.916596  0.895324  1
  Cu  Cu10  1  0.500000  0.081908  0.395029  1
  Cu  Cu11  1  0.000000  0.917700  0.104733  1
  Cu  Cu12  1  0.500000  0.417427  0.158033  1
  Cu  Cu13  1  0.000000  0.581994  0.340783  1
  Cu  Cu14  1  0.500000  0.418089  0.843654  1
  Si  Si15  1  0.000000  0.912181  0.590154  1
  Si  Si16  1  0.500000  0.092940  0.908231  1
  Si  Si17  1  0.000000  0.906916  0.406440  1
  Si  Si18  1  0.500000  0.093770  0.093611  1
  Si  Si19  1  0.000000  0.589360  0.148873  1
  Si  Si20  1  0.500000  0.410100  0.349850  1
  Si  Si21  1  0.000000  0.587132  0.853976  1
  Si  Si22  1  0.500000  0.407257  0.649890  1
  Pd  Pd23  1  0.000000  0.585639  0.656657  1
