# generated using pymatgen
data_ErScCo12GeP6
_symmetry_space_group_name_H-M   'P 1'
_cell_length_a   9.01793500
_cell_length_b   9.01793492
_cell_length_c   3.54519500
_cell_angle_alpha   90.00000000
_cell_angle_beta   90.00000000
_cell_angle_gamma   119.99999661
_symmetry_Int_Tables_number   1
_chemical_formula_structural   ErScCo12GeP6
_chemical_formula_sum   'Er1 Sc1 Co12 Ge1 P6'
_cell_volume   249.68069943
_cell_formula_units_Z   1
loop_
 _symmetry_equiv_pos_site_id
 _symmetry_equiv_pos_as_xyz
  1  'x, y, z'
loop_
 _atom_site_type_symbol
 _atom_site_label
 _atom_site_symmetry_multiplicity
 _atom_site_fract_x
 _atom_site_fract_y
 _atom_site_fract_z
 _atom_site_occupancy
  Er  Er0  1  0.666667  0.333333  0.500000  1
  Sc  Sc1  1  0.333333  0.666667  0.000000  1
  Co  Co2  1  0.127122  0.838058  0.000000  1
  Co  Co3  1  0.384642  0.441473  0.500000  1
  Co  Co4  1  0.710936  0.872878  0.000000  1
  Co  Co5  1  0.558527  0.943169  0.500000  1
  Co  Co6  1  0.250673  0.109906  0.500000  1
  Co  Co7  1  0.859233  0.749327  0.500000  1
  Co  Co8  1  0.890094  0.140767  0.500000  1
  Co  Co9  1  0.940428  0.378046  0.000000  1
  Co  Co10  1  0.621954  0.562381  0.000000  1
  Co  Co11  1  0.437619  0.059572  0.000000  1
  Co  Co12  1  0.056831  0.615358  0.500000  1
  Co  Co13  1  0.161942  0.289064  0.000000  1
  Ge  Ge14  1  0.000000  0.000000  0.000000  1
  P  P15  1  0.591861  0.708111  0.500000  1
  P  P16  1  0.708104  0.113711  0.000000  1
  P  P17  1  0.886289  0.594392  0.000000  1
  P  P18  1  0.405608  0.291896  0.000000  1
  P  P19  1  0.291889  0.883750  0.500000  1
  P  P20  1  0.116250  0.408139  0.500000  1
