# generated using pymatgen
data_Ac2LuBiO7
_symmetry_space_group_name_H-M   'P 1'
_cell_length_a   7.80448040
_cell_length_b   7.80448079
_cell_length_c   7.76450800
_cell_angle_alpha   60.16928279
_cell_angle_beta   60.16928118
_cell_angle_gamma   60.65744214
_symmetry_Int_Tables_number   1
_chemical_formula_structural   Ac2LuBiO7
_chemical_formula_sum   'Ac4 Lu2 Bi2 O14'
_cell_volume   336.91166331
_cell_formula_units_Z   2
loop_
 _symmetry_equiv_pos_site_id
 _symmetry_equiv_pos_as_xyz
  1  'x, y, z'
loop_
 _atom_site_type_symbol
 _atom_site_label
 _atom_site_symmetry_multiplicity
 _atom_site_fract_x
 _atom_site_fract_y
 _atom_site_fract_z
 _atom_site_occupancy
  Ac  Ac0  1  0.625000  0.125000  0.125000  1
  Ac  Ac1  1  0.125000  0.125000  0.125000  1
  Ac  Ac2  1  0.125000  0.625000  0.125000  1
  Ac  Ac3  1  0.125000  0.125000  0.625000  1
  Lu  Lu4  1  0.625000  0.625000  0.125000  1
  Lu  Lu5  1  0.625000  0.625000  0.625000  1
  Bi  Bi6  1  0.625000  0.125000  0.625000  1
  Bi  Bi7  1  0.125000  0.625000  0.625000  1
  O  O8  1  0.715386  0.286438  0.297414  1
  O  O9  1  0.717284  0.717284  0.282716  1
  O  O10  1  0.286438  0.715386  0.297414  1
  O  O11  1  0.001239  0.001239  0.998761  1
  O  O12  1  0.715386  0.286438  0.700762  1
  O  O13  1  0.963562  0.534614  0.549238  1
  O  O14  1  0.286438  0.715386  0.700762  1
  O  O15  1  0.534614  0.963562  0.549238  1
  O  O16  1  0.248761  0.248761  0.251239  1
  O  O17  1  0.963562  0.534614  0.952586  1
  O  O18  1  0.532716  0.532716  0.967284  1
  O  O19  1  0.953247  0.953247  0.546753  1
  O  O20  1  0.534614  0.963562  0.952586  1
  O  O21  1  0.296753  0.296753  0.703247  1
