# generated using pymatgen
data_Sr6Cd3InPb2
_symmetry_space_group_name_H-M   'P 1'
_cell_length_a   5.79535148
_cell_length_b   8.14041400
_cell_length_c   17.40670847
_cell_angle_alpha   90.00012918
_cell_angle_beta   89.99524776
_cell_angle_gamma   89.99998312
_symmetry_Int_Tables_number   1
_chemical_formula_structural   Sr6Cd3InPb2
_chemical_formula_sum   'Sr12 Cd6 In2 Pb4'
_cell_volume   821.18862896
_cell_formula_units_Z   2
loop_
 _symmetry_equiv_pos_site_id
 _symmetry_equiv_pos_as_xyz
  1  'x, y, z'
loop_
 _atom_site_type_symbol
 _atom_site_label
 _atom_site_symmetry_multiplicity
 _atom_site_fract_x
 _atom_site_fract_y
 _atom_site_fract_z
 _atom_site_occupancy
  Sr  Sr0  1  0.500005  0.250166  0.999320  1
  Sr  Sr1  1  0.500007  0.749836  0.999320  1
  Sr  Sr2  1  0.000126  0.249802  0.166541  1
  Sr  Sr3  1  0.000118  0.750198  0.166540  1
  Sr  Sr4  1  0.500085  0.250197  0.333455  1
  Sr  Sr5  1  0.500089  0.749803  0.333455  1
  Sr  Sr6  1  0.000025  0.249827  0.500674  1
  Sr  Sr7  1  0.000021  0.750173  0.500672  1
  Sr  Sr8  1  0.499898  0.250540  0.667115  1
  Sr  Sr9  1  0.499898  0.749462  0.667116  1
  Sr  Sr10  1  0.999940  0.249463  0.832889  1
  Sr  Sr11  1  0.999937  0.750536  0.832889  1
  Cd  Cd12  1  0.999990  0.000000  0.996880  1
  Cd  Cd13  1  0.500168  0.500003  0.166387  1
  Cd  Cd14  1  0.000027  0.000000  0.333607  1
  Cd  Cd15  1  0.500044  0.500000  0.503118  1
  Cd  Cd16  1  0.999926  0.000000  0.669224  1
  Cd  Cd17  1  0.499962  0.500001  0.830784  1
  In  In18  1  0.999604  0.499999  0.665853  1
  In  In19  1  0.499874  0.000000  0.834172  1
  Pb  Pb20  1  0.000005  0.500000  0.001422  1
  Pb  Pb21  1  0.500130  0.999999  0.166975  1
  Pb  Pb22  1  0.000104  0.499998  0.333011  1
  Pb  Pb23  1  0.500022  0.000001  0.498577  1
