# generated using pymatgen
data_Pr7ThZn8(IrRh)4
_symmetry_space_group_name_H-M   'P 1'
_cell_length_a   4.03874600
_cell_length_b   7.39577308
_cell_length_c   16.72808335
_cell_angle_alpha   89.78663858
_cell_angle_beta   90.00000000
_cell_angle_gamma   90.00000000
_symmetry_Int_Tables_number   1
_chemical_formula_structural   Pr7ThZn8(IrRh)4
_chemical_formula_sum   'Pr7 Th1 Zn8 Ir4 Rh4'
_cell_volume   499.65851303
_cell_formula_units_Z   1
loop_
 _symmetry_equiv_pos_site_id
 _symmetry_equiv_pos_as_xyz
  1  'x, y, z'
loop_
 _atom_site_type_symbol
 _atom_site_label
 _atom_site_symmetry_multiplicity
 _atom_site_fract_x
 _atom_site_fract_y
 _atom_site_fract_z
 _atom_site_occupancy
  Pr  Pr0  1  0.750000  0.950246  0.283361  1
  Pr  Pr1  1  0.750000  0.828161  0.059567  1
  Pr  Pr2  1  0.250000  0.048875  0.716819  1
  Pr  Pr3  1  0.250000  0.166868  0.939017  1
  Pr  Pr4  1  0.250000  0.548760  0.783183  1
  Pr  Pr5  1  0.750000  0.333572  0.440572  1
  Pr  Pr6  1  0.250000  0.669780  0.561243  1
  Th  Th7  1  0.750000  0.449750  0.216646  1
  Zn  Zn8  1  0.250000  0.002812  0.440159  1
  Zn  Zn9  1  0.750000  0.501557  0.940212  1
  Zn  Zn10  1  0.750000  0.003993  0.560216  1
  Zn  Zn11  1  0.250000  0.626076  0.351230  1
  Zn  Zn12  1  0.750000  0.376655  0.650571  1
  Zn  Zn13  1  0.750000  0.877252  0.849701  1
  Zn  Zn14  1  0.250000  0.498085  0.057681  1
  Zn  Zn15  1  0.250000  0.119779  0.150924  1
  Ir  Ir16  1  0.250000  0.245806  0.565984  1
  Ir  Ir17  1  0.250000  0.252641  0.306354  1
  Ir  Ir18  1  0.250000  0.745162  0.933588  1
  Ir  Ir19  1  0.250000  0.723202  0.187732  1
  Rh  Rh20  1  0.750000  0.258661  0.068829  1
  Rh  Rh21  1  0.750000  0.255085  0.814267  1
  Rh  Rh22  1  0.750000  0.755795  0.686965  1
  Rh  Rh23  1  0.750000  0.761427  0.435181  1
