# generated using pymatgen
data_PrNd11Si(PBr4)3
_symmetry_space_group_name_H-M   'P 1'
_cell_length_a   10.34614353
_cell_length_b   10.34614629
_cell_length_c   10.34651491
_cell_angle_alpha   109.38079782
_cell_angle_beta   109.38097661
_cell_angle_gamma   109.38627010
_symmetry_Int_Tables_number   1
_chemical_formula_structural   PrNd11Si(PBr4)3
_chemical_formula_sum   'Pr1 Nd11 Si1 P3 Br12'
_cell_volume   855.35192200
_cell_formula_units_Z   1
loop_
 _symmetry_equiv_pos_site_id
 _symmetry_equiv_pos_as_xyz
  1  'x, y, z'
loop_
 _atom_site_type_symbol
 _atom_site_label
 _atom_site_symmetry_multiplicity
 _atom_site_fract_x
 _atom_site_fract_y
 _atom_site_fract_z
 _atom_site_occupancy
  Pr  Pr0  1  0.235718  0.264282  0.750000  1
  Nd  Nd1  1  0.474034  0.489514  0.236021  1
  Nd  Nd2  1  0.749856  0.235024  0.264819  1
  Nd  Nd3  1  0.749981  0.015148  0.484830  1
  Nd  Nd4  1  0.235951  0.474022  0.489433  1
  Nd  Nd5  1  0.264976  0.750144  0.235182  1
  Nd  Nd6  1  0.025979  0.264049  0.010568  1
  Nd  Nd7  1  0.010485  0.025965  0.263979  1
  Nd  Nd8  1  0.484852  0.750018  0.015170  1
  Nd  Nd9  1  0.489469  0.235984  0.474006  1
  Nd  Nd10  1  0.015082  0.484918  0.750000  1
  Nd  Nd11  1  0.264016  0.010531  0.025994  1
  Si  Si12  1  0.250008  0.249992  0.250000  1
  P  P13  1  0.500352  0.999648  0.250000  1
  P  P14  1  0.998729  0.250044  0.499442  1
  P  P15  1  0.249956  0.501271  0.000557  1
  Br  Br16  1  0.250010  0.754433  0.745589  1
  Br  Br17  1  0.509426  0.505964  0.755613  1
  Br  Br18  1  0.991382  0.744378  0.994862  1
  Br  Br19  1  0.745567  0.249991  0.754411  1
  Br  Br20  1  0.994036  0.990574  0.744386  1
  Br  Br21  1  0.249980  0.994716  0.504079  1
  Br  Br22  1  0.755622  0.508618  0.505138  1
  Br  Br23  1  0.505284  0.250019  0.995920  1
  Br  Br24  1  0.754415  0.745586  0.250000  1
  Br  Br25  1  0.744387  0.994865  0.991395  1
  Br  Br26  1  0.995313  0.504687  0.250000  1
  Br  Br27  1  0.505135  0.755614  0.508605  1
