# generated using pymatgen
data_Dy3Tm17(SiSb2)4
_symmetry_space_group_name_H-M   'P 1'
_cell_length_a   7.87968835
_cell_length_b   8.95497100
_cell_length_c   11.79944052
_cell_angle_alpha   90.00000000
_cell_angle_beta   90.03411456
_cell_angle_gamma   90.00000000
_symmetry_Int_Tables_number   1
_chemical_formula_structural   Dy3Tm17(SiSb2)4
_chemical_formula_sum   'Dy3 Tm17 Si4 Sb8'
_cell_volume   832.59646612
_cell_formula_units_Z   1
loop_
 _symmetry_equiv_pos_site_id
 _symmetry_equiv_pos_as_xyz
  1  'x, y, z'
loop_
 _atom_site_type_symbol
 _atom_site_label
 _atom_site_symmetry_multiplicity
 _atom_site_fract_x
 _atom_site_fract_y
 _atom_site_fract_z
 _atom_site_occupancy
  Dy  Dy0  1  0.138508  0.250000  0.206119  1
  Dy  Dy1  1  0.361689  0.250000  0.706160  1
  Dy  Dy2  1  0.638690  0.750000  0.293826  1
  Tm  Tm3  1  0.335774  0.750000  0.714194  1
  Tm  Tm4  1  0.664054  0.250000  0.285901  1
  Tm  Tm5  1  0.835881  0.250000  0.785848  1
  Tm  Tm6  1  0.163824  0.750000  0.213862  1
  Tm  Tm7  1  0.039046  0.750000  0.501862  1
  Tm  Tm8  1  0.960504  0.250000  0.498797  1
  Tm  Tm9  1  0.539541  0.250000  0.998574  1
  Tm  Tm10  1  0.460674  0.750000  0.001368  1
  Tm  Tm11  1  0.861458  0.750000  0.793914  1
  Tm  Tm12  1  0.683986  0.551088  0.565891  1
  Tm  Tm13  1  0.316174  0.449365  0.434352  1
  Tm  Tm14  1  0.183829  0.449275  0.934293  1
  Tm  Tm15  1  0.316174  0.050635  0.434352  1
  Tm  Tm16  1  0.816176  0.550850  0.065290  1
  Tm  Tm17  1  0.683986  0.948912  0.565891  1
  Tm  Tm18  1  0.816176  0.949150  0.065290  1
  Tm  Tm19  1  0.183829  0.050725  0.934293  1
  Si  Si20  1  0.082859  0.750000  0.980350  1
  Si  Si21  1  0.915958  0.250000  0.018397  1
  Si  Si22  1  0.583916  0.250000  0.518455  1
  Si  Si23  1  0.416036  0.750000  0.481706  1
  Sb  Sb24  1  0.569682  0.511259  0.827290  1
  Sb  Sb25  1  0.431507  0.489604  0.172677  1
  Sb  Sb26  1  0.067835  0.490176  0.673216  1
  Sb  Sb27  1  0.431507  0.010396  0.172677  1
  Sb  Sb28  1  0.931605  0.510641  0.327325  1
  Sb  Sb29  1  0.569682  0.988741  0.827290  1
  Sb  Sb30  1  0.931605  0.989359  0.327325  1
  Sb  Sb31  1  0.067835  0.009824  0.673216  1
