# generated using pymatgen
data_Lu2Ga9IrRh2
_symmetry_space_group_name_H-M   'P 1'
_cell_length_a   7.53022748
_cell_length_b   7.53022798
_cell_length_c   9.44963836
_cell_angle_alpha   90.01580110
_cell_angle_beta   90.01580217
_cell_angle_gamma   119.70616593
_symmetry_Int_Tables_number   1
_chemical_formula_structural   Lu2Ga9IrRh2
_chemical_formula_sum   'Lu4 Ga18 Ir2 Rh4'
_cell_volume   465.41487907
_cell_formula_units_Z   2
loop_
 _symmetry_equiv_pos_site_id
 _symmetry_equiv_pos_as_xyz
  1  'x, y, z'
loop_
 _atom_site_type_symbol
 _atom_site_label
 _atom_site_symmetry_multiplicity
 _atom_site_fract_x
 _atom_site_fract_y
 _atom_site_fract_z
 _atom_site_occupancy
  Lu  Lu0  1  0.997793  0.669404  0.248987  1
  Lu  Lu1  1  0.002207  0.330596  0.751013  1
  Lu  Lu2  1  0.669404  0.997793  0.248987  1
  Lu  Lu3  1  0.330596  0.002207  0.751013  1
  Ga  Ga4  1  0.339018  0.549176  0.250539  1
  Ga  Ga5  1  0.660982  0.450824  0.749461  1
  Ga  Ga6  1  0.549176  0.339018  0.250539  1
  Ga  Ga7  1  0.450824  0.660982  0.749461  1
  Ga  Ga8  1  0.999943  0.334452  0.081467  1
  Ga  Ga9  1  0.000057  0.665548  0.918533  1
  Ga  Ga10  1  0.000087  0.664905  0.581182  1
  Ga  Ga11  1  0.335095  0.999913  0.418818  1
  Ga  Ga12  1  0.999913  0.335095  0.418818  1
  Ga  Ga13  1  0.664905  0.000087  0.581182  1
  Ga  Ga14  1  0.665548  0.000057  0.918533  1
  Ga  Ga15  1  0.334452  0.999943  0.081467  1
  Ga  Ga16  1  0.331451  0.331451  0.566882  1
  Ga  Ga17  1  0.668549  0.668549  0.433118  1
  Ga  Ga18  1  0.668919  0.668919  0.066844  1
  Ga  Ga19  1  0.331081  0.331081  0.933156  1
  Ga  Ga20  1  0.125463  0.125463  0.249941  1
  Ga  Ga21  1  0.874537  0.874537  0.750059  1
  Ir  Ir22  1  0.672136  0.327864  0.000000  1
  Ir  Ir23  1  0.327864  0.672136  0.000000  1
  Rh  Rh24  1  0.328165  0.671835  0.500000  1
  Rh  Rh25  1  0.671835  0.328165  0.500000  1
  Rh  Rh26  1  0.000000  0.000000  0.000000  1
  Rh  Rh27  1  0.000000  0.000000  0.500000  1
