# generated using pymatgen
data_TbEr3TlPd4Pb
_symmetry_space_group_name_H-M   'P 1'
_cell_length_a   7.85446986
_cell_length_b   7.85377647
_cell_length_c   3.63617400
_cell_angle_alpha   90.00000000
_cell_angle_beta   90.00000000
_cell_angle_gamma   89.76748342
_symmetry_Int_Tables_number   1
_chemical_formula_structural   TbEr3TlPd4Pb
_chemical_formula_sum   'Tb1 Er3 Tl1 Pd4 Pb1'
_cell_volume   224.30372972
_cell_formula_units_Z   1
loop_
 _symmetry_equiv_pos_site_id
 _symmetry_equiv_pos_as_xyz
  1  'x, y, z'
loop_
 _atom_site_type_symbol
 _atom_site_label
 _atom_site_symmetry_multiplicity
 _atom_site_fract_x
 _atom_site_fract_y
 _atom_site_fract_z
 _atom_site_occupancy
  Tb  Tb0  1  0.674281  0.168942  0.500000  1
  Er  Er1  1  0.168850  0.326767  0.500000  1
  Er  Er2  1  0.831890  0.674287  0.500000  1
  Er  Er3  1  0.325894  0.831528  0.500000  1
  Tl  Tl4  1  0.000152  0.999087  0.000000  1
  Pd  Pd5  1  0.370360  0.123629  0.000000  1
  Pd  Pd6  1  0.125475  0.628118  0.000000  1
  Pd  Pd7  1  0.626177  0.872752  0.000000  1
  Pd  Pd8  1  0.877790  0.374865  0.000000  1
  Pb  Pb9  1  0.499129  0.500023  0.000000  1
