# generated using pymatgen
data_DyEr6Co6AgSn22
_symmetry_space_group_name_H-M   'P 1'
_cell_length_a   9.65876700
_cell_length_b   9.65876710
_cell_length_c   9.98800100
_cell_angle_alpha   90.00000000
_cell_angle_beta   90.00000000
_cell_angle_gamma   119.99999622
_symmetry_Int_Tables_number   1
_chemical_formula_structural   DyEr6Co6AgSn22
_chemical_formula_sum   'Dy1 Er6 Co6 Ag1 Sn22'
_cell_volume   806.96111771
_cell_formula_units_Z   1
loop_
 _symmetry_equiv_pos_site_id
 _symmetry_equiv_pos_as_xyz
  1  'x, y, z'
loop_
 _atom_site_type_symbol
 _atom_site_label
 _atom_site_symmetry_multiplicity
 _atom_site_fract_x
 _atom_site_fract_y
 _atom_site_fract_z
 _atom_site_occupancy
  Dy  Dy0  1  0.000000  0.000000  0.000000  1
  Er  Er1  1  0.479074  0.520926  0.306253  1
  Er  Er2  1  0.520926  0.479074  0.693747  1
  Er  Er3  1  0.479074  0.958149  0.306253  1
  Er  Er4  1  0.520926  0.041851  0.693747  1
  Er  Er5  1  0.041851  0.520926  0.306253  1
  Er  Er6  1  0.958149  0.479074  0.693747  1
  Co  Co7  1  0.832118  0.167882  0.197107  1
  Co  Co8  1  0.167882  0.832118  0.802893  1
  Co  Co9  1  0.832118  0.664235  0.197107  1
  Co  Co10  1  0.167882  0.335765  0.802893  1
  Co  Co11  1  0.335765  0.167882  0.197107  1
  Co  Co12  1  0.664235  0.832118  0.802893  1
  Ag  Ag13  1  0.000000  0.000000  0.500000  1
  Sn  Sn14  1  0.345621  0.000000  0.000000  1
  Sn  Sn15  1  0.654379  0.000000  0.000000  1
  Sn  Sn16  1  0.000000  0.345621  0.000000  1
  Sn  Sn17  1  0.000000  0.654379  0.000000  1
  Sn  Sn18  1  0.654379  0.654379  0.000000  1
  Sn  Sn19  1  0.345621  0.345621  0.000000  1
  Sn  Sn20  1  0.333333  0.666667  0.818601  1
  Sn  Sn21  1  0.666667  0.333333  0.181399  1
  Sn  Sn22  1  0.782354  0.217646  0.452942  1
  Sn  Sn23  1  0.217646  0.782354  0.547058  1
  Sn  Sn24  1  0.782354  0.564709  0.452942  1
  Sn  Sn25  1  0.217646  0.435291  0.547058  1
  Sn  Sn26  1  0.435291  0.217646  0.452942  1
  Sn  Sn27  1  0.564709  0.782354  0.547058  1
  Sn  Sn28  1  0.333333  0.666667  0.118063  1
  Sn  Sn29  1  0.666667  0.333333  0.881937  1
  Sn  Sn30  1  0.114715  0.885285  0.275664  1
  Sn  Sn31  1  0.885285  0.114715  0.724336  1
  Sn  Sn32  1  0.114715  0.229431  0.275664  1
  Sn  Sn33  1  0.885285  0.770569  0.724336  1
  Sn  Sn34  1  0.770569  0.885285  0.275664  1
  Sn  Sn35  1  0.229431  0.114715  0.724336  1
