# generated using pymatgen
data_Er3MgPaCdNi4
_symmetry_space_group_name_H-M   'P 1'
_cell_length_a   7.44041741
_cell_length_b   7.41695751
_cell_length_c   3.54697700
_cell_angle_alpha   90.00000000
_cell_angle_beta   90.00000000
_cell_angle_gamma   92.25855087
_symmetry_Int_Tables_number   1
_chemical_formula_structural   Er3MgPaCdNi4
_chemical_formula_sum   'Er3 Mg1 Pa1 Cd1 Ni4'
_cell_volume   195.58878909
_cell_formula_units_Z   1
loop_
 _symmetry_equiv_pos_site_id
 _symmetry_equiv_pos_as_xyz
  1  'x, y, z'
loop_
 _atom_site_type_symbol
 _atom_site_label
 _atom_site_symmetry_multiplicity
 _atom_site_fract_x
 _atom_site_fract_y
 _atom_site_fract_z
 _atom_site_occupancy
  Er  Er0  1  0.324698  0.830263  0.500000  1
  Er  Er1  1  0.167961  0.328340  0.500000  1
  Er  Er2  1  0.834978  0.672514  0.500000  1
  Mg  Mg3  1  0.498580  0.505182  0.000000  1
  Pa  Pa4  1  0.668467  0.167063  0.500000  1
  Cd  Cd5  1  0.006407  0.997958  0.000000  1
  Ni  Ni6  1  0.116581  0.613982  0.000000  1
  Ni  Ni7  1  0.859516  0.361275  0.000000  1
  Ni  Ni8  1  0.629359  0.891191  0.000000  1
  Ni  Ni9  1  0.393454  0.132233  0.000000  1
