# generated using pymatgen
data_Sc12Fe2CoSi12Rh
_symmetry_space_group_name_H-M   'P 1'
_cell_length_a   4.00491900
_cell_length_b   10.06547200
_cell_length_c   11.63823106
_cell_angle_alpha   89.86859719
_cell_angle_beta   90.00000000
_cell_angle_gamma   90.00000000
_symmetry_Int_Tables_number   1
_chemical_formula_structural   Sc12Fe2CoSi12Rh
_chemical_formula_sum   'Sc12 Fe2 Co1 Si12 Rh1'
_cell_volume   469.15215429
_cell_formula_units_Z   1
loop_
 _symmetry_equiv_pos_site_id
 _symmetry_equiv_pos_as_xyz
  1  'x, y, z'
loop_
 _atom_site_type_symbol
 _atom_site_label
 _atom_site_symmetry_multiplicity
 _atom_site_fract_x
 _atom_site_fract_y
 _atom_site_fract_z
 _atom_site_occupancy
  Sc  Sc0  1  0.250000  0.881306  0.024092  1
  Sc  Sc1  1  0.250000  0.616538  0.524231  1
  Sc  Sc2  1  0.750000  0.123575  0.978767  1
  Sc  Sc3  1  0.750000  0.380687  0.472989  1
  Sc  Sc4  1  0.250000  0.919594  0.602422  1
  Sc  Sc5  1  0.250000  0.580506  0.101543  1
  Sc  Sc6  1  0.750000  0.078085  0.400169  1
  Sc  Sc7  1  0.750000  0.421015  0.901440  1
  Sc  Sc8  1  0.250000  0.652881  0.798854  1
  Sc  Sc9  1  0.250000  0.840727  0.299891  1
  Sc  Sc10  1  0.750000  0.341190  0.200822  1
  Sc  Sc11  1  0.750000  0.167659  0.699185  1
  Fe  Fe12  1  0.250000  0.389079  0.675165  1
  Fe  Fe13  1  0.750000  0.608720  0.322874  1
  Co  Co14  1  0.250000  0.110410  0.177447  1
  Si  Si15  1  0.250000  0.016977  0.822884  1
  Si  Si16  1  0.250000  0.495230  0.320306  1
  Si  Si17  1  0.750000  0.994167  0.178919  1
  Si  Si18  1  0.750000  0.500508  0.678725  1
  Si  Si19  1  0.250000  0.257086  0.838253  1
  Si  Si20  1  0.250000  0.245913  0.337489  1
  Si  Si21  1  0.750000  0.747360  0.163379  1
  Si  Si22  1  0.750000  0.746336  0.657310  1
  Si  Si23  1  0.250000  0.199995  0.544825  1
  Si  Si24  1  0.250000  0.302250  0.047169  1
  Si  Si25  1  0.750000  0.797541  0.452661  1
  Si  Si26  1  0.750000  0.694982  0.956842  1
  Rh  Rh27  1  0.750000  0.889680  0.821348  1
