# generated using pymatgen
data_Hf3Sc(NiTe2)4
_symmetry_space_group_name_H-M   'P 1'
_cell_length_a   6.73176507
_cell_length_b   7.65618450
_cell_length_c   8.02495500
_cell_angle_alpha   90.00000000
_cell_angle_beta   90.00000000
_cell_angle_gamma   90.17335495
_symmetry_Int_Tables_number   1
_chemical_formula_structural   Hf3Sc(NiTe2)4
_chemical_formula_sum   'Hf3 Sc1 Ni4 Te8'
_cell_volume   413.60136159
_cell_formula_units_Z   1
loop_
 _symmetry_equiv_pos_site_id
 _symmetry_equiv_pos_as_xyz
  1  'x, y, z'
loop_
 _atom_site_type_symbol
 _atom_site_label
 _atom_site_symmetry_multiplicity
 _atom_site_fract_x
 _atom_site_fract_y
 _atom_site_fract_z
 _atom_site_occupancy
  Hf  Hf0  1  0.500000  0.000000  0.791039  1
  Hf  Hf1  1  0.000000  0.000000  0.709136  1
  Hf  Hf2  1  0.000000  0.000000  0.289942  1
  Sc  Sc3  1  0.500000  0.000000  0.210863  1
  Ni  Ni4  1  0.854298  0.885648  0.000307  1
  Ni  Ni5  1  0.649952  0.887718  0.505829  1
  Ni  Ni6  1  0.145702  0.114352  0.000307  1
  Ni  Ni7  1  0.350048  0.112282  0.505829  1
  Te  Te8  1  0.765614  0.211222  0.992780  1
  Te  Te9  1  0.736935  0.211726  0.495126  1
  Te  Te10  1  0.748745  0.691859  0.751836  1
  Te  Te11  1  0.753102  0.694504  0.253631  1
  Te  Te12  1  0.234386  0.788778  0.992780  1
  Te  Te13  1  0.263065  0.788274  0.495126  1
  Te  Te14  1  0.251255  0.308141  0.751836  1
  Te  Te15  1  0.246898  0.305496  0.253631  1
