# generated using pymatgen
data_Y3ZnHg2Pd3
_symmetry_space_group_name_H-M   'P 1'
_cell_length_a   7.61679465
_cell_length_b   7.57754434
_cell_length_c   3.84208800
_cell_angle_alpha   90.00000000
_cell_angle_beta   90.00000000
_cell_angle_gamma   119.82967843
_symmetry_Int_Tables_number   1
_chemical_formula_structural   Y3ZnHg2Pd3
_chemical_formula_sum   'Y3 Zn1 Hg2 Pd3'
_cell_volume   192.37183413
_cell_formula_units_Z   1
loop_
 _symmetry_equiv_pos_site_id
 _symmetry_equiv_pos_as_xyz
  1  'x, y, z'
loop_
 _atom_site_type_symbol
 _atom_site_label
 _atom_site_symmetry_multiplicity
 _atom_site_fract_x
 _atom_site_fract_y
 _atom_site_fract_z
 _atom_site_occupancy
  Y  Y0  1  0.598661  0.598429  0.000000  1
  Y  Y1  1  0.401339  0.999768  0.000000  1
  Y  Y2  1  0.000000  0.409870  0.000000  1
  Zn  Zn3  1  0.000000  0.736470  0.500000  1
  Hg  Hg4  1  0.261069  0.263038  0.500000  1
  Hg  Hg5  1  0.738931  0.001969  0.500000  1
  Pd  Pd6  1  0.000000  0.971674  0.000000  1
  Pd  Pd7  1  0.322842  0.670812  0.500000  1
  Pd  Pd8  1  0.677158  0.347969  0.500000  1
