# generated using pymatgen
data_SrYb2Ho(Al3Pd)6
_symmetry_space_group_name_H-M   'P 1'
_cell_length_a   7.68328169
_cell_length_b   7.67037426
_cell_length_c   9.54355900
_cell_angle_alpha   90.00000000
_cell_angle_beta   90.00000000
_cell_angle_gamma   119.46515458
_symmetry_Int_Tables_number   1
_chemical_formula_structural   SrYb2Ho(Al3Pd)6
_chemical_formula_sum   'Sr1 Yb2 Ho1 Al18 Pd6'
_cell_volume   489.68835569
_cell_formula_units_Z   1
loop_
 _symmetry_equiv_pos_site_id
 _symmetry_equiv_pos_as_xyz
  1  'x, y, z'
loop_
 _atom_site_type_symbol
 _atom_site_label
 _atom_site_symmetry_multiplicity
 _atom_site_fract_x
 _atom_site_fract_y
 _atom_site_fract_z
 _atom_site_occupancy
  Sr  Sr0  1  0.671917  0.995966  0.250000  1
  Yb  Yb1  1  0.994187  0.670177  0.250000  1
  Yb  Yb2  1  0.003934  0.329855  0.750000  1
  Ho  Ho3  1  0.329489  0.002286  0.750000  1
  Al  Al4  1  0.136827  0.134011  0.250000  1
  Al  Al5  1  0.872906  0.869138  0.750000  1
  Al  Al6  1  0.004673  0.338099  0.071356  1
  Al  Al7  1  0.999969  0.664635  0.920664  1
  Al  Al8  1  0.999969  0.664635  0.579336  1
  Al  Al9  1  0.332135  0.000795  0.428130  1
  Al  Al10  1  0.004673  0.338099  0.428644  1
  Al  Al11  1  0.665196  0.000185  0.582744  1
  Al  Al12  1  0.665196  0.000185  0.917256  1
  Al  Al13  1  0.332135  0.000795  0.071870  1
  Al  Al14  1  0.332005  0.331081  0.561344  1
  Al  Al15  1  0.665831  0.663773  0.453108  1
  Al  Al16  1  0.665831  0.663773  0.046892  1
  Al  Al17  1  0.332005  0.331081  0.938656  1
  Al  Al18  1  0.335760  0.543385  0.250000  1
  Al  Al19  1  0.656182  0.451129  0.750000  1
  Al  Al20  1  0.545032  0.345158  0.250000  1
  Al  Al21  1  0.453839  0.662192  0.750000  1
  Pd  Pd22  1  0.671239  0.327852  0.998142  1
  Pd  Pd23  1  0.327541  0.671253  0.997335  1
  Pd  Pd24  1  0.327541  0.671253  0.502665  1
  Pd  Pd25  1  0.671239  0.327852  0.501858  1
  Pd  Pd26  1  0.001373  0.000677  0.997671  1
  Pd  Pd27  1  0.001373  0.000677  0.502329  1
