# generated using pymatgen
data_Sm2GaPt9
_symmetry_space_group_name_H-M   'P 1'
_cell_length_a   5.31849234
_cell_length_b   5.31849228
_cell_length_c   8.94812900
_cell_angle_alpha   90.00000000
_cell_angle_beta   90.00000000
_cell_angle_gamma   118.09899232
_symmetry_Int_Tables_number   1
_chemical_formula_structural   Sm2GaPt9
_chemical_formula_sum   'Sm2 Ga1 Pt9'
_cell_volume   223.27722980
_cell_formula_units_Z   1
loop_
 _symmetry_equiv_pos_site_id
 _symmetry_equiv_pos_as_xyz
  1  'x, y, z'
loop_
 _atom_site_type_symbol
 _atom_site_label
 _atom_site_symmetry_multiplicity
 _atom_site_fract_x
 _atom_site_fract_y
 _atom_site_fract_z
 _atom_site_occupancy
  Sm  Sm0  1  0.000000  0.000000  0.768005  1
  Sm  Sm1  1  0.000000  0.000000  0.231995  1
  Ga  Ga2  1  0.500000  0.500000  0.500000  1
  Pt  Pt3  1  0.664025  0.335975  0.746088  1
  Pt  Pt4  1  0.664025  0.335975  0.253912  1
  Pt  Pt5  1  0.500000  0.500000  0.000000  1
  Pt  Pt6  1  0.335975  0.664025  0.746088  1
  Pt  Pt7  1  0.500000  0.000000  0.500000  1
  Pt  Pt8  1  0.000000  0.500000  0.000000  1
  Pt  Pt9  1  0.500000  0.000000  0.000000  1
  Pt  Pt10  1  0.335975  0.664025  0.253912  1
  Pt  Pt11  1  0.000000  0.500000  0.500000  1
