# generated using pymatgen
data_Ho15Er5(SiBi2)4
_symmetry_space_group_name_H-M   'P 1'
_cell_length_a   8.02591001
_cell_length_b   9.14490400
_cell_length_c   11.99326002
_cell_angle_alpha   90.00221254
_cell_angle_beta   89.99454987
_cell_angle_gamma   90.00062743
_symmetry_Int_Tables_number   1
_chemical_formula_structural   Ho15Er5(SiBi2)4
_chemical_formula_sum   'Ho15 Er5 Si4 Bi8'
_cell_volume   880.25942498
_cell_formula_units_Z   1
loop_
 _symmetry_equiv_pos_site_id
 _symmetry_equiv_pos_as_xyz
  1  'x, y, z'
loop_
 _atom_site_type_symbol
 _atom_site_label
 _atom_site_symmetry_multiplicity
 _atom_site_fract_x
 _atom_site_fract_y
 _atom_site_fract_z
 _atom_site_occupancy
  Ho  Ho0  1  0.320837  0.053300  0.437338  1
  Ho  Ho1  1  0.820809  0.946688  0.062680  1
  Ho  Ho2  1  0.679172  0.553318  0.562680  1
  Ho  Ho3  1  0.166702  0.749946  0.211670  1
  Ho  Ho4  1  0.333276  0.750045  0.711655  1
  Ho  Ho5  1  0.833328  0.249985  0.788360  1
  Ho  Ho6  1  0.666711  0.250046  0.288343  1
  Ho  Ho7  1  0.461346  0.749996  0.001495  1
  Ho  Ho8  1  0.038618  0.749967  0.501504  1
  Ho  Ho9  1  0.538542  0.250036  0.998492  1
  Ho  Ho10  1  0.961373  0.249980  0.498508  1
  Ho  Ho11  1  0.637026  0.750009  0.295439  1
  Ho  Ho12  1  0.862978  0.750012  0.795439  1
  Ho  Ho13  1  0.362946  0.250034  0.704615  1
  Ho  Ho14  1  0.137058  0.250049  0.204511  1
  Er  Er15  1  0.821046  0.553343  0.062631  1
  Er  Er16  1  0.678965  0.946671  0.562677  1
  Er  Er17  1  0.178977  0.053450  0.937344  1
  Er  Er18  1  0.321064  0.446643  0.437337  1
  Er  Er19  1  0.179021  0.446557  0.937356  1
  Si  Si20  1  0.411753  0.749890  0.478679  1
  Si  Si21  1  0.088311  0.749834  0.978618  1
  Si  Si22  1  0.588228  0.249879  0.521318  1
  Si  Si23  1  0.911872  0.250286  0.021282  1
  Bi  Bi24  1  0.933176  0.511066  0.325288  1
  Bi  Bi25  1  0.566836  0.988951  0.825309  1
  Bi  Bi26  1  0.066852  0.011086  0.674693  1
  Bi  Bi27  1  0.433182  0.488920  0.174659  1
  Bi  Bi28  1  0.066856  0.488947  0.674711  1
  Bi  Bi29  1  0.433194  0.011066  0.174642  1
  Bi  Bi30  1  0.933198  0.988956  0.325343  1
  Bi  Bi31  1  0.566746  0.511044  0.825388  1
