# generated using pymatgen
data_Hf2TiReSi2
_symmetry_space_group_name_H-M   'P 1'
_cell_length_a   3.51534900
_cell_length_b   6.88200700
_cell_length_c   8.19629800
_cell_angle_alpha   90.00000000
_cell_angle_beta   90.00000000
_cell_angle_gamma   90.00000000
_symmetry_Int_Tables_number   1
_chemical_formula_structural   Hf2TiReSi2
_chemical_formula_sum   'Hf4 Ti2 Re2 Si4'
_cell_volume   198.29022147
_cell_formula_units_Z   2
loop_
 _symmetry_equiv_pos_site_id
 _symmetry_equiv_pos_as_xyz
  1  'x, y, z'
loop_
 _atom_site_type_symbol
 _atom_site_label
 _atom_site_symmetry_multiplicity
 _atom_site_fract_x
 _atom_site_fract_y
 _atom_site_fract_z
 _atom_site_occupancy
  Hf  Hf0  1  0.250000  0.543494  0.164450  1
  Hf  Hf1  1  0.250000  0.043494  0.335550  1
  Hf  Hf2  1  0.750000  0.461692  0.832108  1
  Hf  Hf3  1  0.750000  0.961692  0.667892  1
  Ti  Ti4  1  0.250000  0.628725  0.560146  1
  Ti  Ti5  1  0.250000  0.128725  0.939854  1
  Re  Re6  1  0.750000  0.366992  0.438206  1
  Re  Re7  1  0.750000  0.866992  0.061794  1
  Si  Si8  1  0.250000  0.757522  0.861897  1
  Si  Si9  1  0.250000  0.257522  0.638103  1
  Si  Si10  1  0.750000  0.241576  0.141228  1
  Si  Si11  1  0.750000  0.741576  0.358772  1
