# generated using pymatgen
data_La5Tb(CBr5)2
_symmetry_space_group_name_H-M   'P 1'
_cell_length_a   7.72599545
_cell_length_b   9.32687679
_cell_length_c   9.38846544
_cell_angle_alpha   107.95898029
_cell_angle_beta   96.17971669
_cell_angle_gamma   105.47289356
_symmetry_Int_Tables_number   1
_chemical_formula_structural   La5Tb(CBr5)2
_chemical_formula_sum   'La5 Tb1 C2 Br10'
_cell_volume   606.78807783
_cell_formula_units_Z   1
loop_
 _symmetry_equiv_pos_site_id
 _symmetry_equiv_pos_as_xyz
  1  'x, y, z'
loop_
 _atom_site_type_symbol
 _atom_site_label
 _atom_site_symmetry_multiplicity
 _atom_site_fract_x
 _atom_site_fract_y
 _atom_site_fract_z
 _atom_site_occupancy
  La  La0  1  0.884705  0.956846  0.233175  1
  La  La1  1  0.119866  0.047594  0.768347  1
  La  La2  1  0.031180  0.719425  0.916241  1
  La  La3  1  0.972823  0.282397  0.087045  1
  La  La4  1  0.613876  0.852051  0.803666  1
  Tb  Tb5  1  0.375292  0.139882  0.187308  1
  C  C6  1  0.910731  0.968330  0.955115  1
  C  C7  1  0.091307  0.032696  0.043690  1
  Br  Br8  1  0.756750  0.918653  0.538555  1
  Br  Br9  1  0.256937  0.088253  0.452445  1
  Br  Br10  1  0.452713  0.827201  0.091522  1
  Br  Br11  1  0.541565  0.182959  0.924800  1
  Br  Br12  1  0.788998  0.259778  0.350251  1
  Br  Br13  1  0.189058  0.735132  0.639911  1
  Br  Br14  1  0.911187  0.629062  0.178788  1
  Br  Br15  1  0.093647  0.374910  0.825595  1
  Br  Br16  1  0.655366  0.536350  0.727668  1
  Br  Br17  1  0.354000  0.448479  0.275878  1
