# generated using pymatgen
data_ErSc6Sn23Ir6
_symmetry_space_group_name_H-M   'P 1'
_cell_length_a   9.73595373
_cell_length_b   9.73595488
_cell_length_c   9.96582570
_cell_angle_alpha   90.02227211
_cell_angle_beta   89.97772945
_cell_angle_gamma   119.97573302
_symmetry_Int_Tables_number   1
_chemical_formula_structural   ErSc6Sn23Ir6
_chemical_formula_sum   'Er1 Sc6 Sn23 Ir6'
_cell_volume   818.28968223
_cell_formula_units_Z   1
loop_
 _symmetry_equiv_pos_site_id
 _symmetry_equiv_pos_as_xyz
  1  'x, y, z'
loop_
 _atom_site_type_symbol
 _atom_site_label
 _atom_site_symmetry_multiplicity
 _atom_site_fract_x
 _atom_site_fract_y
 _atom_site_fract_z
 _atom_site_occupancy
  Er  Er0  1  0.000000  0.000000  0.000000  1
  Sc  Sc1  1  0.484402  0.515598  0.308137  1
  Sc  Sc2  1  0.515598  0.484402  0.691863  1
  Sc  Sc3  1  0.484434  0.968971  0.308034  1
  Sc  Sc4  1  0.515566  0.031029  0.691966  1
  Sc  Sc5  1  0.031029  0.515566  0.308034  1
  Sc  Sc6  1  0.968971  0.484434  0.691966  1
  Sn  Sn7  1  0.122637  0.877363  0.285901  1
  Sn  Sn8  1  0.877363  0.122637  0.714099  1
  Sn  Sn9  1  0.122653  0.245480  0.285992  1
  Sn  Sn10  1  0.877347  0.754520  0.714008  1
  Sn  Sn11  1  0.754520  0.877347  0.285992  1
  Sn  Sn12  1  0.245480  0.122653  0.714008  1
  Sn  Sn13  1  0.775232  0.224768  0.459358  1
  Sn  Sn14  1  0.224768  0.775232  0.540642  1
  Sn  Sn15  1  0.775234  0.550471  0.459085  1
  Sn  Sn16  1  0.224766  0.449529  0.540915  1
  Sn  Sn17  1  0.449529  0.224766  0.459085  1
  Sn  Sn18  1  0.550471  0.775234  0.540915  1
  Sn  Sn19  1  0.353323  0.999837  0.999815  1
  Sn  Sn20  1  0.646677  0.000163  0.000185  1
  Sn  Sn21  1  0.999837  0.353323  0.000185  1
  Sn  Sn22  1  0.000163  0.646677  0.999815  1
  Sn  Sn23  1  0.646464  0.646464  0.000000  1
  Sn  Sn24  1  0.353536  0.353536  0.000000  1
  Sn  Sn25  1  0.333242  0.666758  0.140051  1
  Sn  Sn26  1  0.666758  0.333242  0.859949  1
  Sn  Sn27  1  0.333312  0.666688  0.832945  1
  Sn  Sn28  1  0.666688  0.333312  0.167055  1
  Sn  Sn29  1  0.000000  0.000000  0.500000  1
  Ir  Ir30  1  0.830058  0.660209  0.200441  1
  Ir  Ir31  1  0.169942  0.339791  0.799559  1
  Ir  Ir32  1  0.339791  0.169942  0.200441  1
  Ir  Ir33  1  0.660209  0.830058  0.799559  1
  Ir  Ir34  1  0.829994  0.170006  0.200636  1
  Ir  Ir35  1  0.170006  0.829994  0.799364  1
