# generated using pymatgen
data_LiDy2Y4Co17P12
_symmetry_space_group_name_H-M   'P 1'
_cell_length_a   3.71255500
_cell_length_b   10.54601800
_cell_length_c   12.19647000
_cell_angle_alpha   90.00000000
_cell_angle_beta   90.00000000
_cell_angle_gamma   90.00000000
_symmetry_Int_Tables_number   1
_chemical_formula_structural   LiDy2Y4Co17P12
_chemical_formula_sum   'Li1 Dy2 Y4 Co17 P12'
_cell_volume   477.52438771
_cell_formula_units_Z   1
loop_
 _symmetry_equiv_pos_site_id
 _symmetry_equiv_pos_as_xyz
  1  'x, y, z'
loop_
 _atom_site_type_symbol
 _atom_site_label
 _atom_site_symmetry_multiplicity
 _atom_site_fract_x
 _atom_site_fract_y
 _atom_site_fract_z
 _atom_site_occupancy
  Li  Li0  1  0.000000  0.000000  0.848330  1
  Dy  Dy1  1  0.500000  0.817593  0.205620  1
  Dy  Dy2  1  0.500000  0.182407  0.205620  1
  Y  Y3  1  0.000000  0.500000  0.521299  1
  Y  Y4  1  0.500000  0.000000  0.477226  1
  Y  Y5  1  0.000000  0.680999  0.793770  1
  Y  Y6  1  0.000000  0.319001  0.793770  1
  Co  Co7  1  0.500000  0.500000  0.159069  1
  Co  Co8  1  0.500000  0.500000  0.703382  1
  Co  Co9  1  0.000000  0.000000  0.295771  1
  Co  Co10  1  0.000000  0.500000  0.988041  1
  Co  Co11  1  0.500000  0.000000  0.014297  1
  Co  Co12  1  0.500000  0.335168  0.996983  1
  Co  Co13  1  0.500000  0.664832  0.996983  1
  Co  Co14  1  0.000000  0.168934  0.005256  1
  Co  Co15  1  0.000000  0.831066  0.005256  1
  Co  Co16  1  0.500000  0.297616  0.429517  1
  Co  Co17  1  0.500000  0.702384  0.429517  1
  Co  Co18  1  0.000000  0.203836  0.567866  1
  Co  Co19  1  0.000000  0.796164  0.567866  1
  Co  Co20  1  0.500000  0.878107  0.707015  1
  Co  Co21  1  0.500000  0.121893  0.707015  1
  Co  Co22  1  0.000000  0.620109  0.290363  1
  Co  Co23  1  0.000000  0.379891  0.290363  1
  P  P24  1  0.500000  0.500000  0.883471  1
  P  P25  1  0.000000  0.000000  0.115805  1
  P  P26  1  0.500000  0.500000  0.343251  1
  P  P27  1  0.000000  0.000000  0.655150  1
  P  P28  1  0.500000  0.310078  0.614805  1
  P  P29  1  0.500000  0.689922  0.614805  1
  P  P30  1  0.000000  0.190474  0.383119  1
  P  P31  1  0.000000  0.809526  0.383119  1
  P  P32  1  0.500000  0.843139  0.895089  1
  P  P33  1  0.500000  0.156861  0.895089  1
  P  P34  1  0.000000  0.652417  0.108051  1
  P  P35  1  0.000000  0.347583  0.108051  1
