# generated using pymatgen
data_TbEr19Fe3CuSb8
_symmetry_space_group_name_H-M   'P 1'
_cell_length_a   7.82054172
_cell_length_b   8.78682700
_cell_length_c   12.09166833
_cell_angle_alpha   90.00000000
_cell_angle_beta   90.21298300
_cell_angle_gamma   90.00000000
_symmetry_Int_Tables_number   1
_chemical_formula_structural   TbEr19Fe3CuSb8
_chemical_formula_sum   'Tb1 Er19 Fe3 Cu1 Sb8'
_cell_volume   830.90646553
_cell_formula_units_Z   1
loop_
 _symmetry_equiv_pos_site_id
 _symmetry_equiv_pos_as_xyz
  1  'x, y, z'
loop_
 _atom_site_type_symbol
 _atom_site_label
 _atom_site_symmetry_multiplicity
 _atom_site_fract_x
 _atom_site_fract_y
 _atom_site_fract_z
 _atom_site_occupancy
  Tb  Tb0  1  0.867549  0.750000  0.800145  1
  Er  Er1  1  0.168081  0.750000  0.218495  1
  Er  Er2  1  0.655658  0.250000  0.295656  1
  Er  Er3  1  0.841718  0.250000  0.794041  1
  Er  Er4  1  0.345541  0.750000  0.701382  1
  Er  Er5  1  0.459596  0.750000  0.998082  1
  Er  Er6  1  0.946760  0.250000  0.504215  1
  Er  Er7  1  0.548547  0.250000  0.002174  1
  Er  Er8  1  0.047135  0.750000  0.498692  1
  Er  Er9  1  0.624746  0.750000  0.304848  1
  Er  Er10  1  0.122649  0.250000  0.192269  1
  Er  Er11  1  0.378061  0.250000  0.692685  1
  Er  Er12  1  0.822501  0.972582  0.067071  1
  Er  Er13  1  0.323613  0.033164  0.436665  1
  Er  Er14  1  0.179404  0.450459  0.934778  1
  Er  Er15  1  0.674726  0.537207  0.562071  1
  Er  Er16  1  0.179404  0.049541  0.934778  1
  Er  Er17  1  0.674726  0.962793  0.562071  1
  Er  Er18  1  0.822501  0.527418  0.067071  1
  Er  Er19  1  0.323613  0.466836  0.436665  1
  Fe  Fe20  1  0.423857  0.750000  0.483800  1
  Fe  Fe21  1  0.927597  0.250000  0.010554  1
  Fe  Fe22  1  0.570221  0.250000  0.510852  1
  Cu  Cu23  1  0.074900  0.750000  0.990622  1
  Sb  Sb24  1  0.931364  0.992812  0.328231  1
  Sb  Sb25  1  0.428722  0.008263  0.170977  1
  Sb  Sb26  1  0.070555  0.491691  0.673239  1
  Sb  Sb27  1  0.567808  0.507480  0.827712  1
  Sb  Sb28  1  0.070555  0.008309  0.673239  1
  Sb  Sb29  1  0.567808  0.992520  0.827712  1
  Sb  Sb30  1  0.931364  0.507188  0.328231  1
  Sb  Sb31  1  0.428722  0.491737  0.170977  1
