# generated using pymatgen
data_La2Y5Er13Si13Au3
_symmetry_space_group_name_H-M   'P 1'
_cell_length_a   7.39989616
_cell_length_b   7.87119409
_cell_length_c   14.61870413
_cell_angle_alpha   89.75692672
_cell_angle_beta   90.07855538
_cell_angle_gamma   89.92170232
_symmetry_Int_Tables_number   1
_chemical_formula_structural   La2Y5Er13Si13Au3
_chemical_formula_sum   'La2 Y5 Er13 Si13 Au3'
_cell_volume   851.47205258
_cell_formula_units_Z   1
loop_
 _symmetry_equiv_pos_site_id
 _symmetry_equiv_pos_as_xyz
  1  'x, y, z'
loop_
 _atom_site_type_symbol
 _atom_site_label
 _atom_site_symmetry_multiplicity
 _atom_site_fract_x
 _atom_site_fract_y
 _atom_site_fract_z
 _atom_site_occupancy
  La  La0  1  0.517270  0.568031  0.337125  1
  La  La1  1  0.019352  0.426300  0.662626  1
  Y  Y2  1  0.978045  0.062820  0.155470  1
  Y  Y3  1  0.476908  0.938276  0.157129  1
  Y  Y4  1  0.974992  0.059970  0.844691  1
  Y  Y5  1  0.522076  0.563440  0.660402  1
  Y  Y6  1  0.021593  0.431705  0.342594  1
  Er  Er7  1  0.811533  0.581381  0.874169  1
  Er  Er8  1  0.311453  0.421374  0.126031  1
  Er  Er9  1  0.181258  0.929004  0.372634  1
  Er  Er10  1  0.686018  0.074836  0.627538  1
  Er  Er11  1  0.181090  0.926781  0.628425  1
  Er  Er12  1  0.684580  0.074518  0.371066  1
  Er  Er13  1  0.817983  0.576151  0.126058  1
  Er  Er14  1  0.317860  0.425679  0.873313  1
  Er  Er15  1  0.652144  0.233253  0.999708  1
  Er  Er16  1  0.155403  0.769435  0.000258  1
  Er  Er17  1  0.352426  0.270454  0.499903  1
  Er  Er18  1  0.844695  0.736312  0.500459  1
  Er  Er19  1  0.478293  0.936929  0.842189  1
  Si  Si20  1  0.979030  0.143837  0.498973  1
  Si  Si21  1  0.653834  0.275997  0.792388  1
  Si  Si22  1  0.151841  0.722448  0.208898  1
  Si  Si23  1  0.348459  0.217013  0.288787  1
  Si  Si24  1  0.846319  0.782050  0.710345  1
  Si  Si25  1  0.359041  0.218439  0.709911  1
  Si  Si26  1  0.855398  0.781508  0.289957  1
  Si  Si27  1  0.654317  0.273465  0.206227  1
  Si  Si28  1  0.153139  0.727828  0.793265  1
  Si  Si29  1  0.771390  0.881599  0.000396  1
  Si  Si30  1  0.272726  0.120119  0.998641  1
  Si  Si31  1  0.221435  0.620375  0.501389  1
  Si  Si32  1  0.736198  0.371736  0.497979  1
  Au  Au33  1  0.518170  0.648048  0.001633  1
  Au  Au34  1  0.016819  0.354173  0.997153  1
  Au  Au35  1  0.476911  0.854719  0.502269  1
