# generated using pymatgen
data_Pr2SiPtI2
_symmetry_space_group_name_H-M   'P 1'
_cell_length_a   4.35257600
_cell_length_b   4.35257516
_cell_length_c   12.32141600
_cell_angle_alpha   90.00000000
_cell_angle_beta   90.00000000
_cell_angle_gamma   119.99999115
_symmetry_Int_Tables_number   1
_chemical_formula_structural   Pr2SiPtI2
_chemical_formula_sum   'Pr2 Si1 Pt1 I2'
_cell_volume   202.15474226
_cell_formula_units_Z   1
loop_
 _symmetry_equiv_pos_site_id
 _symmetry_equiv_pos_as_xyz
  1  'x, y, z'
loop_
 _atom_site_type_symbol
 _atom_site_label
 _atom_site_symmetry_multiplicity
 _atom_site_fract_x
 _atom_site_fract_y
 _atom_site_fract_z
 _atom_site_occupancy
  Pr  Pr0  1  0.000000  0.000000  0.152585  1
  Pr  Pr1  1  0.000000  0.000000  0.845550  1
  Si  Si2  1  0.666667  0.333333  0.992621  1
  Pt  Pt3  1  0.333333  0.666667  0.005148  1
  I  I4  1  0.333333  0.666667  0.674492  1
  I  I5  1  0.666667  0.333333  0.329604  1
