# generated using pymatgen
data_NaGd18ErSn16
_symmetry_space_group_name_H-M   'P 1'
_cell_length_a   8.03160900
_cell_length_b   8.17967820
_cell_length_c   15.45552600
_cell_angle_alpha   90.00000000
_cell_angle_beta   90.00000000
_cell_angle_gamma   89.96896940
_symmetry_Int_Tables_number   1
_chemical_formula_structural   NaGd18ErSn16
_chemical_formula_sum   'Na1 Gd18 Er1 Sn16'
_cell_volume   1015.36573240
_cell_formula_units_Z   1
loop_
 _symmetry_equiv_pos_site_id
 _symmetry_equiv_pos_as_xyz
  1  'x, y, z'
loop_
 _atom_site_type_symbol
 _atom_site_label
 _atom_site_symmetry_multiplicity
 _atom_site_fract_x
 _atom_site_fract_y
 _atom_site_fract_z
 _atom_site_occupancy
  Na  Na0  1  0.804384  0.499122  0.250000  1
  Gd  Gd1  1  0.366461  0.838444  0.879000  1
  Gd  Gd2  1  0.868559  0.664198  0.623505  1
  Gd  Gd3  1  0.633589  0.166198  0.378964  1
  Gd  Gd4  1  0.127293  0.337649  0.122213  1
  Gd  Gd5  1  0.633589  0.166198  0.121036  1
  Gd  Gd6  1  0.127293  0.337649  0.377787  1
  Gd  Gd7  1  0.366461  0.838444  0.621000  1
  Gd  Gd8  1  0.868559  0.664198  0.876495  1
  Gd  Gd9  1  0.519251  0.319532  0.903560  1
  Gd  Gd10  1  0.019165  0.180410  0.596909  1
  Gd  Gd11  1  0.483737  0.678834  0.404309  1
  Gd  Gd12  1  0.979101  0.816174  0.096406  1
  Gd  Gd13  1  0.483737  0.678834  0.095691  1
  Gd  Gd14  1  0.979101  0.816174  0.403594  1
  Gd  Gd15  1  0.519251  0.319532  0.596440  1
  Gd  Gd16  1  0.019165  0.180410  0.903091  1
  Gd  Gd17  1  0.694769  0.996418  0.750000  1
  Gd  Gd18  1  0.306514  0.003000  0.250000  1
  Er  Er19  1  0.197825  0.503394  0.750000  1
  Sn  Sn20  1  0.292955  0.035985  0.042560  1
  Sn  Sn21  1  0.794084  0.462053  0.462345  1
  Sn  Sn22  1  0.707042  0.963963  0.542330  1
  Sn  Sn23  1  0.204487  0.535165  0.956990  1
  Sn  Sn24  1  0.707042  0.963963  0.957670  1
  Sn  Sn25  1  0.204487  0.535165  0.543010  1
  Sn  Sn26  1  0.292955  0.035985  0.457440  1
  Sn  Sn27  1  0.794084  0.462053  0.037655  1
  Sn  Sn28  1  0.561896  0.612096  0.750000  1
  Sn  Sn29  1  0.065629  0.886743  0.750000  1
  Sn  Sn30  1  0.436631  0.390490  0.250000  1
  Sn  Sn31  1  0.933183  0.108078  0.250000  1
  Sn  Sn32  1  0.323701  0.148838  0.750000  1
  Sn  Sn33  1  0.826884  0.354519  0.750000  1
  Sn  Sn34  1  0.676902  0.856098  0.250000  1
  Sn  Sn35  1  0.180232  0.643992  0.250000  1
