# generated using pymatgen
data_Na3Cu(NO3)8
_symmetry_space_group_name_H-M   'P 1'
_cell_length_a   7.84725549
_cell_length_b   7.84725523
_cell_length_c   7.84725600
_cell_angle_alpha   91.51234217
_cell_angle_beta   88.48765788
_cell_angle_gamma   88.48765125
_symmetry_Int_Tables_number   1
_chemical_formula_structural   Na3Cu(NO3)8
_chemical_formula_sum   'Na3 Cu1 N8 O24'
_cell_volume   482.71539660
_cell_formula_units_Z   1
loop_
 _symmetry_equiv_pos_site_id
 _symmetry_equiv_pos_as_xyz
  1  'x, y, z'
loop_
 _atom_site_type_symbol
 _atom_site_label
 _atom_site_symmetry_multiplicity
 _atom_site_fract_x
 _atom_site_fract_y
 _atom_site_fract_z
 _atom_site_occupancy
  Na  Na0  1  0.500000  0.500000  0.500000  1
  Na  Na1  1  0.500000  0.000000  0.000000  1
  Na  Na2  1  0.000000  0.500000  0.000000  1
  Cu  Cu3  1  0.000000  0.000000  0.500000  1
  N  N4  1  0.694578  0.144549  0.327024  1
  N  N5  1  0.667294  0.332706  0.832706  1
  N  N6  1  0.855451  0.827024  0.805422  1
  N  N7  1  0.827024  0.694578  0.355451  1
  N  N8  1  0.144549  0.172976  0.194578  1
  N  N9  1  0.172976  0.305422  0.644549  1
  N  N10  1  0.332706  0.667294  0.167294  1
  N  N11  1  0.305422  0.855451  0.672976  1
  O  O12  1  0.546594  0.232788  0.812032  1
  O  O13  1  0.584233  0.260879  0.320435  1
  O  O14  1  0.687968  0.453406  0.732788  1
  O  O15  1  0.710074  0.026042  0.219924  1
  O  O16  1  0.719924  0.710074  0.473958  1
  O  O17  1  0.739121  0.820435  0.915767  1
  O  O18  1  0.767212  0.312032  0.953406  1
  O  O19  1  0.795390  0.153901  0.455597  1
  O  O20  1  0.846099  0.955597  0.704610  1
  O  O21  1  0.820435  0.584233  0.239121  1
  O  O22  1  0.973958  0.719924  0.789926  1
  O  O23  1  0.955597  0.795390  0.346099  1
  O  O24  1  0.044403  0.204610  0.653901  1
  O  O25  1  0.026042  0.280076  0.210074  1
  O  O26  1  0.179565  0.415767  0.760879  1
  O  O27  1  0.153901  0.044403  0.295390  1
  O  O28  1  0.232788  0.687968  0.046594  1
  O  O29  1  0.204610  0.846099  0.544403  1
  O  O30  1  0.260879  0.179565  0.084233  1
  O  O31  1  0.280076  0.289926  0.526042  1
  O  O32  1  0.312032  0.546594  0.267212  1
  O  O33  1  0.289926  0.973958  0.780076  1
  O  O34  1  0.415767  0.739121  0.679565  1
  O  O35  1  0.453406  0.767212  0.187968  1
