# generated using pymatgen
data_Y4Al23SiPt9
_symmetry_space_group_name_H-M   'P 1'
_cell_length_a   7.53190224
_cell_length_b   7.52850649
_cell_length_c   13.11953342
_cell_angle_alpha   84.50007198
_cell_angle_beta   100.99044144
_cell_angle_gamma   119.91717367
_symmetry_Int_Tables_number   1
_chemical_formula_structural   Y4Al23SiPt9
_chemical_formula_sum   'Y4 Al23 Si1 Pt9'
_cell_volume   632.97253785
_cell_formula_units_Z   1
loop_
 _symmetry_equiv_pos_site_id
 _symmetry_equiv_pos_as_xyz
  1  'x, y, z'
loop_
 _atom_site_type_symbol
 _atom_site_label
 _atom_site_symmetry_multiplicity
 _atom_site_fract_x
 _atom_site_fract_y
 _atom_site_fract_z
 _atom_site_occupancy
  Y  Y0  1  0.731853  0.999226  0.192190  1
  Y  Y1  1  0.262518  0.001815  0.808168  1
  Y  Y2  1  0.062427  0.667653  0.192092  1
  Y  Y3  1  0.938751  0.326666  0.808200  1
  Al  Al4  1  0.190783  0.129765  0.183742  1
  Al  Al5  1  0.981961  0.665450  0.943498  1
  Al  Al6  1  0.018835  0.334189  0.055576  1
  Al  Al7  1  0.400024  0.669056  0.815983  1
  Al  Al8  1  0.601321  0.335424  0.183533  1
  Al  Al9  1  0.883092  0.662976  0.670724  1
  Al  Al10  1  0.117066  0.334086  0.329672  1
  Al  Al11  1  0.607719  0.459880  0.815473  1
  Al  Al12  1  0.396318  0.541173  0.183829  1
  Al  Al13  1  0.231526  0.341338  0.669539  1
  Al  Al14  1  0.769848  0.660067  0.330510  1
  Al  Al15  1  0.852761  0.332751  0.558924  1
  Al  Al16  1  0.185780  0.000005  0.558846  1
  Al  Al17  1  0.813973  0.000028  0.442347  1
  Al  Al18  1  0.352576  0.000125  0.055672  1
  Al  Al19  1  0.646735  0.001099  0.943321  1
  Al  Al20  1  0.553834  0.993704  0.671044  1
  Al  Al21  1  0.443458  0.006345  0.329301  1
  Al  Al22  1  0.520360  0.666943  0.561189  1
  Al  Al23  1  0.478903  0.332553  0.437575  1
  Al  Al24  1  0.685239  0.668727  0.050310  1
  Al  Al25  1  0.320417  0.335673  0.953638  1
  Al  Al26  1  0.146853  0.666600  0.441009  1
  Si  Si27  1  0.803756  0.864891  0.815654  1
  Pt  Pt28  1  0.330366  0.673203  0.998870  1
  Pt  Pt29  1  0.546156  0.325738  0.637430  1
  Pt  Pt30  1  0.454407  0.675132  0.362765  1
  Pt  Pt31  1  0.886303  0.005318  0.642762  1
  Pt  Pt32  1  0.112089  0.991816  0.361576  1
  Pt  Pt33  1  0.672732  0.330677  0.998825  1
  Pt  Pt34  1  0.205303  0.667294  0.638893  1
  Pt  Pt35  1  0.795643  0.332800  0.361729  1
  Pt  Pt36  1  0.998314  0.999815  0.995591  1
