# generated using pymatgen
data_Yb2DySc(Pt2O7)2
_symmetry_space_group_name_H-M   'P 1'
_cell_length_a   7.23183986
_cell_length_b   7.23183992
_cell_length_c   7.15564509
_cell_angle_alpha   59.94792543
_cell_angle_beta   59.94792505
_cell_angle_gamma   60.04296361
_symmetry_Int_Tables_number   1
_chemical_formula_structural   Yb2DySc(Pt2O7)2
_chemical_formula_sum   'Yb2 Dy1 Sc1 Pt4 O14'
_cell_volume   264.50245433
_cell_formula_units_Z   1
loop_
 _symmetry_equiv_pos_site_id
 _symmetry_equiv_pos_as_xyz
  1  'x, y, z'
loop_
 _atom_site_type_symbol
 _atom_site_label
 _atom_site_symmetry_multiplicity
 _atom_site_fract_x
 _atom_site_fract_y
 _atom_site_fract_z
 _atom_site_occupancy
  Yb  Yb0  1  0.625000  0.125000  0.625000  1
  Yb  Yb1  1  0.125000  0.625000  0.625000  1
  Dy  Dy2  1  0.625000  0.625000  0.625000  1
  Sc  Sc3  1  0.625000  0.625000  0.125000  1
  Pt  Pt4  1  0.625000  0.125000  0.125000  1
  Pt  Pt5  1  0.125000  0.125000  0.125000  1
  Pt  Pt6  1  0.125000  0.625000  0.125000  1
  Pt  Pt7  1  0.125000  0.125000  0.625000  1
  O  O8  1  0.032189  0.463145  0.462719  1
  O  O9  1  0.786924  0.786924  0.206735  1
  O  O10  1  0.788325  0.224409  0.198169  1
  O  O11  1  0.025591  0.461675  0.051831  1
  O  O12  1  0.463145  0.032189  0.462719  1
  O  O13  1  0.738531  0.738531  0.775428  1
  O  O14  1  0.037536  0.037536  0.462372  1
  O  O15  1  0.786855  0.217811  0.787281  1
  O  O16  1  0.511469  0.511469  0.474572  1
  O  O17  1  0.212464  0.212464  0.787628  1
  O  O18  1  0.224409  0.788325  0.198169  1
  O  O19  1  0.461675  0.025591  0.051831  1
  O  O20  1  0.463076  0.463076  0.043265  1
  O  O21  1  0.217811  0.786855  0.787281  1
