# generated using pymatgen
data_Ce3Er3Al17Si7Os8
_symmetry_space_group_name_H-M   'P 1'
_cell_length_a   8.73856510
_cell_length_b   8.72983100
_cell_length_c   9.46522500
_cell_angle_alpha   90.00000000
_cell_angle_beta   90.00000000
_cell_angle_gamma   120.14965778
_symmetry_Int_Tables_number   1
_chemical_formula_structural   Ce3Er3Al17Si7Os8
_chemical_formula_sum   'Ce3 Er3 Al17 Si7 Os8'
_cell_volume   624.38235323
_cell_formula_units_Z   1
loop_
 _symmetry_equiv_pos_site_id
 _symmetry_equiv_pos_as_xyz
  1  'x, y, z'
loop_
 _atom_site_type_symbol
 _atom_site_label
 _atom_site_symmetry_multiplicity
 _atom_site_fract_x
 _atom_site_fract_y
 _atom_site_fract_z
 _atom_site_occupancy
  Ce  Ce0  1  0.191965  0.385432  0.250000  1
  Ce  Ce1  1  0.612899  0.807520  0.250000  1
  Ce  Ce2  1  0.194419  0.806426  0.250000  1
  Er  Er3  1  0.805575  0.611978  0.750000  1
  Er  Er4  1  0.390306  0.192548  0.750000  1
  Er  Er5  1  0.801311  0.192944  0.750000  1
  Al  Al6  1  0.163361  0.327847  0.581264  1
  Al  Al7  1  0.834422  0.670910  0.424133  1
  Al  Al8  1  0.673063  0.836177  0.580439  1
  Al  Al9  1  0.834422  0.670910  0.075867  1
  Al  Al10  1  0.330051  0.165878  0.425798  1
  Al  Al11  1  0.163361  0.327847  0.918736  1
  Al  Al12  1  0.162757  0.835499  0.579445  1
  Al  Al13  1  0.330051  0.165878  0.074202  1
  Al  Al14  1  0.835525  0.164041  0.425552  1
  Al  Al15  1  0.673063  0.836177  0.919561  1
  Al  Al16  1  0.835525  0.164041  0.074448  1
  Al  Al17  1  0.162757  0.835499  0.920555  1
  Al  Al18  1  0.124318  0.564799  0.750000  1
  Al  Al19  1  0.566217  0.433165  0.250000  1
  Al  Al20  1  0.438889  0.565718  0.750000  1
  Al  Al21  1  0.999640  0.998336  0.250000  1
  Al  Al22  1  0.999966  0.001603  0.750000  1
  Si  Si23  1  0.333066  0.664630  0.034062  1
  Si  Si24  1  0.666489  0.335909  0.957077  1
  Si  Si25  1  0.666489  0.335909  0.542923  1
  Si  Si26  1  0.333066  0.664630  0.465938  1
  Si  Si27  1  0.567162  0.127310  0.250000  1
  Si  Si28  1  0.437209  0.875038  0.750000  1
  Si  Si29  1  0.871664  0.432100  0.250000  1
  Os  Os30  1  0.501387  0.002179  0.999370  1
  Os  Os31  1  0.997476  0.499069  0.005433  1
  Os  Os32  1  0.501387  0.002179  0.500630  1
  Os  Os33  1  0.501082  0.500023  0.999764  1
  Os  Os34  1  0.997476  0.499069  0.494567  1
  Os  Os35  1  0.501082  0.500023  0.500236  1
  Os  Os36  1  0.000549  0.000381  0.999437  1
  Os  Os37  1  0.000549  0.000381  0.500563  1
