# generated using pymatgen
data_EuErCo12GeP6
_symmetry_space_group_name_H-M   'P 1'
_cell_length_a   9.09411200
_cell_length_b   9.09411235
_cell_length_c   3.57698500
_cell_angle_alpha   90.00000000
_cell_angle_beta   90.00000000
_cell_angle_gamma   119.99999145
_symmetry_Int_Tables_number   1
_chemical_formula_structural   EuErCo12GeP6
_chemical_formula_sum   'Eu1 Er1 Co12 Ge1 P6'
_cell_volume   256.19367405
_cell_formula_units_Z   1
loop_
 _symmetry_equiv_pos_site_id
 _symmetry_equiv_pos_as_xyz
  1  'x, y, z'
loop_
 _atom_site_type_symbol
 _atom_site_label
 _atom_site_symmetry_multiplicity
 _atom_site_fract_x
 _atom_site_fract_y
 _atom_site_fract_z
 _atom_site_occupancy
  Eu  Eu0  1  0.666667  0.333333  0.500000  1
  Er  Er1  1  0.333333  0.666667  0.000000  1
  Co  Co2  1  0.126070  0.839539  0.000000  1
  Co  Co3  1  0.383670  0.439144  0.500000  1
  Co  Co4  1  0.713468  0.873930  0.000000  1
  Co  Co5  1  0.560856  0.944527  0.500000  1
  Co  Co6  1  0.249050  0.110594  0.500000  1
  Co  Co7  1  0.861545  0.750950  0.500000  1
  Co  Co8  1  0.889406  0.138455  0.500000  1
  Co  Co9  1  0.944482  0.378646  0.000000  1
  Co  Co10  1  0.621354  0.565835  0.000000  1
  Co  Co11  1  0.434165  0.055518  0.000000  1
  Co  Co12  1  0.055473  0.616330  0.500000  1
  Co  Co13  1  0.160461  0.286532  0.000000  1
  Ge  Ge14  1  0.000000  0.000000  0.000000  1
  P  P15  1  0.596943  0.707971  0.500000  1
  P  P16  1  0.708335  0.111541  0.000000  1
  P  P17  1  0.888459  0.596794  0.000000  1
  P  P18  1  0.403206  0.291665  0.000000  1
  P  P19  1  0.292029  0.888972  0.500000  1
  P  P20  1  0.111028  0.403057  0.500000  1
