# generated using pymatgen
data_La8Pa9Ga3Rh16
_symmetry_space_group_name_H-M   'P 1'
_cell_length_a   7.50839881
_cell_length_b   7.57953953
_cell_length_c   14.22431500
_cell_angle_alpha   90.00000000
_cell_angle_beta   90.00000000
_cell_angle_gamma   90.20135201
_symmetry_Int_Tables_number   1
_chemical_formula_structural   La8Pa9Ga3Rh16
_chemical_formula_sum   'La8 Pa9 Ga3 Rh16'
_cell_volume   809.50369252
_cell_formula_units_Z   1
loop_
 _symmetry_equiv_pos_site_id
 _symmetry_equiv_pos_as_xyz
  1  'x, y, z'
loop_
 _atom_site_type_symbol
 _atom_site_label
 _atom_site_symmetry_multiplicity
 _atom_site_fract_x
 _atom_site_fract_y
 _atom_site_fract_z
 _atom_site_occupancy
  La  La0  1  0.490773  0.319623  0.889973  1
  La  La1  1  0.993699  0.176240  0.610224  1
  La  La2  1  0.514048  0.666967  0.400192  1
  La  La3  1  0.992644  0.814163  0.099233  1
  La  La4  1  0.514048  0.666967  0.099808  1
  La  La5  1  0.992644  0.814163  0.400767  1
  La  La6  1  0.490773  0.319623  0.610027  1
  La  La7  1  0.993699  0.176240  0.889776  1
  Pa  Pa8  1  0.350739  0.831422  0.875626  1
  Pa  Pa9  1  0.848991  0.666796  0.626505  1
  Pa  Pa10  1  0.661990  0.175622  0.378378  1
  Pa  Pa11  1  0.147707  0.348758  0.120782  1
  Pa  Pa12  1  0.661990  0.175622  0.121622  1
  Pa  Pa13  1  0.147707  0.348758  0.379218  1
  Pa  Pa14  1  0.350739  0.831422  0.624374  1
  Pa  Pa15  1  0.848991  0.666796  0.873495  1
  Pa  Pa16  1  0.316382  0.987874  0.250000  1
  Ga  Ga17  1  0.181277  0.499729  0.750000  1
  Ga  Ga18  1  0.679613  0.998210  0.750000  1
  Ga  Ga19  1  0.819566  0.504951  0.250000  1
  Rh  Rh20  1  0.325560  0.055010  0.050652  1
  Rh  Rh21  1  0.817282  0.438060  0.468298  1
  Rh  Rh22  1  0.678432  0.944447  0.538666  1
  Rh  Rh23  1  0.183976  0.558202  0.962888  1
  Rh  Rh24  1  0.678432  0.944447  0.961334  1
  Rh  Rh25  1  0.183976  0.558202  0.537112  1
  Rh  Rh26  1  0.325560  0.055010  0.449348  1
  Rh  Rh27  1  0.817282  0.438060  0.031702  1
  Rh  Rh28  1  0.534980  0.636499  0.750000  1
  Rh  Rh29  1  0.036231  0.861019  0.750000  1
  Rh  Rh30  1  0.451035  0.360531  0.250000  1
  Rh  Rh31  1  0.969578  0.141467  0.250000  1
  Rh  Rh32  1  0.329784  0.097701  0.750000  1
  Rh  Rh33  1  0.826122  0.398488  0.750000  1
  Rh  Rh34  1  0.672005  0.897769  0.250000  1
  Rh  Rh35  1  0.171746  0.625143  0.250000  1
