# generated using pymatgen
data_Tm5Th15(Ir2Os)4
_symmetry_space_group_name_H-M   'P 1'
_cell_length_a   11.24554844
_cell_length_b   11.22520099
_cell_length_c   6.35696152
_cell_angle_alpha   89.71022353
_cell_angle_beta   90.01067000
_cell_angle_gamma   90.03023480
_symmetry_Int_Tables_number   1
_chemical_formula_structural   Tm5Th15(Ir2Os)4
_chemical_formula_sum   'Tm5 Th15 Ir8 Os4'
_cell_volume   802.45137726
_cell_formula_units_Z   1
loop_
 _symmetry_equiv_pos_site_id
 _symmetry_equiv_pos_as_xyz
  1  'x, y, z'
loop_
 _atom_site_type_symbol
 _atom_site_label
 _atom_site_symmetry_multiplicity
 _atom_site_fract_x
 _atom_site_fract_y
 _atom_site_fract_z
 _atom_site_occupancy
  Tm  Tm0  1  0.087337  0.291073  0.118442  1
  Tm  Tm1  1  0.999556  0.000200  0.501095  1
  Tm  Tm2  1  0.001450  0.005015  0.001799  1
  Tm  Tm3  1  0.501077  0.499214  0.001872  1
  Tm  Tm4  1  0.499031  0.499376  0.501727  1
  Th  Th5  1  0.288018  0.091695  0.378406  1
  Th  Th6  1  0.287463  0.912012  0.878745  1
  Th  Th7  1  0.711419  0.089101  0.880199  1
  Th  Th8  1  0.711008  0.911042  0.381059  1
  Th  Th9  1  0.587821  0.788934  0.880742  1
  Th  Th10  1  0.589269  0.211689  0.379964  1
  Th  Th11  1  0.410013  0.789422  0.379768  1
  Th  Th12  1  0.410503  0.212019  0.880325  1
  Th  Th13  1  0.208669  0.407512  0.618832  1
  Th  Th14  1  0.210350  0.583282  0.120035  1
  Th  Th15  1  0.793856  0.408982  0.118837  1
  Th  Th16  1  0.788101  0.588392  0.619350  1
  Th  Th17  1  0.912216  0.711081  0.117566  1
  Th  Th18  1  0.914497  0.288781  0.619809  1
  Th  Th19  1  0.089392  0.710939  0.619901  1
  Ir  Ir20  1  0.846797  0.151199  0.251634  1
  Ir  Ir21  1  0.847301  0.847095  0.751260  1
  Ir  Ir22  1  0.153332  0.152280  0.746223  1
  Ir  Ir23  1  0.152510  0.847212  0.249925  1
  Ir  Ir24  1  0.653246  0.346874  0.751636  1
  Ir  Ir25  1  0.652245  0.653173  0.250497  1
  Ir  Ir26  1  0.347844  0.345800  0.253308  1
  Ir  Ir27  1  0.347400  0.652804  0.750900  1
  Os  Os28  1  0.499069  0.000068  0.115883  1
  Os  Os29  1  0.500141  0.000245  0.616222  1
  Os  Os30  1  0.000384  0.500903  0.880302  1
  Os  Os31  1  0.998683  0.502587  0.383737  1
