# generated using pymatgen
data_TbLuCo12AsP6
_symmetry_space_group_name_H-M   'P 1'
_cell_length_a   9.09698700
_cell_length_b   9.09698702
_cell_length_c   3.57723800
_cell_angle_alpha   90.00000000
_cell_angle_beta   90.00000000
_cell_angle_gamma   120.00001083
_symmetry_Int_Tables_number   1
_chemical_formula_structural   TbLuCo12AsP6
_chemical_formula_sum   'Tb1 Lu1 Co12 As1 P6'
_cell_volume   256.37375777
_cell_formula_units_Z   1
loop_
 _symmetry_equiv_pos_site_id
 _symmetry_equiv_pos_as_xyz
  1  'x, y, z'
loop_
 _atom_site_type_symbol
 _atom_site_label
 _atom_site_symmetry_multiplicity
 _atom_site_fract_x
 _atom_site_fract_y
 _atom_site_fract_z
 _atom_site_occupancy
  Tb  Tb0  1  0.000000  0.000000  0.000000  1
  Lu  Lu1  1  0.333333  0.666667  0.500000  1
  Co  Co2  1  0.104093  0.396504  0.000000  1
  Co  Co3  1  0.603496  0.707589  0.000000  1
  Co  Co4  1  0.292411  0.895907  0.000000  1
  Co  Co5  1  0.052712  0.770763  0.500000  1
  Co  Co6  1  0.229237  0.281950  0.500000  1
  Co  Co7  1  0.718050  0.947288  0.500000  1
  Co  Co8  1  0.825874  0.616087  0.000000  1
  Co  Co9  1  0.383913  0.209787  0.000000  1
  Co  Co10  1  0.790213  0.174126  0.000000  1
  Co  Co11  1  0.916801  0.444020  0.500000  1
  Co  Co12  1  0.555980  0.472781  0.500000  1
  Co  Co13  1  0.527219  0.083199  0.500000  1
  As  As14  1  0.666667  0.333333  0.000000  1
  P  P15  1  0.777786  0.736411  0.500000  1
  P  P16  1  0.263589  0.041376  0.500000  1
  P  P17  1  0.958624  0.222214  0.500000  1
  P  P18  1  0.075500  0.627992  0.000000  1
  P  P19  1  0.372008  0.447506  0.000000  1
  P  P20  1  0.552494  0.924500  0.000000  1
