# generated using pymatgen
data_Hf4Zr12Re3TcNi4
_symmetry_space_group_name_H-M   'P 1'
_cell_length_a   8.74228045
_cell_length_b   8.74227859
_cell_length_c   8.75830439
_cell_angle_alpha   60.06050695
_cell_angle_beta   60.06051093
_cell_angle_gamma   59.99999378
_symmetry_Int_Tables_number   1
_chemical_formula_structural   Hf4Zr12Re3TcNi4
_chemical_formula_sum   'Hf4 Zr12 Re3 Tc1 Ni4'
_cell_volume   473.75192800
_cell_formula_units_Z   1
loop_
 _symmetry_equiv_pos_site_id
 _symmetry_equiv_pos_as_xyz
  1  'x, y, z'
loop_
 _atom_site_type_symbol
 _atom_site_label
 _atom_site_symmetry_multiplicity
 _atom_site_fract_x
 _atom_site_fract_y
 _atom_site_fract_z
 _atom_site_occupancy
  Hf  Hf0  1  0.191516  0.602734  0.603016  1
  Hf  Hf1  1  0.602734  0.191516  0.603016  1
  Hf  Hf2  1  0.602734  0.602734  0.603016  1
  Hf  Hf3  1  0.602374  0.602374  0.192880  1
  Zr  Zr4  1  0.456571  0.456571  0.043160  1
  Zr  Zr5  1  0.043154  0.043154  0.457823  1
  Zr  Zr6  1  0.456571  0.043697  0.043160  1
  Zr  Zr7  1  0.043154  0.455869  0.457823  1
  Zr  Zr8  1  0.043697  0.456571  0.043160  1
  Zr  Zr9  1  0.455869  0.043154  0.457823  1
  Zr  Zr10  1  0.815412  0.815412  0.183558  1
  Zr  Zr11  1  0.185001  0.185001  0.814755  1
  Zr  Zr12  1  0.815412  0.185619  0.183558  1
  Zr  Zr13  1  0.185001  0.815243  0.814755  1
  Zr  Zr14  1  0.185619  0.815412  0.183558  1
  Zr  Zr15  1  0.815243  0.185001  0.814755  1
  Re  Re16  1  0.505372  0.830996  0.832636  1
  Re  Re17  1  0.830996  0.505372  0.832636  1
  Re  Re18  1  0.830996  0.830996  0.832636  1
  Tc  Tc19  1  0.832123  0.832123  0.503629  1
  Ni  Ni20  1  0.825216  0.391609  0.391567  1
  Ni  Ni21  1  0.391609  0.825216  0.391567  1
  Ni  Ni22  1  0.391609  0.391609  0.391567  1
  Ni  Ni23  1  0.392017  0.392017  0.823951  1
