# generated using pymatgen
data_SmHo2Mg3Sn2Au
_symmetry_space_group_name_H-M   'P 1'
_cell_length_a   7.54322517
_cell_length_b   7.54322407
_cell_length_c   4.48580300
_cell_angle_alpha   90.00000000
_cell_angle_beta   90.00000000
_cell_angle_gamma   120.44899697
_symmetry_Int_Tables_number   1
_chemical_formula_structural   SmHo2Mg3Sn2Au
_chemical_formula_sum   'Sm1 Ho2 Mg3 Sn2 Au1'
_cell_volume   220.04026373
_cell_formula_units_Z   1
loop_
 _symmetry_equiv_pos_site_id
 _symmetry_equiv_pos_as_xyz
  1  'x, y, z'
loop_
 _atom_site_type_symbol
 _atom_site_label
 _atom_site_symmetry_multiplicity
 _atom_site_fract_x
 _atom_site_fract_y
 _atom_site_fract_z
 _atom_site_occupancy
  Sm  Sm0  1  0.409859  0.409859  0.000000  1
  Ho  Ho1  1  0.594737  0.001570  0.000000  1
  Ho  Ho2  1  0.001570  0.594737  0.000000  1
  Mg  Mg3  1  0.235513  0.000630  0.500000  1
  Mg  Mg4  1  0.000630  0.235513  0.500000  1
  Mg  Mg5  1  0.762007  0.762007  0.500000  1
  Sn  Sn6  1  0.331754  0.670571  0.500000  1
  Sn  Sn7  1  0.670571  0.331754  0.500000  1
  Au  Au8  1  0.993360  0.993360  0.000000  1
