# generated using pymatgen
data_Eu3HoMg4PdRh3
_symmetry_space_group_name_H-M   'P 1'
_cell_length_a   4.24395800
_cell_length_b   7.25314295
_cell_length_c   8.59958948
_cell_angle_alpha   89.44588968
_cell_angle_beta   90.00000000
_cell_angle_gamma   90.00000000
_symmetry_Int_Tables_number   1
_chemical_formula_structural   Eu3HoMg4PdRh3
_chemical_formula_sum   'Eu3 Ho1 Mg4 Pd1 Rh3'
_cell_volume   264.70047684
_cell_formula_units_Z   1
loop_
 _symmetry_equiv_pos_site_id
 _symmetry_equiv_pos_as_xyz
  1  'x, y, z'
loop_
 _atom_site_type_symbol
 _atom_site_label
 _atom_site_symmetry_multiplicity
 _atom_site_fract_x
 _atom_site_fract_y
 _atom_site_fract_z
 _atom_site_occupancy
  Eu  Eu0  1  0.250000  0.027120  0.330266  1
  Eu  Eu1  1  0.250000  0.541166  0.179566  1
  Eu  Eu2  1  0.750000  0.470966  0.819155  1
  Ho  Ho3  1  0.750000  0.962326  0.674343  1
  Mg  Mg4  1  0.250000  0.137246  0.936847  1
  Mg  Mg5  1  0.250000  0.635243  0.560156  1
  Mg  Mg6  1  0.750000  0.864282  0.053880  1
  Mg  Mg7  1  0.750000  0.360479  0.446623  1
  Pd  Pd8  1  0.750000  0.234655  0.129262  1
  Rh  Rh9  1  0.250000  0.246665  0.630306  1
  Rh  Rh10  1  0.250000  0.780377  0.859337  1
  Rh  Rh11  1  0.750000  0.739475  0.380260  1
