# generated using pymatgen
data_LiLa4Tc
_symmetry_space_group_name_H-M   'P 1'
_cell_length_a   10.11405649
_cell_length_b   10.11405603
_cell_length_c   10.11405700
_cell_angle_alpha   60.00000011
_cell_angle_beta   60.00000161
_cell_angle_gamma   59.99999769
_symmetry_Int_Tables_number   1
_chemical_formula_structural   LiLa4Tc
_chemical_formula_sum   'Li4 La16 Tc4'
_cell_volume   731.57882650
_cell_formula_units_Z   4
loop_
 _symmetry_equiv_pos_site_id
 _symmetry_equiv_pos_as_xyz
  1  'x, y, z'
loop_
 _atom_site_type_symbol
 _atom_site_label
 _atom_site_symmetry_multiplicity
 _atom_site_fract_x
 _atom_site_fract_y
 _atom_site_fract_z
 _atom_site_occupancy
  Li  Li0  1  0.232770  0.922410  0.922410  1
  Li  Li1  1  0.922410  0.922410  0.922410  1
  Li  Li2  1  0.922410  0.922410  0.232770  1
  Li  Li3  1  0.922410  0.232770  0.922410  1
  La  La4  1  0.944600  0.944600  0.555400  1
  La  La5  1  0.555400  0.944600  0.555400  1
  La  La6  1  0.555400  0.944600  0.944600  1
  La  La7  1  0.686713  0.686713  0.313287  1
  La  La8  1  0.156159  0.156159  0.531523  1
  La  La9  1  0.313287  0.686713  0.686713  1
  La  La10  1  0.156159  0.156159  0.156159  1
  La  La11  1  0.531523  0.156159  0.156159  1
  La  La12  1  0.313287  0.686713  0.313287  1
  La  La13  1  0.313287  0.313287  0.686713  1
  La  La14  1  0.686713  0.313287  0.686713  1
  La  La15  1  0.944600  0.555400  0.555400  1
  La  La16  1  0.555400  0.555400  0.944600  1
  La  La17  1  0.156159  0.531523  0.156159  1
  La  La18  1  0.686713  0.313287  0.313287  1
  La  La19  1  0.944600  0.555400  0.944600  1
  Tc  Tc20  1  0.902257  0.365914  0.365914  1
  Tc  Tc21  1  0.365914  0.365914  0.902257  1
  Tc  Tc22  1  0.365914  0.902257  0.365914  1
  Tc  Tc23  1  0.365914  0.365914  0.365914  1
