# generated using pymatgen
data_Tm4Al18IrOs2Pt3
_symmetry_space_group_name_H-M   'P 1'
_cell_length_a   7.55941058
_cell_length_b   7.55941045
_cell_length_c   9.42316656
_cell_angle_alpha   89.97992696
_cell_angle_beta   89.97992799
_cell_angle_gamma   119.19383065
_symmetry_Int_Tables_number   1
_chemical_formula_structural   Tm4Al18IrOs2Pt3
_chemical_formula_sum   'Tm4 Al18 Ir1 Os2 Pt3'
_cell_volume   470.08266216
_cell_formula_units_Z   1
loop_
 _symmetry_equiv_pos_site_id
 _symmetry_equiv_pos_as_xyz
  1  'x, y, z'
loop_
 _atom_site_type_symbol
 _atom_site_label
 _atom_site_symmetry_multiplicity
 _atom_site_fract_x
 _atom_site_fract_y
 _atom_site_fract_z
 _atom_site_occupancy
  Tm  Tm0  1  0.993813  0.677770  0.250972  1
  Tm  Tm1  1  0.006768  0.322592  0.749378  1
  Tm  Tm2  1  0.677408  0.993232  0.250622  1
  Tm  Tm3  1  0.322230  0.006187  0.749028  1
  Al  Al4  1  0.129165  0.129977  0.250146  1
  Al  Al5  1  0.870023  0.870835  0.749854  1
  Al  Al6  1  0.999899  0.332998  0.077569  1
  Al  Al7  1  0.999336  0.667587  0.921897  1
  Al  Al8  1  0.996873  0.663575  0.576889  1
  Al  Al9  1  0.336425  0.003127  0.423111  1
  Al  Al10  1  0.996406  0.331915  0.423489  1
  Al  Al11  1  0.668085  0.003594  0.576511  1
  Al  Al12  1  0.667002  0.000101  0.922431  1
  Al  Al13  1  0.332413  0.000664  0.078103  1
  Al  Al14  1  0.330926  0.327580  0.549455  1
  Al  Al15  1  0.672420  0.669074  0.450545  1
  Al  Al16  1  0.671682  0.671908  0.053332  1
  Al  Al17  1  0.328092  0.328318  0.946668  1
  Al  Al18  1  0.343272  0.549750  0.250317  1
  Al  Al19  1  0.656382  0.447962  0.747631  1
  Al  Al20  1  0.552038  0.343618  0.252369  1
  Al  Al21  1  0.450250  0.656728  0.749683  1
  Ir  Ir22  1  0.671843  0.328157  0.500000  1
  Os  Os23  1  0.999724  0.000276  0.000000  1
  Os  Os24  1  0.000367  0.999633  0.500000  1
  Pt  Pt25  1  0.671846  0.328154  0.000000  1
  Pt  Pt26  1  0.327574  0.672426  0.000000  1
  Pt  Pt27  1  0.327736  0.672264  0.500000  1
