# generated using pymatgen
data_Zr8V12Si15Ni
_symmetry_space_group_name_H-M   'P 1'
_cell_length_a   6.64001961
_cell_length_b   6.63229202
_cell_length_c   12.28961700
_cell_angle_alpha   89.97352174
_cell_angle_beta   89.97536461
_cell_angle_gamma   90.03609062
_symmetry_Int_Tables_number   1
_chemical_formula_structural   Zr8V12Si15Ni
_chemical_formula_sum   'Zr8 V12 Si15 Ni1'
_cell_volume   541.21668677
_cell_formula_units_Z   1
loop_
 _symmetry_equiv_pos_site_id
 _symmetry_equiv_pos_as_xyz
  1  'x, y, z'
loop_
 _atom_site_type_symbol
 _atom_site_label
 _atom_site_symmetry_multiplicity
 _atom_site_fract_x
 _atom_site_fract_y
 _atom_site_fract_z
 _atom_site_occupancy
  Zr  Zr0  1  0.002819  0.661160  0.030179  1
  Zr  Zr1  1  0.838676  0.502970  0.280454  1
  Zr  Zr2  1  0.162198  0.498034  0.781177  1
  Zr  Zr3  1  0.503528  0.837963  0.719944  1
  Zr  Zr4  1  0.495569  0.161958  0.218629  1
  Zr  Zr5  1  0.997014  0.337321  0.529734  1
  Zr  Zr6  1  0.661498  0.003951  0.970816  1
  Zr  Zr7  1  0.337461  0.997172  0.470018  1
  V  V8  1  0.333381  0.334202  0.998790  1
  V  V9  1  0.166625  0.832912  0.249777  1
  V  V10  1  0.833145  0.166959  0.750491  1
  V  V11  1  0.667105  0.667340  0.499450  1
  V  V12  1  0.008822  0.159043  0.126953  1
  V  V13  1  0.340614  0.504903  0.377161  1
  V  V14  1  0.658121  0.496715  0.876548  1
  V  V15  1  0.505274  0.340171  0.623439  1
  V  V16  1  0.494910  0.657497  0.124386  1
  V  V17  1  0.993867  0.840173  0.626134  1
  V  V18  1  0.161288  0.006713  0.872131  1
  V  V19  1  0.839975  0.994145  0.373467  1
  Si  Si20  1  0.539062  0.791168  0.313017  1
  Si  Si21  1  0.460689  0.209336  0.815260  1
  Si  Si22  1  0.790246  0.539230  0.685851  1
  Si  Si23  1  0.210303  0.460627  0.184929  1
  Si  Si24  1  0.709215  0.039968  0.564327  1
  Si  Si25  1  0.961186  0.287842  0.936884  1
  Si  Si26  1  0.040281  0.709880  0.435063  1
  Si  Si27  1  0.704589  0.373305  0.071388  1
  Si  Si28  1  0.126255  0.204687  0.320163  1
  Si  Si29  1  0.874562  0.795701  0.821721  1
  Si  Si30  1  0.204578  0.126169  0.679750  1
  Si  Si31  1  0.795267  0.874501  0.177925  1
  Si  Si32  1  0.294120  0.625978  0.571293  1
  Si  Si33  1  0.371923  0.709302  0.932846  1
  Si  Si34  1  0.625244  0.293961  0.428261  1
  Ni  Ni35  1  0.290589  0.957038  0.061646  1
