# generated using pymatgen
data_Cd2Pd3O8
_symmetry_space_group_name_H-M   'P 1'
_cell_length_a   5.26298266
_cell_length_b   6.22057235
_cell_length_c   6.28246361
_cell_angle_alpha   119.67464584
_cell_angle_beta   105.85855563
_cell_angle_gamma   90.00000062
_symmetry_Int_Tables_number   1
_chemical_formula_structural   Cd2Pd3O8
_chemical_formula_sum   'Cd2 Pd3 O8'
_cell_volume   169.63665480
_cell_formula_units_Z   1
loop_
 _symmetry_equiv_pos_site_id
 _symmetry_equiv_pos_as_xyz
  1  'x, y, z'
loop_
 _atom_site_type_symbol
 _atom_site_label
 _atom_site_symmetry_multiplicity
 _atom_site_fract_x
 _atom_site_fract_y
 _atom_site_fract_z
 _atom_site_occupancy
  Cd  Cd0  1  0.643662  0.713356  0.426712  1
  Cd  Cd1  1  0.356339  0.286644  0.573289  1
  Pd  Pd2  1  0.500001  0.999999  0.000000  1
  Pd  Pd3  1  0.000000  0.747359  0.999999  1
  Pd  Pd4  1  0.000001  0.252643  0.000001  1
  O  O5  1  0.054889  0.392910  0.785821  1
  O  O6  1  0.945112  0.607090  0.214180  1
  O  O7  1  0.095959  0.899812  0.799625  1
  O  O8  1  0.904040  0.100188  0.200375  1
  O  O9  1  0.388146  0.331704  0.222765  1
  O  O10  1  0.388146  0.891061  0.222765  1
  O  O11  1  0.611855  0.108937  0.777235  1
  O  O12  1  0.611855  0.668297  0.777235  1
