# generated using pymatgen
data_Ho5(Th3Ir2)3
_symmetry_space_group_name_H-M   'P 1'
_cell_length_a   9.92677190
_cell_length_b   10.01492034
_cell_length_c   6.32867459
_cell_angle_alpha   90.35973643
_cell_angle_beta   89.77524870
_cell_angle_gamma   120.36328734
_symmetry_Int_Tables_number   1
_chemical_formula_structural   Ho5(Th3Ir2)3
_chemical_formula_sum   'Ho5 Th9 Ir6'
_cell_volume   542.86109063
_cell_formula_units_Z   1
loop_
 _symmetry_equiv_pos_site_id
 _symmetry_equiv_pos_as_xyz
  1  'x, y, z'
loop_
 _atom_site_type_symbol
 _atom_site_label
 _atom_site_symmetry_multiplicity
 _atom_site_fract_x
 _atom_site_fract_y
 _atom_site_fract_z
 _atom_site_occupancy
  Ho  Ho0  1  0.458431  0.535978  0.300346  1
  Ho  Ho1  1  0.074175  0.536201  0.302046  1
  Ho  Ho2  1  0.924195  0.462178  0.800575  1
  Ho  Ho3  1  0.255331  0.128454  0.499602  1
  Ho  Ho4  1  0.539839  0.078154  0.795488  1
  Th  Th5  1  0.744893  0.874710  0.004593  1
  Th  Th6  1  0.665855  0.331953  0.280822  1
  Th  Th7  1  0.130326  0.872902  0.999478  1
  Th  Th8  1  0.456927  0.918487  0.298677  1
  Th  Th9  1  0.538714  0.459720  0.799005  1
  Th  Th10  1  0.876897  0.131766  0.505182  1
  Th  Th11  1  0.126729  0.254254  0.001355  1
  Th  Th12  1  0.872868  0.743399  0.501816  1
  Th  Th13  1  0.334450  0.666805  0.783704  1
  Ir  Ir14  1  0.811659  0.625251  0.052071  1
  Ir  Ir15  1  0.814007  0.188805  0.054192  1
  Ir  Ir16  1  0.626869  0.816021  0.548704  1
  Ir  Ir17  1  0.376031  0.189386  0.045773  1
  Ir  Ir18  1  0.185030  0.376194  0.555556  1
  Ir  Ir19  1  0.186776  0.809381  0.555017  1
