# generated using pymatgen
data_SmNp3O10
_symmetry_space_group_name_H-M   'P 1'
_cell_length_a   5.73146158
_cell_length_b   5.73146224
_cell_length_c   8.12366990
_cell_angle_alpha   69.15281946
_cell_angle_beta   69.15281771
_cell_angle_gamma   70.70064837
_symmetry_Int_Tables_number   1
_chemical_formula_structural   SmNp3O10
_chemical_formula_sum   'Sm1 Np3 O10'
_cell_volume   226.62448387
_cell_formula_units_Z   1
loop_
 _symmetry_equiv_pos_site_id
 _symmetry_equiv_pos_as_xyz
  1  'x, y, z'
loop_
 _atom_site_type_symbol
 _atom_site_label
 _atom_site_symmetry_multiplicity
 _atom_site_fract_x
 _atom_site_fract_y
 _atom_site_fract_z
 _atom_site_occupancy
  Sm  Sm0  1  0.955262  0.044738  0.250000  1
  Np  Np1  1  0.499024  0.503682  0.998804  1
  Np  Np2  1  0.496318  0.500976  0.501196  1
  Np  Np3  1  0.037305  0.962695  0.750000  1
  O  O4  1  0.394728  0.605272  0.750000  1
  O  O5  1  0.258687  0.196844  0.640493  1
  O  O6  1  0.711264  0.747100  0.381292  1
  O  O7  1  0.252900  0.288736  0.118708  1
  O  O8  1  0.597981  0.402019  0.250000  1
  O  O9  1  0.803156  0.741313  0.859507  1
  O  O10  1  0.218287  0.816314  0.026509  1
  O  O11  1  0.799918  0.208517  0.542231  1
  O  O12  1  0.791483  0.200082  0.957769  1
  O  O13  1  0.183686  0.781713  0.473491  1
