# generated using pymatgen
data_La5YCoCl11
_symmetry_space_group_name_H-M   'P 1'
_cell_length_a   8.27582518
_cell_length_b   8.25634520
_cell_length_c   7.32000900
_cell_angle_alpha   86.65096882
_cell_angle_beta   86.70296685
_cell_angle_gamma   101.66346480
_symmetry_Int_Tables_number   1
_chemical_formula_structural   La5YCoCl11
_chemical_formula_sum   'La5 Y1 Co1 Cl11'
_cell_volume   487.76738043
_cell_formula_units_Z   1
loop_
 _symmetry_equiv_pos_site_id
 _symmetry_equiv_pos_as_xyz
  1  'x, y, z'
loop_
 _atom_site_type_symbol
 _atom_site_label
 _atom_site_symmetry_multiplicity
 _atom_site_fract_x
 _atom_site_fract_y
 _atom_site_fract_z
 _atom_site_occupancy
  La  La0  1  0.701357  0.017184  0.769227  1
  La  La1  1  0.184791  0.180134  0.772977  1
  La  La2  1  0.983412  0.294400  0.231415  1
  La  La3  1  0.020913  0.704937  0.767911  1
  La  La4  1  0.818495  0.818282  0.228124  1
  Y  Y5  1  0.285133  0.984933  0.220537  1
  Co  Co6  1  0.003122  0.999112  0.001948  1
  Cl  Cl7  1  0.999905  0.999532  0.501730  1
  Cl  Cl8  1  0.659736  0.097272  0.361406  1
  Cl  Cl9  1  0.485966  0.201028  0.954913  1
  Cl  Cl10  1  0.308960  0.294389  0.363686  1
  Cl  Cl11  1  0.904385  0.342726  0.639038  1
  Cl  Cl12  1  0.207738  0.489557  0.943409  1
  Cl  Cl13  1  0.793960  0.509546  0.056835  1
  Cl  Cl14  1  0.106016  0.667860  0.356274  1
  Cl  Cl15  1  0.692780  0.692114  0.632966  1
  Cl  Cl16  1  0.500337  0.801338  0.066967  1
  Cl  Cl17  1  0.342992  0.905653  0.630637  1
