# generated using pymatgen
data_Nd4GaSi3Pd8
_symmetry_space_group_name_H-M   'P 1'
_cell_length_a   5.70325286
_cell_length_b   7.03834200
_cell_length_c   7.57585160
_cell_angle_alpha   90.00000000
_cell_angle_beta   89.36724933
_cell_angle_gamma   90.00000000
_symmetry_Int_Tables_number   1
_chemical_formula_structural   Nd4GaSi3Pd8
_chemical_formula_sum   'Nd4 Ga1 Si3 Pd8'
_cell_volume   304.08707990
_cell_formula_units_Z   1
loop_
 _symmetry_equiv_pos_site_id
 _symmetry_equiv_pos_as_xyz
  1  'x, y, z'
loop_
 _atom_site_type_symbol
 _atom_site_label
 _atom_site_symmetry_multiplicity
 _atom_site_fract_x
 _atom_site_fract_y
 _atom_site_fract_z
 _atom_site_occupancy
  Nd  Nd0  1  0.142568  0.750000  0.529671  1
  Nd  Nd1  1  0.857257  0.250000  0.471284  1
  Nd  Nd2  1  0.646702  0.250000  0.968756  1
  Nd  Nd3  1  0.352384  0.750000  0.031244  1
  Ga  Ga4  1  0.851572  0.750000  0.876697  1
  Si  Si5  1  0.147437  0.250000  0.124862  1
  Si  Si6  1  0.354247  0.250000  0.622393  1
  Si  Si7  1  0.644470  0.750000  0.374289  1
  Pd  Pd8  1  0.584718  0.551167  0.669725  1
  Pd  Pd9  1  0.405946  0.446319  0.323819  1
  Pd  Pd10  1  0.101650  0.444022  0.826108  1
  Pd  Pd11  1  0.405946  0.053681  0.323819  1
  Pd  Pd12  1  0.909368  0.551028  0.180750  1
  Pd  Pd13  1  0.584718  0.948833  0.669725  1
  Pd  Pd14  1  0.909368  0.948972  0.180750  1
  Pd  Pd15  1  0.101650  0.055978  0.826108  1
