# generated using pymatgen
data_TbY7Re(B8Ru)3
_symmetry_space_group_name_H-M   'P 1'
_cell_length_a   3.67659100
_cell_length_b   9.17290397
_cell_length_c   11.56402316
_cell_angle_alpha   89.85672523
_cell_angle_beta   90.00000000
_cell_angle_gamma   90.00000000
_symmetry_Int_Tables_number   1
_chemical_formula_structural   TbY7Re(B8Ru)3
_chemical_formula_sum   'Tb1 Y7 Re1 B24 Ru3'
_cell_volume   389.99564889
_cell_formula_units_Z   1
loop_
 _symmetry_equiv_pos_site_id
 _symmetry_equiv_pos_as_xyz
  1  'x, y, z'
loop_
 _atom_site_type_symbol
 _atom_site_label
 _atom_site_symmetry_multiplicity
 _atom_site_fract_x
 _atom_site_fract_y
 _atom_site_fract_z
 _atom_site_occupancy
  Tb  Tb0  1  0.000000  0.823571  0.085082  1
  Y  Y1  1  0.000000  0.179745  0.911844  1
  Y  Y2  1  0.000000  0.322893  0.416389  1
  Y  Y3  1  0.000000  0.675949  0.586649  1
  Y  Y4  1  0.000000  0.442984  0.128695  1
  Y  Y5  1  0.000000  0.556584  0.872563  1
  Y  Y6  1  0.000000  0.942436  0.371677  1
  Y  Y7  1  0.000000  0.056082  0.627212  1
  Re  Re8  1  0.000000  0.362489  0.678713  1
  B  B9  1  0.500000  0.054042  0.067007  1
  B  B10  1  0.500000  0.946486  0.932572  1
  B  B11  1  0.500000  0.553490  0.432358  1
  B  B12  1  0.500000  0.447245  0.566996  1
  B  B13  1  0.500000  0.247791  0.080597  1
  B  B14  1  0.500000  0.752728  0.919569  1
  B  B15  1  0.500000  0.747379  0.419201  1
  B  B16  1  0.500000  0.251976  0.580719  1
  B  B17  1  0.500000  0.289808  0.233853  1
  B  B18  1  0.500000  0.709655  0.767124  1
  B  B19  1  0.500000  0.790101  0.266104  1
  B  B20  1  0.500000  0.208856  0.733780  1
  B  B21  1  0.500000  0.130980  0.314369  1
  B  B22  1  0.500000  0.868306  0.685926  1
  B  B23  1  0.500000  0.631791  0.185509  1
  B  B24  1  0.500000  0.368696  0.814288  1
  B  B25  1  0.500000  0.483518  0.287593  1
  B  B26  1  0.500000  0.517772  0.712702  1
  B  B27  1  0.500000  0.983470  0.211907  1
  B  B28  1  0.500000  0.016650  0.787350  1
  B  B29  1  0.500000  0.106598  0.469598  1
  B  B30  1  0.500000  0.891205  0.529509  1
  B  B31  1  0.500000  0.608474  0.030542  1
  B  B32  1  0.500000  0.392337  0.970889  1
  Ru  Ru33  1  0.000000  0.137638  0.178728  1
  Ru  Ru34  1  0.000000  0.862577  0.821635  1
  Ru  Ru35  1  0.000000  0.637698  0.320755  1
