# generated using pymatgen
data_PrTh(SiTc2)4
_symmetry_space_group_name_H-M   'P 1'
_cell_length_a   4.17824100
_cell_length_b   7.19602384
_cell_length_c   15.67066613
_cell_angle_alpha   90.22658494
_cell_angle_beta   90.00000000
_cell_angle_gamma   90.00000000
_symmetry_Int_Tables_number   1
_chemical_formula_structural   PrTh(SiTc2)4
_chemical_formula_sum   'Pr2 Th2 Si8 Tc16'
_cell_volume   471.16187545
_cell_formula_units_Z   2
loop_
 _symmetry_equiv_pos_site_id
 _symmetry_equiv_pos_as_xyz
  1  'x, y, z'
loop_
 _atom_site_type_symbol
 _atom_site_label
 _atom_site_symmetry_multiplicity
 _atom_site_fract_x
 _atom_site_fract_y
 _atom_site_fract_z
 _atom_site_occupancy
  Pr  Pr0  1  0.000000  0.588639  0.116580  1
  Pr  Pr1  1  0.000000  0.411361  0.883420  1
  Th  Th2  1  0.500000  0.091130  0.382345  1
  Th  Th3  1  0.500000  0.908870  0.617655  1
  Si  Si4  1  0.000000  0.826737  0.473325  1
  Si  Si5  1  0.000000  0.173263  0.526675  1
  Si  Si6  1  0.500000  0.324139  0.026802  1
  Si  Si7  1  0.500000  0.675861  0.973198  1
  Si  Si8  1  0.000000  0.311500  0.272843  1
  Si  Si9  1  0.000000  0.688500  0.727157  1
  Si  Si10  1  0.500000  0.806797  0.225602  1
  Si  Si11  1  0.500000  0.193203  0.774398  1
  Tc  Tc12  1  0.000000  0.138241  0.052447  1
  Tc  Tc13  1  0.000000  0.861759  0.947553  1
  Tc  Tc14  1  0.500000  0.641047  0.448929  1
  Tc  Tc15  1  0.500000  0.358953  0.551071  1
  Tc  Tc16  1  0.000000  0.737250  0.320311  1
  Tc  Tc17  1  0.000000  0.262750  0.679689  1
  Tc  Tc18  1  0.500000  0.234804  0.180605  1
  Tc  Tc19  1  0.500000  0.765196  0.819395  1
  Tc  Tc20  1  0.000000  0.432209  0.420841  1
  Tc  Tc21  1  0.000000  0.567791  0.579159  1
  Tc  Tc22  1  0.500000  0.936769  0.079484  1
  Tc  Tc23  1  0.500000  0.063231  0.920516  1
  Tc  Tc24  1  0.000000  0.002971  0.206229  1
  Tc  Tc25  1  0.000000  0.997029  0.793771  1
  Tc  Tc26  1  0.500000  0.502906  0.294486  1
  Tc  Tc27  1  0.500000  0.497094  0.705514  1
