# generated using pymatgen
data_LiTb6CoBr12
_symmetry_space_group_name_H-M   'P 1'
_cell_length_a   9.22197120
_cell_length_b   9.22197249
_cell_length_c   9.22197298
_cell_angle_alpha   107.81867597
_cell_angle_beta   107.81866281
_cell_angle_gamma   107.81867043
_symmetry_Int_Tables_number   1
_chemical_formula_structural   LiTb6CoBr12
_chemical_formula_sum   'Li1 Tb6 Co1 Br12'
_cell_volume   638.00798176
_cell_formula_units_Z   1
loop_
 _symmetry_equiv_pos_site_id
 _symmetry_equiv_pos_as_xyz
  1  'x, y, z'
loop_
 _atom_site_type_symbol
 _atom_site_label
 _atom_site_symmetry_multiplicity
 _atom_site_fract_x
 _atom_site_fract_y
 _atom_site_fract_z
 _atom_site_occupancy
  Li  Li0  1  0.500000  0.500000  0.500000  1
  Tb  Tb1  1  0.315146  0.110019  0.033305  1
  Tb  Tb2  1  0.033305  0.315146  0.110019  1
  Tb  Tb3  1  0.110019  0.033305  0.315146  1
  Tb  Tb4  1  0.684854  0.889981  0.966695  1
  Tb  Tb5  1  0.966695  0.684854  0.889981  1
  Tb  Tb6  1  0.889981  0.966695  0.684854  1
  Co  Co7  1  0.000000  0.000000  0.000000  1
  Br  Br8  1  0.683856  0.219791  0.072385  1
  Br  Br9  1  0.072385  0.683856  0.219791  1
  Br  Br10  1  0.219791  0.072385  0.683856  1
  Br  Br11  1  0.316144  0.780209  0.927615  1
  Br  Br12  1  0.927615  0.316144  0.780209  1
  Br  Br13  1  0.780209  0.927615  0.316144  1
  Br  Br14  1  0.460842  0.167365  0.382427  1
  Br  Br15  1  0.382427  0.460842  0.167365  1
  Br  Br16  1  0.167365  0.382427  0.460842  1
  Br  Br17  1  0.539158  0.832635  0.617573  1
  Br  Br18  1  0.617573  0.539158  0.832635  1
  Br  Br19  1  0.832635  0.617573  0.539158  1
