# generated using pymatgen
data_Tb15YCd4(NiOs)2
_symmetry_space_group_name_H-M   'P 1'
_cell_length_a   9.61812053
_cell_length_b   9.61812088
_cell_length_c   9.70228800
_cell_angle_alpha   59.71009820
_cell_angle_beta   59.71009699
_cell_angle_gamma   59.58872050
_symmetry_Int_Tables_number   1
_chemical_formula_structural   Tb15YCd4(NiOs)2
_chemical_formula_sum   'Tb15 Y1 Cd4 Ni2 Os2'
_cell_volume   629.89243960
_cell_formula_units_Z   1
loop_
 _symmetry_equiv_pos_site_id
 _symmetry_equiv_pos_as_xyz
  1  'x, y, z'
loop_
 _atom_site_type_symbol
 _atom_site_label
 _atom_site_symmetry_multiplicity
 _atom_site_fract_x
 _atom_site_fract_y
 _atom_site_fract_z
 _atom_site_occupancy
  Tb  Tb0  1  0.600237  0.600237  0.593330  1
  Tb  Tb1  1  0.600237  0.600237  0.206194  1
  Tb  Tb2  1  0.601718  0.205010  0.596635  1
  Tb  Tb3  1  0.205010  0.601718  0.596635  1
  Tb  Tb4  1  0.060669  0.436667  0.440627  1
  Tb  Tb5  1  0.436667  0.060669  0.062037  1
  Tb  Tb6  1  0.436667  0.060669  0.440627  1
  Tb  Tb7  1  0.060669  0.436667  0.062037  1
  Tb  Tb8  1  0.438774  0.438774  0.061226  1
  Tb  Tb9  1  0.059675  0.059675  0.440325  1
  Tb  Tb10  1  0.189155  0.806177  0.816374  1
  Tb  Tb11  1  0.806177  0.189155  0.188293  1
  Tb  Tb12  1  0.806177  0.189155  0.816374  1
  Tb  Tb13  1  0.189155  0.806177  0.188293  1
  Tb  Tb14  1  0.815504  0.815504  0.184496  1
  Y  Y15  1  0.191431  0.191431  0.808569  1
  Cd  Cd16  1  0.829352  0.829352  0.832667  1
  Cd  Cd17  1  0.829352  0.829352  0.508629  1
  Cd  Cd18  1  0.830297  0.506384  0.831658  1
  Cd  Cd19  1  0.506384  0.830297  0.831658  1
  Ni  Ni20  1  0.392606  0.826615  0.390390  1
  Ni  Ni21  1  0.826615  0.392606  0.390390  1
  Os  Os22  1  0.393735  0.393735  0.388040  1
  Os  Os23  1  0.393735  0.393735  0.824492  1
