# generated using pymatgen
data_Tm13Th3Cd4FeNi3
_symmetry_space_group_name_H-M   'P 1'
_cell_length_a   9.47454117
_cell_length_b   9.51081610
_cell_length_c   9.51081492
_cell_angle_alpha   59.54967379
_cell_angle_beta   59.63061604
_cell_angle_gamma   59.63062086
_symmetry_Int_Tables_number   1
_chemical_formula_structural   Tm13Th3Cd4FeNi3
_chemical_formula_sum   'Tm13 Th3 Cd4 Fe1 Ni3'
_cell_volume   600.54834325
_cell_formula_units_Z   1
loop_
 _symmetry_equiv_pos_site_id
 _symmetry_equiv_pos_as_xyz
  1  'x, y, z'
loop_
 _atom_site_type_symbol
 _atom_site_label
 _atom_site_symmetry_multiplicity
 _atom_site_fract_x
 _atom_site_fract_y
 _atom_site_fract_z
 _atom_site_occupancy
  Tm  Tm0  1  0.951083  0.349954  0.349954  1
  Tm  Tm1  1  0.819906  0.187328  0.187328  1
  Tm  Tm2  1  0.187481  0.813894  0.813894  1
  Tm  Tm3  1  0.187610  0.815982  0.185980  1
  Tm  Tm4  1  0.812143  0.186980  0.812496  1
  Tm  Tm5  1  0.187610  0.185980  0.815982  1
  Tm  Tm6  1  0.812143  0.812496  0.186980  1
  Tm  Tm7  1  0.936347  0.566188  0.566188  1
  Tm  Tm8  1  0.559634  0.934473  0.934473  1
  Tm  Tm9  1  0.564671  0.934652  0.564252  1
  Tm  Tm10  1  0.933857  0.563942  0.935046  1
  Tm  Tm11  1  0.564671  0.564252  0.934652  1
  Tm  Tm12  1  0.933857  0.935046  0.563942  1
  Th  Th13  1  0.344352  0.349246  0.349246  1
  Th  Th14  1  0.339803  0.344150  0.960829  1
  Th  Th15  1  0.339803  0.960829  0.344150  1
  Cd  Cd16  1  0.584190  0.580969  0.580969  1
  Cd  Cd17  1  0.584728  0.580072  0.252508  1
  Cd  Cd18  1  0.584728  0.252508  0.580072  1
  Cd  Cd19  1  0.251683  0.581576  0.581576  1
  Fe  Fe20  1  0.160017  0.138434  0.138434  1
  Ni  Ni21  1  0.143096  0.142027  0.574335  1
  Ni  Ni22  1  0.143096  0.574335  0.142027  1
  Ni  Ni23  1  0.573490  0.144690  0.144690  1
