# generated using pymatgen
data_HoTh(Ni2B)12
_symmetry_space_group_name_H-M   'P 1'
_cell_length_a   6.03285597
_cell_length_b   6.03285568
_cell_length_c   10.96683925
_cell_angle_alpha   89.83951608
_cell_angle_beta   89.83951286
_cell_angle_gamma   104.72063640
_symmetry_Int_Tables_number   1
_chemical_formula_structural   HoTh(Ni2B)12
_chemical_formula_sum   'Ho1 Th1 Ni24 B12'
_cell_volume   386.03656764
_cell_formula_units_Z   1
loop_
 _symmetry_equiv_pos_site_id
 _symmetry_equiv_pos_as_xyz
  1  'x, y, z'
loop_
 _atom_site_type_symbol
 _atom_site_label
 _atom_site_symmetry_multiplicity
 _atom_site_fract_x
 _atom_site_fract_y
 _atom_site_fract_z
 _atom_site_occupancy
  Ho  Ho0  1  0.334539  0.334539  0.856674  1
  Th  Th1  1  0.668329  0.668329  0.358204  1
  Ni  Ni2  1  0.043316  0.304160  0.094607  1
  Ni  Ni3  1  0.956829  0.694878  0.596901  1
  Ni  Ni4  1  0.694878  0.956829  0.596901  1
  Ni  Ni5  1  0.304160  0.043316  0.094607  1
  Ni  Ni6  1  0.065469  0.065469  0.280543  1
  Ni  Ni7  1  0.936345  0.936345  0.781893  1
  Ni  Ni8  1  0.130241  0.495480  0.299534  1
  Ni  Ni9  1  0.869477  0.503485  0.799608  1
  Ni  Ni10  1  0.503485  0.869477  0.799608  1
  Ni  Ni11  1  0.495480  0.130241  0.299534  1
  Ni  Ni12  1  0.281181  0.281181  0.461146  1
  Ni  Ni13  1  0.717993  0.717993  0.959553  1
  Ni  Ni14  1  0.972962  0.712216  0.137644  1
  Ni  Ni15  1  0.027055  0.289043  0.639206  1
  Ni  Ni16  1  0.289043  0.027055  0.639206  1
  Ni  Ni17  1  0.712216  0.972962  0.137644  1
  Ni  Ni18  1  0.646001  0.379928  0.116582  1
  Ni  Ni19  1  0.354806  0.618547  0.617835  1
  Ni  Ni20  1  0.618547  0.354806  0.617835  1
  Ni  Ni21  1  0.379928  0.646001  0.116582  1
  Ni  Ni22  1  0.842592  0.229527  0.430176  1
  Ni  Ni23  1  0.158683  0.768407  0.929670  1
  Ni  Ni24  1  0.768407  0.158683  0.929670  1
  Ni  Ni25  1  0.229527  0.842592  0.430176  1
  B  B26  1  0.825840  0.255738  0.246667  1
  B  B27  1  0.173973  0.741345  0.747670  1
  B  B28  1  0.741345  0.173973  0.747670  1
  B  B29  1  0.255738  0.825840  0.246667  1
  B  B30  1  0.336521  0.336521  0.196990  1
  B  B31  1  0.663357  0.663357  0.701113  1
  B  B32  1  0.099496  0.513143  0.485057  1
  B  B33  1  0.900420  0.487767  0.984856  1
  B  B34  1  0.487767  0.900420  0.984856  1
  B  B35  1  0.513143  0.099496  0.485057  1
  B  B36  1  0.988299  0.988299  0.013752  1
  B  B37  1  0.012613  0.012613  0.520108  1
