# generated using pymatgen
data_NaU8Pb3S20
_symmetry_space_group_name_H-M   'P 1'
_cell_length_a   7.43221187
_cell_length_b   8.22262872
_cell_length_c   11.70633239
_cell_angle_alpha   89.68444252
_cell_angle_beta   89.80235558
_cell_angle_gamma   89.78704129
_symmetry_Int_Tables_number   1
_chemical_formula_structural   NaU8Pb3S20
_chemical_formula_sum   'Na1 U8 Pb3 S20'
_cell_volume   715.38111936
_cell_formula_units_Z   1
loop_
 _symmetry_equiv_pos_site_id
 _symmetry_equiv_pos_as_xyz
  1  'x, y, z'
loop_
 _atom_site_type_symbol
 _atom_site_label
 _atom_site_symmetry_multiplicity
 _atom_site_fract_x
 _atom_site_fract_y
 _atom_site_fract_z
 _atom_site_occupancy
  Na  Na0  1  0.016644  0.995809  0.321198  1
  U  U1  1  0.018507  0.500916  0.319723  1
  U  U2  1  0.522462  0.500768  0.180359  1
  U  U3  1  0.983370  0.501277  0.679960  1
  U  U4  1  0.481053  0.498789  0.818401  1
  U  U5  1  0.070955  0.745504  0.009694  1
  U  U6  1  0.577149  0.252733  0.490628  1
  U  U7  1  0.927275  0.252728  0.997026  1
  U  U8  1  0.423846  0.747268  0.504475  1
  Pb  Pb9  1  0.514253  0.007774  0.182863  1
  Pb  Pb10  1  0.985692  0.008604  0.671291  1
  Pb  Pb11  1  0.484695  0.990546  0.825365  1
  S  S12  1  0.163597  0.452920  0.098563  1
  S  S13  1  0.662533  0.547280  0.403218  1
  S  S14  1  0.838613  0.544496  0.900978  1
  S  S15  1  0.338674  0.453831  0.596934  1
  S  S16  1  0.449989  0.715230  0.000693  1
  S  S17  1  0.954195  0.285732  0.498626  1
  S  S18  1  0.548934  0.284723  0.998816  1
  S  S19  1  0.047616  0.717717  0.501402  1
  S  S20  1  0.337583  0.280273  0.315746  1
  S  S21  1  0.829176  0.712136  0.182463  1
  S  S22  1  0.661335  0.719935  0.683831  1
  S  S23  1  0.163269  0.280518  0.815173  1
  S  S24  1  0.662311  0.959684  0.411954  1
  S  S25  1  0.157844  0.037095  0.088611  1
  S  S26  1  0.341841  0.038677  0.588813  1
  S  S27  1  0.840716  0.962553  0.912615  1
  S  S28  1  0.303118  0.729691  0.281952  1
  S  S29  1  0.804315  0.275419  0.218671  1
  S  S30  1  0.694712  0.270570  0.715066  1
  S  S31  1  0.193729  0.728805  0.784889  1
