# generated using pymatgen
data_Ho5Co14As12Ru5
_symmetry_space_group_name_H-M   'P 1'
_cell_length_a   12.56353815
_cell_length_b   12.57332508
_cell_length_c   3.84290600
_cell_angle_alpha   90.00000000
_cell_angle_beta   90.00000000
_cell_angle_gamma   119.88679653
_symmetry_Int_Tables_number   1
_chemical_formula_structural   Ho5Co14As12Ru5
_chemical_formula_sum   'Ho5 Co14 As12 Ru5'
_cell_volume   526.31624664
_cell_formula_units_Z   1
loop_
 _symmetry_equiv_pos_site_id
 _symmetry_equiv_pos_as_xyz
  1  'x, y, z'
loop_
 _atom_site_type_symbol
 _atom_site_label
 _atom_site_symmetry_multiplicity
 _atom_site_fract_x
 _atom_site_fract_y
 _atom_site_fract_z
 _atom_site_occupancy
  Ho  Ho0  1  0.663376  0.333601  0.000000  1
  Ho  Ho1  1  0.332990  0.666431  0.000000  1
  Ho  Ho2  1  0.185274  0.183906  0.500000  1
  Ho  Ho3  1  0.818014  0.000688  0.500000  1
  Ho  Ho4  1  0.000037  0.818857  0.500000  1
  Co  Co5  1  0.826144  0.197485  0.000000  1
  Co  Co6  1  0.801818  0.627867  0.000000  1
  Co  Co7  1  0.374136  0.178331  0.000000  1
  Co  Co8  1  0.196000  0.820585  0.000000  1
  Co  Co9  1  0.623510  0.802246  0.000000  1
  Co  Co10  1  0.180345  0.374763  0.000000  1
  Co  Co11  1  0.478563  0.357635  0.500000  1
  Co  Co12  1  0.129241  0.643659  0.500000  1
  Co  Co13  1  0.515105  0.870938  0.500000  1
  Co  Co14  1  0.356799  0.482071  0.500000  1
  Co  Co15  1  0.716418  0.717938  0.500000  1
  Co  Co16  1  0.281286  0.998109  0.500000  1
  Co  Co17  1  0.002659  0.282760  0.500000  1
  Co  Co18  1  0.999386  0.999131  0.000000  1
  As  As19  1  0.361826  0.361785  0.000000  1
  As  As20  1  0.635837  0.994843  0.000000  1
  As  As21  1  0.004986  0.641700  0.000000  1
  As  As22  1  0.838663  0.315603  0.500000  1
  As  As23  1  0.679366  0.519563  0.500000  1
  As  As24  1  0.475595  0.167016  0.500000  1
  As  As25  1  0.314189  0.833651  0.500000  1
  As  As26  1  0.518047  0.684167  0.500000  1
  As  As27  1  0.167815  0.480280  0.500000  1
  As  As28  1  0.819844  0.821900  0.000000  1
  As  As29  1  0.179137  0.999951  0.000000  1
  As  As30  1  0.002600  0.179026  0.000000  1
  Ru  Ru31  1  0.554174  0.556397  0.000000  1
  Ru  Ru32  1  0.439817  0.993320  0.000000  1
  Ru  Ru33  1  0.007871  0.447834  0.000000  1
  Ru  Ru34  1  0.642999  0.124039  0.500000  1
  Ru  Ru35  1  0.876134  0.521924  0.500000  1
