# generated using pymatgen
data_Sc12Tc3Pb2
_symmetry_space_group_name_H-M   'P 1'
_cell_length_a   7.95926952
_cell_length_b   7.95926977
_cell_length_c   7.95926943
_cell_angle_alpha   109.84203978
_cell_angle_beta   109.84204219
_cell_angle_gamma   108.73209062
_symmetry_Int_Tables_number   1
_chemical_formula_structural   Sc12Tc3Pb2
_chemical_formula_sum   'Sc12 Tc3 Pb2'
_cell_volume   388.10002458
_cell_formula_units_Z   1
loop_
 _symmetry_equiv_pos_site_id
 _symmetry_equiv_pos_as_xyz
  1  'x, y, z'
loop_
 _atom_site_type_symbol
 _atom_site_label
 _atom_site_symmetry_multiplicity
 _atom_site_fract_x
 _atom_site_fract_y
 _atom_site_fract_z
 _atom_site_occupancy
  Sc  Sc0  1  0.313636  0.313636  0.627274  1
  Sc  Sc1  1  0.686364  0.686364  0.372726  1
  Sc  Sc2  1  0.686364  0.313636  0.000000  1
  Sc  Sc3  1  0.313636  0.686364  0.000000  1
  Sc  Sc4  1  0.188012  0.428092  0.240080  1
  Sc  Sc5  1  0.811988  0.571908  0.759920  1
  Sc  Sc6  1  0.188012  0.947932  0.759920  1
  Sc  Sc7  1  0.947932  0.188012  0.759920  1
  Sc  Sc8  1  0.811988  0.052068  0.240080  1
  Sc  Sc9  1  0.052068  0.811988  0.240080  1
  Sc  Sc10  1  0.428092  0.188012  0.240080  1
  Sc  Sc11  1  0.571908  0.811988  0.759920  1
  Tc  Tc12  1  0.344646  0.344646  0.000000  1
  Tc  Tc13  1  0.655354  0.655354  0.000000  1
  Tc  Tc14  1  0.000000  0.000000  0.000000  1
  Pb  Pb15  1  0.000000  0.500000  0.500000  1
  Pb  Pb16  1  0.500000  0.000000  0.500000  1
