# generated using pymatgen
data_Tb2Dy4Al24CuOs7
_symmetry_space_group_name_H-M   'P 1'
_cell_length_a   8.83965769
_cell_length_b   8.83371552
_cell_length_c   9.55063062
_cell_angle_alpha   89.67961463
_cell_angle_beta   90.29751790
_cell_angle_gamma   119.83416414
_symmetry_Int_Tables_number   1
_chemical_formula_structural   Tb2Dy4Al24CuOs7
_chemical_formula_sum   'Tb2 Dy4 Al24 Cu1 Os7'
_cell_volume   646.92864994
_cell_formula_units_Z   1
loop_
 _symmetry_equiv_pos_site_id
 _symmetry_equiv_pos_as_xyz
  1  'x, y, z'
loop_
 _atom_site_type_symbol
 _atom_site_label
 _atom_site_symmetry_multiplicity
 _atom_site_fract_x
 _atom_site_fract_y
 _atom_site_fract_z
 _atom_site_occupancy
  Tb  Tb0  1  0.190140  0.385790  0.249781  1
  Tb  Tb1  1  0.809860  0.614210  0.750219  1
  Dy  Dy2  1  0.613794  0.809855  0.249942  1
  Dy  Dy3  1  0.386206  0.190145  0.750058  1
  Dy  Dy4  1  0.194470  0.805623  0.251297  1
  Dy  Dy5  1  0.805530  0.194377  0.748703  1
  Al  Al6  1  0.332517  0.667769  0.018944  1
  Al  Al7  1  0.667483  0.332231  0.981056  1
  Al  Al8  1  0.666273  0.333460  0.515986  1
  Al  Al9  1  0.333727  0.666540  0.484014  1
  Al  Al10  1  0.163420  0.325741  0.575765  1
  Al  Al11  1  0.836580  0.674259  0.424235  1
  Al  Al12  1  0.674246  0.836709  0.575592  1
  Al  Al13  1  0.842652  0.675727  0.078593  1
  Al  Al14  1  0.325754  0.163291  0.424408  1
  Al  Al15  1  0.157348  0.324273  0.921407  1
  Al  Al16  1  0.163276  0.836963  0.574871  1
  Al  Al17  1  0.324270  0.157225  0.078443  1
  Al  Al18  1  0.836724  0.163037  0.425129  1
  Al  Al19  1  0.675730  0.842775  0.921557  1
  Al  Al20  1  0.836156  0.163551  0.074998  1
  Al  Al21  1  0.163844  0.836449  0.925002  1
  Al  Al22  1  0.560897  0.122064  0.249023  1
  Al  Al23  1  0.439103  0.877936  0.750977  1
  Al  Al24  1  0.877645  0.439154  0.249047  1
  Al  Al25  1  0.122355  0.560846  0.750953  1
  Al  Al26  1  0.561241  0.439071  0.249840  1
  Al  Al27  1  0.438759  0.560929  0.750160  1
  Al  Al28  1  0.999201  0.000481  0.250365  1
  Al  Al29  1  0.000799  0.999519  0.749635  1
  Cu  Cu30  1  0.500000  0.500000  0.000000  1
  Os  Os31  1  0.500000  0.000000  0.000000  1
  Os  Os32  1  0.000000  0.500000  0.000000  1
  Os  Os33  1  0.500000  0.000000  0.500000  1
  Os  Os34  1  0.000000  0.500000  0.500000  1
  Os  Os35  1  0.500000  0.500000  0.500000  1
  Os  Os36  1  0.000000  0.000000  0.000000  1
  Os  Os37  1  0.000000  0.000000  0.500000  1
