# generated using pymatgen
data_Tm3Lu4Sn23Ru6
_symmetry_space_group_name_H-M   'P 1'
_cell_length_a   9.81097841
_cell_length_b   9.88068818
_cell_length_c   10.00622600
_cell_angle_alpha   90.00000000
_cell_angle_beta   89.79564164
_cell_angle_gamma   120.23531864
_symmetry_Int_Tables_number   1
_chemical_formula_structural   Tm3Lu4Sn23Ru6
_chemical_formula_sum   'Tm3 Lu4 Sn23 Ru6'
_cell_volume   838.03479318
_cell_formula_units_Z   1
loop_
 _symmetry_equiv_pos_site_id
 _symmetry_equiv_pos_as_xyz
  1  'x, y, z'
loop_
 _atom_site_type_symbol
 _atom_site_label
 _atom_site_symmetry_multiplicity
 _atom_site_fract_x
 _atom_site_fract_y
 _atom_site_fract_z
 _atom_site_occupancy
  Tm  Tm0  1  0.028330  0.514167  0.304391  1
  Tm  Tm1  1  0.971670  0.485833  0.695609  1
  Tm  Tm2  1  0.000000  0.000000  0.000000  1
  Lu  Lu3  1  0.487106  0.511658  0.302684  1
  Lu  Lu4  1  0.512894  0.488342  0.697316  1
  Lu  Lu5  1  0.487112  0.975463  0.302675  1
  Lu  Lu6  1  0.512888  0.024537  0.697325  1
  Sn  Sn7  1  0.117682  0.880750  0.276721  1
  Sn  Sn8  1  0.882318  0.119250  0.723279  1
  Sn  Sn9  1  0.117706  0.236939  0.276717  1
  Sn  Sn10  1  0.882294  0.763061  0.723283  1
  Sn  Sn11  1  0.759803  0.879887  0.274171  1
  Sn  Sn12  1  0.240197  0.120113  0.725829  1
  Sn  Sn13  1  0.778254  0.222411  0.465481  1
  Sn  Sn14  1  0.221746  0.777589  0.534519  1
  Sn  Sn15  1  0.778232  0.555843  0.465488  1
  Sn  Sn16  1  0.221768  0.444157  0.534512  1
  Sn  Sn17  1  0.444506  0.222280  0.466674  1
  Sn  Sn18  1  0.555494  0.777720  0.533326  1
  Sn  Sn19  1  0.349370  0.000987  0.000358  1
  Sn  Sn20  1  0.650630  0.999013  0.999642  1
  Sn  Sn21  1  0.000005  0.348919  0.999998  1
  Sn  Sn22  1  0.999995  0.651081  0.000002  1
  Sn  Sn23  1  0.650625  0.651613  0.999647  1
  Sn  Sn24  1  0.349375  0.348387  0.000353  1
  Sn  Sn25  1  0.335780  0.667890  0.134187  1
  Sn  Sn26  1  0.664220  0.332110  0.865813  1
  Sn  Sn27  1  0.332179  0.666083  0.823693  1
  Sn  Sn28  1  0.667821  0.333917  0.176307  1
  Sn  Sn29  1  0.000000  0.000000  0.500000  1
  Ru  Ru30  1  0.827954  0.169381  0.203235  1
  Ru  Ru31  1  0.172046  0.830619  0.796765  1
  Ru  Ru32  1  0.827953  0.658569  0.203248  1
  Ru  Ru33  1  0.172047  0.341431  0.796752  1
  Ru  Ru34  1  0.340960  0.170469  0.204142  1
  Ru  Ru35  1  0.659040  0.829531  0.795858  1
