# generated using pymatgen
data_Tb5(Th3Os2)3
_symmetry_space_group_name_H-M   'P 1'
_cell_length_a   9.86350245
_cell_length_b   10.00445369
_cell_length_c   6.34209854
_cell_angle_alpha   89.96479303
_cell_angle_beta   90.27434514
_cell_angle_gamma   120.46225650
_symmetry_Int_Tables_number   1
_chemical_formula_structural   Tb5(Th3Os2)3
_chemical_formula_sum   'Tb5 Th9 Os6'
_cell_volume   539.43654234
_cell_formula_units_Z   1
loop_
 _symmetry_equiv_pos_site_id
 _symmetry_equiv_pos_as_xyz
  1  'x, y, z'
loop_
 _atom_site_type_symbol
 _atom_site_label
 _atom_site_symmetry_multiplicity
 _atom_site_fract_x
 _atom_site_fract_y
 _atom_site_fract_z
 _atom_site_occupancy
  Tb  Tb0  1  0.460518  0.536145  0.298853  1
  Tb  Tb1  1  0.072833  0.534957  0.300561  1
  Tb  Tb2  1  0.925316  0.460529  0.797870  1
  Tb  Tb3  1  0.251867  0.125489  0.509645  1
  Tb  Tb4  1  0.540544  0.077325  0.794640  1
  Th  Th5  1  0.746933  0.875136  0.013619  1
  Th  Th6  1  0.667109  0.333143  0.268673  1
  Th  Th7  1  0.128375  0.872402  0.005825  1
  Th  Th8  1  0.459823  0.924249  0.300952  1
  Th  Th9  1  0.534666  0.462135  0.796828  1
  Th  Th10  1  0.877991  0.132151  0.513852  1
  Th  Th11  1  0.126171  0.251853  0.012460  1
  Th  Th12  1  0.874936  0.746261  0.508617  1
  Th  Th13  1  0.332773  0.666777  0.769214  1
  Os  Os14  1  0.809948  0.629148  0.044578  1
  Os  Os15  1  0.816273  0.182207  0.052927  1
  Os  Os16  1  0.631911  0.818306  0.543528  1
  Os  Os17  1  0.372441  0.188099  0.042382  1
  Os  Os18  1  0.185512  0.374583  0.560211  1
  Os  Os19  1  0.184060  0.809103  0.548762  1
