# generated using pymatgen
data_Sr5Pa(BiO6)2
_symmetry_space_group_name_H-M   'P 1'
_cell_length_a   6.06262527
_cell_length_b   6.23360924
_cell_length_c   8.66590500
_cell_angle_alpha   89.42198715
_cell_angle_beta   89.61024253
_cell_angle_gamma   89.99013980
_symmetry_Int_Tables_number   1
_chemical_formula_structural   Sr5Pa(BiO6)2
_chemical_formula_sum   'Sr5 Pa1 Bi2 O12'
_cell_volume   327.47795737
_cell_formula_units_Z   1
loop_
 _symmetry_equiv_pos_site_id
 _symmetry_equiv_pos_as_xyz
  1  'x, y, z'
loop_
 _atom_site_type_symbol
 _atom_site_label
 _atom_site_symmetry_multiplicity
 _atom_site_fract_x
 _atom_site_fract_y
 _atom_site_fract_z
 _atom_site_occupancy
  Sr  Sr0  1  0.000000  0.000000  0.000000  1
  Sr  Sr1  1  0.982376  0.449613  0.248225  1
  Sr  Sr2  1  0.514118  0.955187  0.253136  1
  Sr  Sr3  1  0.485882  0.044813  0.746864  1
  Sr  Sr4  1  0.017624  0.550387  0.751775  1
  Pa  Pa5  1  0.500000  0.500000  0.000000  1
  Bi  Bi6  1  0.500000  0.500000  0.500000  1
  Bi  Bi7  1  0.000000  0.000000  0.500000  1
  O  O8  1  0.889637  0.952571  0.728666  1
  O  O9  1  0.789115  0.717817  0.435460  1
  O  O10  1  0.789957  0.673050  0.053367  1
  O  O11  1  0.712616  0.210932  0.442537  1
  O  O12  1  0.670069  0.213232  0.062619  1
  O  O13  1  0.610282  0.454944  0.743185  1
  O  O14  1  0.389718  0.545056  0.256815  1
  O  O15  1  0.329931  0.786768  0.937381  1
  O  O16  1  0.287384  0.789068  0.557463  1
  O  O17  1  0.210043  0.326950  0.946633  1
  O  O18  1  0.210885  0.282183  0.564540  1
  O  O19  1  0.110363  0.047429  0.271334  1
