# generated using pymatgen
data_Tl2SbAs3S8
_symmetry_space_group_name_H-M   'P 1'
_cell_length_a   6.27729310
_cell_length_b   6.98273106
_cell_length_c   9.50066900
_cell_angle_alpha   93.75210950
_cell_angle_beta   98.07545554
_cell_angle_gamma   103.83335939
_symmetry_Int_Tables_number   1
_chemical_formula_structural   Tl2SbAs3S8
_chemical_formula_sum   'Tl2 Sb1 As3 S8'
_cell_volume   398.22146607
_cell_formula_units_Z   1
loop_
 _symmetry_equiv_pos_site_id
 _symmetry_equiv_pos_as_xyz
  1  'x, y, z'
loop_
 _atom_site_type_symbol
 _atom_site_label
 _atom_site_symmetry_multiplicity
 _atom_site_fract_x
 _atom_site_fract_y
 _atom_site_fract_z
 _atom_site_occupancy
  Tl  Tl0  1  0.837165  0.705859  0.092621  1
  Tl  Tl1  1  0.166644  0.286579  0.908765  1
  Sb  Sb2  1  0.806254  0.648294  0.551142  1
  As  As3  1  0.591166  0.135840  0.300572  1
  As  As4  1  0.407511  0.864857  0.703687  1
  As  As5  1  0.160907  0.364239  0.439760  1
  S  S6  1  0.486954  0.413750  0.255449  1
  S  S7  1  0.514024  0.584927  0.748588  1
  S  S8  1  0.935556  0.193835  0.231289  1
  S  S9  1  0.070693  0.807244  0.778495  1
  S  S10  1  0.442116  0.924453  0.082193  1
  S  S11  1  0.572315  0.076549  0.918777  1
  S  S12  1  0.853201  0.312865  0.580924  1
  S  S13  1  0.155497  0.680706  0.407741  1
