# generated using pymatgen
data_Tb10Pr6Cd4IrPdRh2
_symmetry_space_group_name_H-M   'P 1'
_cell_length_a   9.85813302
_cell_length_b   9.83264422
_cell_length_c   9.83264400
_cell_angle_alpha   60.00000073
_cell_angle_beta   60.08549359
_cell_angle_gamma   60.08549484
_symmetry_Int_Tables_number   1
_chemical_formula_structural   Tb10Pr6Cd4IrPdRh2
_chemical_formula_sum   'Tb10 Pr6 Cd4 Ir1 Pd1 Rh2'
_cell_volume   674.80816132
_cell_formula_units_Z   1
loop_
 _symmetry_equiv_pos_site_id
 _symmetry_equiv_pos_as_xyz
  1  'x, y, z'
loop_
 _atom_site_type_symbol
 _atom_site_label
 _atom_site_symmetry_multiplicity
 _atom_site_fract_x
 _atom_site_fract_y
 _atom_site_fract_z
 _atom_site_occupancy
  Tb  Tb0  1  0.350717  0.344462  0.349806  1
  Tb  Tb1  1  0.350717  0.344462  0.955014  1
  Tb  Tb2  1  0.347269  0.959242  0.346744  1
  Tb  Tb3  1  0.949975  0.346310  0.351858  1
  Tb  Tb4  1  0.813377  0.186416  0.185746  1
  Tb  Tb5  1  0.188572  0.817355  0.807921  1
  Tb  Tb6  1  0.188572  0.817355  0.186153  1
  Tb  Tb7  1  0.813377  0.186416  0.814462  1
  Tb  Tb8  1  0.187428  0.185679  0.813447  1
  Tb  Tb9  1  0.808060  0.818138  0.186902  1
  Pr  Pr10  1  0.939467  0.559609  0.562519  1
  Pr  Pr11  1  0.562893  0.938287  0.939276  1
  Pr  Pr12  1  0.562893  0.938287  0.559544  1
  Pr  Pr13  1  0.939467  0.559609  0.938404  1
  Pr  Pr14  1  0.563953  0.558277  0.938885  1
  Pr  Pr15  1  0.939890  0.937610  0.561250  1
  Cd  Cd16  1  0.578001  0.579718  0.579588  1
  Cd  Cd17  1  0.578001  0.579718  0.262692  1
  Cd  Cd18  1  0.578143  0.262442  0.579707  1
  Cd  Cd19  1  0.263502  0.578989  0.578755  1
  Ir  Ir20  1  0.573192  0.142820  0.141993  1
  Pd  Pd21  1  0.141183  0.571601  0.143607  1
  Rh  Rh22  1  0.140671  0.143599  0.143023  1
  Rh  Rh23  1  0.140671  0.143599  0.572705  1
