# generated using pymatgen
data_TbSmDy3(FeB3)2
_symmetry_space_group_name_H-M   'P 1'
_cell_length_a   5.41637515
_cell_length_b   5.41637502
_cell_length_c   8.27954007
_cell_angle_alpha   70.90750963
_cell_angle_beta   70.90750834
_cell_angle_gamma   59.99999114
_symmetry_Int_Tables_number   1
_chemical_formula_structural   TbSmDy3(FeB3)2
_chemical_formula_sum   'Tb1 Sm1 Dy3 Fe2 B6'
_cell_volume   194.77460296
_cell_formula_units_Z   1
loop_
 _symmetry_equiv_pos_site_id
 _symmetry_equiv_pos_as_xyz
  1  'x, y, z'
loop_
 _atom_site_type_symbol
 _atom_site_label
 _atom_site_symmetry_multiplicity
 _atom_site_fract_x
 _atom_site_fract_y
 _atom_site_fract_z
 _atom_site_occupancy
  Tb  Tb0  1  0.251353  0.251353  0.245940  1
  Sm  Sm1  1  0.000210  0.000210  0.999370  1
  Dy  Dy2  1  0.749028  0.749028  0.752917  1
  Dy  Dy3  1  0.416837  0.416837  0.749487  1
  Dy  Dy4  1  0.583116  0.583116  0.250654  1
  Fe  Fe5  1  0.117338  0.117338  0.647987  1
  Fe  Fe6  1  0.882642  0.882642  0.352074  1
  B  B7  1  0.167505  0.832180  0.500262  1
  B  B8  1  0.832180  0.500054  0.500262  1
  B  B9  1  0.500054  0.167505  0.500262  1
  B  B10  1  0.167505  0.500054  0.500262  1
  B  B11  1  0.500054  0.832180  0.500262  1
  B  B12  1  0.832180  0.167505  0.500262  1
