# generated using pymatgen
data_TbPrP7(Rh3W)3
_symmetry_space_group_name_H-M   'P 1'
_cell_length_a   3.97035506
_cell_length_b   9.56801602
_cell_length_c   9.56806901
_cell_angle_alpha   120.00034520
_cell_angle_beta   89.99978949
_cell_angle_gamma   90.00000601
_symmetry_Int_Tables_number   1
_chemical_formula_structural   TbPrP7(Rh3W)3
_chemical_formula_sum   'Tb1 Pr1 P7 Rh9 W3'
_cell_volume   314.77820921
_cell_formula_units_Z   1
loop_
 _symmetry_equiv_pos_site_id
 _symmetry_equiv_pos_as_xyz
  1  'x, y, z'
loop_
 _atom_site_type_symbol
 _atom_site_label
 _atom_site_symmetry_multiplicity
 _atom_site_fract_x
 _atom_site_fract_y
 _atom_site_fract_z
 _atom_site_occupancy
  Tb  Tb0  1  0.761825  0.333331  0.666668  1
  Pr  Pr1  1  0.262049  0.666668  0.333338  1
  P  P2  1  0.262060  0.000004  0.999998  1
  P  P3  1  0.761923  0.884857  0.596221  1
  P  P4  1  0.761930  0.403777  0.288638  1
  P  P5  1  0.761928  0.711366  0.115143  1
  P  P6  1  0.261834  0.116660  0.413942  1
  P  P7  1  0.261835  0.586055  0.702708  1
  P  P8  1  0.261840  0.297287  0.883342  1
  Rh  Rh9  1  0.261915  0.886868  0.159404  1
  Rh  Rh10  1  0.261911  0.840582  0.727442  1
  Rh  Rh11  1  0.261923  0.272537  0.113128  1
  Rh  Rh12  1  0.761887  0.611259  0.564433  1
  Rh  Rh13  1  0.761879  0.435574  0.046830  1
  Rh  Rh14  1  0.761889  0.953167  0.388746  1
  Rh  Rh15  1  0.261872  0.366392  0.436367  1
  Rh  Rh16  1  0.261882  0.563639  0.930045  1
  Rh  Rh17  1  0.261878  0.069971  0.633606  1
  W  W18  1  0.761911  0.089846  0.871874  1
  W  W19  1  0.761915  0.128131  0.217978  1
  W  W20  1  0.761911  0.782028  0.910152  1
