# generated using pymatgen
data_MnNiSb6
_symmetry_space_group_name_H-M   'P 1'
_cell_length_a   7.97170177
_cell_length_b   7.97170202
_cell_length_c   9.23362831
_cell_angle_alpha   54.90051858
_cell_angle_beta   54.90051721
_cell_angle_gamma   70.91187294
_symmetry_Int_Tables_number   1
_chemical_formula_structural   MnNiSb6
_chemical_formula_sum   'Mn2 Ni2 Sb12'
_cell_volume   392.77089004
_cell_formula_units_Z   2
loop_
 _symmetry_equiv_pos_site_id
 _symmetry_equiv_pos_as_xyz
  1  'x, y, z'
loop_
 _atom_site_type_symbol
 _atom_site_label
 _atom_site_symmetry_multiplicity
 _atom_site_fract_x
 _atom_site_fract_y
 _atom_site_fract_z
 _atom_site_occupancy
  Mn  Mn0  1  0.000000  0.500000  0.000000  1
  Mn  Mn1  1  0.500000  0.000000  0.000000  1
  Ni  Ni2  1  0.000000  0.500000  0.500000  1
  Ni  Ni3  1  0.500000  0.000000  0.500000  1
  Sb  Sb4  1  0.159488  0.159488  0.175389  1
  Sb  Sb5  1  0.840512  0.840512  0.824611  1
  Sb  Sb6  1  0.841000  0.841000  0.496666  1
  Sb  Sb7  1  0.159000  0.159000  0.503334  1
  Sb  Sb8  1  0.822507  0.505562  0.334164  1
  Sb  Sb9  1  0.177493  0.494438  0.665836  1
  Sb  Sb10  1  0.505562  0.822507  0.334164  1
  Sb  Sb11  1  0.494438  0.177493  0.665836  1
  Sb  Sb12  1  0.662749  0.334575  0.843053  1
  Sb  Sb13  1  0.337251  0.665425  0.156947  1
  Sb  Sb14  1  0.665425  0.337251  0.156947  1
  Sb  Sb15  1  0.334575  0.662749  0.843053  1
