# generated using pymatgen
data_HoEr9(ThCo2)2
_symmetry_space_group_name_H-M   'P 1'
_cell_length_a   6.22696533
_cell_length_b   6.85942573
_cell_length_c   9.45507400
_cell_angle_alpha   90.00000000
_cell_angle_beta   90.00000000
_cell_angle_gamma   90.03315904
_symmetry_Int_Tables_number   1
_chemical_formula_structural   HoEr9(ThCo2)2
_chemical_formula_sum   'Ho1 Er9 Th2 Co4'
_cell_volume   403.85834866
_cell_formula_units_Z   1
loop_
 _symmetry_equiv_pos_site_id
 _symmetry_equiv_pos_as_xyz
  1  'x, y, z'
loop_
 _atom_site_type_symbol
 _atom_site_label
 _atom_site_symmetry_multiplicity
 _atom_site_fract_x
 _atom_site_fract_y
 _atom_site_fract_z
 _atom_site_occupancy
  Ho  Ho0  1  0.854051  0.543084  0.250000  1
  Er  Er1  1  0.324416  0.673411  0.069619  1
  Er  Er2  1  0.174116  0.170070  0.431493  1
  Er  Er3  1  0.675384  0.329418  0.568451  1
  Er  Er4  1  0.824638  0.826750  0.930028  1
  Er  Er5  1  0.675384  0.329418  0.931549  1
  Er  Er6  1  0.824638  0.826750  0.569972  1
  Er  Er7  1  0.324416  0.673411  0.430381  1
  Er  Er8  1  0.174116  0.170070  0.068507  1
  Er  Er9  1  0.355696  0.957765  0.750000  1
  Th  Th10  1  0.654300  0.052456  0.250000  1
  Th  Th11  1  0.155264  0.447957  0.750000  1
  Co  Co12  1  0.033561  0.886800  0.250000  1
  Co  Co13  1  0.457277  0.368966  0.250000  1
  Co  Co14  1  0.959548  0.130947  0.750000  1
  Co  Co15  1  0.533195  0.612730  0.750000  1
