# generated using pymatgen
data_Ho12InGa(FeNi)2
_symmetry_space_group_name_H-M   'P 1'
_cell_length_a   8.30490064
_cell_length_b   8.30489965
_cell_length_c   8.30490032
_cell_angle_alpha   113.26524400
_cell_angle_beta   110.01811652
_cell_angle_gamma   105.23000098
_symmetry_Int_Tables_number   1
_chemical_formula_structural   Ho12InGa(FeNi)2
_chemical_formula_sum   'Ho12 In1 Ga1 Fe2 Ni2'
_cell_volume   438.76514550
_cell_formula_units_Z   1
loop_
 _symmetry_equiv_pos_site_id
 _symmetry_equiv_pos_as_xyz
  1  'x, y, z'
loop_
 _atom_site_type_symbol
 _atom_site_label
 _atom_site_symmetry_multiplicity
 _atom_site_fract_x
 _atom_site_fract_y
 _atom_site_fract_z
 _atom_site_occupancy
  Ho  Ho0  1  0.430004  0.232842  0.197161  1
  Ho  Ho1  1  0.569996  0.767158  0.802839  1
  Ho  Ho2  1  0.035681  0.232842  0.802839  1
  Ho  Ho3  1  0.964319  0.767158  0.197161  1
  Ho  Ho4  1  0.181671  0.279146  0.460816  1
  Ho  Ho5  1  0.818329  0.720854  0.539184  1
  Ho  Ho6  1  0.181671  0.720854  0.902525  1
  Ho  Ho7  1  0.818329  0.279146  0.097475  1
  Ho  Ho8  1  0.332701  0.647107  0.314408  1
  Ho  Ho9  1  0.667299  0.352893  0.685592  1
  Ho  Ho10  1  0.332701  0.018292  0.685592  1
  Ho  Ho11  1  0.667299  0.981708  0.314408  1
  In  In12  1  0.500000  0.500000  0.000000  1
  Ga  Ga13  1  0.000000  0.000000  0.000000  1
  Fe  Fe14  1  0.329724  0.000000  0.329724  1
  Fe  Fe15  1  0.670276  0.000000  0.670276  1
  Ni  Ni16  1  0.117500  0.617500  0.500000  1
  Ni  Ni17  1  0.882500  0.382500  0.500000  1
