# generated using pymatgen
data_Tm6NbCo17(Si3P)3
_symmetry_space_group_name_H-M   'P 1'
_cell_length_a   3.72372100
_cell_length_b   10.65928601
_cell_length_c   12.31372519
_cell_angle_alpha   90.16622527
_cell_angle_beta   90.00000000
_cell_angle_gamma   90.00000000
_symmetry_Int_Tables_number   1
_chemical_formula_structural   Tm6NbCo17(Si3P)3
_chemical_formula_sum   'Tm6 Nb1 Co17 Si9 P3'
_cell_volume   488.75687441
_cell_formula_units_Z   1
loop_
 _symmetry_equiv_pos_site_id
 _symmetry_equiv_pos_as_xyz
  1  'x, y, z'
loop_
 _atom_site_type_symbol
 _atom_site_label
 _atom_site_symmetry_multiplicity
 _atom_site_fract_x
 _atom_site_fract_y
 _atom_site_fract_z
 _atom_site_occupancy
  Tm  Tm0  1  0.000000  0.499001  0.529235  1
  Tm  Tm1  1  0.500000  0.997962  0.472648  1
  Tm  Tm2  1  0.500000  0.819240  0.207804  1
  Tm  Tm3  1  0.500000  0.180936  0.206654  1
  Tm  Tm4  1  0.000000  0.681251  0.795927  1
  Tm  Tm5  1  0.000000  0.317937  0.796529  1
  Nb  Nb6  1  0.500000  0.500943  0.147862  1
  Co  Co7  1  0.000000  0.999492  0.846280  1
  Co  Co8  1  0.500000  0.499782  0.698496  1
  Co  Co9  1  0.000000  0.995637  0.303442  1
  Co  Co10  1  0.000000  0.500216  0.987857  1
  Co  Co11  1  0.500000  0.999916  0.017238  1
  Co  Co12  1  0.500000  0.326941  0.993591  1
  Co  Co13  1  0.500000  0.673589  0.993301  1
  Co  Co14  1  0.000000  0.166135  0.005132  1
  Co  Co15  1  0.000000  0.833926  0.004602  1
  Co  Co16  1  0.500000  0.299224  0.432328  1
  Co  Co17  1  0.500000  0.707114  0.430377  1
  Co  Co18  1  0.000000  0.197413  0.570584  1
  Co  Co19  1  0.000000  0.801441  0.566485  1
  Co  Co20  1  0.500000  0.882094  0.705152  1
  Co  Co21  1  0.500000  0.116331  0.706240  1
  Co  Co22  1  0.000000  0.624216  0.292328  1
  Co  Co23  1  0.000000  0.380610  0.290545  1
  Si  Si24  1  0.500000  0.499980  0.882992  1
  Si  Si25  1  0.000000  0.999892  0.118950  1
  Si  Si26  1  0.500000  0.500588  0.352967  1
  Si  Si27  1  0.000000  0.999486  0.658332  1
  Si  Si28  1  0.500000  0.305158  0.616742  1
  Si  Si29  1  0.500000  0.693021  0.616095  1
  Si  Si30  1  0.000000  0.192749  0.385392  1
  Si  Si31  1  0.500000  0.855056  0.889100  1
  Si  Si32  1  0.500000  0.144475  0.889774  1
  P  P33  1  0.000000  0.807157  0.384655  1
  P  P34  1  0.000000  0.662144  0.101978  1
  P  P35  1  0.000000  0.338948  0.102383  1
