# generated using pymatgen
data_La3TbHo(Sn5Ir2)2
_symmetry_space_group_name_H-M   'P 1'
_cell_length_a   14.17744256
_cell_length_b   14.17744256
_cell_length_c   4.65593300
_cell_angle_alpha   90.00000000
_cell_angle_beta   90.00000000
_cell_angle_gamma   89.96787139
_symmetry_Int_Tables_number   1
_chemical_formula_structural   La3TbHo(Sn5Ir2)2
_chemical_formula_sum   'La6 Tb2 Ho2 Sn20 Ir8'
_cell_volume   935.84181535
_cell_formula_units_Z   2
loop_
 _symmetry_equiv_pos_site_id
 _symmetry_equiv_pos_as_xyz
  1  'x, y, z'
loop_
 _atom_site_type_symbol
 _atom_site_label
 _atom_site_symmetry_multiplicity
 _atom_site_fract_x
 _atom_site_fract_y
 _atom_site_fract_z
 _atom_site_occupancy
  La  La0  1  0.500000  0.500000  0.000000  1
  La  La1  1  0.000000  0.000000  0.000000  1
  La  La2  1  0.886979  0.386979  0.500000  1
  La  La3  1  0.113021  0.613021  0.500000  1
  La  La4  1  0.387033  0.112967  0.500000  1
  La  La5  1  0.612967  0.887033  0.500000  1
  Tb  Tb6  1  0.175693  0.324307  0.500000  1
  Tb  Tb7  1  0.824307  0.675693  0.500000  1
  Ho  Ho8  1  0.675575  0.175575  0.500000  1
  Ho  Ho9  1  0.324425  0.824425  0.500000  1
  Sn  Sn10  1  0.570202  0.070202  0.000000  1
  Sn  Sn11  1  0.429798  0.929798  0.000000  1
  Sn  Sn12  1  0.070047  0.429953  0.000000  1
  Sn  Sn13  1  0.929953  0.570047  0.000000  1
  Sn  Sn14  1  0.655523  0.698336  0.000000  1
  Sn  Sn15  1  0.344477  0.301664  0.000000  1
  Sn  Sn16  1  0.155661  0.801740  0.000000  1
  Sn  Sn17  1  0.844339  0.198260  0.000000  1
  Sn  Sn18  1  0.301740  0.655661  0.000000  1
  Sn  Sn19  1  0.698260  0.344339  0.000000  1
  Sn  Sn20  1  0.198336  0.155523  0.000000  1
  Sn  Sn21  1  0.801664  0.844477  0.000000  1
  Sn  Sn22  1  0.663500  0.506099  0.500000  1
  Sn  Sn23  1  0.336500  0.493901  0.500000  1
  Sn  Sn24  1  0.163519  0.993812  0.500000  1
  Sn  Sn25  1  0.836481  0.006188  0.500000  1
  Sn  Sn26  1  0.493812  0.663519  0.500000  1
  Sn  Sn27  1  0.506188  0.336481  0.500000  1
  Sn  Sn28  1  0.006099  0.163500  0.500000  1
  Sn  Sn29  1  0.993901  0.836500  0.500000  1
  Ir  Ir30  1  0.747162  0.529258  0.000000  1
  Ir  Ir31  1  0.252838  0.470742  0.000000  1
  Ir  Ir32  1  0.247302  0.970518  0.000000  1
  Ir  Ir33  1  0.752698  0.029482  0.000000  1
  Ir  Ir34  1  0.470518  0.747302  0.000000  1
  Ir  Ir35  1  0.529482  0.252698  0.000000  1
  Ir  Ir36  1  0.029258  0.247162  0.000000  1
  Ir  Ir37  1  0.970742  0.752838  0.000000  1
