# generated using pymatgen
data_NaEr7(Si4W3)4
_symmetry_space_group_name_H-M   'P 1'
_cell_length_a   6.71715542
_cell_length_b   6.90100609
_cell_length_c   12.89601933
_cell_angle_alpha   89.91743263
_cell_angle_beta   89.88336229
_cell_angle_gamma   89.79758357
_symmetry_Int_Tables_number   1
_chemical_formula_structural   NaEr7(Si4W3)4
_chemical_formula_sum   'Na1 Er7 Si16 W12'
_cell_volume   597.79107498
_cell_formula_units_Z   1
loop_
 _symmetry_equiv_pos_site_id
 _symmetry_equiv_pos_as_xyz
  1  'x, y, z'
loop_
 _atom_site_type_symbol
 _atom_site_label
 _atom_site_symmetry_multiplicity
 _atom_site_fract_x
 _atom_site_fract_y
 _atom_site_fract_z
 _atom_site_occupancy
  Na  Na0  1  0.991282  0.834857  0.586603  1
  Er  Er1  1  0.498239  0.669730  0.593657  1
  Er  Er2  1  0.997687  0.829521  0.906875  1
  Er  Er3  1  0.504737  0.330537  0.093091  1
  Er  Er4  1  0.003148  0.165728  0.410559  1
  Er  Er5  1  0.502343  0.331664  0.408668  1
  Er  Er6  1  0.005405  0.168540  0.093632  1
  Er  Er7  1  0.497040  0.670697  0.904795  1
  Si  Si8  1  0.660125  0.957608  0.454797  1
  Si  Si9  1  0.164357  0.543994  0.045118  1
  Si  Si10  1  0.336276  0.043038  0.954806  1
  Si  Si11  1  0.840782  0.462253  0.547247  1
  Si  Si12  1  0.333266  0.038083  0.546967  1
  Si  Si13  1  0.836613  0.455725  0.955605  1
  Si  Si14  1  0.665069  0.957081  0.045198  1
  Si  Si15  1  0.159685  0.545030  0.454626  1
  Si  Si16  1  0.466519  0.376031  0.750849  1
  Si  Si17  1  0.968003  0.123051  0.748252  1
  Si  Si18  1  0.532610  0.625648  0.250131  1
  Si  Si19  1  0.033603  0.870356  0.251480  1
  Si  Si20  1  0.706115  0.865541  0.746225  1
  Si  Si21  1  0.193138  0.642550  0.745177  1
  Si  Si22  1  0.301220  0.135113  0.250874  1
  Si  Si23  1  0.802338  0.361485  0.251483  1
  W  W24  1  0.664303  0.167675  0.625010  1
  W  W25  1  0.170485  0.340226  0.875226  1
  W  W26  1  0.332372  0.837555  0.125862  1
  W  W27  1  0.825715  0.659590  0.374220  1
  W  W28  1  0.332742  0.836929  0.374298  1
  W  W29  1  0.829324  0.659650  0.125511  1
  W  W30  1  0.668626  0.162741  0.873796  1
  W  W31  1  0.170919  0.335794  0.626805  1
  W  W32  1  0.838870  0.493272  0.751952  1
  W  W33  1  0.338661  0.003782  0.751578  1
  W  W34  1  0.163604  0.500897  0.249811  1
  W  W35  1  0.664777  0.998027  0.249217  1
