# generated using pymatgen
data_Mn(RuO3)2
_symmetry_space_group_name_H-M   'P 1'
_cell_length_a   6.47309960
_cell_length_b   6.47378919
_cell_length_c   10.39312428
_cell_angle_alpha   108.14210628
_cell_angle_beta   71.85894683
_cell_angle_gamma   89.99867594
_symmetry_Int_Tables_number   1
_chemical_formula_structural   Mn(RuO3)2
_chemical_formula_sum   'Mn4 Ru8 O24'
_cell_volume   391.03067091
_cell_formula_units_Z   4
loop_
 _symmetry_equiv_pos_site_id
 _symmetry_equiv_pos_as_xyz
  1  'x, y, z'
loop_
 _atom_site_type_symbol
 _atom_site_label
 _atom_site_symmetry_multiplicity
 _atom_site_fract_x
 _atom_site_fract_y
 _atom_site_fract_z
 _atom_site_occupancy
  Mn  Mn0  1  0.333269  0.666779  0.333313  1
  Mn  Mn1  1  0.083232  0.416811  0.833429  1
  Mn  Mn2  1  0.833157  0.166796  0.333420  1
  Mn  Mn3  1  0.583303  0.916713  0.833302  1
  Ru  Ru4  1  0.999054  0.000952  0.002097  1
  Ru  Ru5  1  0.499046  0.500981  0.002145  1
  Ru  Ru6  1  0.667762  0.332198  0.664483  1
  Ru  Ru7  1  0.167752  0.832210  0.664521  1
  Ru  Ru8  1  0.417705  0.082293  0.164581  1
  Ru  Ru9  1  0.917699  0.582300  0.164610  1
  Ru  Ru10  1  0.249009  0.250941  0.502046  1
  Ru  Ru11  1  0.749024  0.750943  0.502054  1
  O  O12  1  0.391286  0.416976  0.833347  1
  O  O13  1  0.891264  0.916944  0.833281  1
  O  O14  1  0.333095  0.358477  0.333294  1
  O  O15  1  0.833063  0.858461  0.333331  1
  O  O16  1  0.333602  0.974870  0.333322  1
  O  O17  1  0.833573  0.474918  0.333358  1
  O  O18  1  0.775361  0.416440  0.833370  1
  O  O19  1  0.275459  0.916410  0.833307  1
  O  O20  1  0.717903  0.080379  0.160488  1
  O  O21  1  0.217907  0.580371  0.160478  1
  O  O22  1  0.545086  0.253059  0.506194  1
  O  O23  1  0.045104  0.753056  0.506185  1
  O  O24  1  0.496892  0.204958  0.006294  1
  O  O25  1  0.996914  0.704823  0.006261  1
  O  O26  1  0.169620  0.532022  0.660471  1
  O  O27  1  0.669656  0.031972  0.660412  1
  O  O28  1  0.496973  0.801272  0.006282  1
  O  O29  1  0.996993  0.301357  0.006249  1
  O  O30  1  0.169724  0.128400  0.660434  1
  O  O31  1  0.669760  0.628395  0.660377  1
  O  O32  1  0.121594  0.080297  0.160480  1
  O  O33  1  0.621644  0.580283  0.160455  1
  O  O34  1  0.948745  0.252970  0.506161  1
  O  O35  1  0.448773  0.752975  0.506168  1
