# generated using pymatgen
data_Tb3Gd3YScO12
_symmetry_space_group_name_H-M   'P 1'
_cell_length_a   6.72836258
_cell_length_b   6.72831460
_cell_length_c   6.72810574
_cell_angle_alpha   92.63107739
_cell_angle_beta   92.62730374
_cell_angle_gamma   92.62602269
_symmetry_Int_Tables_number   1
_chemical_formula_structural   Tb3Gd3YScO12
_chemical_formula_sum   'Tb3 Gd3 Y1 Sc1 O12'
_cell_volume   303.59339628
_cell_formula_units_Z   1
loop_
 _symmetry_equiv_pos_site_id
 _symmetry_equiv_pos_as_xyz
  1  'x, y, z'
loop_
 _atom_site_type_symbol
 _atom_site_label
 _atom_site_symmetry_multiplicity
 _atom_site_fract_x
 _atom_site_fract_y
 _atom_site_fract_z
 _atom_site_occupancy
  Tb  Tb0  1  0.742436  0.928992  0.438964  1
  Tb  Tb1  1  0.439370  0.742634  0.930177  1
  Tb  Tb2  1  0.070357  0.561233  0.257262  1
  Gd  Gd3  1  0.930120  0.440354  0.742084  1
  Gd  Gd4  1  0.560272  0.257798  0.070424  1
  Gd  Gd5  1  0.257613  0.069205  0.559870  1
  Y  Y6  1  0.999519  0.999482  0.000230  1
  Sc  Sc7  1  0.500170  0.500862  0.499519  1
  O  O8  1  0.065934  0.904759  0.316302  1
  O  O9  1  0.682786  0.930342  0.094203  1
  O  O10  1  0.466449  0.803624  0.592858  1
  O  O11  1  0.095460  0.683662  0.933744  1
  O  O12  1  0.803763  0.593261  0.462727  1
  O  O13  1  0.406692  0.537228  0.196194  1
  O  O14  1  0.590552  0.466345  0.803760  1
  O  O15  1  0.196203  0.409406  0.533587  1
  O  O16  1  0.908269  0.317084  0.069234  1
  O  O17  1  0.537347  0.196012  0.408981  1
  O  O18  1  0.316209  0.065784  0.906997  1
  O  O19  1  0.930480  0.091934  0.682883  1
