# generated using pymatgen
data_ErPa3Pt4
_symmetry_space_group_name_H-M   'P 1'
_cell_length_a   4.38147700
_cell_length_b   5.69513295
_cell_length_c   7.20339595
_cell_angle_alpha   89.28766948
_cell_angle_beta   90.00000000
_cell_angle_gamma   90.00000000
_symmetry_Int_Tables_number   1
_chemical_formula_structural   ErPa3Pt4
_chemical_formula_sum   'Er1 Pa3 Pt4'
_cell_volume   179.73312494
_cell_formula_units_Z   1
loop_
 _symmetry_equiv_pos_site_id
 _symmetry_equiv_pos_as_xyz
  1  'x, y, z'
loop_
 _atom_site_type_symbol
 _atom_site_label
 _atom_site_symmetry_multiplicity
 _atom_site_fract_x
 _atom_site_fract_y
 _atom_site_fract_z
 _atom_site_occupancy
  Er  Er0  1  0.250000  0.648657  0.180677  1
  Pa  Pa1  1  0.750000  0.357089  0.823045  1
  Pa  Pa2  1  0.750000  0.148136  0.314668  1
  Pa  Pa3  1  0.250000  0.847618  0.680160  1
  Pt  Pt4  1  0.250000  0.166630  0.047413  1
  Pt  Pt5  1  0.750000  0.842909  0.948435  1
  Pt  Pt6  1  0.750000  0.664190  0.453600  1
  Pt  Pt7  1  0.250000  0.324770  0.552003  1
