# generated using pymatgen
data_GdY3Er2Ta2O14
_symmetry_space_group_name_H-M   'P 1'
_cell_length_a   6.49099936
_cell_length_b   6.48586074
_cell_length_c   7.49529754
_cell_angle_alpha   89.94571244
_cell_angle_beta   89.98376724
_cell_angle_gamma   108.71477357
_symmetry_Int_Tables_number   1
_chemical_formula_structural   GdY3Er2Ta2O14
_chemical_formula_sum   'Gd1 Y3 Er2 Ta2 O14'
_cell_volume   298.86583154
_cell_formula_units_Z   1
loop_
 _symmetry_equiv_pos_site_id
 _symmetry_equiv_pos_as_xyz
  1  'x, y, z'
loop_
 _atom_site_type_symbol
 _atom_site_label
 _atom_site_symmetry_multiplicity
 _atom_site_fract_x
 _atom_site_fract_y
 _atom_site_fract_z
 _atom_site_occupancy
  Gd  Gd0  1  0.472727  0.471275  0.001502  1
  Y  Y1  1  0.000306  0.465611  0.742393  1
  Y  Y2  1  0.534008  0.000229  0.756262  1
  Y  Y3  1  0.535476  0.534310  0.498799  1
  Er  Er4  1  0.464934  0.999655  0.257975  1
  Er  Er5  1  0.000745  0.534796  0.243385  1
  Ta  Ta6  1  0.002634  0.002976  0.498426  1
  Ta  Ta7  1  0.997325  0.997688  0.001599  1
  O  O8  1  0.069312  0.930223  0.249783  1
  O  O9  1  0.048656  0.308450  0.454627  1
  O  O10  1  0.078318  0.326789  0.028324  1
  O  O11  1  0.357702  0.642055  0.252808  1
  O  O12  1  0.369996  0.630374  0.747059  1
  O  O13  1  0.327081  0.079646  0.976255  1
  O  O14  1  0.310388  0.053638  0.539652  1
  O  O15  1  0.689589  0.947645  0.044999  1
  O  O16  1  0.672958  0.919683  0.471959  1
  O  O17  1  0.631779  0.368438  0.252712  1
  O  O18  1  0.639774  0.360322  0.747208  1
  O  O19  1  0.918898  0.672592  0.523559  1
  O  O20  1  0.943272  0.688012  0.960534  1
  O  O21  1  0.934122  0.065591  0.750180  1
