# generated using pymatgen
data_Tb5Dy4Ho11(CoSb2)4
_symmetry_space_group_name_H-M   'P 1'
_cell_length_a   7.88857454
_cell_length_b   8.75174689
_cell_length_c   12.16040500
_cell_angle_alpha   90.01713736
_cell_angle_beta   89.97988278
_cell_angle_gamma   90.01965030
_symmetry_Int_Tables_number   1
_chemical_formula_structural   Tb5Dy4Ho11(CoSb2)4
_chemical_formula_sum   'Tb5 Dy4 Ho11 Co4 Sb8'
_cell_volume   839.53972285
_cell_formula_units_Z   1
loop_
 _symmetry_equiv_pos_site_id
 _symmetry_equiv_pos_as_xyz
  1  'x, y, z'
loop_
 _atom_site_type_symbol
 _atom_site_label
 _atom_site_symmetry_multiplicity
 _atom_site_fract_x
 _atom_site_fract_y
 _atom_site_fract_z
 _atom_site_occupancy
  Tb  Tb0  1  0.622226  0.750290  0.305899  1
  Tb  Tb1  1  0.121833  0.250115  0.193710  1
  Tb  Tb2  1  0.378511  0.249620  0.694095  1
  Tb  Tb3  1  0.878107  0.749992  0.806180  1
  Tb  Tb4  1  0.320436  0.464350  0.435046  1
  Dy  Dy5  1  0.154817  0.750045  0.203087  1
  Dy  Dy6  1  0.655111  0.249782  0.296702  1
  Dy  Dy7  1  0.845135  0.249987  0.796811  1
  Dy  Dy8  1  0.345107  0.750144  0.703307  1
  Ho  Ho9  1  0.453125  0.750042  0.997832  1
  Ho  Ho10  1  0.952484  0.249777  0.502150  1
  Ho  Ho11  1  0.546956  0.249945  0.002093  1
  Ho  Ho12  1  0.046163  0.750326  0.497939  1
  Ho  Ho13  1  0.821919  0.964138  0.065009  1
  Ho  Ho14  1  0.321969  0.035745  0.435092  1
  Ho  Ho15  1  0.178101  0.464013  0.934967  1
  Ho  Ho16  1  0.678337  0.536088  0.565182  1
  Ho  Ho17  1  0.178096  0.035964  0.934929  1
  Ho  Ho18  1  0.678077  0.963755  0.565174  1
  Ho  Ho19  1  0.821875  0.535837  0.064964  1
  Co  Co20  1  0.433318  0.750321  0.490418  1
  Co  Co21  1  0.932887  0.249988  0.009530  1
  Co  Co22  1  0.568348  0.249435  0.509901  1
  Co  Co23  1  0.067105  0.750008  0.990416  1
  Sb  Sb24  1  0.928802  0.991589  0.327494  1
  Sb  Sb25  1  0.428627  0.008472  0.172394  1
  Sb  Sb26  1  0.071544  0.491557  0.672402  1
  Sb  Sb27  1  0.571373  0.508494  0.827618  1
  Sb  Sb28  1  0.071391  0.008470  0.672437  1
  Sb  Sb29  1  0.571484  0.991487  0.827731  1
  Sb  Sb30  1  0.927866  0.508611  0.327372  1
  Sb  Sb31  1  0.428871  0.491613  0.172116  1
