# generated using pymatgen
data_Ce3DyAs3O4
_symmetry_space_group_name_H-M   'P 1'
_cell_length_a   6.74149138
_cell_length_b   6.74149038
_cell_length_c   7.95878544
_cell_angle_alpha   89.96338427
_cell_angle_beta   90.03661412
_cell_angle_gamma   145.53113672
_symmetry_Int_Tables_number   1
_chemical_formula_structural   Ce3DyAs3O4
_chemical_formula_sum   'Ce3 Dy1 As3 O4'
_cell_volume   204.71187192
_cell_formula_units_Z   1
loop_
 _symmetry_equiv_pos_site_id
 _symmetry_equiv_pos_as_xyz
  1  'x, y, z'
loop_
 _atom_site_type_symbol
 _atom_site_label
 _atom_site_symmetry_multiplicity
 _atom_site_fract_x
 _atom_site_fract_y
 _atom_site_fract_z
 _atom_site_occupancy
  Ce  Ce0  1  0.991353  0.008647  0.497130  1
  Ce  Ce1  1  0.004096  0.995904  0.002754  1
  Ce  Ce2  1  0.311505  0.688495  0.760746  1
  Dy  Dy3  1  0.316463  0.683537  0.240462  1
  As  As4  1  0.636327  0.363673  0.677864  1
  As  As5  1  0.638036  0.361964  0.321102  1
  As  As6  1  0.686261  0.313739  0.999200  1
  O  O7  1  0.413579  0.586421  0.001862  1
  O  O8  1  0.907133  0.092867  0.753248  1
  O  O9  1  0.906236  0.093764  0.246792  1
  O  O10  1  0.386901  0.613099  0.498841  1
