# generated using pymatgen
data_Er5Th3(TcB6)4
_symmetry_space_group_name_H-M   'P 1'
_cell_length_a   3.74369300
_cell_length_b   9.19658813
_cell_length_c   11.61880368
_cell_angle_alpha   90.07791208
_cell_angle_beta   90.00000000
_cell_angle_gamma   90.00000000
_symmetry_Int_Tables_number   1
_chemical_formula_structural   Er5Th3(TcB6)4
_chemical_formula_sum   'Er5 Th3 Tc4 B24'
_cell_volume   400.02577610
_cell_formula_units_Z   1
loop_
 _symmetry_equiv_pos_site_id
 _symmetry_equiv_pos_as_xyz
  1  'x, y, z'
loop_
 _atom_site_type_symbol
 _atom_site_label
 _atom_site_symmetry_multiplicity
 _atom_site_fract_x
 _atom_site_fract_y
 _atom_site_fract_z
 _atom_site_occupancy
  Er  Er0  1  0.000000  0.178021  0.914197  1
  Er  Er1  1  0.000000  0.944580  0.371674  1
  Er  Er2  1  0.000000  0.056856  0.629928  1
  Er  Er3  1  0.000000  0.441978  0.127090  1
  Er  Er4  1  0.000000  0.554947  0.871715  1
  Th  Th5  1  0.000000  0.321426  0.414563  1
  Th  Th6  1  0.000000  0.678243  0.586663  1
  Th  Th7  1  0.000000  0.823840  0.084654  1
  Tc  Tc8  1  0.000000  0.638969  0.319480  1
  Tc  Tc9  1  0.000000  0.361003  0.680916  1
  Tc  Tc10  1  0.000000  0.139415  0.179483  1
  Tc  Tc11  1  0.000000  0.861430  0.820185  1
  B  B12  1  0.500000  0.556039  0.429752  1
  B  B13  1  0.500000  0.443635  0.570722  1
  B  B14  1  0.500000  0.056632  0.067010  1
  B  B15  1  0.500000  0.946906  0.930788  1
  B  B16  1  0.500000  0.750586  0.416696  1
  B  B17  1  0.500000  0.249308  0.584588  1
  B  B18  1  0.500000  0.249335  0.080032  1
  B  B19  1  0.500000  0.751105  0.916613  1
  B  B20  1  0.500000  0.790797  0.266098  1
  B  B21  1  0.500000  0.207728  0.735994  1
  B  B22  1  0.500000  0.290408  0.231917  1
  B  B23  1  0.500000  0.709587  0.767126  1
  B  B24  1  0.500000  0.629622  0.185442  1
  B  B25  1  0.500000  0.367834  0.815966  1
  B  B26  1  0.500000  0.130180  0.313339  1
  B  B27  1  0.500000  0.871190  0.687126  1
  B  B28  1  0.500000  0.985556  0.212552  1
  B  B29  1  0.500000  0.018375  0.787847  1
  B  B30  1  0.500000  0.484425  0.285546  1
  B  B31  1  0.500000  0.514313  0.714776  1
  B  B32  1  0.500000  0.600178  0.027601  1
  B  B33  1  0.500000  0.395260  0.970906  1
  B  B34  1  0.500000  0.101722  0.472600  1
  B  B35  1  0.500000  0.898567  0.528416  1
