# generated using pymatgen
data_Ho4ReOsC4
_symmetry_space_group_name_H-M   'P 1'
_cell_length_a   5.09098700
_cell_length_b   6.51125700
_cell_length_c   9.78749800
_cell_angle_alpha   90.00000000
_cell_angle_beta   90.00000000
_cell_angle_gamma   90.00000000
_symmetry_Int_Tables_number   1
_chemical_formula_structural   Ho4ReOsC4
_chemical_formula_sum   'Ho8 Re2 Os2 C8'
_cell_volume   324.44307710
_cell_formula_units_Z   2
loop_
 _symmetry_equiv_pos_site_id
 _symmetry_equiv_pos_as_xyz
  1  'x, y, z'
loop_
 _atom_site_type_symbol
 _atom_site_label
 _atom_site_symmetry_multiplicity
 _atom_site_fract_x
 _atom_site_fract_y
 _atom_site_fract_z
 _atom_site_occupancy
  Ho  Ho0  1  0.250000  0.467207  0.784251  1
  Ho  Ho1  1  0.750000  0.032793  0.284251  1
  Ho  Ho2  1  0.250000  0.969049  0.715054  1
  Ho  Ho3  1  0.750000  0.530951  0.215054  1
  Ho  Ho4  1  0.250000  0.822880  0.055164  1
  Ho  Ho5  1  0.750000  0.677120  0.555164  1
  Ho  Ho6  1  0.250000  0.320057  0.444089  1
  Ho  Ho7  1  0.750000  0.179943  0.944089  1
  Re  Re8  1  0.250000  0.779432  0.366003  1
  Re  Re9  1  0.750000  0.720568  0.866003  1
  Os  Os10  1  0.250000  0.279487  0.133547  1
  Os  Os11  1  0.750000  0.220513  0.633547  1
  C  C12  1  0.250000  0.175615  0.948320  1
  C  C13  1  0.750000  0.823672  0.052505  1
  C  C14  1  0.250000  0.676328  0.552505  1
  C  C15  1  0.750000  0.324385  0.448320  1
  C  C16  1  0.250000  0.045971  0.259431  1
  C  C17  1  0.750000  0.454029  0.759431  1
  C  C18  1  0.250000  0.545239  0.241636  1
  C  C19  1  0.750000  0.954761  0.741636  1
