# generated using pymatgen
data_Tm3ZrIn3Ir2
_symmetry_space_group_name_H-M   'P 1'
_cell_length_a   7.93858649
_cell_length_b   7.73711074
_cell_length_c   3.93795200
_cell_angle_alpha   90.00000000
_cell_angle_beta   90.00000000
_cell_angle_gamma   121.70918617
_symmetry_Int_Tables_number   1
_chemical_formula_structural   Tm3ZrIn3Ir2
_chemical_formula_sum   'Tm3 Zr1 In3 Ir2'
_cell_volume   205.77023426
_cell_formula_units_Z   1
loop_
 _symmetry_equiv_pos_site_id
 _symmetry_equiv_pos_as_xyz
  1  'x, y, z'
loop_
 _atom_site_type_symbol
 _atom_site_label
 _atom_site_symmetry_multiplicity
 _atom_site_fract_x
 _atom_site_fract_y
 _atom_site_fract_z
 _atom_site_occupancy
  Tm  Tm0  1  0.305733  0.247543  0.500000  1
  Tm  Tm1  1  0.734798  0.033837  0.500000  1
  Tm  Tm2  1  0.948043  0.714097  0.500000  1
  Zr  Zr3  1  0.094380  0.426684  0.000000  1
  In  In4  1  0.585375  0.653590  0.000000  1
  In  In5  1  0.327116  0.916437  0.000000  1
  In  In6  1  0.678440  0.335060  0.000000  1
  Ir  Ir7  1  0.322775  0.646779  0.500000  1
  Ir  Ir8  1  0.003339  0.025973  0.000000  1
