# generated using pymatgen
data_RbBe3FeF9
_symmetry_space_group_name_H-M   'P 1'
_cell_length_a   6.84109400
_cell_length_b   6.84109383
_cell_length_c   9.84701300
_cell_angle_alpha   90.00000000
_cell_angle_beta   90.00000000
_cell_angle_gamma   120.00000081
_symmetry_Int_Tables_number   1
_chemical_formula_structural   RbBe3FeF9
_chemical_formula_sum   'Rb2 Be6 Fe2 F18'
_cell_volume   399.10415075
_cell_formula_units_Z   2
loop_
 _symmetry_equiv_pos_site_id
 _symmetry_equiv_pos_as_xyz
  1  'x, y, z'
loop_
 _atom_site_type_symbol
 _atom_site_label
 _atom_site_symmetry_multiplicity
 _atom_site_fract_x
 _atom_site_fract_y
 _atom_site_fract_z
 _atom_site_occupancy
  Rb  Rb0  1  0.333333  0.666667  0.500000  1
  Rb  Rb1  1  0.333333  0.666667  0.000000  1
  Be  Be2  1  0.875955  0.269019  0.250000  1
  Be  Be3  1  0.875955  0.606935  0.750000  1
  Be  Be4  1  0.393065  0.269019  0.750000  1
  Be  Be5  1  0.730981  0.124045  0.750000  1
  Be  Be6  1  0.730981  0.606935  0.250000  1
  Be  Be7  1  0.393065  0.124045  0.250000  1
  Fe  Fe8  1  0.000000  0.000000  0.500000  1
  Fe  Fe9  1  0.000000  0.000000  0.000000  1
  F  F10  1  0.751291  0.008942  0.620017  1
  F  F11  1  0.257651  0.248709  0.620017  1
  F  F12  1  0.991058  0.742349  0.620017  1
  F  F13  1  0.991058  0.248709  0.379983  1
  F  F14  1  0.904504  0.516804  0.250000  1
  F  F15  1  0.612300  0.095496  0.250000  1
  F  F16  1  0.483196  0.387700  0.250000  1
  F  F17  1  0.483196  0.095496  0.750000  1
  F  F18  1  0.612300  0.516804  0.750000  1
  F  F19  1  0.904504  0.387700  0.750000  1
  F  F20  1  0.991058  0.248709  0.120017  1
  F  F21  1  0.257651  0.008942  0.379983  1
  F  F22  1  0.751291  0.742349  0.379983  1
  F  F23  1  0.751291  0.742349  0.120017  1
  F  F24  1  0.257651  0.008942  0.120017  1
  F  F25  1  0.751291  0.008942  0.879983  1
  F  F26  1  0.257651  0.248709  0.879983  1
  F  F27  1  0.991058  0.742349  0.879983  1
