# generated using pymatgen
data_LaSm3(B4W)4
_symmetry_space_group_name_H-M   'P 1'
_cell_length_a   6.11585849
_cell_length_b   11.83257448
_cell_length_c   3.69378000
_cell_angle_alpha   90.00000000
_cell_angle_beta   90.00000000
_cell_angle_gamma   90.11177770
_symmetry_Int_Tables_number   1
_chemical_formula_structural   LaSm3(B4W)4
_chemical_formula_sum   'La1 Sm3 B16 W4'
_cell_volume   267.30487155
_cell_formula_units_Z   1
loop_
 _symmetry_equiv_pos_site_id
 _symmetry_equiv_pos_as_xyz
  1  'x, y, z'
loop_
 _atom_site_type_symbol
 _atom_site_label
 _atom_site_symmetry_multiplicity
 _atom_site_fract_x
 _atom_site_fract_y
 _atom_site_fract_z
 _atom_site_occupancy
  La  La0  1  0.874728  0.849194  0.000000  1
  Sm  Sm1  1  0.625342  0.349835  0.000000  1
  Sm  Sm2  1  0.374699  0.649195  0.000000  1
  Sm  Sm3  1  0.125629  0.150831  0.000000  1
  B  B4  1  0.783410  0.186264  0.500000  1
  B  B5  1  0.219577  0.814620  0.500000  1
  B  B6  1  0.283620  0.314659  0.500000  1
  B  B7  1  0.716533  0.683110  0.500000  1
  B  B8  1  0.862824  0.034139  0.500000  1
  B  B9  1  0.137617  0.969099  0.500000  1
  B  B10  1  0.363930  0.467311  0.500000  1
  B  B11  1  0.635798  0.531126  0.500000  1
  B  B12  1  0.887498  0.452698  0.500000  1
  B  B13  1  0.113166  0.545404  0.500000  1
  B  B14  1  0.386930  0.047804  0.500000  1
  B  B15  1  0.610534  0.955316  0.500000  1
  B  B16  1  0.975518  0.308165  0.500000  1
  B  B17  1  0.025672  0.689215  0.500000  1
  B  B18  1  0.475491  0.192622  0.500000  1
  B  B19  1  0.522803  0.808818  0.500000  1
  W  W20  1  0.628142  0.085124  0.000000  1
  W  W21  1  0.370272  0.917281  0.000000  1
  W  W22  1  0.129151  0.415672  0.000000  1
  W  W23  1  0.871115  0.582499  0.000000  1
