# generated using pymatgen
data_Dy10Tl7InNiRh3
_symmetry_space_group_name_H-M   'P 1'
_cell_length_a   3.62517700
_cell_length_b   8.12925914
_cell_length_c   18.35272095
_cell_angle_alpha   90.00792856
_cell_angle_beta   90.00000000
_cell_angle_gamma   90.00000000
_symmetry_Int_Tables_number   1
_chemical_formula_structural   Dy10Tl7InNiRh3
_chemical_formula_sum   'Dy10 Tl7 In1 Ni1 Rh3'
_cell_volume   540.85474090
_cell_formula_units_Z   1
loop_
 _symmetry_equiv_pos_site_id
 _symmetry_equiv_pos_as_xyz
  1  'x, y, z'
loop_
 _atom_site_type_symbol
 _atom_site_label
 _atom_site_symmetry_multiplicity
 _atom_site_fract_x
 _atom_site_fract_y
 _atom_site_fract_z
 _atom_site_occupancy
  Dy  Dy0  1  0.000000  0.116006  0.409912  1
  Dy  Dy1  1  0.000000  0.883889  0.589375  1
  Dy  Dy2  1  0.000000  0.385673  0.909611  1
  Dy  Dy3  1  0.000000  0.613775  0.092920  1
  Dy  Dy4  1  0.000000  0.243328  0.220713  1
  Dy  Dy5  1  0.000000  0.754395  0.779264  1
  Dy  Dy6  1  0.000000  0.253474  0.720389  1
  Dy  Dy7  1  0.000000  0.748861  0.279317  1
  Dy  Dy8  1  0.000000  0.000973  0.000778  1
  Dy  Dy9  1  0.000000  0.501518  0.498780  1
  Tl  Tl10  1  0.500000  0.427190  0.347628  1
  Tl  Tl11  1  0.500000  0.574376  0.649237  1
  Tl  Tl12  1  0.500000  0.074706  0.850636  1
  Tl  Tl13  1  0.500000  0.923798  0.149980  1
  Tl  Tl14  1  0.500000  0.296281  0.067128  1
  Tl  Tl15  1  0.500000  0.705298  0.935846  1
  Tl  Tl16  1  0.500000  0.205229  0.564638  1
  In  In17  1  0.500000  0.795396  0.432109  1
  Ni  Ni18  1  0.500000  0.521294  0.196647  1
  Rh  Rh19  1  0.500000  0.018690  0.305486  1
  Rh  Rh20  1  0.500000  0.977896  0.695240  1
  Rh  Rh21  1  0.500000  0.477953  0.804367  1
