# generated using pymatgen
data_U3Al2ZnIr2Pt
_symmetry_space_group_name_H-M   'P 1'
_cell_length_a   6.92080853
_cell_length_b   6.92081061
_cell_length_c   4.10261200
_cell_angle_alpha   90.00000000
_cell_angle_beta   90.00000000
_cell_angle_gamma   119.43074834
_symmetry_Int_Tables_number   1
_chemical_formula_structural   U3Al2ZnIr2Pt
_chemical_formula_sum   'U3 Al2 Zn1 Ir2 Pt1'
_cell_volume   171.14632865
_cell_formula_units_Z   1
loop_
 _symmetry_equiv_pos_site_id
 _symmetry_equiv_pos_as_xyz
  1  'x, y, z'
loop_
 _atom_site_type_symbol
 _atom_site_label
 _atom_site_symmetry_multiplicity
 _atom_site_fract_x
 _atom_site_fract_y
 _atom_site_fract_z
 _atom_site_occupancy
  U  U0  1  0.432799  0.432799  0.500000  1
  U  U1  1  0.575034  0.996798  0.500000  1
  U  U2  1  0.996798  0.575034  0.500000  1
  Al  Al3  1  0.237119  0.999061  0.000000  1
  Al  Al4  1  0.999061  0.237119  0.000000  1
  Zn  Zn5  1  0.761138  0.761138  0.000000  1
  Ir  Ir6  1  0.662405  0.322379  0.000000  1
  Ir  Ir7  1  0.322379  0.662405  0.000000  1
  Pt  Pt8  1  0.013266  0.013266  0.500000  1
