# generated using pymatgen
data_Li3Tm4P12Ir17
_symmetry_space_group_name_H-M   'P 1'
_cell_length_a   3.99744300
_cell_length_b   10.78117654
_cell_length_c   12.65063500
_cell_angle_alpha   89.60090985
_cell_angle_beta   90.00000000
_cell_angle_gamma   90.00000000
_symmetry_Int_Tables_number   1
_chemical_formula_structural   Li3Tm4P12Ir17
_chemical_formula_sum   'Li3 Tm4 P12 Ir17'
_cell_volume   545.19294500
_cell_formula_units_Z   1
loop_
 _symmetry_equiv_pos_site_id
 _symmetry_equiv_pos_as_xyz
  1  'x, y, z'
loop_
 _atom_site_type_symbol
 _atom_site_label
 _atom_site_symmetry_multiplicity
 _atom_site_fract_x
 _atom_site_fract_y
 _atom_site_fract_z
 _atom_site_occupancy
  Li  Li0  1  0.250000  0.788143  0.493420  1
  Li  Li1  1  0.750000  0.207064  0.506230  1
  Li  Li2  1  0.750000  0.292970  0.008229  1
  Tm  Tm3  1  0.250000  0.926955  0.202852  1
  Tm  Tm4  1  0.750000  0.078698  0.795318  1
  Tm  Tm5  1  0.750000  0.421199  0.294525  1
  Tm  Tm6  1  0.250000  0.574612  0.698974  1
  P  P7  1  0.250000  0.071008  0.617847  1
  P  P8  1  0.750000  0.924718  0.385329  1
  P  P9  1  0.750000  0.567533  0.879830  1
  P  P10  1  0.250000  0.424639  0.115214  1
  P  P11  1  0.250000  0.238188  0.360286  1
  P  P12  1  0.750000  0.757705  0.641027  1
  P  P13  1  0.750000  0.742435  0.138701  1
  P  P14  1  0.250000  0.260596  0.860767  1
  P  P15  1  0.250000  0.905962  0.889078  1
  P  P16  1  0.750000  0.106392  0.111348  1
  P  P17  1  0.750000  0.394372  0.606574  1
  P  P18  1  0.250000  0.600264  0.390410  1
  Ir  Ir19  1  0.250000  0.731433  0.995101  1
  Ir  Ir20  1  0.250000  0.092318  0.975689  1
  Ir  Ir21  1  0.750000  0.912723  0.026982  1
  Ir  Ir22  1  0.750000  0.592161  0.525207  1
  Ir  Ir23  1  0.250000  0.405198  0.474283  1
  Ir  Ir24  1  0.250000  0.268067  0.674942  1
  Ir  Ir25  1  0.750000  0.730320  0.322198  1
  Ir  Ir26  1  0.750000  0.764643  0.828625  1
  Ir  Ir27  1  0.250000  0.227717  0.174434  1
  Ir  Ir28  1  0.250000  0.610926  0.205203  1
  Ir  Ir29  1  0.750000  0.379659  0.794940  1
  Ir  Ir30  1  0.750000  0.116571  0.298465  1
  Ir  Ir31  1  0.250000  0.878278  0.708204  1
  Ir  Ir32  1  0.250000  0.036686  0.434122  1
  Ir  Ir33  1  0.750000  0.958079  0.570539  1
  Ir  Ir34  1  0.750000  0.548208  0.064219  1
  Ir  Ir35  1  0.250000  0.463560  0.930889  1
