# generated using pymatgen
data_Tb2Zn(Co2B)3
_symmetry_space_group_name_H-M   'P 1'
_cell_length_a   5.09097100
_cell_length_b   5.09479591
_cell_length_c   12.64152400
_cell_angle_alpha   90.00000000
_cell_angle_beta   89.99997749
_cell_angle_gamma   119.94069397
_symmetry_Int_Tables_number   1
_chemical_formula_structural   Tb2Zn(Co2B)3
_chemical_formula_sum   'Tb4 Zn2 Co12 B6'
_cell_volume   284.12974904
_cell_formula_units_Z   2
loop_
 _symmetry_equiv_pos_site_id
 _symmetry_equiv_pos_as_xyz
  1  'x, y, z'
loop_
 _atom_site_type_symbol
 _atom_site_label
 _atom_site_symmetry_multiplicity
 _atom_site_fract_x
 _atom_site_fract_y
 _atom_site_fract_z
 _atom_site_occupancy
  Tb  Tb0  1  0.000000  0.000000  0.260722  1
  Tb  Tb1  1  0.000000  0.000000  0.500089  1
  Tb  Tb2  1  0.000000  0.000000  0.999944  1
  Tb  Tb3  1  0.000000  0.000000  0.739317  1
  Zn  Zn4  1  0.333358  0.666686  0.999943  1
  Zn  Zn5  1  0.666642  0.333314  0.999943  1
  Co  Co6  1  0.500000  0.000001  0.613715  1
  Co  Co7  1  0.500000  0.000000  0.838181  1
  Co  Co8  1  0.500000  0.500000  0.838218  1
  Co  Co9  1  0.500000  0.500000  0.386339  1
  Co  Co10  1  0.000000  0.500000  0.613681  1
  Co  Co11  1  0.000000  0.500000  0.161779  1
  Co  Co12  1  0.000000  0.500000  0.838192  1
  Co  Co13  1  0.500000  0.500000  0.161759  1
  Co  Co14  1  0.500000  0.000000  0.386354  1
  Co  Co15  1  0.500000  0.000000  0.161746  1
  Co  Co16  1  0.500000  0.500000  0.613706  1
  Co  Co17  1  0.000000  0.500000  0.386354  1
  B  B18  1  0.666768  0.333554  0.730337  1
  B  B19  1  0.333232  0.666446  0.730337  1
  B  B20  1  0.333392  0.666546  0.269622  1
  B  B21  1  0.666632  0.333400  0.500050  1
  B  B22  1  0.666607  0.333454  0.269622  1
  B  B23  1  0.333368  0.666599  0.500050  1
