# generated using pymatgen
data_Dy4Re2Ru5W
_symmetry_space_group_name_H-M   'P 1'
_cell_length_a   5.52403971
_cell_length_b   5.13830491
_cell_length_c   9.11821400
_cell_angle_alpha   90.00000000
_cell_angle_beta   90.00000000
_cell_angle_gamma   121.03293487
_symmetry_Int_Tables_number   1
_chemical_formula_structural   Dy4Re2Ru5W
_chemical_formula_sum   'Dy4 Re2 Ru5 W1'
_cell_volume   221.76956385
_cell_formula_units_Z   1
loop_
 _symmetry_equiv_pos_site_id
 _symmetry_equiv_pos_as_xyz
  1  'x, y, z'
loop_
 _atom_site_type_symbol
 _atom_site_label
 _atom_site_symmetry_multiplicity
 _atom_site_fract_x
 _atom_site_fract_y
 _atom_site_fract_z
 _atom_site_occupancy
  Dy  Dy0  1  0.672995  0.343747  0.564610  1
  Dy  Dy1  1  0.329601  0.664810  0.434335  1
  Dy  Dy2  1  0.329601  0.664810  0.065665  1
  Dy  Dy3  1  0.672995  0.343747  0.935390  1
  Re  Re4  1  0.844642  0.671102  0.250000  1
  Re  Re5  1  0.835443  0.175122  0.250000  1
  Ru  Ru6  1  0.990963  0.007480  0.499648  1
  Ru  Ru7  1  0.990963  0.007480  0.000352  1
  Ru  Ru8  1  0.171243  0.814490  0.750000  1
  Ru  Ru9  1  0.648197  0.817593  0.750000  1
  Ru  Ru10  1  0.353797  0.178009  0.250000  1
  W  W11  1  0.159561  0.311611  0.750000  1
