# generated using pymatgen
data_Pr3Si4(AsPd10)2
_symmetry_space_group_name_H-M   'P 1'
_cell_length_a   8.78594997
_cell_length_b   8.87983566
_cell_length_c   8.87988472
_cell_angle_alpha   59.30236097
_cell_angle_beta   60.34894058
_cell_angle_gamma   60.34947553
_symmetry_Int_Tables_number   1
_chemical_formula_structural   Pr3Si4(AsPd10)2
_chemical_formula_sum   'Pr3 Si4 As2 Pd20'
_cell_volume   489.77041149
_cell_formula_units_Z   1
loop_
 _symmetry_equiv_pos_site_id
 _symmetry_equiv_pos_as_xyz
  1  'x, y, z'
loop_
 _atom_site_type_symbol
 _atom_site_label
 _atom_site_symmetry_multiplicity
 _atom_site_fract_x
 _atom_site_fract_y
 _atom_site_fract_z
 _atom_site_occupancy
  Pr  Pr0  1  0.250000  0.250000  0.250000  1
  Pr  Pr1  1  0.750000  0.750000  0.750000  1
  Pr  Pr2  1  0.000000  0.000000  0.000000  1
  Si  Si3  1  0.267663  0.732338  0.267662  1
  Si  Si4  1  0.732337  0.267662  0.732338  1
  Si  Si5  1  0.267664  0.267663  0.732337  1
  Si  Si6  1  0.732336  0.732337  0.267663  1
  As  As7  1  0.736687  0.263313  0.263313  1
  As  As8  1  0.263313  0.736687  0.736687  1
  Pd  Pd9  1  0.347319  0.000001  0.999999  1
  Pd  Pd10  1  0.652681  0.999999  0.000001  1
  Pd  Pd11  1  0.000001  0.347318  0.652682  1
  Pd  Pd12  1  0.999999  0.652682  0.347318  1
  Pd  Pd13  1  0.009583  0.348469  0.990416  1
  Pd  Pd14  1  0.651533  0.990416  0.348468  1
  Pd  Pd15  1  0.990417  0.651531  0.009584  1
  Pd  Pd16  1  0.348467  0.009584  0.651532  1
  Pd  Pd17  1  0.009581  0.990417  0.348468  1
  Pd  Pd18  1  0.990419  0.009583  0.651532  1
  Pd  Pd19  1  0.651533  0.348468  0.990417  1
  Pd  Pd20  1  0.348467  0.651532  0.009583  1
  Pd  Pd21  1  0.381005  0.387885  0.387885  1
  Pd  Pd22  1  0.618995  0.612115  0.612115  1
  Pd  Pd23  1  0.387885  0.381005  0.843225  1
  Pd  Pd24  1  0.387885  0.843225  0.381005  1
  Pd  Pd25  1  0.612115  0.618995  0.156775  1
  Pd  Pd26  1  0.612115  0.156775  0.618995  1
  Pd  Pd27  1  0.843225  0.387885  0.387885  1
  Pd  Pd28  1  0.156775  0.612115  0.612115  1
