# generated using pymatgen
data_Tb3ThCdCo
_symmetry_space_group_name_H-M   'P 1'
_cell_length_a   9.59373096
_cell_length_b   9.59373123
_cell_length_c   9.59373200
_cell_angle_alpha   60.00000424
_cell_angle_beta   60.00000329
_cell_angle_gamma   60.00000115
_symmetry_Int_Tables_number   1
_chemical_formula_structural   Tb3ThCdCo
_chemical_formula_sum   'Tb12 Th4 Cd4 Co4'
_cell_volume   624.37814826
_cell_formula_units_Z   4
loop_
 _symmetry_equiv_pos_site_id
 _symmetry_equiv_pos_as_xyz
  1  'x, y, z'
loop_
 _atom_site_type_symbol
 _atom_site_label
 _atom_site_symmetry_multiplicity
 _atom_site_fract_x
 _atom_site_fract_y
 _atom_site_fract_z
 _atom_site_occupancy
  Tb  Tb0  1  0.062408  0.437592  0.437592  1
  Tb  Tb1  1  0.437592  0.062408  0.062408  1
  Tb  Tb2  1  0.437592  0.062408  0.437592  1
  Tb  Tb3  1  0.062408  0.437592  0.062408  1
  Tb  Tb4  1  0.437592  0.437592  0.062408  1
  Tb  Tb5  1  0.062408  0.062408  0.437592  1
  Tb  Tb6  1  0.186538  0.813462  0.813462  1
  Tb  Tb7  1  0.813462  0.186538  0.186538  1
  Tb  Tb8  1  0.813462  0.186538  0.813462  1
  Tb  Tb9  1  0.186538  0.813462  0.186538  1
  Tb  Tb10  1  0.813462  0.813462  0.186538  1
  Tb  Tb11  1  0.186538  0.186538  0.813462  1
  Th  Th12  1  0.595674  0.595674  0.595674  1
  Th  Th13  1  0.595674  0.595674  0.212977  1
  Th  Th14  1  0.595674  0.212977  0.595674  1
  Th  Th15  1  0.212977  0.595674  0.595674  1
  Cd  Cd16  1  0.831387  0.831387  0.831387  1
  Cd  Cd17  1  0.831387  0.831387  0.505839  1
  Cd  Cd18  1  0.831387  0.505839  0.831387  1
  Cd  Cd19  1  0.505839  0.831387  0.831387  1
  Co  Co20  1  0.395297  0.395297  0.395297  1
  Co  Co21  1  0.395297  0.395297  0.814111  1
  Co  Co22  1  0.395297  0.814111  0.395297  1
  Co  Co23  1  0.814111  0.395297  0.395297  1
