# generated using pymatgen
data_ErTm2GaSn2Pt3
_symmetry_space_group_name_H-M   'P 1'
_cell_length_a   7.57390655
_cell_length_b   7.50105407
_cell_length_c   3.78599900
_cell_angle_alpha   90.00000000
_cell_angle_beta   90.00000000
_cell_angle_gamma   119.68232118
_symmetry_Int_Tables_number   1
_chemical_formula_structural   ErTm2GaSn2Pt3
_chemical_formula_sum   'Er1 Tm2 Ga1 Sn2 Pt3'
_cell_volume   186.86790710
_cell_formula_units_Z   1
loop_
 _symmetry_equiv_pos_site_id
 _symmetry_equiv_pos_as_xyz
  1  'x, y, z'
loop_
 _atom_site_type_symbol
 _atom_site_label
 _atom_site_symmetry_multiplicity
 _atom_site_fract_x
 _atom_site_fract_y
 _atom_site_fract_z
 _atom_site_occupancy
  Er  Er0  1  0.000000  0.415047  0.000000  1
  Tm  Tm1  1  0.607982  0.598872  0.000000  1
  Tm  Tm2  1  0.392018  0.990891  0.000000  1
  Ga  Ga3  1  0.000000  0.735827  0.500000  1
  Sn  Sn4  1  0.262057  0.261714  0.500000  1
  Sn  Sn5  1  0.737943  0.999656  0.500000  1
  Pt  Pt6  1  0.328453  0.669858  0.500000  1
  Pt  Pt7  1  0.671547  0.341402  0.500000  1
  Pt  Pt8  1  0.000000  0.986732  0.000000  1
