# generated using pymatgen
data_Ho3GaPt3Au2
_symmetry_space_group_name_H-M   'P 1'
_cell_length_a   7.50117358
_cell_length_b   7.40124171
_cell_length_c   3.80065600
_cell_angle_alpha   90.00000000
_cell_angle_beta   90.00000000
_cell_angle_gamma   119.56028549
_symmetry_Int_Tables_number   1
_chemical_formula_structural   Ho3GaPt3Au2
_chemical_formula_sum   'Ho3 Ga1 Pt3 Au2'
_cell_volume   183.53981579
_cell_formula_units_Z   1
loop_
 _symmetry_equiv_pos_site_id
 _symmetry_equiv_pos_as_xyz
  1  'x, y, z'
loop_
 _atom_site_type_symbol
 _atom_site_label
 _atom_site_symmetry_multiplicity
 _atom_site_fract_x
 _atom_site_fract_y
 _atom_site_fract_z
 _atom_site_occupancy
  Ho  Ho0  1  0.402938  0.392698  0.500000  1
  Ho  Ho1  1  0.597062  0.989760  0.500000  1
  Ho  Ho2  1  0.000000  0.617797  0.500000  1
  Ga  Ga3  1  0.000000  0.263153  0.000000  1
  Pt  Pt4  1  0.686931  0.327694  0.000000  1
  Pt  Pt5  1  0.313069  0.640765  0.000000  1
  Pt  Pt6  1  0.000000  0.036231  0.500000  1
  Au  Au7  1  0.731660  0.731782  0.000000  1
  Au  Au8  1  0.268340  0.000121  0.000000  1
