# generated using pymatgen
data_Hf18Re8NiP
_symmetry_space_group_name_H-M   'P 1'
_cell_length_a   8.57398600
_cell_length_b   8.57398677
_cell_length_c   8.57749300
_cell_angle_alpha   90.00000000
_cell_angle_beta   90.00000000
_cell_angle_gamma   120.00000474
_symmetry_Int_Tables_number   1
_chemical_formula_structural   Hf18Re8NiP
_chemical_formula_sum   'Hf18 Re8 Ni1 P1'
_cell_volume   546.08036642
_cell_formula_units_Z   1
loop_
 _symmetry_equiv_pos_site_id
 _symmetry_equiv_pos_as_xyz
  1  'x, y, z'
loop_
 _atom_site_type_symbol
 _atom_site_label
 _atom_site_symmetry_multiplicity
 _atom_site_fract_x
 _atom_site_fract_y
 _atom_site_fract_z
 _atom_site_occupancy
  Hf  Hf0  1  0.195243  0.804757  0.449411  1
  Hf  Hf1  1  0.195243  0.390485  0.449411  1
  Hf  Hf2  1  0.609515  0.804757  0.449411  1
  Hf  Hf3  1  0.802005  0.197995  0.556790  1
  Hf  Hf4  1  0.802005  0.604011  0.556790  1
  Hf  Hf5  1  0.395989  0.197995  0.556790  1
  Hf  Hf6  1  0.802005  0.197995  0.943210  1
  Hf  Hf7  1  0.802005  0.604011  0.943210  1
  Hf  Hf8  1  0.395989  0.197995  0.943210  1
  Hf  Hf9  1  0.195243  0.804757  0.050589  1
  Hf  Hf10  1  0.195243  0.390485  0.050589  1
  Hf  Hf11  1  0.609515  0.804757  0.050589  1
  Hf  Hf12  1  0.541098  0.458902  0.250000  1
  Hf  Hf13  1  0.541098  0.082196  0.250000  1
  Hf  Hf14  1  0.917804  0.458902  0.250000  1
  Hf  Hf15  1  0.458182  0.541818  0.750000  1
  Hf  Hf16  1  0.458182  0.916364  0.750000  1
  Hf  Hf17  1  0.083636  0.541818  0.750000  1
  Re  Re18  1  0.889581  0.110419  0.250000  1
  Re  Re19  1  0.889581  0.779161  0.250000  1
  Re  Re20  1  0.220839  0.110419  0.250000  1
  Re  Re21  1  0.111065  0.888935  0.750000  1
  Re  Re22  1  0.111065  0.222130  0.750000  1
  Re  Re23  1  0.777870  0.888935  0.750000  1
  Re  Re24  1  0.000000  0.000000  0.501121  1
  Re  Re25  1  0.000000  0.000000  0.998879  1
  Ni  Ni26  1  0.666667  0.333333  0.750000  1
  P  P27  1  0.333333  0.666667  0.250000  1
