# generated using pymatgen
data_V13Au3
_symmetry_space_group_name_H-M   'P 1'
_cell_length_a   4.85191000
_cell_length_b   4.86078200
_cell_length_c   9.69610100
_cell_angle_alpha   90.00000000
_cell_angle_beta   90.00000000
_cell_angle_gamma   90.00000000
_symmetry_Int_Tables_number   1
_chemical_formula_structural   V13Au3
_chemical_formula_sum   'V13 Au3'
_cell_volume   228.67359058
_cell_formula_units_Z   1
loop_
 _symmetry_equiv_pos_site_id
 _symmetry_equiv_pos_as_xyz
  1  'x, y, z'
loop_
 _atom_site_type_symbol
 _atom_site_label
 _atom_site_symmetry_multiplicity
 _atom_site_fract_x
 _atom_site_fract_y
 _atom_site_fract_z
 _atom_site_occupancy
  V  V0  1  0.500000  0.500000  0.500000  1
  V  V1  1  0.500000  0.000000  0.621645  1
  V  V2  1  0.500000  0.000000  0.123772  1
  V  V3  1  0.743406  0.500000  0.258808  1
  V  V4  1  0.743406  0.500000  0.741192  1
  V  V5  1  0.000000  0.741235  0.500000  1
  V  V6  1  0.000000  0.754851  0.000000  1
  V  V7  1  0.500000  0.000000  0.378355  1
  V  V8  1  0.500000  0.000000  0.876228  1
  V  V9  1  0.256594  0.500000  0.258808  1
  V  V10  1  0.256594  0.500000  0.741192  1
  V  V11  1  0.000000  0.258765  0.500000  1
  V  V12  1  0.000000  0.245149  0.000000  1
  Au  Au13  1  0.500000  0.500000  0.000000  1
  Au  Au14  1  0.000000  0.000000  0.250981  1
  Au  Au15  1  0.000000  0.000000  0.749019  1
