# generated using pymatgen
data_Fe6MoW5C
_symmetry_space_group_name_H-M   'P 1'
_cell_length_a   7.71403299
_cell_length_b   7.70480630
_cell_length_c   7.71403299
_cell_angle_alpha   119.96043665
_cell_angle_beta   90.06442926
_cell_angle_gamma   119.96043665
_symmetry_Int_Tables_number   1
_chemical_formula_structural   Fe6MoW5C
_chemical_formula_sum   'Fe12 Mo2 W10 C2'
_cell_volume   324.40280321
_cell_formula_units_Z   2
loop_
 _symmetry_equiv_pos_site_id
 _symmetry_equiv_pos_as_xyz
  1  'x, y, z'
loop_
 _atom_site_type_symbol
 _atom_site_label
 _atom_site_symmetry_multiplicity
 _atom_site_fract_x
 _atom_site_fract_y
 _atom_site_fract_z
 _atom_site_occupancy
  Fe  Fe0  1  0.375000  0.749999  0.124999  1
  Fe  Fe1  1  0.578682  0.157488  0.421316  1
  Fe  Fe2  1  0.263880  0.842686  0.421493  1
  Fe  Fe3  1  0.578682  0.842510  0.421316  1
  Fe  Fe4  1  0.171494  0.342688  0.513881  1
  Fe  Fe5  1  0.375000  0.250001  0.625000  1
  Fe  Fe6  1  0.875001  0.250001  0.625000  1
  Fe  Fe7  1  0.375000  0.749999  0.625000  1
  Fe  Fe8  1  0.578506  0.157312  0.736119  1
  Fe  Fe9  1  0.171317  0.342512  0.828683  1
  Fe  Fe10  1  0.171317  0.657488  0.828683  1
  Fe  Fe11  1  0.486119  0.657312  0.828506  1
  Mo  Mo12  1  0.947492  0.500000  0.052508  1
  Mo  Mo13  1  0.802508  0.000000  0.197492  1
  W  W14  1  0.552142  0.500044  0.052305  1
  W  W15  1  0.552142  0.104403  0.052305  1
  W  W16  1  0.197858  0.999956  0.197695  1
  W  W17  1  0.197858  0.395597  0.197695  1
  W  W18  1  0.551775  0.500000  0.448225  1
  W  W19  1  0.947695  0.499956  0.447858  1
  W  W20  1  0.947695  0.895597  0.447858  1
  W  W21  1  0.198225  0.000000  0.801775  1
  W  W22  1  0.802305  0.604403  0.802142  1
  W  W23  1  0.802305  0.000044  0.802142  1
  C  C24  1  0.000142  0.000000  0.999858  1
  C  C25  1  0.749858  0.500000  0.250142  1
