# generated using pymatgen
data_Ta7Ti2Si6Mo
_symmetry_space_group_name_H-M   'P 1'
_cell_length_a   7.52105995
_cell_length_b   7.48252300
_cell_length_c   7.50581762
_cell_angle_alpha   128.59459967
_cell_angle_beta   128.73584900
_cell_angle_gamma   75.51021108
_symmetry_Int_Tables_number   1
_chemical_formula_structural   Ta7Ti2Si6Mo
_chemical_formula_sum   'Ta7 Ti2 Si6 Mo1'
_cell_volume   250.62758906
_cell_formula_units_Z   1
loop_
 _symmetry_equiv_pos_site_id
 _symmetry_equiv_pos_as_xyz
  1  'x, y, z'
loop_
 _atom_site_type_symbol
 _atom_site_label
 _atom_site_symmetry_multiplicity
 _atom_site_fract_x
 _atom_site_fract_y
 _atom_site_fract_z
 _atom_site_occupancy
  Ta  Ta0  1  0.685898  0.512867  0.500000  1
  Ta  Ta1  1  0.515642  0.014241  0.830127  1
  Ta  Ta2  1  0.185515  0.684115  0.169873  1
  Ta  Ta3  1  0.985122  0.818055  0.500000  1
  Ta  Ta4  1  0.314482  0.485545  0.500000  1
  Ta  Ta5  1  0.481820  0.984155  0.168484  1
  Ta  Ta6  1  0.813335  0.315671  0.831516  1
  Ti  Ti7  1  0.999390  0.999290  0.000028  1
  Ti  Ti8  1  0.499362  0.499262  0.999972  1
  Si  Si9  1  0.751893  0.753677  0.002822  1
  Si  Si10  1  0.249071  0.250855  0.997178  1
  Si  Si11  1  0.366630  0.130990  0.500000  1
  Si  Si12  1  0.631427  0.868043  0.500000  1
  Si  Si13  1  0.869263  0.368251  0.238846  1
  Si  Si14  1  0.130417  0.629406  0.761154  1
  Mo  Mo15  1  0.020734  0.185579  0.500000  1
