# generated using pymatgen
data_Y2Tm14In6CoRh
_symmetry_space_group_name_H-M   'P 1'
_cell_length_a   10.28040600
_cell_length_b   10.28040621
_cell_length_c   6.99228800
_cell_angle_alpha   90.00000000
_cell_angle_beta   90.00000000
_cell_angle_gamma   119.99999932
_symmetry_Int_Tables_number   1
_chemical_formula_structural   Y2Tm14In6CoRh
_chemical_formula_sum   'Y2 Tm14 In6 Co1 Rh1'
_cell_volume   639.98601548
_cell_formula_units_Z   1
loop_
 _symmetry_equiv_pos_site_id
 _symmetry_equiv_pos_as_xyz
  1  'x, y, z'
loop_
 _atom_site_type_symbol
 _atom_site_label
 _atom_site_symmetry_multiplicity
 _atom_site_fract_x
 _atom_site_fract_y
 _atom_site_fract_z
 _atom_site_occupancy
  Y  Y0  1  0.000000  0.000000  0.494312  1
  Y  Y1  1  0.000000  0.000000  0.997558  1
  Tm  Tm2  1  0.467082  0.532918  0.480006  1
  Tm  Tm3  1  0.065835  0.532918  0.480006  1
  Tm  Tm4  1  0.467082  0.934165  0.480006  1
  Tm  Tm5  1  0.536007  0.463993  0.981923  1
  Tm  Tm6  1  0.927985  0.463993  0.981923  1
  Tm  Tm7  1  0.536007  0.072015  0.981923  1
  Tm  Tm8  1  0.820697  0.179303  0.275453  1
  Tm  Tm9  1  0.358607  0.179303  0.275453  1
  Tm  Tm10  1  0.820697  0.641393  0.275453  1
  Tm  Tm11  1  0.177040  0.822960  0.777138  1
  Tm  Tm12  1  0.645919  0.822960  0.777138  1
  Tm  Tm13  1  0.177040  0.354081  0.777138  1
  Tm  Tm14  1  0.333333  0.666667  0.100556  1
  Tm  Tm15  1  0.666667  0.333333  0.589896  1
  In  In16  1  0.162903  0.837097  0.235247  1
  In  In17  1  0.674193  0.837097  0.235247  1
  In  In18  1  0.162903  0.325807  0.235247  1
  In  In19  1  0.835992  0.164008  0.732703  1
  In  In20  1  0.328017  0.164008  0.732703  1
  In  In21  1  0.835992  0.671983  0.732703  1
  Co  Co22  1  0.666667  0.333333  0.207003  1
  Rh  Rh23  1  0.333333  0.666667  0.707816  1
