# generated using pymatgen
data_Ta3Co4ReB4
_symmetry_space_group_name_H-M   'P 1'
_cell_length_a   3.28823000
_cell_length_b   5.79350347
_cell_length_c   6.72875652
_cell_angle_alpha   89.39944293
_cell_angle_beta   90.00000000
_cell_angle_gamma   90.00000000
_symmetry_Int_Tables_number   1
_chemical_formula_structural   Ta3Co4ReB4
_chemical_formula_sum   'Ta3 Co4 Re1 B4'
_cell_volume   128.17827262
_cell_formula_units_Z   1
loop_
 _symmetry_equiv_pos_site_id
 _symmetry_equiv_pos_as_xyz
  1  'x, y, z'
loop_
 _atom_site_type_symbol
 _atom_site_label
 _atom_site_symmetry_multiplicity
 _atom_site_fract_x
 _atom_site_fract_y
 _atom_site_fract_z
 _atom_site_occupancy
  Ta  Ta0  1  0.250000  0.528414  0.678632  1
  Ta  Ta1  1  0.750000  0.472878  0.317419  1
  Ta  Ta2  1  0.250000  0.026206  0.824977  1
  Co  Co3  1  0.750000  0.858905  0.557888  1
  Co  Co4  1  0.250000  0.145924  0.442861  1
  Co  Co5  1  0.750000  0.352562  0.941654  1
  Co  Co6  1  0.250000  0.642160  0.057245  1
  Re  Re7  1  0.750000  0.973712  0.176847  1
  B  B8  1  0.250000  0.263350  0.126184  1
  B  B9  1  0.750000  0.726478  0.886912  1
  B  B10  1  0.250000  0.778535  0.369117  1
  B  B11  1  0.750000  0.230877  0.620265  1
