# generated using pymatgen
data_Ho2TcB8Os
_symmetry_space_group_name_H-M   'P 1'
_cell_length_a   3.57498900
_cell_length_b   5.95781521
_cell_length_c   11.52843071
_cell_angle_alpha   90.21202879
_cell_angle_beta   90.00000000
_cell_angle_gamma   90.00000000
_symmetry_Int_Tables_number   1
_chemical_formula_structural   Ho2TcB8Os
_chemical_formula_sum   'Ho4 Tc2 B16 Os2'
_cell_volume   245.54379212
_cell_formula_units_Z   2
loop_
 _symmetry_equiv_pos_site_id
 _symmetry_equiv_pos_as_xyz
  1  'x, y, z'
loop_
 _atom_site_type_symbol
 _atom_site_label
 _atom_site_symmetry_multiplicity
 _atom_site_fract_x
 _atom_site_fract_y
 _atom_site_fract_z
 _atom_site_occupancy
  Ho  Ho0  1  0.000000  0.628470  0.350645  1
  Ho  Ho1  1  0.000000  0.371530  0.649355  1
  Ho  Ho2  1  0.000000  0.127857  0.150201  1
  Ho  Ho3  1  0.000000  0.872143  0.849799  1
  Tc  Tc4  1  0.000000  0.632588  0.088702  1
  Tc  Tc5  1  0.000000  0.367412  0.911298  1
  B  B6  1  0.500000  0.788796  0.185296  1
  B  B7  1  0.500000  0.211204  0.814704  1
  B  B8  1  0.500000  0.289077  0.314373  1
  B  B9  1  0.500000  0.710923  0.685627  1
  B  B10  1  0.500000  0.864974  0.031303  1
  B  B11  1  0.500000  0.135026  0.968697  1
  B  B12  1  0.500000  0.363835  0.469818  1
  B  B13  1  0.500000  0.636165  0.530182  1
  B  B14  1  0.500000  0.887118  0.452939  1
  B  B15  1  0.500000  0.112882  0.547061  1
  B  B16  1  0.500000  0.387091  0.046969  1
  B  B17  1  0.500000  0.612909  0.953031  1
  B  B18  1  0.500000  0.974631  0.308352  1
  B  B19  1  0.500000  0.025369  0.691648  1
  B  B20  1  0.500000  0.477475  0.192426  1
  B  B21  1  0.500000  0.522525  0.807574  1
  Os  Os22  1  0.000000  0.141743  0.407103  1
  Os  Os23  1  0.000000  0.858257  0.592897  1
