# generated using pymatgen
data_Ti3NbB4(PRu5)2
_symmetry_space_group_name_H-M   'P 1'
_cell_length_a   9.17471054
_cell_length_b   9.17471054
_cell_length_c   2.95102300
_cell_angle_alpha   90.00000000
_cell_angle_beta   90.00000000
_cell_angle_gamma   89.81824636
_symmetry_Int_Tables_number   1
_chemical_formula_structural   Ti3NbB4(PRu5)2
_chemical_formula_sum   'Ti3 Nb1 B4 P2 Ru10'
_cell_volume   248.40203635
_cell_formula_units_Z   1
loop_
 _symmetry_equiv_pos_site_id
 _symmetry_equiv_pos_as_xyz
  1  'x, y, z'
loop_
 _atom_site_type_symbol
 _atom_site_label
 _atom_site_symmetry_multiplicity
 _atom_site_fract_x
 _atom_site_fract_y
 _atom_site_fract_z
 _atom_site_occupancy
  Ti  Ti0  1  0.825582  0.675081  0.000000  1
  Ti  Ti1  1  0.175081  0.325582  0.000000  1
  Ti  Ti2  1  0.323196  0.823196  0.000000  1
  Nb  Nb3  1  0.674826  0.174826  0.000000  1
  B  B4  1  0.625305  0.873574  0.000000  1
  B  B5  1  0.373574  0.125305  0.000000  1
  B  B6  1  0.125148  0.625148  0.000000  1
  B  B7  1  0.876153  0.376153  0.000000  1
  P  P8  1  0.499472  0.501481  0.000000  1
  P  P9  1  0.001481  0.999472  0.000000  1
  Ru  Ru10  1  0.569306  0.707630  0.500000  1
  Ru  Ru11  1  0.431253  0.292303  0.500000  1
  Ru  Ru12  1  0.069237  0.792295  0.500000  1
  Ru  Ru13  1  0.933290  0.208292  0.500000  1
  Ru  Ru14  1  0.292295  0.569237  0.500000  1
  Ru  Ru15  1  0.708292  0.433290  0.500000  1
  Ru  Ru16  1  0.207630  0.069306  0.500000  1
  Ru  Ru17  1  0.792303  0.931253  0.500000  1
  Ru  Ru18  1  0.495993  0.995993  0.500000  1
  Ru  Ru19  1  0.000584  0.500584  0.500000  1
