# generated using pymatgen
data_TmLu3Al18(NiIr2)2
_symmetry_space_group_name_H-M   'P 1'
_cell_length_a   7.48024367
_cell_length_b   7.47901442
_cell_length_c   9.33073707
_cell_angle_alpha   89.80307337
_cell_angle_beta   89.81433538
_cell_angle_gamma   119.27869304
_symmetry_Int_Tables_number   1
_chemical_formula_structural   TmLu3Al18(NiIr2)2
_chemical_formula_sum   'Tm1 Lu3 Al18 Ni2 Ir4'
_cell_volume   455.31102483
_cell_formula_units_Z   1
loop_
 _symmetry_equiv_pos_site_id
 _symmetry_equiv_pos_as_xyz
  1  'x, y, z'
loop_
 _atom_site_type_symbol
 _atom_site_label
 _atom_site_symmetry_multiplicity
 _atom_site_fract_x
 _atom_site_fract_y
 _atom_site_fract_z
 _atom_site_occupancy
  Tm  Tm0  1  0.325902  0.004432  0.749580  1
  Lu  Lu1  1  0.995431  0.674235  0.250613  1
  Lu  Lu2  1  0.004373  0.325748  0.749417  1
  Lu  Lu3  1  0.674329  0.995531  0.250610  1
  Al  Al4  1  0.131038  0.131076  0.248591  1
  Al  Al5  1  0.868672  0.868829  0.751412  1
  Al  Al6  1  0.997277  0.337866  0.075082  1
  Al  Al7  1  0.002384  0.661833  0.925170  1
  Al  Al8  1  0.998758  0.662992  0.575869  1
  Al  Al9  1  0.336781  0.000999  0.423626  1
  Al  Al10  1  0.000981  0.336749  0.423897  1
  Al  Al11  1  0.663543  0.999011  0.575817  1
  Al  Al12  1  0.662474  0.002708  0.925206  1
  Al  Al13  1  0.337863  0.997274  0.075393  1
  Al  Al14  1  0.333122  0.333358  0.552454  1
  Al  Al15  1  0.666880  0.666897  0.447227  1
  Al  Al16  1  0.665444  0.665447  0.053509  1
  Al  Al17  1  0.334514  0.334808  0.946846  1
  Al  Al18  1  0.340647  0.553285  0.245961  1
  Al  Al19  1  0.659646  0.447134  0.753993  1
  Al  Al20  1  0.553299  0.340691  0.245984  1
  Al  Al21  1  0.446848  0.659120  0.753998  1
  Ni  Ni22  1  0.671906  0.328064  0.000014  1
  Ni  Ni23  1  0.328113  0.671931  0.999971  1
  Ir  Ir24  1  0.327878  0.672053  0.499896  1
  Ir  Ir25  1  0.672247  0.328007  0.499895  1
  Ir  Ir26  1  0.999829  0.999964  0.000139  1
  Ir  Ir27  1  0.999821  0.999959  0.499830  1
