# generated using pymatgen
data_Ho8Ta6Ti5Si16Rh
_symmetry_space_group_name_H-M   'P 1'
_cell_length_a   7.01971901
_cell_length_b   7.03234309
_cell_length_c   12.88276035
_cell_angle_alpha   90.13469375
_cell_angle_beta   89.83163349
_cell_angle_gamma   89.63352957
_symmetry_Int_Tables_number   1
_chemical_formula_structural   Ho8Ta6Ti5Si16Rh
_chemical_formula_sum   'Ho8 Ta6 Ti5 Si16 Rh1'
_cell_volume   635.94085821
_cell_formula_units_Z   1
loop_
 _symmetry_equiv_pos_site_id
 _symmetry_equiv_pos_as_xyz
  1  'x, y, z'
loop_
 _atom_site_type_symbol
 _atom_site_label
 _atom_site_symmetry_multiplicity
 _atom_site_fract_x
 _atom_site_fract_y
 _atom_site_fract_z
 _atom_site_occupancy
  Ho  Ho0  1  0.341775  0.001949  0.467341  1
  Ho  Ho1  1  0.496627  0.842961  0.718408  1
  Ho  Ho2  1  0.501593  0.157542  0.216137  1
  Ho  Ho3  1  0.842027  0.497068  0.281443  1
  Ho  Ho4  1  0.158162  0.501967  0.783875  1
  Ho  Ho5  1  0.657538  0.999106  0.969055  1
  Ho  Ho6  1  0.001980  0.341500  0.532038  1
  Ho  Ho7  1  0.998015  0.658624  0.031306  1
  Ta  Ta8  1  0.174420  0.826422  0.247731  1
  Ta  Ta9  1  0.826700  0.175191  0.751512  1
  Ta  Ta10  1  0.672256  0.670657  0.500177  1
  Ta  Ta11  1  0.146981  0.003221  0.874490  1
  Ta  Ta12  1  0.493577  0.655930  0.124775  1
  Ta  Ta13  1  0.507803  0.348544  0.627740  1
  Ti  Ti14  1  0.658021  0.493530  0.875978  1
  Ti  Ti15  1  0.348174  0.506807  0.373351  1
  Ti  Ti16  1  0.847686  0.991688  0.373676  1
  Ti  Ti17  1  0.004551  0.146227  0.124832  1
  Ti  Ti18  1  0.990859  0.848220  0.626408  1
  Si  Si19  1  0.202463  0.133985  0.682986  1
  Si  Si20  1  0.372086  0.703873  0.932467  1
  Si  Si21  1  0.632123  0.295801  0.432899  1
  Si  Si22  1  0.704388  0.368761  0.068029  1
  Si  Si23  1  0.295318  0.633951  0.566717  1
  Si  Si24  1  0.797364  0.866821  0.183142  1
  Si  Si25  1  0.133774  0.201737  0.315798  1
  Si  Si26  1  0.863355  0.796133  0.817760  1
  Si  Si27  1  0.289134  0.952597  0.061717  1
  Si  Si28  1  0.546386  0.793930  0.315109  1
  Si  Si29  1  0.448597  0.210389  0.818061  1
  Si  Si30  1  0.796023  0.548013  0.685637  1
  Si  Si31  1  0.208137  0.448344  0.183033  1
  Si  Si32  1  0.709345  0.045774  0.563384  1
  Si  Si33  1  0.952175  0.291929  0.938113  1
  Si  Si34  1  0.046743  0.707297  0.435272  1
  Rh  Rh35  1  0.333846  0.333511  0.999602  1
