# generated using pymatgen
data_Y12Ni4SnRu
_symmetry_space_group_name_H-M   'P 1'
_cell_length_a   8.38255770
_cell_length_b   8.38255132
_cell_length_c   8.38255700
_cell_angle_alpha   107.05752551
_cell_angle_beta   109.59349817
_cell_angle_gamma   111.79729844
_symmetry_Int_Tables_number   1
_chemical_formula_structural   Y12Ni4SnRu
_chemical_formula_sum   'Y12 Ni4 Sn1 Ru1'
_cell_volume   452.65128858
_cell_formula_units_Z   1
loop_
 _symmetry_equiv_pos_site_id
 _symmetry_equiv_pos_as_xyz
  1  'x, y, z'
loop_
 _atom_site_type_symbol
 _atom_site_label
 _atom_site_symmetry_multiplicity
 _atom_site_fract_x
 _atom_site_fract_y
 _atom_site_fract_z
 _atom_site_occupancy
  Y  Y0  1  0.470815  0.289490  0.181326  1
  Y  Y1  1  0.108165  0.289490  0.818674  1
  Y  Y2  1  0.891835  0.710510  0.181326  1
  Y  Y3  1  0.529185  0.710510  0.818674  1
  Y  Y4  1  0.305778  0.626810  0.321032  1
  Y  Y5  1  0.305776  0.984743  0.678965  1
  Y  Y6  1  0.694222  0.373190  0.678968  1
  Y  Y7  1  0.694224  0.015257  0.321035  1
  Y  Y8  1  0.190128  0.215113  0.405241  1
  Y  Y9  1  0.809872  0.784887  0.594759  1
  Y  Y10  1  0.190128  0.784887  0.975015  1
  Y  Y11  1  0.809872  0.215113  0.024985  1
  Ni  Ni12  1  0.500000  0.621310  0.121309  1
  Ni  Ni13  1  0.500000  0.378690  0.878691  1
  Ni  Ni14  1  0.363896  0.000000  0.363896  1
  Ni  Ni15  1  0.636104  0.000000  0.636104  1
  Sn  Sn16  1  0.000000  0.500000  0.500000  1
  Ru  Ru17  1  0.000000  0.000000  0.000000  1
