# generated using pymatgen
data_Ac2Zn21Ir
_symmetry_space_group_name_H-M   'P 1'
_cell_length_a   8.40014472
_cell_length_b   8.40301531
_cell_length_c   8.40301536
_cell_angle_alpha   99.34219904
_cell_angle_beta   100.35970536
_cell_angle_gamma   131.15726745
_symmetry_Int_Tables_number   1
_chemical_formula_structural   Ac2Zn21Ir
_chemical_formula_sum   'Ac2 Zn21 Ir1'
_cell_volume   406.53008869
_cell_formula_units_Z   1
loop_
 _symmetry_equiv_pos_site_id
 _symmetry_equiv_pos_as_xyz
  1  'x, y, z'
loop_
 _atom_site_type_symbol
 _atom_site_label
 _atom_site_symmetry_multiplicity
 _atom_site_fract_x
 _atom_site_fract_y
 _atom_site_fract_z
 _atom_site_occupancy
  Ac  Ac0  1  0.242079  0.746818  0.495260  1
  Ac  Ac1  1  0.007921  0.003182  0.004740  1
  Zn  Zn2  1  0.898924  0.571277  0.082682  1
  Zn  Zn3  1  0.625000  0.875000  0.250000  1
  Zn  Zn4  1  0.431803  0.516594  0.331473  1
  Zn  Zn5  1  0.484118  0.571493  0.669430  1
  Zn  Zn6  1  0.431803  0.100331  0.915209  1
  Zn  Zn7  1  0.765882  0.178507  0.830570  1
  Zn  Zn8  1  0.484118  0.814689  0.912626  1
  Zn  Zn9  1  0.483018  0.492156  0.990862  1
  Zn  Zn10  1  0.765882  0.935311  0.587374  1
  Zn  Zn11  1  0.766982  0.257844  0.509138  1
  Zn  Zn12  1  0.068068  0.647840  0.827424  1
  Zn  Zn13  1  0.351076  0.178723  0.417318  1
  Zn  Zn14  1  0.818197  0.649669  0.584791  1
  Zn  Zn15  1  0.898924  0.816243  0.327647  1
  Zn  Zn16  1  0.181932  0.102160  0.672576  1
  Zn  Zn17  1  0.068068  0.240643  0.420228  1
  Zn  Zn18  1  0.351076  0.933757  0.172353  1
  Zn  Zn19  1  0.818197  0.233406  0.168527  1
  Zn  Zn20  1  0.181932  0.509357  0.079772  1
  Zn  Zn21  1  0.625000  0.375000  0.250000  1
  Zn  Zn22  1  0.625000  0.375000  0.750000  1
  Ir  Ir23  1  0.125000  0.375000  0.750000  1
