# generated using pymatgen
data_Tb3Al6(Si3Ru2)2
_symmetry_space_group_name_H-M   'P 1'
_cell_length_a   8.69561700
_cell_length_b   8.69561792
_cell_length_c   9.25017100
_cell_angle_alpha   90.00000000
_cell_angle_beta   90.00000000
_cell_angle_gamma   120.00000030
_symmetry_Int_Tables_number   1
_chemical_formula_structural   Tb3Al6(Si3Ru2)2
_chemical_formula_sum   'Tb6 Al12 Si12 Ru8'
_cell_volume   605.73301273
_cell_formula_units_Z   2
loop_
 _symmetry_equiv_pos_site_id
 _symmetry_equiv_pos_as_xyz
  1  'x, y, z'
loop_
 _atom_site_type_symbol
 _atom_site_label
 _atom_site_symmetry_multiplicity
 _atom_site_fract_x
 _atom_site_fract_y
 _atom_site_fract_z
 _atom_site_occupancy
  Tb  Tb0  1  0.191369  0.382737  0.250000  1
  Tb  Tb1  1  0.808631  0.617263  0.750000  1
  Tb  Tb2  1  0.617263  0.808631  0.250000  1
  Tb  Tb3  1  0.382737  0.191369  0.750000  1
  Tb  Tb4  1  0.191369  0.808631  0.250000  1
  Tb  Tb5  1  0.808631  0.191369  0.750000  1
  Al  Al6  1  0.165341  0.330680  0.581436  1
  Al  Al7  1  0.834659  0.669320  0.418564  1
  Al  Al8  1  0.669320  0.834659  0.581436  1
  Al  Al9  1  0.834659  0.669320  0.081436  1
  Al  Al10  1  0.330680  0.165341  0.418564  1
  Al  Al11  1  0.165341  0.330680  0.918564  1
  Al  Al12  1  0.165341  0.834659  0.581436  1
  Al  Al13  1  0.330680  0.165341  0.081436  1
  Al  Al14  1  0.834659  0.165341  0.418564  1
  Al  Al15  1  0.669320  0.834659  0.918564  1
  Al  Al16  1  0.834659  0.165341  0.081436  1
  Al  Al17  1  0.165341  0.834659  0.918564  1
  Si  Si18  1  0.333333  0.666667  0.040088  1
  Si  Si19  1  0.666667  0.333333  0.959912  1
  Si  Si20  1  0.666667  0.333333  0.540088  1
  Si  Si21  1  0.333333  0.666667  0.459912  1
  Si  Si22  1  0.562499  0.124999  0.250000  1
  Si  Si23  1  0.437501  0.875001  0.750000  1
  Si  Si24  1  0.875001  0.437501  0.250000  1
  Si  Si25  1  0.124999  0.562499  0.750000  1
  Si  Si26  1  0.562499  0.437501  0.250000  1
  Si  Si27  1  0.437501  0.562499  0.750000  1
  Si  Si28  1  0.000000  0.000000  0.250000  1
  Si  Si29  1  0.000000  0.000000  0.750000  1
  Ru  Ru30  1  0.500000  0.000000  0.000000  1
  Ru  Ru31  1  0.000000  0.500000  0.000000  1
  Ru  Ru32  1  0.500000  0.000000  0.500000  1
  Ru  Ru33  1  0.500000  0.500000  0.000000  1
  Ru  Ru34  1  0.000000  0.500000  0.500000  1
  Ru  Ru35  1  0.500000  0.500000  0.500000  1
  Ru  Ru36  1  0.000000  0.000000  0.000000  1
  Ru  Ru37  1  0.000000  0.000000  0.500000  1
