# generated using pymatgen
data_Ta2CrFe(BRu2)2
_symmetry_space_group_name_H-M   'P 1'
_cell_length_a   9.16674600
_cell_length_b   9.16674600
_cell_length_c   2.96571400
_cell_angle_alpha   90.00000000
_cell_angle_beta   90.00000000
_cell_angle_gamma   90.00000000
_symmetry_Int_Tables_number   1
_chemical_formula_structural   Ta2CrFe(BRu2)2
_chemical_formula_sum   'Ta4 Cr2 Fe2 B4 Ru8'
_cell_volume   249.20667043
_cell_formula_units_Z   2
loop_
 _symmetry_equiv_pos_site_id
 _symmetry_equiv_pos_as_xyz
  1  'x, y, z'
loop_
 _atom_site_type_symbol
 _atom_site_label
 _atom_site_symmetry_multiplicity
 _atom_site_fract_x
 _atom_site_fract_y
 _atom_site_fract_z
 _atom_site_occupancy
  Ta  Ta0  1  0.826167  0.673833  0.000000  1
  Ta  Ta1  1  0.173833  0.326167  0.000000  1
  Ta  Ta2  1  0.326167  0.826167  0.000000  1
  Ta  Ta3  1  0.673833  0.173833  0.000000  1
  Cr  Cr4  1  0.500000  0.500000  0.000000  1
  Cr  Cr5  1  0.000000  0.000000  0.000000  1
  Fe  Fe6  1  0.500000  0.000000  0.500000  1
  Fe  Fe7  1  0.000000  0.500000  0.500000  1
  B  B8  1  0.613793  0.886207  0.000000  1
  B  B9  1  0.386207  0.113793  0.000000  1
  B  B10  1  0.113793  0.613793  0.000000  1
  B  B11  1  0.886207  0.386207  0.000000  1
  Ru  Ru12  1  0.566789  0.718481  0.500000  1
  Ru  Ru13  1  0.433211  0.281519  0.500000  1
  Ru  Ru14  1  0.066789  0.781519  0.500000  1
  Ru  Ru15  1  0.933211  0.218481  0.500000  1
  Ru  Ru16  1  0.281519  0.566789  0.500000  1
  Ru  Ru17  1  0.718481  0.433211  0.500000  1
  Ru  Ru18  1  0.218481  0.066789  0.500000  1
  Ru  Ru19  1  0.781519  0.933211  0.500000  1
