# generated using pymatgen
data_Sm9DyB2Br15
_symmetry_space_group_name_H-M   'P 1'
_cell_length_a   9.24332797
_cell_length_b   10.02527541
_cell_length_c   10.88374125
_cell_angle_alpha   91.21199374
_cell_angle_beta   114.53268929
_cell_angle_gamma   110.78094145
_symmetry_Int_Tables_number   1
_chemical_formula_structural   Sm9DyB2Br15
_chemical_formula_sum   'Sm9 Dy1 B2 Br15'
_cell_volume   840.82869298
_cell_formula_units_Z   1
loop_
 _symmetry_equiv_pos_site_id
 _symmetry_equiv_pos_as_xyz
  1  'x, y, z'
loop_
 _atom_site_type_symbol
 _atom_site_label
 _atom_site_symmetry_multiplicity
 _atom_site_fract_x
 _atom_site_fract_y
 _atom_site_fract_z
 _atom_site_occupancy
  Sm  Sm0  1  0.799495  0.408279  0.275646  1
  Sm  Sm1  1  0.198721  0.590911  0.723459  1
  Sm  Sm2  1  0.674030  0.746524  0.821196  1
  Sm  Sm3  1  0.324461  0.253228  0.178944  1
  Sm  Sm4  1  0.525240  0.704436  0.095320  1
  Sm  Sm5  1  0.473941  0.295190  0.904462  1
  Sm  Sm6  1  0.585270  0.038818  0.323541  1
  Sm  Sm7  1  0.413414  0.960605  0.675955  1
  Sm  Sm8  1  0.724305  0.074765  0.048342  1
  Dy  Dy9  1  0.282263  0.926772  0.952655  1
  B  B10  1  0.465136  0.819313  0.876615  1
  B  B11  1  0.530649  0.178922  0.122201  1
  Br  Br12  1  0.003101  0.998440  0.998942  1
  Br  Br13  1  0.637400  0.882835  0.583869  1
  Br  Br14  1  0.361887  0.116760  0.416050  1
  Br  Br15  1  0.883300  0.298710  0.528146  1
  Br  Br16  1  0.115958  0.700838  0.471352  1
  Br  Br17  1  0.285926  0.763453  0.174792  1
  Br  Br18  1  0.710887  0.238773  0.820205  1
  Br  Br19  1  0.056402  0.343481  0.226955  1
  Br  Br20  1  0.162205  0.054360  0.706710  1
  Br  Br21  1  0.837004  0.942093  0.297499  1
  Br  Br22  1  0.229171  0.409457  0.943109  1
  Br  Br23  1  0.769965  0.590164  0.056641  1
  Br  Br24  1  0.407936  0.462260  0.658615  1
  Br  Br25  1  0.591641  0.537531  0.341361  1
  Br  Br26  1  0.950294  0.663085  0.777417  1
