# generated using pymatgen
data_Tb4Ce(MnB3)2
_symmetry_space_group_name_H-M   'P 1'
_cell_length_a   5.43773001
_cell_length_b   5.43773060
_cell_length_c   8.11828124
_cell_angle_alpha   70.43314057
_cell_angle_beta   70.43313777
_cell_angle_gamma   59.99999184
_symmetry_Int_Tables_number   1
_chemical_formula_structural   Tb4Ce(MnB3)2
_chemical_formula_sum   'Tb4 Ce1 Mn2 B6'
_cell_volume   191.71426416
_cell_formula_units_Z   1
loop_
 _symmetry_equiv_pos_site_id
 _symmetry_equiv_pos_as_xyz
  1  'x, y, z'
loop_
 _atom_site_type_symbol
 _atom_site_label
 _atom_site_symmetry_multiplicity
 _atom_site_fract_x
 _atom_site_fract_y
 _atom_site_fract_z
 _atom_site_occupancy
  Tb  Tb0  1  0.252313  0.252313  0.243061  1
  Tb  Tb1  1  0.747687  0.747687  0.756939  1
  Tb  Tb2  1  0.415068  0.415068  0.754796  1
  Tb  Tb3  1  0.584932  0.584932  0.245204  1
  Ce  Ce4  1  0.000000  0.000000  0.000000  1
  Mn  Mn5  1  0.110459  0.110459  0.668620  1
  Mn  Mn6  1  0.889541  0.889541  0.331380  1
  B  B7  1  0.166094  0.833906  0.500000  1
  B  B8  1  0.833906  0.500000  0.500000  1
  B  B9  1  0.500000  0.166094  0.500000  1
  B  B10  1  0.166094  0.500000  0.500000  1
  B  B11  1  0.500000  0.833906  0.500000  1
  B  B12  1  0.833906  0.166094  0.500000  1
