# generated using pymatgen
data_DyNbB6Os
_symmetry_space_group_name_H-M   'P 1'
_cell_length_a   3.51115600
_cell_length_b   9.00954600
_cell_length_c   11.30633900
_cell_angle_alpha   90.00000000
_cell_angle_beta   90.00000000
_cell_angle_gamma   90.00000000
_symmetry_Int_Tables_number   1
_chemical_formula_structural   DyNbB6Os
_chemical_formula_sum   'Dy4 Nb4 B24 Os4'
_cell_volume   357.66384032
_cell_formula_units_Z   4
loop_
 _symmetry_equiv_pos_site_id
 _symmetry_equiv_pos_as_xyz
  1  'x, y, z'
loop_
 _atom_site_type_symbol
 _atom_site_label
 _atom_site_symmetry_multiplicity
 _atom_site_fract_x
 _atom_site_fract_y
 _atom_site_fract_z
 _atom_site_occupancy
  Dy  Dy0  1  0.000000  0.323196  0.413000  1
  Dy  Dy1  1  0.000000  0.676804  0.587000  1
  Dy  Dy2  1  0.000000  0.823196  0.087000  1
  Dy  Dy3  1  0.000000  0.176804  0.913000  1
  Nb  Nb4  1  0.000000  0.946504  0.377088  1
  Nb  Nb5  1  0.000000  0.053496  0.622912  1
  Nb  Nb6  1  0.000000  0.446504  0.122912  1
  Nb  Nb7  1  0.000000  0.553496  0.877088  1
  B  B8  1  0.500000  0.554538  0.433978  1
  B  B9  1  0.500000  0.445462  0.566022  1
  B  B10  1  0.500000  0.054538  0.066022  1
  B  B11  1  0.500000  0.945462  0.933978  1
  B  B12  1  0.500000  0.753592  0.419109  1
  B  B13  1  0.500000  0.246408  0.580891  1
  B  B14  1  0.500000  0.253592  0.080891  1
  B  B15  1  0.500000  0.746408  0.919109  1
  B  B16  1  0.500000  0.797342  0.263289  1
  B  B17  1  0.500000  0.202658  0.736710  1
  B  B18  1  0.500000  0.297342  0.236711  1
  B  B19  1  0.500000  0.702658  0.763290  1
  B  B20  1  0.500000  0.629297  0.181505  1
  B  B21  1  0.500000  0.370703  0.818495  1
  B  B22  1  0.500000  0.129297  0.318495  1
  B  B23  1  0.500000  0.870703  0.681505  1
  B  B24  1  0.500000  0.980708  0.213740  1
  B  B25  1  0.500000  0.019292  0.786260  1
  B  B26  1  0.500000  0.480708  0.286260  1
  B  B27  1  0.500000  0.519292  0.713740  1
  B  B28  1  0.500000  0.600826  0.027023  1
  B  B29  1  0.500000  0.399174  0.972977  1
  B  B30  1  0.500000  0.100826  0.472977  1
  B  B31  1  0.500000  0.899174  0.527023  1
  Os  Os32  1  0.000000  0.643145  0.317744  1
  Os  Os33  1  0.000000  0.356855  0.682256  1
  Os  Os34  1  0.000000  0.143145  0.182256  1
  Os  Os35  1  0.000000  0.856855  0.817744  1
