# generated using pymatgen
data_Dy6Y3LuCd3Ru
_symmetry_space_group_name_H-M   'P 1'
_cell_length_a   9.59402800
_cell_length_b   9.59402802
_cell_length_c   9.82746800
_cell_angle_alpha   90.00000000
_cell_angle_beta   90.00000000
_cell_angle_gamma   119.99999992
_symmetry_Int_Tables_number   1
_chemical_formula_structural   Dy6Y3LuCd3Ru
_chemical_formula_sum   'Dy12 Y6 Lu2 Cd6 Ru2'
_cell_volume   783.38316578
_cell_formula_units_Z   2
loop_
 _symmetry_equiv_pos_site_id
 _symmetry_equiv_pos_as_xyz
  1  'x, y, z'
loop_
 _atom_site_type_symbol
 _atom_site_label
 _atom_site_symmetry_multiplicity
 _atom_site_fract_x
 _atom_site_fract_y
 _atom_site_fract_z
 _atom_site_occupancy
  Dy  Dy0  1  0.209653  0.790347  0.440254  1
  Dy  Dy1  1  0.209653  0.419307  0.440254  1
  Dy  Dy2  1  0.580693  0.790347  0.440254  1
  Dy  Dy3  1  0.790347  0.209653  0.559746  1
  Dy  Dy4  1  0.790347  0.580693  0.559746  1
  Dy  Dy5  1  0.419307  0.209653  0.559746  1
  Dy  Dy6  1  0.790347  0.209653  0.940254  1
  Dy  Dy7  1  0.790347  0.580693  0.940254  1
  Dy  Dy8  1  0.419307  0.209653  0.940254  1
  Dy  Dy9  1  0.209653  0.790347  0.059746  1
  Dy  Dy10  1  0.209653  0.419307  0.059746  1
  Dy  Dy11  1  0.580693  0.790347  0.059746  1
  Y  Y12  1  0.540911  0.459089  0.250000  1
  Y  Y13  1  0.540911  0.081822  0.250000  1
  Y  Y14  1  0.918178  0.459089  0.250000  1
  Y  Y15  1  0.459089  0.540911  0.750000  1
  Y  Y16  1  0.459089  0.918178  0.750000  1
  Y  Y17  1  0.081822  0.540911  0.750000  1
  Lu  Lu18  1  0.000000  0.000000  0.500000  1
  Lu  Lu19  1  0.000000  0.000000  0.000000  1
  Cd  Cd20  1  0.886245  0.113755  0.250000  1
  Cd  Cd21  1  0.886245  0.772489  0.250000  1
  Cd  Cd22  1  0.227511  0.113755  0.250000  1
  Cd  Cd23  1  0.113755  0.886245  0.750000  1
  Cd  Cd24  1  0.113755  0.227511  0.750000  1
  Cd  Cd25  1  0.772489  0.886245  0.750000  1
  Ru  Ru26  1  0.333333  0.666667  0.250000  1
  Ru  Ru27  1  0.666667  0.333333  0.750000  1
