# generated using pymatgen
data_Ho4Al4Ru3Pt
_symmetry_space_group_name_H-M   'P 1'
_cell_length_a   4.18811900
_cell_length_b   6.91650374
_cell_length_c   7.95939254
_cell_angle_alpha   90.22743597
_cell_angle_beta   90.00000000
_cell_angle_gamma   90.00000000
_symmetry_Int_Tables_number   1
_chemical_formula_structural   Ho4Al4Ru3Pt
_chemical_formula_sum   'Ho4 Al4 Ru3 Pt1'
_cell_volume   230.55902742
_cell_formula_units_Z   1
loop_
 _symmetry_equiv_pos_site_id
 _symmetry_equiv_pos_as_xyz
  1  'x, y, z'
loop_
 _atom_site_type_symbol
 _atom_site_label
 _atom_site_symmetry_multiplicity
 _atom_site_fract_x
 _atom_site_fract_y
 _atom_site_fract_z
 _atom_site_occupancy
  Ho  Ho0  1  0.250000  0.026049  0.677250  1
  Ho  Ho1  1  0.250000  0.535456  0.817734  1
  Ho  Ho2  1  0.750000  0.970539  0.319434  1
  Ho  Ho3  1  0.750000  0.472433  0.183888  1
  Al  Al4  1  0.250000  0.141523  0.064998  1
  Al  Al5  1  0.250000  0.643197  0.438051  1
  Al  Al6  1  0.750000  0.852103  0.939509  1
  Al  Al7  1  0.750000  0.357186  0.560612  1
  Ru  Ru8  1  0.250000  0.272134  0.380669  1
  Ru  Ru9  1  0.250000  0.771016  0.118244  1
  Ru  Ru10  1  0.750000  0.731481  0.618519  1
  Pt  Pt11  1  0.750000  0.226883  0.881093  1
