# generated using pymatgen
data_Ca3Dy5(CdIn)4
_symmetry_space_group_name_H-M   'P 1'
_cell_length_a   7.38278420
_cell_length_b   5.41845500
_cell_length_c   10.83880916
_cell_angle_alpha   90.00000000
_cell_angle_beta   89.97674549
_cell_angle_gamma   90.00000000
_symmetry_Int_Tables_number   1
_chemical_formula_structural   Ca3Dy5(CdIn)4
_chemical_formula_sum   'Ca3 Dy5 Cd4 In4'
_cell_volume   433.58792509
_cell_formula_units_Z   1
loop_
 _symmetry_equiv_pos_site_id
 _symmetry_equiv_pos_as_xyz
  1  'x, y, z'
loop_
 _atom_site_type_symbol
 _atom_site_label
 _atom_site_symmetry_multiplicity
 _atom_site_fract_x
 _atom_site_fract_y
 _atom_site_fract_z
 _atom_site_occupancy
  Ca  Ca0  1  0.499749  0.750000  0.629326  1
  Ca  Ca1  1  0.001312  0.250000  0.871791  1
  Ca  Ca2  1  0.498976  0.250000  0.870913  1
  Dy  Dy3  1  0.500112  0.750000  0.127767  1
  Dy  Dy4  1  0.002040  0.750000  0.127067  1
  Dy  Dy5  1  0.501421  0.250000  0.372094  1
  Dy  Dy6  1  0.997867  0.250000  0.371021  1
  Dy  Dy7  1  0.998632  0.750000  0.629665  1
  Cd  Cd8  1  0.750431  0.250000  0.124805  1
  Cd  Cd9  1  0.248559  0.750000  0.377594  1
  Cd  Cd10  1  0.753535  0.250000  0.615455  1
  Cd  Cd11  1  0.247908  0.750000  0.882114  1
  In  In12  1  0.250280  0.250000  0.126076  1
  In  In13  1  0.751288  0.750000  0.376850  1
  In  In14  1  0.245449  0.250000  0.615376  1
  In  In15  1  0.752439  0.750000  0.882087  1
