# generated using pymatgen
data_Rb4Hf6BeBr18
_symmetry_space_group_name_H-M   'P 1'
_cell_length_a   10.61647784
_cell_length_b   10.85171296
_cell_length_c   11.00635504
_cell_angle_alpha   118.36519465
_cell_angle_beta   100.64729319
_cell_angle_gamma   103.75771106
_symmetry_Int_Tables_number   1
_chemical_formula_structural   Rb4Hf6BeBr18
_chemical_formula_sum   'Rb4 Hf6 Be1 Br18'
_cell_volume   1015.86834596
_cell_formula_units_Z   1
loop_
 _symmetry_equiv_pos_site_id
 _symmetry_equiv_pos_as_xyz
  1  'x, y, z'
loop_
 _atom_site_type_symbol
 _atom_site_label
 _atom_site_symmetry_multiplicity
 _atom_site_fract_x
 _atom_site_fract_y
 _atom_site_fract_z
 _atom_site_occupancy
  Rb  Rb0  1  0.189976  0.727463  0.564975  1
  Rb  Rb1  1  0.844738  0.963134  0.771869  1
  Rb  Rb2  1  0.155262  0.036866  0.228131  1
  Rb  Rb3  1  0.810024  0.272537  0.435025  1
  Hf  Hf4  1  0.351944  0.443761  0.771623  1
  Hf  Hf5  1  0.364206  0.624103  0.132400  1
  Hf  Hf6  1  0.644264  0.734877  0.043576  1
  Hf  Hf7  1  0.648056  0.556239  0.228377  1
  Hf  Hf8  1  0.355736  0.265123  0.956424  1
  Hf  Hf9  1  0.635794  0.375897  0.867600  1
  Be  Be10  1  0.500000  0.500000  0.000000  1
  Br  Br11  1  0.814789  0.425025  0.108277  1
  Br  Br12  1  0.516432  0.701102  0.401651  1
  Br  Br13  1  0.183045  0.991025  0.901611  1
  Br  Br14  1  0.185211  0.574975  0.891723  1
  Br  Br15  1  0.825810  0.826429  0.304452  1
  Br  Br16  1  0.505512  0.298615  0.204755  1
  Br  Br17  1  0.789960  0.234478  0.720870  1
  Br  Br18  1  0.174190  0.173571  0.695548  1
  Br  Br19  1  0.508280  0.900700  0.191949  1
  Br  Br20  1  0.812758  0.625517  0.906134  1
  Br  Br21  1  0.210040  0.765522  0.279130  1
  Br  Br22  1  0.171894  0.380309  0.509843  1
  Br  Br23  1  0.494488  0.701385  0.795245  1
  Br  Br24  1  0.816955  0.008975  0.098389  1
  Br  Br25  1  0.483568  0.298898  0.598349  1
  Br  Br26  1  0.187242  0.374483  0.093866  1
  Br  Br27  1  0.828106  0.619691  0.490157  1
  Br  Br28  1  0.491720  0.099300  0.808051  1
