# generated using pymatgen
data_TaMo(P2Ru3)2
_symmetry_space_group_name_H-M   'P 1'
_cell_length_a   3.87211700
_cell_length_b   6.18119904
_cell_length_c   6.89608468
_cell_angle_alpha   89.69270319
_cell_angle_beta   90.00000000
_cell_angle_gamma   90.00000000
_symmetry_Int_Tables_number   1
_chemical_formula_structural   TaMo(P2Ru3)2
_chemical_formula_sum   'Ta1 Mo1 P4 Ru6'
_cell_volume   165.05076430
_cell_formula_units_Z   1
loop_
 _symmetry_equiv_pos_site_id
 _symmetry_equiv_pos_as_xyz
  1  'x, y, z'
loop_
 _atom_site_type_symbol
 _atom_site_label
 _atom_site_symmetry_multiplicity
 _atom_site_fract_x
 _atom_site_fract_y
 _atom_site_fract_z
 _atom_site_occupancy
  Ta  Ta0  1  0.750000  0.526510  0.838060  1
  Mo  Mo1  1  0.750000  0.026439  0.658495  1
  P  P2  1  0.250000  0.741419  0.610968  1
  P  P3  1  0.750000  0.261143  0.384312  1
  P  P4  1  0.250000  0.229036  0.883952  1
  P  P5  1  0.750000  0.776401  0.125345  1
  Ru  Ru6  1  0.250000  0.974712  0.342442  1
  Ru  Ru7  1  0.250000  0.460010  0.154246  1
  Ru  Ru8  1  0.250000  0.358436  0.572185  1
  Ru  Ru9  1  0.750000  0.643737  0.428782  1
  Ru  Ru10  1  0.250000  0.854977  0.933429  1
  Ru  Ru11  1  0.750000  0.147180  0.067784  1
