# generated using pymatgen
data_Y10GaSn2Bi3
_symmetry_space_group_name_H-M   'P 1'
_cell_length_a   9.02598804
_cell_length_b   9.01390928
_cell_length_c   6.52079200
_cell_angle_alpha   90.00000000
_cell_angle_beta   90.00000000
_cell_angle_gamma   119.93524976
_symmetry_Int_Tables_number   1
_chemical_formula_structural   Y10GaSn2Bi3
_chemical_formula_sum   'Y10 Ga1 Sn2 Bi3'
_cell_volume   459.75018067
_cell_formula_units_Z   1
loop_
 _symmetry_equiv_pos_site_id
 _symmetry_equiv_pos_as_xyz
  1  'x, y, z'
loop_
 _atom_site_type_symbol
 _atom_site_label
 _atom_site_symmetry_multiplicity
 _atom_site_fract_x
 _atom_site_fract_y
 _atom_site_fract_z
 _atom_site_occupancy
  Y  Y0  1  0.761129  0.755338  0.250000  1
  Y  Y1  1  0.005292  0.243895  0.250000  1
  Y  Y2  1  0.771326  0.014746  0.750000  1
  Y  Y3  1  0.317923  0.652626  0.500463  1
  Y  Y4  1  0.236477  0.999930  0.250000  1
  Y  Y5  1  0.679814  0.339375  0.500257  1
  Y  Y6  1  0.999484  0.752621  0.750000  1
  Y  Y7  1  0.317923  0.652626  0.999537  1
  Y  Y8  1  0.229679  0.244579  0.750000  1
  Y  Y9  1  0.679814  0.339375  0.999743  1
  Ga  Ga10  1  0.998736  0.397800  0.750000  1
  Sn  Sn11  1  0.397805  0.392519  0.250000  1
  Sn  Sn12  1  0.000777  0.606152  0.250000  1
  Bi  Bi13  1  0.606647  0.610680  0.750000  1
  Bi  Bi14  1  0.392887  0.002756  0.750000  1
  Bi  Bi15  1  0.604287  0.994985  0.250000  1
