# generated using pymatgen
data_Sb7Te(PtRh)2
_symmetry_space_group_name_H-M   'P 1'
_cell_length_a   6.50017415
_cell_length_b   6.52275632
_cell_length_c   6.51706256
_cell_angle_alpha   90.25461224
_cell_angle_beta   89.74542003
_cell_angle_gamma   90.17416671
_symmetry_Int_Tables_number   1
_chemical_formula_structural   Sb7Te(PtRh)2
_chemical_formula_sum   'Sb7 Te1 Pt2 Rh2'
_cell_volume   276.31055855
_cell_formula_units_Z   1
loop_
 _symmetry_equiv_pos_site_id
 _symmetry_equiv_pos_as_xyz
  1  'x, y, z'
loop_
 _atom_site_type_symbol
 _atom_site_label
 _atom_site_symmetry_multiplicity
 _atom_site_fract_x
 _atom_site_fract_y
 _atom_site_fract_z
 _atom_site_occupancy
  Sb  Sb0  1  0.122116  0.867254  0.377564  1
  Sb  Sb1  1  0.873020  0.379720  0.130572  1
  Sb  Sb2  1  0.628995  0.620647  0.628282  1
  Sb  Sb3  1  0.371899  0.380785  0.371320  1
  Sb  Sb4  1  0.125271  0.621335  0.870197  1
  Sb  Sb5  1  0.877597  0.131654  0.621164  1
  Sb  Sb6  1  0.624679  0.866491  0.124964  1
  Te  Te7  1  0.378376  0.130817  0.878189  1
  Pt  Pt8  1  0.500786  0.999813  0.497068  1
  Pt  Pt9  1  0.997083  0.999936  0.000927  1
  Rh  Rh10  1  0.999866  0.499912  0.499767  1
  Rh  Rh11  1  0.500310  0.501636  0.999987  1
