# generated using pymatgen
data_Pr3Nd5CdHgRu2
_symmetry_space_group_name_H-M   'P 1'
_cell_length_a   9.93018425
_cell_length_b   9.93018432
_cell_length_c   9.98441200
_cell_angle_alpha   59.82102006
_cell_angle_beta   59.82101921
_cell_angle_gamma   59.71448831
_symmetry_Int_Tables_number   1
_chemical_formula_structural   Pr3Nd5CdHgRu2
_chemical_formula_sum   'Pr6 Nd10 Cd2 Hg2 Ru4'
_cell_volume   692.78921063
_cell_formula_units_Z   2
loop_
 _symmetry_equiv_pos_site_id
 _symmetry_equiv_pos_as_xyz
  1  'x, y, z'
loop_
 _atom_site_type_symbol
 _atom_site_label
 _atom_site_symmetry_multiplicity
 _atom_site_fract_x
 _atom_site_fract_y
 _atom_site_fract_z
 _atom_site_occupancy
  Pr  Pr0  1  0.939171  0.560936  0.560155  1
  Pr  Pr1  1  0.560934  0.939164  0.939742  1
  Pr  Pr2  1  0.560936  0.939171  0.560155  1
  Pr  Pr3  1  0.939164  0.560934  0.939742  1
  Pr  Pr4  1  0.560687  0.560687  0.939311  1
  Pr  Pr5  1  0.940001  0.940001  0.560008  1
  Nd  Nd6  1  0.345214  0.345214  0.346803  1
  Nd  Nd7  1  0.345211  0.345211  0.962769  1
  Nd  Nd8  1  0.345824  0.960345  0.346914  1
  Nd  Nd9  1  0.960345  0.345824  0.346914  1
  Nd  Nd10  1  0.809749  0.190616  0.189159  1
  Nd  Nd11  1  0.190611  0.809753  0.810478  1
  Nd  Nd12  1  0.190616  0.809749  0.189159  1
  Nd  Nd13  1  0.809753  0.190611  0.810478  1
  Nd  Nd14  1  0.189547  0.189547  0.810455  1
  Nd  Nd15  1  0.809403  0.809403  0.190597  1
  Cd  Cd16  1  0.577932  0.264711  0.578681  1
  Cd  Cd17  1  0.264711  0.577932  0.578681  1
  Hg  Hg18  1  0.581873  0.581873  0.584477  1
  Hg  Hg19  1  0.581872  0.581872  0.251781  1
  Ru  Ru20  1  0.137268  0.137268  0.139357  1
  Ru  Ru21  1  0.137267  0.137267  0.586093  1
  Ru  Ru22  1  0.137172  0.584737  0.139044  1
  Ru  Ru23  1  0.584737  0.137172  0.139044  1
