# generated using pymatgen
data_La16Cd4Tc2IrRu
_symmetry_space_group_name_H-M   'P 1'
_cell_length_a   10.09197517
_cell_length_b   10.12584740
_cell_length_c   10.18885700
_cell_angle_alpha   59.79394532
_cell_angle_beta   59.68193020
_cell_angle_gamma   59.54772091
_symmetry_Int_Tables_number   1
_chemical_formula_structural   La16Cd4Tc2IrRu
_chemical_formula_sum   'La16 Cd4 Tc2 Ir1 Ru1'
_cell_volume   730.78698036
_cell_formula_units_Z   1
loop_
 _symmetry_equiv_pos_site_id
 _symmetry_equiv_pos_as_xyz
  1  'x, y, z'
loop_
 _atom_site_type_symbol
 _atom_site_label
 _atom_site_symmetry_multiplicity
 _atom_site_fract_x
 _atom_site_fract_y
 _atom_site_fract_z
 _atom_site_occupancy
  La  La0  1  0.595009  0.595797  0.596813  1
  La  La1  1  0.595009  0.595797  0.212383  1
  La  La2  1  0.595821  0.211879  0.596150  1
  La  La3  1  0.212827  0.596242  0.595466  1
  La  La4  1  0.065822  0.439584  0.437807  1
  La  La5  1  0.440038  0.062556  0.060260  1
  La  La6  1  0.440038  0.062556  0.437148  1
  La  La7  1  0.065822  0.439584  0.056788  1
  La  La8  1  0.439856  0.438756  0.060694  1
  La  La9  1  0.065183  0.057536  0.438640  1
  La  La10  1  0.190213  0.808147  0.809065  1
  La  La11  1  0.808108  0.190814  0.191681  1
  La  La12  1  0.808108  0.190814  0.809397  1
  La  La13  1  0.190213  0.808147  0.192576  1
  La  La14  1  0.810103  0.810037  0.189930  1
  La  La15  1  0.193932  0.194743  0.805663  1
  Cd  Cd16  1  0.828609  0.828991  0.829237  1
  Cd  Cd17  1  0.828609  0.828991  0.513162  1
  Cd  Cd18  1  0.828213  0.514256  0.828764  1
  Cd  Cd19  1  0.514276  0.828334  0.828694  1
  Tc  Tc20  1  0.383004  0.383232  0.386142  1
  Tc  Tc21  1  0.383004  0.383232  0.847623  1
  Ir  Ir22  1  0.832205  0.389656  0.389069  1
  Ru  Ru23  1  0.385981  0.840317  0.386851  1
