# generated using pymatgen
data_K5Zr(CrH9)3
_symmetry_space_group_name_H-M   'P 1'
_cell_length_a   9.12706200
_cell_length_b   8.72434011
_cell_length_c   4.98415400
_cell_angle_alpha   90.00000000
_cell_angle_beta   90.00000000
_cell_angle_gamma   118.55083341
_symmetry_Int_Tables_number   1
_chemical_formula_structural   K5Zr(CrH9)3
_chemical_formula_sum   'K5 Zr1 Cr3 H27'
_cell_volume   348.61343332
_cell_formula_units_Z   1
loop_
 _symmetry_equiv_pos_site_id
 _symmetry_equiv_pos_as_xyz
  1  'x, y, z'
loop_
 _atom_site_type_symbol
 _atom_site_label
 _atom_site_symmetry_multiplicity
 _atom_site_fract_x
 _atom_site_fract_y
 _atom_site_fract_z
 _atom_site_occupancy
  K  K0  1  0.722871  0.740306  0.500000  1
  K  K1  1  0.277129  0.017436  0.500000  1
  K  K2  1  0.000000  0.631707  0.000000  1
  K  K3  1  0.427026  0.386059  0.000000  1
  K  K4  1  0.572974  0.959034  0.000000  1
  Zr  Zr5  1  0.000000  0.270524  0.500000  1
  Cr  Cr6  1  0.713129  0.324970  0.500000  1
  Cr  Cr7  1  0.286871  0.611842  0.500000  1
  Cr  Cr8  1  0.000000  0.058134  0.000000  1
  H  H9  1  0.857793  0.346656  0.720511  1
  H  H10  1  0.705841  0.415309  0.769257  1
  H  H11  1  0.569486  0.194582  0.701462  1
  H  H12  1  0.142207  0.488864  0.279489  1
  H  H13  1  0.569486  0.194582  0.298538  1
  H  H14  1  0.857793  0.346656  0.279489  1
  H  H15  1  0.705841  0.415309  0.230743  1
  H  H16  1  0.294159  0.709469  0.769257  1
  H  H17  1  0.430514  0.625097  0.701462  1
  H  H18  1  0.167445  0.044464  0.000000  1
  H  H19  1  0.832555  0.877019  0.000000  1
  H  H20  1  0.000000  0.248064  0.000000  1
  H  H21  1  0.870663  0.050711  0.235011  1
  H  H22  1  0.129337  0.180049  0.764989  1
  H  H23  1  0.000000  0.922162  0.784814  1
  H  H24  1  0.000000  0.922162  0.215186  1
  H  H25  1  0.129337  0.180049  0.235011  1
  H  H26  1  0.870663  0.050711  0.764989  1
  H  H27  1  0.162280  0.692621  0.500000  1
  H  H28  1  0.433013  0.810495  0.500000  1
  H  H29  1  0.270812  0.412259  0.500000  1
  H  H30  1  0.566987  0.377482  0.500000  1
  H  H31  1  0.837720  0.530341  0.500000  1
  H  H32  1  0.729188  0.141447  0.500000  1
  H  H33  1  0.142207  0.488864  0.720511  1
  H  H34  1  0.294159  0.709469  0.230743  1
  H  H35  1  0.430514  0.625097  0.298538  1
