# generated using pymatgen
data_Tb3Y2Pb3
_symmetry_space_group_name_H-M   'P 1'
_cell_length_a   9.09695923
_cell_length_b   9.09695955
_cell_length_c   6.68033200
_cell_angle_alpha   90.00000000
_cell_angle_beta   90.00000000
_cell_angle_gamma   119.97426956
_symmetry_Int_Tables_number   1
_chemical_formula_structural   Tb3Y2Pb3
_chemical_formula_sum   'Tb6 Y4 Pb6'
_cell_volume   478.88775694
_cell_formula_units_Z   2
loop_
 _symmetry_equiv_pos_site_id
 _symmetry_equiv_pos_as_xyz
  1  'x, y, z'
loop_
 _atom_site_type_symbol
 _atom_site_label
 _atom_site_symmetry_multiplicity
 _atom_site_fract_x
 _atom_site_fract_y
 _atom_site_fract_z
 _atom_site_occupancy
  Tb  Tb0  1  0.666623  0.333332  0.999965  1
  Tb  Tb1  1  0.333332  0.666623  0.999965  1
  Tb  Tb2  1  0.333332  0.666623  0.500035  1
  Tb  Tb3  1  0.666623  0.333332  0.500035  1
  Tb  Tb4  1  0.761531  0.000053  0.250000  1
  Tb  Tb5  1  0.000053  0.761531  0.250000  1
  Y  Y6  1  0.761385  0.761385  0.750000  1
  Y  Y7  1  0.238545  0.999970  0.750000  1
  Y  Y8  1  0.999970  0.238545  0.750000  1
  Y  Y9  1  0.238567  0.238567  0.250000  1
  Pb  Pb10  1  0.394302  0.394302  0.750000  1
  Pb  Pb11  1  0.605879  0.999996  0.750000  1
  Pb  Pb12  1  0.999996  0.605879  0.750000  1
  Pb  Pb13  1  0.605402  0.605402  0.250000  1
  Pb  Pb14  1  0.394313  0.000146  0.250000  1
  Pb  Pb15  1  0.000146  0.394313  0.250000  1
