# generated using pymatgen
data_NdHf(PaPt2)2
_symmetry_space_group_name_H-M   'P 1'
_cell_length_a   4.45470900
_cell_length_b   5.60563147
_cell_length_c   7.07843914
_cell_angle_alpha   93.00954241
_cell_angle_beta   90.00000000
_cell_angle_gamma   90.00000000
_symmetry_Int_Tables_number   1
_chemical_formula_structural   NdHf(PaPt2)2
_chemical_formula_sum   'Nd1 Hf1 Pa2 Pt4'
_cell_volume   176.51515334
_cell_formula_units_Z   1
loop_
 _symmetry_equiv_pos_site_id
 _symmetry_equiv_pos_as_xyz
  1  'x, y, z'
loop_
 _atom_site_type_symbol
 _atom_site_label
 _atom_site_symmetry_multiplicity
 _atom_site_fract_x
 _atom_site_fract_y
 _atom_site_fract_z
 _atom_site_occupancy
  Nd  Nd0  1  0.750000  0.846303  0.813320  1
  Hf  Hf1  1  0.750000  0.643926  0.322994  1
  Pa  Pa2  1  0.250000  0.361208  0.676928  1
  Pa  Pa3  1  0.250000  0.148695  0.182746  1
  Pt  Pt4  1  0.250000  0.834325  0.512477  1
  Pt  Pt5  1  0.250000  0.649374  0.088302  1
  Pt  Pt6  1  0.750000  0.177566  0.442904  1
  Pt  Pt7  1  0.750000  0.338605  0.960329  1
