# generated using pymatgen
data_Nd3In3RhAu2
_symmetry_space_group_name_H-M   'P 1'
_cell_length_a   7.87433800
_cell_length_b   7.87433872
_cell_length_c   4.05454300
_cell_angle_alpha   90.00000000
_cell_angle_beta   90.00000000
_cell_angle_gamma   120.00000538
_symmetry_Int_Tables_number   1
_chemical_formula_structural   Nd3In3RhAu2
_chemical_formula_sum   'Nd3 In3 Rh1 Au2'
_cell_volume   217.72117214
_cell_formula_units_Z   1
loop_
 _symmetry_equiv_pos_site_id
 _symmetry_equiv_pos_as_xyz
  1  'x, y, z'
loop_
 _atom_site_type_symbol
 _atom_site_label
 _atom_site_symmetry_multiplicity
 _atom_site_fract_x
 _atom_site_fract_y
 _atom_site_fract_z
 _atom_site_occupancy
  Nd  Nd0  1  0.595283  0.000000  0.500000  1
  Nd  Nd1  1  0.404717  0.404717  0.500000  1
  Nd  Nd2  1  0.000000  0.595283  0.500000  1
  In  In3  1  0.247235  0.000000  0.000000  1
  In  In4  1  0.752765  0.752765  0.000000  1
  In  In5  1  0.000000  0.247235  0.000000  1
  Rh  Rh6  1  0.000000  0.000000  0.500000  1
  Au  Au7  1  0.333333  0.666667  0.000000  1
  Au  Au8  1  0.666667  0.333333  0.000000  1
