# generated using pymatgen
data_Na2Sn(RhS3)2
_symmetry_space_group_name_H-M   'P 1'
_cell_length_a   6.36665886
_cell_length_b   6.36665929
_cell_length_c   6.91488500
_cell_angle_alpha   81.43977758
_cell_angle_beta   81.43977700
_cell_angle_gamma   120.70835609
_symmetry_Int_Tables_number   1
_chemical_formula_structural   Na2Sn(RhS3)2
_chemical_formula_sum   'Na2 Sn1 Rh2 S6'
_cell_volume   229.81709790
_cell_formula_units_Z   1
loop_
 _symmetry_equiv_pos_site_id
 _symmetry_equiv_pos_as_xyz
  1  'x, y, z'
loop_
 _atom_site_type_symbol
 _atom_site_label
 _atom_site_symmetry_multiplicity
 _atom_site_fract_x
 _atom_site_fract_y
 _atom_site_fract_z
 _atom_site_occupancy
  Na  Na0  1  0.162691  0.837309  0.500000  1
  Na  Na1  1  0.837309  0.162691  0.500000  1
  Sn  Sn2  1  0.000000  0.000000  0.000000  1
  Rh  Rh3  1  0.332803  0.667197  0.000000  1
  Rh  Rh4  1  0.667197  0.332803  0.000000  1
  S  S5  1  0.939559  0.580650  0.193276  1
  S  S6  1  0.289733  0.289733  0.195104  1
  S  S7  1  0.580650  0.939559  0.193276  1
  S  S8  1  0.710267  0.710267  0.804896  1
  S  S9  1  0.060441  0.419350  0.806724  1
  S  S10  1  0.419350  0.060441  0.806724  1
