# generated using pymatgen
data_Ba6Pu3(FeO9)2
_symmetry_space_group_name_H-M   'P 1'
_cell_length_a   5.94754728
_cell_length_b   5.94754636
_cell_length_c   14.98841000
_cell_angle_alpha   90.00000000
_cell_angle_beta   78.55630774
_cell_angle_gamma   120.00001738
_symmetry_Int_Tables_number   1
_chemical_formula_structural   Ba6Pu3(FeO9)2
_chemical_formula_sum   'Ba6 Pu3 Fe2 O18'
_cell_volume   446.94561619
_cell_formula_units_Z   1
loop_
 _symmetry_equiv_pos_site_id
 _symmetry_equiv_pos_as_xyz
  1  'x, y, z'
loop_
 _atom_site_type_symbol
 _atom_site_label
 _atom_site_symmetry_multiplicity
 _atom_site_fract_x
 _atom_site_fract_y
 _atom_site_fract_z
 _atom_site_occupancy
  Ba  Ba0  1  0.280931  0.642888  0.083651  1
  Ba  Ba1  1  0.828738  0.915030  0.254839  1
  Ba  Ba2  1  0.373884  0.186273  0.437242  1
  Ba  Ba3  1  0.623145  0.810980  0.562555  1
  Ba  Ba4  1  0.168126  0.082493  0.745164  1
  Ba  Ba5  1  0.724281  0.361575  0.916591  1
  Pu  Pu6  1  0.004444  0.004105  0.999982  1
  Pu  Pu7  1  0.107559  0.553823  0.334594  1
  Pu  Pu8  1  0.888164  0.442182  0.665335  1
  Fe  Fe9  1  0.554707  0.278004  0.168011  1
  Fe  Fe10  1  0.447094  0.724358  0.831980  1
  O  O11  1  0.285436  0.146049  0.083800  1
  O  O12  1  0.785918  0.142175  0.081664  1
  O  O13  1  0.788584  0.654846  0.081470  1
  O  O14  1  0.323024  0.422220  0.252285  1
  O  O15  1  0.835729  0.418612  0.250401  1
  O  O16  1  0.322660  0.901751  0.252999  1
  O  O17  1  0.896520  0.204471  0.408052  1
  O  O18  1  0.896290  0.691323  0.408346  1
  O  O19  1  0.385960  0.692446  0.408229  1
  O  O20  1  0.100461  0.305749  0.591544  1
  O  O21  1  0.613211  0.305886  0.591461  1
  O  O22  1  0.100994  0.794683  0.592078  1
  O  O23  1  0.668371  0.085740  0.748102  1
  O  O24  1  0.153762  0.574502  0.747979  1
  O  O25  1  0.672722  0.574047  0.747844  1
  O  O26  1  0.222098  0.357977  0.917210  1
  O  O27  1  0.221306  0.863618  0.918525  1
  O  O28  1  0.725879  0.862189  0.918067  1
