# generated using pymatgen
data_Nd3DyFe4P12(PdRh3)4
_symmetry_space_group_name_H-M   'P 1'
_cell_length_a   3.89911500
_cell_length_b   10.81694662
_cell_length_c   12.48583800
_cell_angle_alpha   89.98065059
_cell_angle_beta   90.00000000
_cell_angle_gamma   90.00000000
_symmetry_Int_Tables_number   1
_chemical_formula_structural   Nd3DyFe4P12(PdRh3)4
_chemical_formula_sum   'Nd3 Dy1 Fe4 P12 Pd4 Rh12'
_cell_volume   526.60915121
_cell_formula_units_Z   1
loop_
 _symmetry_equiv_pos_site_id
 _symmetry_equiv_pos_as_xyz
  1  'x, y, z'
loop_
 _atom_site_type_symbol
 _atom_site_label
 _atom_site_symmetry_multiplicity
 _atom_site_fract_x
 _atom_site_fract_y
 _atom_site_fract_z
 _atom_site_occupancy
  Nd  Nd0  1  0.250000  0.581381  0.708468  1
  Nd  Nd1  1  0.250000  0.918943  0.209075  1
  Nd  Nd2  1  0.750000  0.418805  0.291378  1
  Dy  Dy3  1  0.750000  0.081362  0.791164  1
  Fe  Fe4  1  0.250000  0.460321  0.933137  1
  Fe  Fe5  1  0.250000  0.038253  0.435798  1
  Fe  Fe6  1  0.750000  0.537694  0.065350  1
  Fe  Fe7  1  0.750000  0.963358  0.568512  1
  P  P8  1  0.250000  0.431438  0.105827  1
  P  P9  1  0.250000  0.068562  0.608687  1
  P  P10  1  0.750000  0.566909  0.893102  1
  P  P11  1  0.750000  0.932136  0.395410  1
  P  P12  1  0.250000  0.269933  0.864495  1
  P  P13  1  0.250000  0.226635  0.366636  1
  P  P14  1  0.750000  0.727114  0.132944  1
  P  P15  1  0.750000  0.773635  0.633826  1
  P  P16  1  0.250000  0.600676  0.388333  1
  P  P17  1  0.250000  0.902484  0.887371  1
  P  P18  1  0.750000  0.400264  0.611331  1
  P  P19  1  0.750000  0.100389  0.112307  1
  Pd  Pd20  1  0.250000  0.715628  0.989619  1
  Pd  Pd21  1  0.250000  0.785238  0.491928  1
  Pd  Pd22  1  0.750000  0.284608  0.008925  1
  Pd  Pd23  1  0.750000  0.215221  0.509825  1
  Rh  Rh24  1  0.250000  0.408211  0.480348  1
  Rh  Rh25  1  0.250000  0.092968  0.974965  1
  Rh  Rh26  1  0.750000  0.592418  0.520061  1
  Rh  Rh27  1  0.750000  0.909034  0.019722  1
  Rh  Rh28  1  0.250000  0.226247  0.172897  1
  Rh  Rh29  1  0.250000  0.268934  0.674767  1
  Rh  Rh30  1  0.750000  0.772105  0.826492  1
  Rh  Rh31  1  0.750000  0.728407  0.325785  1
  Rh  Rh32  1  0.250000  0.881704  0.700426  1
  Rh  Rh33  1  0.250000  0.620512  0.197769  1
  Rh  Rh34  1  0.750000  0.120722  0.302336  1
  Rh  Rh35  1  0.750000  0.377750  0.800985  1
