# generated using pymatgen
data_Ho10In8PdRh3
_symmetry_space_group_name_H-M   'P 1'
_cell_length_a   3.60678400
_cell_length_b   8.07912529
_cell_length_c   18.27510470
_cell_angle_alpha   89.96864690
_cell_angle_beta   90.00000000
_cell_angle_gamma   90.00000000
_symmetry_Int_Tables_number   1
_chemical_formula_structural   Ho10In8PdRh3
_chemical_formula_sum   'Ho10 In8 Pd1 Rh3'
_cell_volume   532.53025495
_cell_formula_units_Z   1
loop_
 _symmetry_equiv_pos_site_id
 _symmetry_equiv_pos_as_xyz
  1  'x, y, z'
loop_
 _atom_site_type_symbol
 _atom_site_label
 _atom_site_symmetry_multiplicity
 _atom_site_fract_x
 _atom_site_fract_y
 _atom_site_fract_z
 _atom_site_occupancy
  Ho  Ho0  1  0.000000  0.500291  0.500630  1
  Ho  Ho1  1  0.000000  0.000736  0.999908  1
  Ho  Ho2  1  0.000000  0.734037  0.277855  1
  Ho  Ho3  1  0.000000  0.254675  0.721956  1
  Ho  Ho4  1  0.000000  0.754464  0.778003  1
  Ho  Ho5  1  0.000000  0.254786  0.219588  1
  Ho  Ho6  1  0.000000  0.616796  0.086761  1
  Ho  Ho7  1  0.000000  0.384142  0.910849  1
  Ho  Ho8  1  0.000000  0.883283  0.589312  1
  Ho  Ho9  1  0.000000  0.117544  0.415273  1
  In  In10  1  0.500000  0.707970  0.931359  1
  In  In11  1  0.500000  0.293608  0.067620  1
  In  In12  1  0.500000  0.791651  0.432583  1
  In  In13  1  0.500000  0.206816  0.568731  1
  In  In14  1  0.500000  0.570962  0.650019  1
  In  In15  1  0.500000  0.425146  0.350434  1
  In  In16  1  0.500000  0.925248  0.149893  1
  In  In17  1  0.500000  0.071102  0.850248  1
  Pd  Pd18  1  0.500000  0.023470  0.304059  1
  Rh  Rh19  1  0.500000  0.523493  0.194739  1
  Rh  Rh20  1  0.500000  0.480187  0.804912  1
  Rh  Rh21  1  0.500000  0.979594  0.695268  1
