# generated using pymatgen
data_SrYbCrF7
_symmetry_space_group_name_H-M   'P 1'
_cell_length_a   7.96204000
_cell_length_b   7.34423900
_cell_length_c   9.97605500
_cell_angle_alpha   90.00000000
_cell_angle_beta   90.00000000
_cell_angle_gamma   90.00000000
_symmetry_Int_Tables_number   1
_chemical_formula_structural   SrYbCrF7
_chemical_formula_sum   'Sr4 Yb4 Cr4 F28'
_cell_volume   583.35106001
_cell_formula_units_Z   4
loop_
 _symmetry_equiv_pos_site_id
 _symmetry_equiv_pos_as_xyz
  1  'x, y, z'
loop_
 _atom_site_type_symbol
 _atom_site_label
 _atom_site_symmetry_multiplicity
 _atom_site_fract_x
 _atom_site_fract_y
 _atom_site_fract_z
 _atom_site_occupancy
  Sr  Sr0  1  0.808084  0.250000  0.106380  1
  Sr  Sr1  1  0.308083  0.250000  0.393620  1
  Sr  Sr2  1  0.691916  0.750000  0.606380  1
  Sr  Sr3  1  0.191917  0.750000  0.893621  1
  Yb  Yb4  1  0.375695  0.750000  0.244283  1
  Yb  Yb5  1  0.875696  0.750000  0.255716  1
  Yb  Yb6  1  0.124305  0.250000  0.744283  1
  Yb  Yb7  1  0.624305  0.250000  0.755716  1
  Cr  Cr8  1  0.319295  0.250000  0.055172  1
  Cr  Cr9  1  0.819295  0.250000  0.444828  1
  Cr  Cr10  1  0.180706  0.750000  0.555173  1
  Cr  Cr11  1  0.680705  0.750000  0.944827  1
  F  F12  1  0.458862  0.750000  0.027297  1
  F  F13  1  0.764609  0.577880  0.079351  1
  F  F14  1  0.764609  0.922119  0.079351  1
  F  F15  1  0.121787  0.750000  0.144253  1
  F  F16  1  0.109481  0.250000  0.147969  1
  F  F17  1  0.387823  0.061031  0.182898  1
  F  F18  1  0.387823  0.438970  0.182898  1
  F  F19  1  0.887823  0.061031  0.317102  1
  F  F20  1  0.887823  0.438970  0.317102  1
  F  F21  1  0.609480  0.250000  0.352031  1
  F  F22  1  0.621787  0.750000  0.355747  1
  F  F23  1  0.264608  0.577880  0.420649  1
  F  F24  1  0.264608  0.922119  0.420649  1
  F  F25  1  0.958862  0.750000  0.472703  1
  F  F26  1  0.041137  0.250000  0.527297  1
  F  F27  1  0.735391  0.077881  0.579351  1
  F  F28  1  0.735391  0.422119  0.579351  1
  F  F29  1  0.378213  0.250000  0.644253  1
  F  F30  1  0.390520  0.750000  0.647969  1
  F  F31  1  0.112176  0.561031  0.682898  1
  F  F32  1  0.112176  0.938969  0.682898  1
  F  F33  1  0.612176  0.561031  0.817102  1
  F  F34  1  0.612176  0.938969  0.817102  1
  F  F35  1  0.890520  0.750000  0.852031  1
  F  F36  1  0.878213  0.250000  0.855747  1
  F  F37  1  0.235392  0.077881  0.920649  1
  F  F38  1  0.235392  0.422119  0.920649  1
  F  F39  1  0.541137  0.250000  0.972704  1
