# generated using pymatgen
data_Tm2Si5Ir2Os
_symmetry_space_group_name_H-M   'P 1'
_cell_length_a   8.12449146
_cell_length_b   8.12449212
_cell_length_c   8.12449200
_cell_angle_alpha   137.76330822
_cell_angle_beta   105.48305931
_cell_angle_gamma   89.58014970
_symmetry_Int_Tables_number   1
_chemical_formula_structural   Tm2Si5Ir2Os
_chemical_formula_sum   'Tm4 Si10 Ir4 Os2'
_cell_volume   332.06923828
_cell_formula_units_Z   2
loop_
 _symmetry_equiv_pos_site_id
 _symmetry_equiv_pos_as_xyz
  1  'x, y, z'
loop_
 _atom_site_type_symbol
 _atom_site_label
 _atom_site_symmetry_multiplicity
 _atom_site_fract_x
 _atom_site_fract_y
 _atom_site_fract_z
 _atom_site_occupancy
  Tm  Tm0  1  0.861518  0.630687  0.230831  1
  Tm  Tm1  1  0.138482  0.369313  0.769169  1
  Tm  Tm2  1  0.399855  0.130687  0.269169  1
  Tm  Tm3  1  0.600145  0.869313  0.730831  1
  Si  Si4  1  0.500000  0.750000  0.250000  1
  Si  Si5  1  0.500000  0.250000  0.750000  1
  Si  Si6  1  0.223006  0.973006  0.750000  1
  Si  Si7  1  0.776994  0.526994  0.750000  1
  Si  Si8  1  0.776994  0.026994  0.250000  1
  Si  Si9  1  0.223006  0.473006  0.250000  1
  Si  Si10  1  0.052414  0.898057  0.154357  1
  Si  Si11  1  0.947586  0.101943  0.845643  1
  Si  Si12  1  0.743699  0.398057  0.345643  1
  Si  Si13  1  0.256301  0.601943  0.654357  1
  Ir  Ir14  1  0.244568  0.858504  0.386064  1
  Ir  Ir15  1  0.755432  0.141496  0.613936  1
  Ir  Ir16  1  0.472439  0.358504  0.113936  1
  Ir  Ir17  1  0.527561  0.641496  0.886064  1
  Os  Os18  1  0.000000  0.750000  0.750000  1
  Os  Os19  1  0.000000  0.250000  0.250000  1
