# generated using pymatgen
data_Rb10CuAs4Pt
_symmetry_space_group_name_H-M   'P 1'
_cell_length_a   6.06781500
_cell_length_b   6.06781567
_cell_length_c   19.66356200
_cell_angle_alpha   90.00000000
_cell_angle_beta   90.00000000
_cell_angle_gamma   119.99999089
_symmetry_Int_Tables_number   1
_chemical_formula_structural   Rb10CuAs4Pt
_chemical_formula_sum   'Rb10 Cu1 As4 Pt1'
_cell_volume   626.98561084
_cell_formula_units_Z   1
loop_
 _symmetry_equiv_pos_site_id
 _symmetry_equiv_pos_as_xyz
  1  'x, y, z'
loop_
 _atom_site_type_symbol
 _atom_site_label
 _atom_site_symmetry_multiplicity
 _atom_site_fract_x
 _atom_site_fract_y
 _atom_site_fract_z
 _atom_site_occupancy
  Rb  Rb0  1  0.333333  0.666667  0.551851  1
  Rb  Rb1  1  0.666667  0.333333  0.046507  1
  Rb  Rb2  1  0.666667  0.333333  0.453493  1
  Rb  Rb3  1  0.333333  0.666667  0.948149  1
  Rb  Rb4  1  0.000000  0.000000  0.152589  1
  Rb  Rb5  1  0.000000  0.000000  0.646317  1
  Rb  Rb6  1  0.000000  0.000000  0.853683  1
  Rb  Rb7  1  0.000000  0.000000  0.347411  1
  Rb  Rb8  1  0.333333  0.666667  0.750000  1
  Rb  Rb9  1  0.666667  0.333333  0.250000  1
  Cu  Cu10  1  0.666667  0.333333  0.750000  1
  As  As11  1  0.333333  0.666667  0.373747  1
  As  As12  1  0.666667  0.333333  0.869781  1
  As  As13  1  0.666667  0.333333  0.630219  1
  As  As14  1  0.333333  0.666667  0.126253  1
  Pt  Pt15  1  0.333333  0.666667  0.250000  1
