# generated using pymatgen
data_Y7Er3(PPb3)2
_symmetry_space_group_name_H-M   'P 1'
_cell_length_a   9.14449700
_cell_length_b   9.14449650
_cell_length_c   6.81738800
_cell_angle_alpha   90.00000000
_cell_angle_beta   90.00000000
_cell_angle_gamma   119.99999094
_symmetry_Int_Tables_number   1
_chemical_formula_structural   Y7Er3(PPb3)2
_chemical_formula_sum   'Y7 Er3 P2 Pb6'
_cell_volume   493.70588396
_cell_formula_units_Z   1
loop_
 _symmetry_equiv_pos_site_id
 _symmetry_equiv_pos_as_xyz
  1  'x, y, z'
loop_
 _atom_site_type_symbol
 _atom_site_label
 _atom_site_symmetry_multiplicity
 _atom_site_fract_x
 _atom_site_fract_y
 _atom_site_fract_z
 _atom_site_occupancy
  Y  Y0  1  0.762525  0.762525  0.250000  1
  Y  Y1  1  0.237475  0.000000  0.250000  1
  Y  Y2  1  0.000000  0.237475  0.250000  1
  Y  Y3  1  0.666667  0.333333  0.500172  1
  Y  Y4  1  0.333333  0.666667  0.500172  1
  Y  Y5  1  0.333333  0.666667  0.999828  1
  Y  Y6  1  0.666667  0.333333  0.999828  1
  Er  Er7  1  0.236265  0.236265  0.750000  1
  Er  Er8  1  0.763735  0.000000  0.750000  1
  Er  Er9  1  0.000000  0.763735  0.750000  1
  P  P10  1  0.000000  0.000000  0.502220  1
  P  P11  1  0.000000  0.000000  0.997780  1
  Pb  Pb12  1  0.400986  0.400986  0.250000  1
  Pb  Pb13  1  0.599014  0.000000  0.250000  1
  Pb  Pb14  1  0.000000  0.599014  0.250000  1
  Pb  Pb15  1  0.599461  0.599461  0.750000  1
  Pb  Pb16  1  0.400539  0.000000  0.750000  1
  Pb  Pb17  1  0.000000  0.400539  0.750000  1
