# generated using pymatgen
data_Nd8EuTm11Sn16
_symmetry_space_group_name_H-M   'P 1'
_cell_length_a   8.09835685
_cell_length_b   8.25546601
_cell_length_c   15.57672800
_cell_angle_alpha   90.08837144
_cell_angle_beta   90.03868604
_cell_angle_gamma   90.12665028
_symmetry_Int_Tables_number   1
_chemical_formula_structural   Nd8EuTm11Sn16
_chemical_formula_sum   'Nd8 Eu1 Tm11 Sn16'
_cell_volume   1041.38918190
_cell_formula_units_Z   1
loop_
 _symmetry_equiv_pos_site_id
 _symmetry_equiv_pos_as_xyz
  1  'x, y, z'
loop_
 _atom_site_type_symbol
 _atom_site_label
 _atom_site_symmetry_multiplicity
 _atom_site_fract_x
 _atom_site_fract_y
 _atom_site_fract_z
 _atom_site_occupancy
  Nd  Nd0  1  0.861642  0.663532  0.879589  1
  Nd  Nd1  1  0.516158  0.322052  0.903001  1
  Nd  Nd2  1  0.014128  0.178727  0.593913  1
  Nd  Nd3  1  0.484677  0.677691  0.403325  1
  Nd  Nd4  1  0.984285  0.821132  0.098987  1
  Nd  Nd5  1  0.484144  0.677466  0.098310  1
  Nd  Nd6  1  0.984641  0.822210  0.402737  1
  Nd  Nd7  1  0.513989  0.320756  0.594860  1
  Eu  Eu8  1  0.016357  0.179189  0.904795  1
  Tm  Tm9  1  0.357892  0.836310  0.874495  1
  Tm  Tm10  1  0.859600  0.663113  0.621787  1
  Tm  Tm11  1  0.640095  0.162486  0.376269  1
  Tm  Tm12  1  0.139596  0.337910  0.122831  1
  Tm  Tm13  1  0.639877  0.164065  0.127548  1
  Tm  Tm14  1  0.140497  0.336413  0.376577  1
  Tm  Tm15  1  0.360673  0.837485  0.621416  1
  Tm  Tm16  1  0.194081  0.503335  0.749055  1
  Tm  Tm17  1  0.693880  0.997688  0.748543  1
  Tm  Tm18  1  0.805929  0.496261  0.251217  1
  Tm  Tm19  1  0.306198  0.003755  0.250542  1
  Sn  Sn20  1  0.309574  0.039073  0.043314  1
  Sn  Sn21  1  0.803893  0.458600  0.457626  1
  Sn  Sn22  1  0.697242  0.958418  0.541360  1
  Sn  Sn23  1  0.207454  0.540593  0.959119  1
  Sn  Sn24  1  0.685135  0.963844  0.960590  1
  Sn  Sn25  1  0.195758  0.541033  0.541397  1
  Sn  Sn26  1  0.303226  0.041219  0.456823  1
  Sn  Sn27  1  0.800699  0.457193  0.047633  1
  Sn  Sn28  1  0.557599  0.624368  0.746835  1
  Sn  Sn29  1  0.061360  0.878128  0.746920  1
  Sn  Sn30  1  0.439528  0.375308  0.251444  1
  Sn  Sn31  1  0.941845  0.124895  0.250016  1
  Sn  Sn32  1  0.325556  0.142480  0.748530  1
  Sn  Sn33  1  0.822279  0.355304  0.747203  1
  Sn  Sn34  1  0.675332  0.855752  0.250995  1
  Sn  Sn35  1  0.175179  0.642217  0.250393  1
