# generated using pymatgen
data_Ac2Tb(MgPt)3
_symmetry_space_group_name_H-M   'P 1'
_cell_length_a   7.77018600
_cell_length_b   7.66080367
_cell_length_c   4.23316900
_cell_angle_alpha   90.00000000
_cell_angle_beta   90.00000000
_cell_angle_gamma   119.53541664
_symmetry_Int_Tables_number   1
_chemical_formula_structural   Ac2Tb(MgPt)3
_chemical_formula_sum   'Ac2 Tb1 Mg3 Pt3'
_cell_volume   219.23815420
_cell_formula_units_Z   1
loop_
 _symmetry_equiv_pos_site_id
 _symmetry_equiv_pos_as_xyz
  1  'x, y, z'
loop_
 _atom_site_type_symbol
 _atom_site_label
 _atom_site_symmetry_multiplicity
 _atom_site_fract_x
 _atom_site_fract_y
 _atom_site_fract_z
 _atom_site_occupancy
  Ac  Ac0  1  0.583204  0.584630  0.000000  1
  Ac  Ac1  1  0.416796  0.001425  0.000000  1
  Tb  Tb2  1  0.000000  0.406764  0.000000  1
  Mg  Mg3  1  0.000000  0.756183  0.500000  1
  Mg  Mg4  1  0.225893  0.237688  0.500000  1
  Mg  Mg5  1  0.774107  0.011795  0.500000  1
  Pt  Pt6  1  0.000000  0.008102  0.000000  1
  Pt  Pt7  1  0.315518  0.654466  0.500000  1
  Pt  Pt8  1  0.684482  0.338947  0.500000  1
