# generated using pymatgen
data_Th2Be25Ni
_symmetry_space_group_name_H-M   'P 1'
_cell_length_a   7.31254196
_cell_length_b   7.33123657
_cell_length_c   7.34297604
_cell_angle_alpha   59.77855779
_cell_angle_beta   60.03097910
_cell_angle_gamma   59.90354307
_symmetry_Int_Tables_number   1
_chemical_formula_structural   Th2Be25Ni
_chemical_formula_sum   'Th2 Be25 Ni1'
_cell_volume   277.75071044
_cell_formula_units_Z   1
loop_
 _symmetry_equiv_pos_site_id
 _symmetry_equiv_pos_as_xyz
  1  'x, y, z'
loop_
 _atom_site_type_symbol
 _atom_site_label
 _atom_site_symmetry_multiplicity
 _atom_site_fract_x
 _atom_site_fract_y
 _atom_site_fract_z
 _atom_site_occupancy
  Th  Th0  1  0.250164  0.246956  0.252973  1
  Th  Th1  1  0.753044  0.749836  0.750093  1
  Be  Be2  1  0.497995  0.502005  0.500023  1
  Be  Be3  1  0.999708  0.000292  0.001735  1
  Be  Be4  1  0.062066  0.287338  0.714094  1
  Be  Be5  1  0.712662  0.937934  0.063497  1
  Be  Be6  1  0.063908  0.936092  0.286148  1
  Be  Be7  1  0.934142  0.065858  0.716251  1
  Be  Be8  1  0.937272  0.286777  0.062922  1
  Be  Be9  1  0.713223  0.062728  0.286972  1
  Be  Be10  1  0.563932  0.789390  0.436047  1
  Be  Be11  1  0.439666  0.789127  0.208249  1
  Be  Be12  1  0.790227  0.439576  0.562316  1
  Be  Be13  1  0.439912  0.210359  0.560909  1
  Be  Be14  1  0.789641  0.560088  0.211178  1
  Be  Be15  1  0.560424  0.209773  0.792118  1
  Be  Be16  1  0.210610  0.436068  0.789370  1
  Be  Be17  1  0.210873  0.560334  0.437042  1
  Be  Be18  1  0.711588  0.288412  0.936784  1
  Be  Be19  1  0.287108  0.063226  0.934794  1
  Be  Be20  1  0.287423  0.936924  0.712860  1
  Be  Be21  1  0.063076  0.712577  0.937207  1
  Be  Be22  1  0.936774  0.712892  0.285128  1
  Be  Be23  1  0.289369  0.710631  0.063056  1
  Be  Be24  1  0.563239  0.436761  0.209864  1
  Be  Be25  1  0.793363  0.206637  0.440276  1
  Be  Be26  1  0.434981  0.565019  0.787983  1
  Ni  Ni27  1  0.203610  0.796390  0.560114  1
