# generated using pymatgen
data_Dy2Lu10AlCo4Pb
_symmetry_space_group_name_H-M   'P 1'
_cell_length_a   8.23248788
_cell_length_b   8.17990175
_cell_length_c   8.17990133
_cell_angle_alpha   111.83579003
_cell_angle_beta   109.55537405
_cell_angle_gamma   106.81742460
_symmetry_Int_Tables_number   1
_chemical_formula_structural   Dy2Lu10AlCo4Pb
_chemical_formula_sum   'Dy2 Lu10 Al1 Co4 Pb1'
_cell_volume   424.49578826
_cell_formula_units_Z   1
loop_
 _symmetry_equiv_pos_site_id
 _symmetry_equiv_pos_as_xyz
  1  'x, y, z'
loop_
 _atom_site_type_symbol
 _atom_site_label
 _atom_site_symmetry_multiplicity
 _atom_site_fract_x
 _atom_site_fract_y
 _atom_site_fract_z
 _atom_site_occupancy
  Dy  Dy0  1  0.437441  0.233300  0.204140  1
  Dy  Dy1  1  0.562559  0.766700  0.795860  1
  Lu  Lu2  1  0.031920  0.236145  0.795777  1
  Lu  Lu3  1  0.968080  0.763855  0.204223  1
  Lu  Lu4  1  0.178690  0.279621  0.460074  1
  Lu  Lu5  1  0.821310  0.720379  0.539926  1
  Lu  Lu6  1  0.178690  0.718617  0.899068  1
  Lu  Lu7  1  0.821310  0.281383  0.100932  1
  Lu  Lu8  1  0.321675  0.638484  0.311651  1
  Lu  Lu9  1  0.678325  0.361516  0.688349  1
  Lu  Lu10  1  0.321675  0.010025  0.683191  1
  Lu  Lu11  1  0.678325  0.989975  0.316809  1
  Al  Al12  1  0.000000  0.000000  0.000000  1
  Co  Co13  1  0.334746  0.998179  0.336568  1
  Co  Co14  1  0.665254  0.001821  0.663432  1
  Co  Co15  1  0.109496  0.615180  0.494315  1
  Co  Co16  1  0.890504  0.384820  0.505685  1
  Pb  Pb17  1  0.500000  0.500000  0.000000  1
