# generated using pymatgen
data_Lu10Si5As
_symmetry_space_group_name_H-M   'P 1'
_cell_length_a   8.23477200
_cell_length_b   8.24631260
_cell_length_c   6.13908900
_cell_angle_alpha   90.00000000
_cell_angle_beta   90.00000000
_cell_angle_gamma   119.95372418
_symmetry_Int_Tables_number   1
_chemical_formula_structural   Lu10Si5As
_chemical_formula_sum   'Lu10 Si5 As1'
_cell_volume   361.20043073
_cell_formula_units_Z   1
loop_
 _symmetry_equiv_pos_site_id
 _symmetry_equiv_pos_as_xyz
  1  'x, y, z'
loop_
 _atom_site_type_symbol
 _atom_site_label
 _atom_site_symmetry_multiplicity
 _atom_site_fract_x
 _atom_site_fract_y
 _atom_site_fract_z
 _atom_site_occupancy
  Lu  Lu0  1  0.668726  0.335763  0.001015  1
  Lu  Lu1  1  0.332962  0.664237  0.498985  1
  Lu  Lu2  1  0.332962  0.664237  0.001015  1
  Lu  Lu3  1  0.668726  0.335763  0.498985  1
  Lu  Lu4  1  0.759710  0.000000  0.750000  1
  Lu  Lu5  1  0.757657  0.757289  0.250000  1
  Lu  Lu6  1  0.000368  0.242711  0.250000  1
  Lu  Lu7  1  0.996698  0.755184  0.750000  1
  Lu  Lu8  1  0.241514  0.244816  0.750000  1
  Lu  Lu9  1  0.241663  0.000000  0.250000  1
  Si  Si10  1  0.394733  0.393652  0.250000  1
  Si  Si11  1  0.001080  0.606348  0.250000  1
  Si  Si12  1  0.999729  0.394563  0.750000  1
  Si  Si13  1  0.605167  0.605437  0.750000  1
  Si  Si14  1  0.606252  0.000000  0.250000  1
  As  As15  1  0.392052  0.000000  0.750000  1
