# generated using pymatgen
data_PbCl8
_symmetry_space_group_name_H-M   'P 1'
_cell_length_a   4.54797417
_cell_length_b   5.19711007
_cell_length_c   15.73444727
_cell_angle_alpha   80.04008367
_cell_angle_beta   100.09076275
_cell_angle_gamma   117.38143522
_symmetry_Int_Tables_number   1
_chemical_formula_structural   PbCl8
_chemical_formula_sum   'Pb1 Cl8'
_cell_volume   323.30935664
_cell_formula_units_Z   1
loop_
 _symmetry_equiv_pos_site_id
 _symmetry_equiv_pos_as_xyz
  1  'x, y, z'
loop_
 _atom_site_type_symbol
 _atom_site_label
 _atom_site_symmetry_multiplicity
 _atom_site_fract_x
 _atom_site_fract_y
 _atom_site_fract_z
 _atom_site_occupancy
  Pb  Pb0  1  0.016676  0.483067  0.906517  1
  Cl  Cl1  1  0.916767  0.714858  0.704922  1
  Cl  Cl2  1  0.844844  0.041651  0.202945  1
  Cl  Cl3  1  0.199949  0.282056  0.121533  1
  Cl  Cl4  1  0.660865  0.638887  0.001923  1
  Cl  Cl5  1  0.483411  0.007450  0.488914  1
  Cl  Cl6  1  0.684761  0.429755  0.612666  1
  Cl  Cl7  1  0.275806  0.084263  0.849123  1
  Cl  Cl8  1  0.224187  0.029272  0.372045  1
