# generated using pymatgen
data_ErTiFeB6
_symmetry_space_group_name_H-M   'P 1'
_cell_length_a   3.32220800
_cell_length_b   8.81069500
_cell_length_c   11.14518200
_cell_angle_alpha   90.00000000
_cell_angle_beta   90.00000000
_cell_angle_gamma   90.00000000
_symmetry_Int_Tables_number   1
_chemical_formula_structural   ErTiFeB6
_chemical_formula_sum   'Er4 Ti4 Fe4 B24'
_cell_volume   326.23019228
_cell_formula_units_Z   4
loop_
 _symmetry_equiv_pos_site_id
 _symmetry_equiv_pos_as_xyz
  1  'x, y, z'
loop_
 _atom_site_type_symbol
 _atom_site_label
 _atom_site_symmetry_multiplicity
 _atom_site_fract_x
 _atom_site_fract_y
 _atom_site_fract_z
 _atom_site_occupancy
  Er  Er0  1  0.000000  0.821573  0.085662  1
  Er  Er1  1  0.000000  0.178427  0.914338  1
  Er  Er2  1  0.000000  0.321573  0.414338  1
  Er  Er3  1  0.000000  0.678427  0.585662  1
  Ti  Ti4  1  0.000000  0.444815  0.126486  1
  Ti  Ti5  1  0.000000  0.555185  0.873514  1
  Ti  Ti6  1  0.000000  0.944815  0.373514  1
  Ti  Ti7  1  0.000000  0.055185  0.626486  1
  Fe  Fe8  1  0.000000  0.144263  0.183669  1
  Fe  Fe9  1  0.000000  0.855737  0.816331  1
  Fe  Fe10  1  0.000000  0.644263  0.316331  1
  Fe  Fe11  1  0.000000  0.355737  0.683669  1
  B  B12  1  0.500000  0.055947  0.068008  1
  B  B13  1  0.500000  0.944053  0.931992  1
  B  B14  1  0.500000  0.555947  0.431992  1
  B  B15  1  0.500000  0.444053  0.568008  1
  B  B16  1  0.500000  0.254561  0.083273  1
  B  B17  1  0.500000  0.745439  0.916727  1
  B  B18  1  0.500000  0.754561  0.416727  1
  B  B19  1  0.500000  0.245439  0.583273  1
  B  B20  1  0.500000  0.296009  0.235446  1
  B  B21  1  0.500000  0.703991  0.764554  1
  B  B22  1  0.500000  0.796009  0.264554  1
  B  B23  1  0.500000  0.203991  0.735446  1
  B  B24  1  0.500000  0.128977  0.317678  1
  B  B25  1  0.500000  0.871023  0.682322  1
  B  B26  1  0.500000  0.628977  0.182322  1
  B  B27  1  0.500000  0.371023  0.817678  1
  B  B28  1  0.500000  0.483744  0.285844  1
  B  B29  1  0.500000  0.516256  0.714156  1
  B  B30  1  0.500000  0.983744  0.214156  1
  B  B31  1  0.500000  0.016256  0.785844  1
  B  B32  1  0.500000  0.097362  0.474228  1
  B  B33  1  0.500000  0.902638  0.525772  1
  B  B34  1  0.500000  0.597362  0.025772  1
  B  B35  1  0.500000  0.402638  0.974228  1
