# generated using pymatgen
data_Dy2Ho2FeSi4Rh
_symmetry_space_group_name_H-M   'P 1'
_cell_length_a   5.65853098
_cell_length_b   5.65853045
_cell_length_c   10.05554012
_cell_angle_alpha   63.25360897
_cell_angle_beta   63.25361118
_cell_angle_gamma   43.35107313
_symmetry_Int_Tables_number   1
_chemical_formula_structural   Dy2Ho2FeSi4Rh
_chemical_formula_sum   'Dy2 Ho2 Fe1 Si4 Rh1'
_cell_volume   193.37289554
_cell_formula_units_Z   1
loop_
 _symmetry_equiv_pos_site_id
 _symmetry_equiv_pos_as_xyz
  1  'x, y, z'
loop_
 _atom_site_type_symbol
 _atom_site_label
 _atom_site_symmetry_multiplicity
 _atom_site_fract_x
 _atom_site_fract_y
 _atom_site_fract_z
 _atom_site_occupancy
  Dy  Dy0  1  0.812898  0.812898  0.108155  1
  Dy  Dy1  1  0.186374  0.186374  0.890002  1
  Ho  Ho2  1  0.002600  0.002600  0.324758  1
  Ho  Ho3  1  0.999258  0.999258  0.672886  1
  Fe  Fe4  1  0.273393  0.273393  0.377410  1
  Si  Si5  1  0.652331  0.652331  0.430677  1
  Si  Si6  1  0.359054  0.359054  0.558512  1
  Si  Si7  1  0.500216  0.500216  0.128135  1
  Si  Si8  1  0.487526  0.487526  0.881163  1
  Rh  Rh9  1  0.726351  0.726351  0.628301  1
