# generated using pymatgen
data_Ce2Tc6P7Ir6
_symmetry_space_group_name_H-M   'P 1'
_cell_length_a   9.52771900
_cell_length_b   9.52771865
_cell_length_c   3.99292400
_cell_angle_alpha   90.00000000
_cell_angle_beta   90.00000000
_cell_angle_gamma   120.00000469
_symmetry_Int_Tables_number   1
_chemical_formula_structural   Ce2Tc6P7Ir6
_chemical_formula_sum   'Ce2 Tc6 P7 Ir6'
_cell_volume   313.90592950
_cell_formula_units_Z   1
loop_
 _symmetry_equiv_pos_site_id
 _symmetry_equiv_pos_as_xyz
  1  'x, y, z'
loop_
 _atom_site_type_symbol
 _atom_site_label
 _atom_site_symmetry_multiplicity
 _atom_site_fract_x
 _atom_site_fract_y
 _atom_site_fract_z
 _atom_site_occupancy
  Ce  Ce0  1  0.000000  0.000000  0.000000  1
  Ce  Ce1  1  0.333333  0.666667  0.500000  1
  Tc  Tc2  1  0.826317  0.605634  0.000000  1
  Tc  Tc3  1  0.779317  0.173683  0.000000  1
  Tc  Tc4  1  0.394366  0.220683  0.000000  1
  Tc  Tc5  1  0.886553  0.427909  0.500000  1
  Tc  Tc6  1  0.541356  0.113447  0.500000  1
  Tc  Tc7  1  0.572091  0.458644  0.500000  1
  P  P8  1  0.077818  0.631777  0.000000  1
  P  P9  1  0.553959  0.922182  0.000000  1
  P  P10  1  0.368223  0.446041  0.000000  1
  P  P11  1  0.783740  0.730563  0.500000  1
  P  P12  1  0.946823  0.216260  0.500000  1
  P  P13  1  0.269437  0.053177  0.500000  1
  P  P14  1  0.666667  0.333333  0.000000  1
  Ir  Ir15  1  0.103400  0.405005  0.000000  1
  Ir  Ir16  1  0.301605  0.896600  0.000000  1
  Ir  Ir17  1  0.594995  0.698395  0.000000  1
  Ir  Ir18  1  0.058126  0.779935  0.500000  1
  Ir  Ir19  1  0.721808  0.941874  0.500000  1
  Ir  Ir20  1  0.220065  0.278192  0.500000  1
