# generated using pymatgen
data_La4AgPd4Pb
_symmetry_space_group_name_H-M   'P 1'
_cell_length_a   7.97561400
_cell_length_b   7.97561400
_cell_length_c   3.95503200
_cell_angle_alpha   90.00000000
_cell_angle_beta   90.00000000
_cell_angle_gamma   90.00000000
_symmetry_Int_Tables_number   1
_chemical_formula_structural   La4AgPd4Pb
_chemical_formula_sum   'La4 Ag1 Pd4 Pb1'
_cell_volume   251.58124140
_cell_formula_units_Z   1
loop_
 _symmetry_equiv_pos_site_id
 _symmetry_equiv_pos_as_xyz
  1  'x, y, z'
loop_
 _atom_site_type_symbol
 _atom_site_label
 _atom_site_symmetry_multiplicity
 _atom_site_fract_x
 _atom_site_fract_y
 _atom_site_fract_z
 _atom_site_occupancy
  La  La0  1  0.678658  0.176834  0.500000  1
  La  La1  1  0.176834  0.321342  0.500000  1
  La  La2  1  0.823166  0.678658  0.500000  1
  La  La3  1  0.321342  0.823166  0.500000  1
  Ag  Ag4  1  0.000000  0.000000  0.000000  1
  Pd  Pd5  1  0.374796  0.124505  0.000000  1
  Pd  Pd6  1  0.124505  0.625204  0.000000  1
  Pd  Pd7  1  0.625204  0.875495  0.000000  1
  Pd  Pd8  1  0.875495  0.374796  0.000000  1
  Pb  Pb9  1  0.500000  0.500000  0.000000  1
