# generated using pymatgen
data_Mn5Fe(SiW2)2
_symmetry_space_group_name_H-M   'P 1'
_cell_length_a   4.77536417
_cell_length_b   4.77536491
_cell_length_c   7.72547800
_cell_angle_alpha   90.00000000
_cell_angle_beta   90.00000000
_cell_angle_gamma   119.89079112
_symmetry_Int_Tables_number   1
_chemical_formula_structural   Mn5Fe(SiW2)2
_chemical_formula_sum   'Mn5 Fe1 Si2 W4'
_cell_volume   152.73758705
_cell_formula_units_Z   1
loop_
 _symmetry_equiv_pos_site_id
 _symmetry_equiv_pos_as_xyz
  1  'x, y, z'
loop_
 _atom_site_type_symbol
 _atom_site_label
 _atom_site_symmetry_multiplicity
 _atom_site_fract_x
 _atom_site_fract_y
 _atom_site_fract_z
 _atom_site_occupancy
  Mn  Mn0  1  0.829354  0.654901  0.750000  1
  Mn  Mn1  1  0.345099  0.170646  0.750000  1
  Mn  Mn2  1  0.170616  0.829384  0.250000  1
  Mn  Mn3  1  0.171540  0.342586  0.250000  1
  Mn  Mn4  1  0.657414  0.828460  0.250000  1
  Fe  Fe5  1  0.830407  0.169593  0.750000  1
  Si  Si6  1  0.999190  0.000810  0.999149  1
  Si  Si7  1  0.999190  0.000810  0.500851  1
  W  W8  1  0.332379  0.667621  0.936309  1
  W  W9  1  0.666217  0.333783  0.065564  1
  W  W10  1  0.666217  0.333783  0.434436  1
  W  W11  1  0.332379  0.667621  0.563691  1
