# generated using pymatgen
data_Nd20Ge8Ir3Os
_symmetry_space_group_name_H-M   'P 1'
_cell_length_a   7.96641749
_cell_length_b   8.93270500
_cell_length_c   12.41335832
_cell_angle_alpha   90.00000000
_cell_angle_beta   90.07004224
_cell_angle_gamma   90.00000000
_symmetry_Int_Tables_number   1
_chemical_formula_structural   Nd20Ge8Ir3Os
_chemical_formula_sum   'Nd20 Ge8 Ir3 Os1'
_cell_volume   883.35449093
_cell_formula_units_Z   1
loop_
 _symmetry_equiv_pos_site_id
 _symmetry_equiv_pos_as_xyz
  1  'x, y, z'
loop_
 _atom_site_type_symbol
 _atom_site_label
 _atom_site_symmetry_multiplicity
 _atom_site_fract_x
 _atom_site_fract_y
 _atom_site_fract_z
 _atom_site_occupancy
  Nd  Nd0  1  0.677326  0.465919  0.925092  1
  Nd  Nd1  1  0.178471  0.964465  0.575859  1
  Nd  Nd2  1  0.677326  0.034081  0.925092  1
  Nd  Nd3  1  0.821426  0.464629  0.424499  1
  Nd  Nd4  1  0.959908  0.750000  0.999914  1
  Nd  Nd5  1  0.460869  0.250000  0.500091  1
  Nd  Nd6  1  0.040476  0.250000  0.000075  1
  Nd  Nd7  1  0.539533  0.750000  0.499314  1
  Nd  Nd8  1  0.321870  0.535797  0.074578  1
  Nd  Nd9  1  0.821426  0.035371  0.424499  1
  Nd  Nd10  1  0.321870  0.964203  0.074578  1
  Nd  Nd11  1  0.178471  0.535535  0.575859  1
  Nd  Nd12  1  0.351998  0.750000  0.798213  1
  Nd  Nd13  1  0.848024  0.250000  0.703468  1
  Nd  Nd14  1  0.651384  0.250000  0.203026  1
  Nd  Nd15  1  0.151156  0.750000  0.297130  1
  Nd  Nd16  1  0.825609  0.750000  0.718727  1
  Nd  Nd17  1  0.325786  0.250000  0.781799  1
  Nd  Nd18  1  0.173593  0.250000  0.282232  1
  Nd  Nd19  1  0.672067  0.750000  0.216268  1
  Ge  Ge20  1  0.556157  0.495096  0.671375  1
  Ge  Ge21  1  0.943846  0.004969  0.171682  1
  Ge  Ge22  1  0.443581  0.995367  0.328351  1
  Ge  Ge23  1  0.056120  0.504492  0.828394  1
  Ge  Ge24  1  0.443581  0.504633  0.328351  1
  Ge  Ge25  1  0.056120  0.995508  0.828394  1
  Ge  Ge26  1  0.556157  0.004904  0.671375  1
  Ge  Ge27  1  0.943846  0.495031  0.171682  1
  Ir  Ir28  1  0.072293  0.250000  0.513287  1
  Ir  Ir29  1  0.426496  0.250000  0.013343  1
  Ir  Ir30  1  0.927778  0.750000  0.486997  1
  Os  Os31  1  0.575437  0.750000  0.986460  1
