# generated using pymatgen
data_Sc12FeSi12IrRh2
_symmetry_space_group_name_H-M   'P 1'
_cell_length_a   4.02930000
_cell_length_b   10.17798386
_cell_length_c   11.66541073
_cell_angle_alpha   89.81735855
_cell_angle_beta   90.00000000
_cell_angle_gamma   90.00000000
_symmetry_Int_Tables_number   1
_chemical_formula_structural   Sc12FeSi12IrRh2
_chemical_formula_sum   'Sc12 Fe1 Si12 Ir1 Rh2'
_cell_volume   478.39781759
_cell_formula_units_Z   1
loop_
 _symmetry_equiv_pos_site_id
 _symmetry_equiv_pos_as_xyz
  1  'x, y, z'
loop_
 _atom_site_type_symbol
 _atom_site_label
 _atom_site_symmetry_multiplicity
 _atom_site_fract_x
 _atom_site_fract_y
 _atom_site_fract_z
 _atom_site_occupancy
  Sc  Sc0  1  0.250000  0.876775  0.018166  1
  Sc  Sc1  1  0.250000  0.617635  0.524593  1
  Sc  Sc2  1  0.750000  0.123520  0.978465  1
  Sc  Sc3  1  0.750000  0.376322  0.480747  1
  Sc  Sc4  1  0.250000  0.920038  0.603188  1
  Sc  Sc5  1  0.250000  0.580396  0.102155  1
  Sc  Sc6  1  0.750000  0.079548  0.398920  1
  Sc  Sc7  1  0.750000  0.420933  0.900249  1
  Sc  Sc8  1  0.250000  0.652753  0.797330  1
  Sc  Sc9  1  0.250000  0.841499  0.299936  1
  Sc  Sc10  1  0.750000  0.342742  0.199845  1
  Sc  Sc11  1  0.750000  0.163860  0.700214  1
  Fe  Fe12  1  0.250000  0.391572  0.674994  1
  Si  Si13  1  0.250000  0.017278  0.821533  1
  Si  Si14  1  0.250000  0.485648  0.322960  1
  Si  Si15  1  0.750000  0.985599  0.177848  1
  Si  Si16  1  0.750000  0.503264  0.680109  1
  Si  Si17  1  0.250000  0.257028  0.836460  1
  Si  Si18  1  0.250000  0.249483  0.342509  1
  Si  Si19  1  0.750000  0.749954  0.157383  1
  Si  Si20  1  0.750000  0.747455  0.658567  1
  Si  Si21  1  0.250000  0.198431  0.548136  1
  Si  Si22  1  0.250000  0.306983  0.043237  1
  Si  Si23  1  0.750000  0.805884  0.456331  1
  Si  Si24  1  0.750000  0.693017  0.953464  1
  Ir  Ir25  1  0.750000  0.890422  0.822278  1
  Rh  Rh26  1  0.250000  0.110982  0.176742  1
  Rh  Rh27  1  0.750000  0.610981  0.323645  1
