# generated using pymatgen
data_Tb3YCd2Cu3Ru
_symmetry_space_group_name_H-M   'P 1'
_cell_length_a   7.50909477
_cell_length_b   7.50909454
_cell_length_c   3.80204000
_cell_angle_alpha   90.00000000
_cell_angle_beta   90.00000000
_cell_angle_gamma   89.42518689
_symmetry_Int_Tables_number   1
_chemical_formula_structural   Tb3YCd2Cu3Ru
_chemical_formula_sum   'Tb3 Y1 Cd2 Cu3 Ru1'
_cell_volume   214.37294942
_cell_formula_units_Z   1
loop_
 _symmetry_equiv_pos_site_id
 _symmetry_equiv_pos_as_xyz
  1  'x, y, z'
loop_
 _atom_site_type_symbol
 _atom_site_label
 _atom_site_symmetry_multiplicity
 _atom_site_fract_x
 _atom_site_fract_y
 _atom_site_fract_z
 _atom_site_occupancy
  Tb  Tb0  1  0.313473  0.813473  0.500000  1
  Tb  Tb1  1  0.182559  0.339981  0.500000  1
  Tb  Tb2  1  0.839981  0.682559  0.500000  1
  Y  Y3  1  0.671866  0.171866  0.500000  1
  Cd  Cd4  1  0.999465  0.007406  0.000000  1
  Cd  Cd5  1  0.507406  0.499465  0.000000  1
  Cu  Cu6  1  0.875185  0.375185  0.000000  1
  Cu  Cu7  1  0.615960  0.876806  0.000000  1
  Cu  Cu8  1  0.376806  0.115960  0.000000  1
  Ru  Ru9  1  0.117299  0.617299  0.000000  1
