# generated using pymatgen
data_Ce10CuSn6Br
_symmetry_space_group_name_H-M   'P 1'
_cell_length_a   6.57351019
_cell_length_b   9.48664928
_cell_length_c   9.48745321
_cell_angle_alpha   119.99719889
_cell_angle_beta   89.98628746
_cell_angle_gamma   90.02742703
_symmetry_Int_Tables_number   1
_chemical_formula_structural   Ce10CuSn6Br
_chemical_formula_sum   'Ce10 Cu1 Sn6 Br1'
_cell_volume   512.39239159
_cell_formula_units_Z   1
loop_
 _symmetry_equiv_pos_site_id
 _symmetry_equiv_pos_as_xyz
  1  'x, y, z'
loop_
 _atom_site_type_symbol
 _atom_site_label
 _atom_site_symmetry_multiplicity
 _atom_site_fract_x
 _atom_site_fract_y
 _atom_site_fract_z
 _atom_site_occupancy
  Ce  Ce0  1  0.757264  0.268707  0.000000  1
  Ce  Ce1  1  0.757436  0.731264  0.731344  1
  Ce  Ce2  1  0.757436  0.999919  0.268656  1
  Ce  Ce3  1  0.242500  0.731039  0.000000  1
  Ce  Ce4  1  0.242745  0.268886  0.268836  1
  Ce  Ce5  1  0.242745  0.000051  0.731164  1
  Ce  Ce6  1  0.499756  0.333337  0.666630  1
  Ce  Ce7  1  0.499756  0.666707  0.333370  1
  Ce  Ce8  1  0.000228  0.666674  0.333328  1
  Ce  Ce9  1  0.000228  0.333347  0.666672  1
  Cu  Cu10  1  0.000044  0.000238  0.000000  1
  Sn  Sn11  1  0.749437  0.617751  0.000000  1
  Sn  Sn12  1  0.749550  0.382069  0.382124  1
  Sn  Sn13  1  0.749550  0.999946  0.617876  1
  Sn  Sn14  1  0.250448  0.382141  0.000000  1
  Sn  Sn15  1  0.250435  0.617954  0.617838  1
  Sn  Sn16  1  0.250435  0.000115  0.382162  1
  Br  Br17  1  0.500007  0.999855  0.000000  1
