# generated using pymatgen
data_Th3Sc(Sn5Rh3)2
_symmetry_space_group_name_H-M   'P 1'
_cell_length_a   13.55142075
_cell_length_b   13.55142064
_cell_length_c   7.28947629
_cell_angle_alpha   89.87859515
_cell_angle_beta   90.12140445
_cell_angle_gamma   160.90234587
_symmetry_Int_Tables_number   1
_chemical_formula_structural   Th3Sc(Sn5Rh3)2
_chemical_formula_sum   'Th3 Sc1 Sn10 Rh6'
_cell_volume   437.97636980
_cell_formula_units_Z   1
loop_
 _symmetry_equiv_pos_site_id
 _symmetry_equiv_pos_as_xyz
  1  'x, y, z'
loop_
 _atom_site_type_symbol
 _atom_site_label
 _atom_site_symmetry_multiplicity
 _atom_site_fract_x
 _atom_site_fract_y
 _atom_site_fract_z
 _atom_site_occupancy
  Th  Th0  1  0.170606  0.829394  0.758411  1
  Th  Th1  1  0.828620  0.171380  0.258024  1
  Th  Th2  1  0.475622  0.524378  0.732957  1
  Sc  Sc3  1  0.527051  0.472949  0.236352  1
  Sn  Sn4  1  0.878051  0.121949  0.731350  1
  Sn  Sn5  1  0.119304  0.880696  0.235503  1
  Sn  Sn6  1  0.704344  0.295656  0.052821  1
  Sn  Sn7  1  0.294750  0.705250  0.551891  1
  Sn  Sn8  1  0.595591  0.404409  0.605418  1
  Sn  Sn9  1  0.405635  0.594365  0.114002  1
  Sn  Sn10  1  0.955439  0.044561  0.386121  1
  Sn  Sn11  1  0.048107  0.951893  0.906424  1
  Sn  Sn12  1  0.290148  0.709852  0.977044  1
  Sn  Sn13  1  0.709040  0.290960  0.475999  1
  Rh  Rh14  1  0.050274  0.949726  0.514026  1
  Rh  Rh15  1  0.949052  0.050948  0.010791  1
  Rh  Rh16  1  0.775783  0.224217  0.767756  1
  Rh  Rh17  1  0.222687  0.777313  0.268116  1
  Rh  Rh18  1  0.395735  0.604265  0.486378  1
  Rh  Rh19  1  0.604159  0.395841  0.986615  1
