# generated using pymatgen
data_Hf16Ni4W3Au
_symmetry_space_group_name_H-M   'P 1'
_cell_length_a   8.68740956
_cell_length_b   8.68740997
_cell_length_c   8.68741100
_cell_angle_alpha   59.98334325
_cell_angle_beta   59.98332647
_cell_angle_gamma   59.98333574
_symmetry_Int_Tables_number   1
_chemical_formula_structural   Hf16Ni4W3Au
_chemical_formula_sum   'Hf16 Ni4 W3 Au1'
_cell_volume   463.43821679
_cell_formula_units_Z   1
loop_
 _symmetry_equiv_pos_site_id
 _symmetry_equiv_pos_as_xyz
  1  'x, y, z'
loop_
 _atom_site_type_symbol
 _atom_site_label
 _atom_site_symmetry_multiplicity
 _atom_site_fract_x
 _atom_site_fract_y
 _atom_site_fract_z
 _atom_site_occupancy
  Hf  Hf0  1  0.693329  0.101098  0.101098  1
  Hf  Hf1  1  0.101098  0.693329  0.101098  1
  Hf  Hf2  1  0.101098  0.101098  0.693329  1
  Hf  Hf3  1  0.103804  0.103804  0.103804  1
  Hf  Hf4  1  0.315797  0.315797  0.692257  1
  Hf  Hf5  1  0.684825  0.684825  0.315392  1
  Hf  Hf6  1  0.315797  0.692257  0.315797  1
  Hf  Hf7  1  0.684825  0.315392  0.684825  1
  Hf  Hf8  1  0.692257  0.315797  0.315797  1
  Hf  Hf9  1  0.315392  0.684825  0.684825  1
  Hf  Hf10  1  0.953810  0.953810  0.544729  1
  Hf  Hf11  1  0.551777  0.551777  0.945198  1
  Hf  Hf12  1  0.953810  0.544729  0.953810  1
  Hf  Hf13  1  0.551777  0.945198  0.551777  1
  Hf  Hf14  1  0.544729  0.953810  0.953810  1
  Hf  Hf15  1  0.945198  0.551777  0.551777  1
  Ni  Ni16  1  0.323887  0.890575  0.890575  1
  Ni  Ni17  1  0.890575  0.323887  0.890575  1
  Ni  Ni18  1  0.890575  0.890575  0.323887  1
  Ni  Ni19  1  0.891419  0.891419  0.891419  1
  W  W20  1  0.997313  0.332254  0.332254  1
  W  W21  1  0.332254  0.997313  0.332254  1
  W  W22  1  0.332254  0.332254  0.997313  1
  Au  Au23  1  0.332397  0.332397  0.332397  1
