# generated using pymatgen
data_LaNdGd4(RuO7)2
_symmetry_space_group_name_H-M   'P 1'
_cell_length_a   6.52830172
_cell_length_b   6.52830166
_cell_length_c   7.57177702
_cell_angle_alpha   90.00509823
_cell_angle_beta   90.00510078
_cell_angle_gamma   110.63629966
_symmetry_Int_Tables_number   1
_chemical_formula_structural   LaNdGd4(RuO7)2
_chemical_formula_sum   'La1 Nd1 Gd4 Ru2 O14'
_cell_volume   301.99391622
_cell_formula_units_Z   1
loop_
 _symmetry_equiv_pos_site_id
 _symmetry_equiv_pos_as_xyz
  1  'x, y, z'
loop_
 _atom_site_type_symbol
 _atom_site_label
 _atom_site_symmetry_multiplicity
 _atom_site_fract_x
 _atom_site_fract_y
 _atom_site_fract_z
 _atom_site_occupancy
  La  La0  1  0.000000  0.000000  0.500000  1
  Nd  Nd1  1  0.000000  0.000000  0.000000  1
  Gd  Gd2  1  0.478716  0.926097  0.750560  1
  Gd  Gd3  1  0.521284  0.073903  0.249440  1
  Gd  Gd4  1  0.926097  0.478716  0.750560  1
  Gd  Gd5  1  0.073903  0.521284  0.249440  1
  Ru  Ru6  1  0.500000  0.500000  0.500000  1
  Ru  Ru7  1  0.500000  0.500000  0.000000  1
  O  O8  1  0.586111  0.586111  0.750011  1
  O  O9  1  0.413889  0.413889  0.249989  1
  O  O10  1  0.838324  0.112589  0.752302  1
  O  O11  1  0.161676  0.887411  0.247698  1
  O  O12  1  0.112589  0.838324  0.752302  1
  O  O13  1  0.887411  0.161676  0.247698  1
  O  O14  1  0.439030  0.184118  0.962349  1
  O  O15  1  0.558308  0.815402  0.462130  1
  O  O16  1  0.184118  0.439030  0.962349  1
  O  O17  1  0.815402  0.558308  0.462130  1
  O  O18  1  0.441692  0.184598  0.537870  1
  O  O19  1  0.560970  0.815882  0.037651  1
  O  O20  1  0.815882  0.560970  0.037651  1
  O  O21  1  0.184598  0.441692  0.537870  1
