# generated using pymatgen
data_Dy7HoCu3Si12Rh
_symmetry_space_group_name_H-M   'P 1'
_cell_length_a   8.03511703
_cell_length_b   8.03662467
_cell_length_c   8.09748001
_cell_angle_alpha   90.00068979
_cell_angle_beta   90.00305996
_cell_angle_gamma   120.00341044
_symmetry_Int_Tables_number   1
_chemical_formula_structural   Dy7HoCu3Si12Rh
_chemical_formula_sum   'Dy7 Ho1 Cu3 Si12 Rh1'
_cell_volume   452.82613232
_cell_formula_units_Z   1
loop_
 _symmetry_equiv_pos_site_id
 _symmetry_equiv_pos_as_xyz
  1  'x, y, z'
loop_
 _atom_site_type_symbol
 _atom_site_label
 _atom_site_symmetry_multiplicity
 _atom_site_fract_x
 _atom_site_fract_y
 _atom_site_fract_z
 _atom_site_occupancy
  Dy  Dy0  1  0.999968  0.999981  0.250061  1
  Dy  Dy1  1  0.999943  0.999965  0.749850  1
  Dy  Dy2  1  0.499213  0.500775  0.248340  1
  Dy  Dy3  1  0.499214  0.998433  0.248319  1
  Dy  Dy4  1  0.001607  0.500800  0.248235  1
  Dy  Dy5  1  0.499114  0.500878  0.751609  1
  Dy  Dy6  1  0.499113  0.998209  0.751626  1
  Ho  Ho7  1  0.002115  0.501045  0.751922  1
  Cu  Cu8  1  0.332384  0.665974  0.500473  1
  Cu  Cu9  1  0.667267  0.333567  0.501374  1
  Cu  Cu10  1  0.667198  0.333885  0.999047  1
  Si  Si11  1  0.168816  0.830998  0.500137  1
  Si  Si12  1  0.168715  0.337483  0.500161  1
  Si  Si13  1  0.661559  0.830720  0.499939  1
  Si  Si14  1  0.831057  0.168726  0.500204  1
  Si  Si15  1  0.831089  0.662221  0.500228  1
  Si  Si16  1  0.338105  0.168965  0.499997  1
  Si  Si17  1  0.831993  0.168155  0.999721  1
  Si  Si18  1  0.832144  0.664226  0.999727  1
  Si  Si19  1  0.336314  0.168202  0.999885  1
  Si  Si20  1  0.167749  0.832410  0.999771  1
  Si  Si21  1  0.167713  0.335433  0.999777  1
  Si  Si22  1  0.664550  0.832358  0.999970  1
  Rh  Rh23  1  0.333060  0.666590  0.999628  1
