# generated using pymatgen
data_Y5Ho7(TcIr)2
_symmetry_space_group_name_H-M   'P 1'
_cell_length_a   6.32242520
_cell_length_b   7.36457112
_cell_length_c   9.13999024
_cell_angle_alpha   89.99784035
_cell_angle_beta   90.09645804
_cell_angle_gamma   90.06319030
_symmetry_Int_Tables_number   1
_chemical_formula_structural   Y5Ho7(TcIr)2
_chemical_formula_sum   'Y5 Ho7 Tc2 Ir2'
_cell_volume   425.57490682
_cell_formula_units_Z   1
loop_
 _symmetry_equiv_pos_site_id
 _symmetry_equiv_pos_as_xyz
  1  'x, y, z'
loop_
 _atom_site_type_symbol
 _atom_site_label
 _atom_site_symmetry_multiplicity
 _atom_site_fract_x
 _atom_site_fract_y
 _atom_site_fract_z
 _atom_site_occupancy
  Y  Y0  1  0.330073  0.676499  0.065383  1
  Y  Y1  1  0.873840  0.538368  0.250299  1
  Y  Y2  1  0.625997  0.038709  0.250202  1
  Y  Y3  1  0.131965  0.459639  0.749540  1
  Y  Y4  1  0.368111  0.959900  0.749588  1
  Ho  Ho5  1  0.170093  0.176350  0.434226  1
  Ho  Ho6  1  0.667611  0.324480  0.561193  1
  Ho  Ho7  1  0.832314  0.824793  0.938400  1
  Ho  Ho8  1  0.667880  0.324304  0.938521  1
  Ho  Ho9  1  0.832570  0.824514  0.561274  1
  Ho  Ho10  1  0.329977  0.676008  0.434538  1
  Ho  Ho11  1  0.170010  0.176142  0.065721  1
  Tc  Tc12  1  0.038161  0.886651  0.250683  1
  Tc  Tc13  1  0.461146  0.384987  0.250954  1
  Ir  Ir14  1  0.952327  0.114350  0.750114  1
  Ir  Ir15  1  0.547926  0.614304  0.749363  1
