# generated using pymatgen
data_CsNdNpSe6
_symmetry_space_group_name_H-M   'P 1'
_cell_length_a   11.93152668
_cell_length_b   11.93152616
_cell_length_c   11.93152500
_cell_angle_alpha   159.67112784
_cell_angle_beta   152.47907875
_cell_angle_gamma   34.45648293
_symmetry_Int_Tables_number   1
_chemical_formula_structural   CsNdNpSe6
_chemical_formula_sum   'Cs1 Nd1 Np1 Se6'
_cell_volume   272.40755465
_cell_formula_units_Z   1
loop_
 _symmetry_equiv_pos_site_id
 _symmetry_equiv_pos_as_xyz
  1  'x, y, z'
loop_
 _atom_site_type_symbol
 _atom_site_label
 _atom_site_symmetry_multiplicity
 _atom_site_fract_x
 _atom_site_fract_y
 _atom_site_fract_z
 _atom_site_occupancy
  Cs  Cs0  1  0.999384  0.999384  0.000000  1
  Nd  Nd1  1  0.313499  0.813499  0.500000  1
  Np  Np2  1  0.688088  0.188088  0.500000  1
  Se  Se3  1  0.178732  0.391823  0.786911  1
  Se  Se4  1  0.219046  0.219046  0.000000  1
  Se  Se5  1  0.401695  0.612529  0.789168  1
  Se  Se6  1  0.604912  0.391823  0.213089  1
  Se  Se7  1  0.823362  0.612529  0.210832  1
  Se  Se8  1  0.771280  0.771280  0.000000  1
