# generated using pymatgen
data_Ho3Ga2Co6Ni3B4
_symmetry_space_group_name_H-M   'P 1'
_cell_length_a   5.12308852
_cell_length_b   5.14758348
_cell_length_c   9.59266624
_cell_angle_alpha   90.01101968
_cell_angle_beta   90.01391384
_cell_angle_gamma   120.00504645
_symmetry_Int_Tables_number   1
_chemical_formula_structural   Ho3Ga2Co6Ni3B4
_chemical_formula_sum   'Ho3 Ga2 Co6 Ni3 B4'
_cell_volume   219.07009455
_cell_formula_units_Z   1
loop_
 _symmetry_equiv_pos_site_id
 _symmetry_equiv_pos_as_xyz
  1  'x, y, z'
loop_
 _atom_site_type_symbol
 _atom_site_label
 _atom_site_symmetry_multiplicity
 _atom_site_fract_x
 _atom_site_fract_y
 _atom_site_fract_z
 _atom_site_occupancy
  Ho  Ho0  1  0.000359  0.000163  0.994344  1
  Ho  Ho1  1  0.999367  0.999237  0.341327  1
  Ho  Ho2  1  0.000764  0.000783  0.657746  1
  Ga  Ga3  1  0.339145  0.672018  0.999802  1
  Ga  Ga4  1  0.661349  0.328112  0.999649  1
  Co  Co5  1  0.500157  0.999939  0.500027  1
  Co  Co6  1  0.500122  0.499989  0.500303  1
  Co  Co7  1  0.000179  0.500027  0.499940  1
  Co  Co8  1  0.499346  0.999231  0.209938  1
  Co  Co9  1  0.500813  0.000555  0.791035  1
  Co  Co10  1  0.500421  0.500541  0.792647  1
  Ni  Ni11  1  0.498078  0.498177  0.207951  1
  Ni  Ni12  1  0.999213  0.499945  0.205451  1
  Ni  Ni13  1  0.000365  0.501598  0.794864  1
  B  B14  1  0.333886  0.670018  0.351870  1
  B  B15  1  0.665498  0.329109  0.351949  1
  B  B16  1  0.662115  0.331805  0.650555  1
  B  B17  1  0.338722  0.668751  0.650603  1
