# generated using pymatgen
data_Ho2Hf3P7Rh9
_symmetry_space_group_name_H-M   'P 1'
_cell_length_a   3.86601900
_cell_length_b   9.83551452
_cell_length_c   9.83545000
_cell_angle_alpha   120.00065747
_cell_angle_beta   89.99992590
_cell_angle_gamma   89.99996715
_symmetry_Int_Tables_number   1
_chemical_formula_structural   Ho2Hf3P7Rh9
_chemical_formula_sum   'Ho2 Hf3 P7 Rh9'
_cell_volume   323.87919950
_cell_formula_units_Z   1
loop_
 _symmetry_equiv_pos_site_id
 _symmetry_equiv_pos_as_xyz
  1  'x, y, z'
loop_
 _atom_site_type_symbol
 _atom_site_label
 _atom_site_symmetry_multiplicity
 _atom_site_fract_x
 _atom_site_fract_y
 _atom_site_fract_z
 _atom_site_occupancy
  Ho  Ho0  1  0.261557  0.666657  0.333351  1
  Ho  Ho1  1  0.761944  0.333341  0.666663  1
  Hf  Hf2  1  0.762136  0.103895  0.875033  1
  Hf  Hf3  1  0.762142  0.124974  0.228857  1
  Hf  Hf4  1  0.762141  0.771129  0.896110  1
  P  P5  1  0.264618  0.999978  0.999999  1
  P  P6  1  0.761602  0.864078  0.578167  1
  P  P7  1  0.761600  0.421845  0.285895  1
  P  P8  1  0.761604  0.714121  0.135972  1
  P  P9  1  0.261726  0.113701  0.422780  1
  P  P10  1  0.261726  0.577205  0.690916  1
  P  P11  1  0.261729  0.309081  0.886273  1
  Rh  Rh12  1  0.261081  0.879796  0.161524  1
  Rh  Rh13  1  0.261087  0.838489  0.718299  1
  Rh  Rh14  1  0.261076  0.281694  0.120173  1
  Rh  Rh15  1  0.761730  0.607256  0.553376  1
  Rh  Rh16  1  0.761733  0.446648  0.053884  1
  Rh  Rh17  1  0.761729  0.946133  0.392751  1
  Rh  Rh18  1  0.262341  0.359391  0.437296  1
  Rh  Rh19  1  0.262341  0.562700  0.922092  1
  Rh  Rh20  1  0.262356  0.077890  0.640586  1
