# generated using pymatgen
data_CsAg2(PO3)6
_symmetry_space_group_name_H-M   'P 1'
_cell_length_a   5.40110035
_cell_length_b   9.49822092
_cell_length_c   9.24862381
_cell_angle_alpha   88.60064870
_cell_angle_beta   73.82653898
_cell_angle_gamma   70.60179685
_symmetry_Int_Tables_number   1
_chemical_formula_structural   CsAg2(PO3)6
_chemical_formula_sum   'Cs1 Ag2 P6 O18'
_cell_volume   428.60059225
_cell_formula_units_Z   1
loop_
 _symmetry_equiv_pos_site_id
 _symmetry_equiv_pos_as_xyz
  1  'x, y, z'
loop_
 _atom_site_type_symbol
 _atom_site_label
 _atom_site_symmetry_multiplicity
 _atom_site_fract_x
 _atom_site_fract_y
 _atom_site_fract_z
 _atom_site_occupancy
  Cs  Cs0  1  0.000027  0.000020  0.999992  1
  Ag  Ag1  1  0.499993  0.000006  0.499994  1
  Ag  Ag2  1  0.500000  0.499994  0.000004  1
  P  P3  1  0.046809  0.781312  0.558858  1
  P  P4  1  0.953195  0.218692  0.441143  1
  P  P5  1  0.940868  0.454952  0.220549  1
  P  P6  1  0.059124  0.545047  0.779453  1
  P  P7  1  0.507944  0.241599  0.739327  1
  P  P8  1  0.492057  0.758400  0.260671  1
  O  O9  1  0.096552  0.898985  0.637676  1
  O  O10  1  0.903444  0.101019  0.362330  1
  O  O11  1  0.860114  0.393532  0.099377  1
  O  O12  1  0.139875  0.606457  0.900632  1
  O  O13  1  0.142208  0.619081  0.622268  1
  O  O14  1  0.857761  0.380928  0.377741  1
  O  O15  1  0.244510  0.735339  0.388324  1
  O  O16  1  0.755515  0.264653  0.611684  1
  O  O17  1  0.753494  0.625397  0.278806  1
  O  O18  1  0.246531  0.374605  0.721176  1
  O  O19  1  0.242958  0.197825  0.450173  1
  O  O20  1  0.757048  0.802179  0.549819  1
  O  O21  1  0.763860  0.556114  0.805620  1
  O  O22  1  0.236140  0.443865  0.194384  1
  O  O23  1  0.462620  0.095555  0.708879  1
  O  O24  1  0.537373  0.904448  0.291115  1
  O  O25  1  0.553495  0.251967  0.890090  1
  O  O26  1  0.446482  0.748028  0.109914  1
