# generated using pymatgen
data_La2SmCu3(Ni5B)2
_symmetry_space_group_name_H-M   'P 1'
_cell_length_a   5.08550654
_cell_length_b   5.08409086
_cell_length_c   10.96429387
_cell_angle_alpha   90.00788912
_cell_angle_beta   89.99533537
_cell_angle_gamma   119.99863634
_symmetry_Int_Tables_number   1
_chemical_formula_structural   La2SmCu3(Ni5B)2
_chemical_formula_sum   'La2 Sm1 Cu3 Ni10 B2'
_cell_volume   245.50751062
_cell_formula_units_Z   1
loop_
 _symmetry_equiv_pos_site_id
 _symmetry_equiv_pos_as_xyz
  1  'x, y, z'
loop_
 _atom_site_type_symbol
 _atom_site_label
 _atom_site_symmetry_multiplicity
 _atom_site_fract_x
 _atom_site_fract_y
 _atom_site_fract_z
 _atom_site_occupancy
  La  La0  1  0.999882  0.000071  0.332952  1
  La  La1  1  0.000129  0.000174  0.672485  1
  Sm  Sm2  1  0.999944  0.999883  0.000147  1
  Cu  Cu3  1  0.333069  0.666614  0.315769  1
  Cu  Cu4  1  0.666622  0.333537  0.315620  1
  Cu  Cu5  1  0.666988  0.333571  0.684071  1
  Ni  Ni6  1  0.499403  0.998860  0.500244  1
  Ni  Ni7  1  0.499211  0.500609  0.500277  1
  Ni  Ni8  1  0.001192  0.500844  0.500267  1
  Ni  Ni9  1  0.333396  0.666786  0.682298  1
  Ni  Ni10  1  0.500029  0.000153  0.127903  1
  Ni  Ni11  1  0.500164  0.499902  0.127893  1
  Ni  Ni12  1  0.999771  0.499752  0.127895  1
  Ni  Ni13  1  0.499024  0.997671  0.871016  1
  Ni  Ni14  1  0.498957  0.500873  0.871017  1
  Ni  Ni15  1  0.002219  0.500927  0.871029  1
  B  B16  1  0.333314  0.666560  0.999830  1
  B  B17  1  0.666588  0.333214  0.999285  1
