# generated using pymatgen
data_Ca3Yb7(GaSb3)4
_symmetry_space_group_name_H-M   'P 1'
_cell_length_a   4.47961600
_cell_length_b   12.09454034
_cell_length_c   14.04411371
_cell_angle_alpha   89.92879479
_cell_angle_beta   90.00000000
_cell_angle_gamma   90.00000000
_symmetry_Int_Tables_number   1
_chemical_formula_structural   Ca3Yb7(GaSb3)4
_chemical_formula_sum   'Ca3 Yb7 Ga4 Sb12'
_cell_volume   760.89399417
_cell_formula_units_Z   1
loop_
 _symmetry_equiv_pos_site_id
 _symmetry_equiv_pos_as_xyz
  1  'x, y, z'
loop_
 _atom_site_type_symbol
 _atom_site_label
 _atom_site_symmetry_multiplicity
 _atom_site_fract_x
 _atom_site_fract_y
 _atom_site_fract_z
 _atom_site_occupancy
  Ca  Ca0  1  0.500000  0.999957  0.499885  1
  Ca  Ca1  1  0.500000  0.499876  0.000142  1
  Ca  Ca2  1  0.500000  0.591317  0.753039  1
  Yb  Yb3  1  0.500000  0.670658  0.481188  1
  Yb  Yb4  1  0.500000  0.329334  0.518601  1
  Yb  Yb5  1  0.500000  0.829542  0.981430  1
  Yb  Yb6  1  0.500000  0.170434  0.018669  1
  Yb  Yb7  1  0.500000  0.908602  0.253206  1
  Yb  Yb8  1  0.500000  0.091353  0.746765  1
  Yb  Yb9  1  0.500000  0.408563  0.246740  1
  Ga  Ga10  1  0.000000  0.329612  0.711469  1
  Ga  Ga11  1  0.000000  0.669710  0.288320  1
  Ga  Ga12  1  0.000000  0.831372  0.788678  1
  Ga  Ga13  1  0.000000  0.169501  0.211645  1
  Sb  Sb14  1  0.000000  0.973765  0.100542  1
  Sb  Sb15  1  0.000000  0.026679  0.899581  1
  Sb  Sb16  1  0.000000  0.473740  0.399456  1
  Sb  Sb17  1  0.000000  0.525672  0.600201  1
  Sb  Sb18  1  0.500000  0.162822  0.323334  1
  Sb  Sb19  1  0.500000  0.837372  0.676687  1
  Sb  Sb20  1  0.500000  0.662866  0.176656  1
  Sb  Sb21  1  0.500000  0.336938  0.823237  1
  Sb  Sb22  1  0.000000  0.345059  0.091489  1
  Sb  Sb23  1  0.000000  0.655586  0.909275  1
  Sb  Sb24  1  0.000000  0.845027  0.408514  1
  Sb  Sb25  1  0.000000  0.154641  0.591251  1
