# generated using pymatgen
data_Nd4Zn4PdRh3
_symmetry_space_group_name_H-M   'P 1'
_cell_length_a   4.01715800
_cell_length_b   7.40735737
_cell_length_c   16.68517884
_cell_angle_alpha   90.03632117
_cell_angle_beta   90.00000000
_cell_angle_gamma   90.00000000
_symmetry_Int_Tables_number   1
_chemical_formula_structural   Nd4Zn4PdRh3
_chemical_formula_sum   'Nd8 Zn8 Pd2 Rh6'
_cell_volume   496.49284023
_cell_formula_units_Z   2
loop_
 _symmetry_equiv_pos_site_id
 _symmetry_equiv_pos_as_xyz
  1  'x, y, z'
loop_
 _atom_site_type_symbol
 _atom_site_label
 _atom_site_symmetry_multiplicity
 _atom_site_fract_x
 _atom_site_fract_y
 _atom_site_fract_z
 _atom_site_occupancy
  Nd  Nd0  1  0.250000  0.170158  0.938592  1
  Nd  Nd1  1  0.250000  0.669314  0.566005  1
  Nd  Nd2  1  0.750000  0.329557  0.443882  1
  Nd  Nd3  1  0.750000  0.946370  0.279876  1
  Nd  Nd4  1  0.750000  0.830455  0.059244  1
  Nd  Nd5  1  0.750000  0.453516  0.212824  1
  Nd  Nd6  1  0.250000  0.050418  0.716439  1
  Nd  Nd7  1  0.250000  0.547685  0.785780  1
  Zn  Zn8  1  0.750000  0.003266  0.563602  1
  Zn  Zn9  1  0.250000  0.623697  0.346214  1
  Zn  Zn10  1  0.750000  0.378659  0.651984  1
  Zn  Zn11  1  0.250000  0.498334  0.058875  1
  Zn  Zn12  1  0.750000  0.501280  0.939932  1
  Zn  Zn13  1  0.250000  0.998646  0.440223  1
  Zn  Zn14  1  0.250000  0.121970  0.149031  1
  Zn  Zn15  1  0.750000  0.877962  0.849096  1
  Pd  Pd16  1  0.750000  0.755742  0.434280  1
  Pd  Pd17  1  0.250000  0.245863  0.313604  1
  Rh  Rh18  1  0.750000  0.252446  0.813224  1
  Rh  Rh19  1  0.750000  0.753970  0.685778  1
  Rh  Rh20  1  0.250000  0.245291  0.564113  1
  Rh  Rh21  1  0.250000  0.745442  0.187235  1
  Rh  Rh22  1  0.750000  0.255554  0.065587  1
  Rh  Rh23  1  0.250000  0.744404  0.934579  1
