# generated using pymatgen
data_Mn7Nb4Fe
_symmetry_space_group_name_H-M   'P 1'
_cell_length_a   4.84173566
_cell_length_b   4.79528246
_cell_length_c   7.88972900
_cell_angle_alpha   90.00000000
_cell_angle_beta   90.00000000
_cell_angle_gamma   119.68312711
_symmetry_Int_Tables_number   1
_chemical_formula_structural   Mn7Nb4Fe
_chemical_formula_sum   'Mn7 Nb4 Fe1'
_cell_volume   159.14238455
_cell_formula_units_Z   1
loop_
 _symmetry_equiv_pos_site_id
 _symmetry_equiv_pos_as_xyz
  1  'x, y, z'
loop_
 _atom_site_type_symbol
 _atom_site_label
 _atom_site_symmetry_multiplicity
 _atom_site_fract_x
 _atom_site_fract_y
 _atom_site_fract_z
 _atom_site_occupancy
  Mn  Mn0  1  0.001758  0.000880  0.496084  1
  Mn  Mn1  1  0.001758  0.000880  0.003916  1
  Mn  Mn2  1  0.169431  0.828670  0.750000  1
  Mn  Mn3  1  0.169431  0.340761  0.750000  1
  Mn  Mn4  1  0.657478  0.828740  0.750000  1
  Mn  Mn5  1  0.828817  0.173811  0.250000  1
  Mn  Mn6  1  0.828817  0.655006  0.250000  1
  Nb  Nb7  1  0.333422  0.666712  0.436956  1
  Nb  Nb8  1  0.667821  0.333910  0.562440  1
  Nb  Nb9  1  0.667821  0.333910  0.937560  1
  Nb  Nb10  1  0.333422  0.666712  0.063044  1
  Fe  Fe11  1  0.340023  0.170011  0.250000  1
