# generated using pymatgen
data_SmEr2(Ni3As2)3
_symmetry_space_group_name_H-M   'P 1'
_cell_length_a   3.89690800
_cell_length_b   10.81985700
_cell_length_c   12.76314400
_cell_angle_alpha   90.00000000
_cell_angle_beta   90.00000000
_cell_angle_gamma   90.00000000
_symmetry_Int_Tables_number   1
_chemical_formula_structural   SmEr2(Ni3As2)3
_chemical_formula_sum   'Sm2 Er4 Ni18 As12'
_cell_volume   538.14504155
_cell_formula_units_Z   2
loop_
 _symmetry_equiv_pos_site_id
 _symmetry_equiv_pos_as_xyz
  1  'x, y, z'
loop_
 _atom_site_type_symbol
 _atom_site_label
 _atom_site_symmetry_multiplicity
 _atom_site_fract_x
 _atom_site_fract_y
 _atom_site_fract_z
 _atom_site_occupancy
  Sm  Sm0  1  0.000000  0.500000  0.523220  1
  Sm  Sm1  1  0.500000  0.000000  0.476780  1
  Er  Er2  1  0.500000  0.817039  0.206215  1
  Er  Er3  1  0.500000  0.182961  0.206215  1
  Er  Er4  1  0.000000  0.682961  0.793785  1
  Er  Er5  1  0.000000  0.317039  0.793785  1
  Ni  Ni6  1  0.500000  0.500000  0.155385  1
  Ni  Ni7  1  0.000000  0.000000  0.844615  1
  Ni  Ni8  1  0.500000  0.500000  0.701358  1
  Ni  Ni9  1  0.000000  0.000000  0.298642  1
  Ni  Ni10  1  0.000000  0.500000  0.982666  1
  Ni  Ni11  1  0.500000  0.000000  0.017334  1
  Ni  Ni12  1  0.500000  0.332871  0.997979  1
  Ni  Ni13  1  0.500000  0.667129  0.997979  1
  Ni  Ni14  1  0.000000  0.167129  0.002021  1
  Ni  Ni15  1  0.000000  0.832871  0.002021  1
  Ni  Ni16  1  0.500000  0.302371  0.425578  1
  Ni  Ni17  1  0.500000  0.697629  0.425578  1
  Ni  Ni18  1  0.000000  0.197629  0.574422  1
  Ni  Ni19  1  0.000000  0.802371  0.574422  1
  Ni  Ni20  1  0.500000  0.879041  0.709465  1
  Ni  Ni21  1  0.500000  0.120959  0.709465  1
  Ni  Ni22  1  0.000000  0.620959  0.290535  1
  Ni  Ni23  1  0.000000  0.379041  0.290535  1
  As  As24  1  0.500000  0.500000  0.877137  1
  As  As25  1  0.000000  0.000000  0.122863  1
  As  As26  1  0.500000  0.500000  0.342712  1
  As  As27  1  0.000000  0.000000  0.657288  1
  As  As28  1  0.500000  0.313348  0.614911  1
  As  As29  1  0.500000  0.686652  0.614911  1
  As  As30  1  0.000000  0.186652  0.385089  1
  As  As31  1  0.000000  0.813348  0.385089  1
  As  As32  1  0.500000  0.846164  0.890601  1
  As  As33  1  0.500000  0.153836  0.890601  1
  As  As34  1  0.000000  0.653836  0.109399  1
  As  As35  1  0.000000  0.346164  0.109399  1
