# generated using pymatgen
data_CsBe3CoF9
_symmetry_space_group_name_H-M   'P 1'
_cell_length_a   6.91465300
_cell_length_b   6.91465311
_cell_length_c   9.85092300
_cell_angle_alpha   90.00000000
_cell_angle_beta   90.00000000
_cell_angle_gamma   120.00000424
_symmetry_Int_Tables_number   1
_chemical_formula_structural   CsBe3CoF9
_chemical_formula_sum   'Cs2 Be6 Co2 F18'
_cell_volume   407.89494774
_cell_formula_units_Z   2
loop_
 _symmetry_equiv_pos_site_id
 _symmetry_equiv_pos_as_xyz
  1  'x, y, z'
loop_
 _atom_site_type_symbol
 _atom_site_label
 _atom_site_symmetry_multiplicity
 _atom_site_fract_x
 _atom_site_fract_y
 _atom_site_fract_z
 _atom_site_occupancy
  Cs  Cs0  1  0.333333  0.666667  0.500000  1
  Cs  Cs1  1  0.333333  0.666667  0.000000  1
  Be  Be2  1  0.867962  0.259607  0.250000  1
  Be  Be3  1  0.867962  0.608357  0.750000  1
  Be  Be4  1  0.391643  0.259607  0.750000  1
  Be  Be5  1  0.740393  0.132038  0.750000  1
  Be  Be6  1  0.740393  0.608357  0.250000  1
  Be  Be7  1  0.391643  0.132038  0.250000  1
  Co  Co8  1  0.000000  0.000000  0.500000  1
  Co  Co9  1  0.000000  0.000000  0.000000  1
  F  F10  1  0.766041  0.020231  0.620721  1
  F  F11  1  0.254190  0.233959  0.620721  1
  F  F12  1  0.979769  0.745810  0.620721  1
  F  F13  1  0.979769  0.233959  0.379279  1
  F  F14  1  0.903921  0.508724  0.250000  1
  F  F15  1  0.604803  0.096079  0.250000  1
  F  F16  1  0.491276  0.395197  0.250000  1
  F  F17  1  0.491276  0.096079  0.750000  1
  F  F18  1  0.604803  0.508724  0.750000  1
  F  F19  1  0.903921  0.395197  0.750000  1
  F  F20  1  0.979769  0.233959  0.120721  1
  F  F21  1  0.254190  0.020231  0.379279  1
  F  F22  1  0.766041  0.745810  0.379279  1
  F  F23  1  0.766041  0.745810  0.120721  1
  F  F24  1  0.254190  0.020231  0.120721  1
  F  F25  1  0.766041  0.020231  0.879279  1
  F  F26  1  0.254190  0.233959  0.879279  1
  F  F27  1  0.979769  0.745810  0.879279  1
