# generated using pymatgen
data_MgIn2(Ni10P3)2
_symmetry_space_group_name_H-M   'P 1'
_cell_length_a   7.88145677
_cell_length_b   7.88145628
_cell_length_c   7.88145600
_cell_angle_alpha   60.00000118
_cell_angle_beta   60.00000322
_cell_angle_gamma   59.99999769
_symmetry_Int_Tables_number   1
_chemical_formula_structural   MgIn2(Ni10P3)2
_chemical_formula_sum   'Mg1 In2 Ni20 P6'
_cell_volume   346.18196032
_cell_formula_units_Z   1
loop_
 _symmetry_equiv_pos_site_id
 _symmetry_equiv_pos_as_xyz
  1  'x, y, z'
loop_
 _atom_site_type_symbol
 _atom_site_label
 _atom_site_symmetry_multiplicity
 _atom_site_fract_x
 _atom_site_fract_y
 _atom_site_fract_z
 _atom_site_occupancy
  Mg  Mg0  1  0.000000  0.000000  0.000000  1
  In  In1  1  0.250000  0.250000  0.250000  1
  In  In2  1  0.750000  0.750000  0.750000  1
  Ni  Ni3  1  0.384762  0.384762  0.845714  1
  Ni  Ni4  1  0.615239  0.615239  0.615238  1
  Ni  Ni5  1  0.000000  0.348718  0.000000  1
  Ni  Ni6  1  0.348718  0.000000  0.000000  1
  Ni  Ni7  1  0.000000  0.348718  0.651282  1
  Ni  Ni8  1  0.845714  0.384762  0.384761  1
  Ni  Ni9  1  0.348718  0.000000  0.651282  1
  Ni  Ni10  1  0.000000  0.000000  0.348718  1
  Ni  Ni11  1  0.651282  0.348718  0.000000  1
  Ni  Ni12  1  0.000000  0.651282  0.348718  1
  Ni  Ni13  1  0.000000  0.000000  0.651282  1
  Ni  Ni14  1  0.348718  0.651282  0.000000  1
  Ni  Ni15  1  0.651282  0.000000  0.000000  1
  Ni  Ni16  1  0.000000  0.651282  0.000000  1
  Ni  Ni17  1  0.384762  0.845715  0.384762  1
  Ni  Ni18  1  0.615238  0.615239  0.154285  1
  Ni  Ni19  1  0.615238  0.154286  0.615238  1
  Ni  Ni20  1  0.154286  0.615239  0.615239  1
  Ni  Ni21  1  0.384761  0.384762  0.384761  1
  Ni  Ni22  1  0.651282  0.000000  0.348718  1
  P  P23  1  0.264056  0.264056  0.735944  1
  P  P24  1  0.735944  0.735944  0.264056  1
  P  P25  1  0.735944  0.264056  0.264056  1
  P  P26  1  0.264056  0.735944  0.735944  1
  P  P27  1  0.264056  0.735944  0.264056  1
  P  P28  1  0.735944  0.264056  0.735944  1
