# generated using pymatgen
data_Rb2MnCuS4
_symmetry_space_group_name_H-M   'P 1'
_cell_length_a   13.47401882
_cell_length_b   12.02273839
_cell_length_c   7.24267635
_cell_angle_alpha   84.90920174
_cell_angle_beta   62.71916606
_cell_angle_gamma   32.37163227
_symmetry_Int_Tables_number   1
_chemical_formula_structural   Rb2MnCuS4
_chemical_formula_sum   'Rb4 Mn2 Cu2 S8'
_cell_volume   434.90953276
_cell_formula_units_Z   2
loop_
 _symmetry_equiv_pos_site_id
 _symmetry_equiv_pos_as_xyz
  1  'x, y, z'
loop_
 _atom_site_type_symbol
 _atom_site_label
 _atom_site_symmetry_multiplicity
 _atom_site_fract_x
 _atom_site_fract_y
 _atom_site_fract_z
 _atom_site_occupancy
  Rb  Rb0  1  0.572157  0.572157  0.927843  1
  Rb  Rb1  1  0.927843  0.927843  0.572157  1
  Rb  Rb2  1  0.322157  0.322157  0.677843  1
  Rb  Rb3  1  0.677843  0.677843  0.322157  1
  Mn  Mn4  1  0.750000  0.750000  0.750000  1
  Mn  Mn5  1  0.500000  0.500000  0.500000  1
  Cu  Cu6  1  0.000000  0.000000  0.000000  1
  Cu  Cu7  1  0.250000  0.250000  0.250000  1
  S  S8  1  0.232671  0.871268  0.583347  1
  S  S9  1  0.312714  0.583347  0.871268  1
  S  S10  1  0.583347  0.312714  0.232671  1
  S  S11  1  0.871268  0.232671  0.312714  1
  S  S12  1  0.378732  0.017329  0.937286  1
  S  S13  1  0.937286  0.666653  0.378732  1
  S  S14  1  0.666653  0.937286  0.017329  1
  S  S15  1  0.017329  0.378732  0.666653  1
