# generated using pymatgen
data_La2Y5Ho(WO6)4
_symmetry_space_group_name_H-M   'P 1'
_cell_length_a   5.47818047
_cell_length_b   7.80958568
_cell_length_c   11.61368448
_cell_angle_alpha   75.77754368
_cell_angle_beta   90.00629366
_cell_angle_gamma   89.95600809
_symmetry_Int_Tables_number   1
_chemical_formula_structural   La2Y5Ho(WO6)4
_chemical_formula_sum   'La2 Y5 Ho1 W4 O24'
_cell_volume   481.63099590
_cell_formula_units_Z   1
loop_
 _symmetry_equiv_pos_site_id
 _symmetry_equiv_pos_as_xyz
  1  'x, y, z'
loop_
 _atom_site_type_symbol
 _atom_site_label
 _atom_site_symmetry_multiplicity
 _atom_site_fract_x
 _atom_site_fract_y
 _atom_site_fract_z
 _atom_site_occupancy
  La  La0  1  0.686202  0.499777  0.749804  1
  La  La1  1  0.314144  0.499648  0.250557  1
  Y  Y2  1  0.741221  0.000158  0.749413  1
  Y  Y3  1  0.259083  0.000264  0.250769  1
  Y  Y4  1  0.187493  0.798071  0.576181  1
  Y  Y5  1  0.812044  0.797994  0.076384  1
  Y  Y6  1  0.188361  0.202036  0.923679  1
  Ho  Ho7  1  0.812772  0.202164  0.423466  1
  W  W8  1  0.251950  0.729188  0.883863  1
  W  W9  1  0.747983  0.728948  0.383861  1
  W  W10  1  0.251891  0.270835  0.615431  1
  W  W11  1  0.748376  0.270645  0.116721  1
  O  O12  1  0.041066  0.941786  0.895496  1
  O  O13  1  0.529789  0.846476  0.930596  1
  O  O14  1  0.956402  0.942836  0.395690  1
  O  O15  1  0.452701  0.795739  0.727876  1
  O  O16  1  0.468936  0.845419  0.430677  1
  O  O17  1  0.985949  0.720821  0.769881  1
  O  O18  1  0.547134  0.795291  0.228141  1
  O  O19  1  0.856512  0.643563  0.543679  1
  O  O20  1  0.346151  0.495559  0.886780  1
  O  O21  1  0.014635  0.721372  0.270338  1
  O  O22  1  0.345804  0.504275  0.612319  1
  O  O23  1  0.856510  0.356240  0.956723  1
  O  O24  1  0.143619  0.643372  0.043674  1
  O  O25  1  0.655727  0.494880  0.386896  1
  O  O26  1  0.986517  0.279144  0.729855  1
  O  O27  1  0.654053  0.504276  0.113337  1
  O  O28  1  0.141185  0.356009  0.455899  1
  O  O29  1  0.452914  0.204019  0.771402  1
  O  O30  1  0.013621  0.278877  0.231197  1
  O  O31  1  0.531042  0.155135  0.567838  1
  O  O32  1  0.548459  0.204160  0.273054  1
  O  O33  1  0.040800  0.058692  0.603604  1
  O  O34  1  0.469799  0.153995  0.070162  1
  O  O35  1  0.959155  0.058337  0.104759  1
