# generated using pymatgen
data_Ti3Re3Tc2
_symmetry_space_group_name_H-M   'P 1'
_cell_length_a   4.40431601
_cell_length_b   6.20846801
_cell_length_c   4.40468300
_cell_angle_alpha   90.00000000
_cell_angle_beta   90.00000000
_cell_angle_gamma   90.00585251
_symmetry_Int_Tables_number   1
_chemical_formula_structural   Ti3Re3Tc2
_chemical_formula_sum   'Ti3 Re3 Tc2'
_cell_volume   120.44189367
_cell_formula_units_Z   1
loop_
 _symmetry_equiv_pos_site_id
 _symmetry_equiv_pos_as_xyz
  1  'x, y, z'
loop_
 _atom_site_type_symbol
 _atom_site_label
 _atom_site_symmetry_multiplicity
 _atom_site_fract_x
 _atom_site_fract_y
 _atom_site_fract_z
 _atom_site_occupancy
  Ti  Ti0  1  0.417072  0.750002  0.000000  1
  Ti  Ti1  1  0.916356  0.249997  0.500000  1
  Ti  Ti2  1  0.916302  0.750002  0.500000  1
  Re  Re3  1  0.417041  0.250000  0.000000  1
  Re  Re4  1  0.917226  0.495951  0.000000  1
  Re  Re5  1  0.416076  0.004044  0.500000  1
  Tc  Tc6  1  0.916477  0.999967  0.000000  1
  Tc  Tc7  1  0.416780  0.500036  0.500000  1
