# generated using pymatgen
data_La2FeCo3P4
_symmetry_space_group_name_H-M   'P 1'
_cell_length_a   5.29631900
_cell_length_b   6.28842764
_cell_length_c   5.29815734
_cell_angle_alpha   64.92424209
_cell_angle_beta   90.00004327
_cell_angle_gamma   90.00004565
_symmetry_Int_Tables_number   1
_chemical_formula_structural   La2FeCo3P4
_chemical_formula_sum   'La2 Fe1 Co3 P4'
_cell_volume   159.82640606
_cell_formula_units_Z   1
loop_
 _symmetry_equiv_pos_site_id
 _symmetry_equiv_pos_as_xyz
  1  'x, y, z'
loop_
 _atom_site_type_symbol
 _atom_site_label
 _atom_site_symmetry_multiplicity
 _atom_site_fract_x
 _atom_site_fract_y
 _atom_site_fract_z
 _atom_site_occupancy
  La  La0  1  0.999206  0.000001  0.999999  1
  La  La1  1  0.500750  0.999999  0.500000  1
  Fe  Fe2  1  0.250044  0.500000  0.500002  1
  Co  Co3  1  0.249953  0.499999  0.000000  1
  Co  Co4  1  0.750011  0.500001  0.000000  1
  Co  Co5  1  0.750076  0.499999  0.500000  1
  P  P6  1  0.498634  0.705638  0.147913  1
  P  P7  1  0.001345  0.705777  0.645097  1
  P  P8  1  0.001346  0.294222  0.354902  1
  P  P9  1  0.498636  0.294361  0.852087  1
