# generated using pymatgen
data_Tm4CuB14
_symmetry_space_group_name_H-M   'P 1'
_cell_length_a   7.17549000
_cell_length_b   7.17549000
_cell_length_c   7.44367300
_cell_angle_alpha   90.00000000
_cell_angle_beta   90.00000000
_cell_angle_gamma   90.00000000
_symmetry_Int_Tables_number   1
_chemical_formula_structural   Tm4CuB14
_chemical_formula_sum   'Tm8 Cu2 B28'
_cell_volume   383.25728031
_cell_formula_units_Z   2
loop_
 _symmetry_equiv_pos_site_id
 _symmetry_equiv_pos_as_xyz
  1  'x, y, z'
loop_
 _atom_site_type_symbol
 _atom_site_label
 _atom_site_symmetry_multiplicity
 _atom_site_fract_x
 _atom_site_fract_y
 _atom_site_fract_z
 _atom_site_occupancy
  Tm  Tm0  1  0.194455  0.333389  0.000000  1
  Tm  Tm1  1  0.666611  0.194455  0.000000  1
  Tm  Tm2  1  0.333389  0.805545  0.000000  1
  Tm  Tm3  1  0.694455  0.166611  0.500000  1
  Tm  Tm4  1  0.305545  0.833389  0.500000  1
  Tm  Tm5  1  0.805545  0.666611  0.000000  1
  Tm  Tm6  1  0.833389  0.694455  0.500000  1
  Tm  Tm7  1  0.166611  0.305545  0.500000  1
  Cu  Cu8  1  0.000000  0.000000  0.000000  1
  Cu  Cu9  1  0.500000  0.500000  0.500000  1
  B  B10  1  0.176329  0.039446  0.235109  1
  B  B11  1  0.960554  0.176329  0.235109  1
  B  B12  1  0.039446  0.823671  0.235109  1
  B  B13  1  0.676329  0.460554  0.264891  1
  B  B14  1  0.323671  0.539446  0.264891  1
  B  B15  1  0.823671  0.960554  0.235109  1
  B  B16  1  0.539446  0.676329  0.264891  1
  B  B17  1  0.460554  0.323671  0.264891  1
  B  B18  1  0.823671  0.960554  0.764891  1
  B  B19  1  0.039446  0.823671  0.764891  1
  B  B20  1  0.960554  0.176329  0.764891  1
  B  B21  1  0.323671  0.539446  0.735109  1
  B  B22  1  0.676329  0.460554  0.735109  1
  B  B23  1  0.176329  0.039446  0.764891  1
  B  B24  1  0.460554  0.323671  0.735109  1
  B  B25  1  0.539446  0.676329  0.735109  1
  B  B26  1  0.088293  0.588293  0.250000  1
  B  B27  1  0.411707  0.088293  0.250000  1
  B  B28  1  0.588293  0.911707  0.250000  1
  B  B29  1  0.911707  0.411707  0.250000  1
  B  B30  1  0.911707  0.411707  0.750000  1
  B  B31  1  0.588293  0.911707  0.750000  1
  B  B32  1  0.411707  0.088293  0.750000  1
  B  B33  1  0.088293  0.588293  0.750000  1
  B  B34  1  0.000000  0.000000  0.389751  1
  B  B35  1  0.500000  0.500000  0.110249  1
  B  B36  1  0.000000  0.000000  0.610249  1
  B  B37  1  0.500000  0.500000  0.889751  1
