# generated using pymatgen
data_AcI16
_symmetry_space_group_name_H-M   'P 1'
_cell_length_a   9.15724714
_cell_length_b   10.65711179
_cell_length_c   13.91237000
_cell_angle_alpha   101.52392537
_cell_angle_beta   94.41704975
_cell_angle_gamma   122.32500545
_symmetry_Int_Tables_number   1
_chemical_formula_structural   AcI16
_chemical_formula_sum   'Ac1 I16'
_cell_volume   1096.11199060
_cell_formula_units_Z   1
loop_
 _symmetry_equiv_pos_site_id
 _symmetry_equiv_pos_as_xyz
  1  'x, y, z'
loop_
 _atom_site_type_symbol
 _atom_site_label
 _atom_site_symmetry_multiplicity
 _atom_site_fract_x
 _atom_site_fract_y
 _atom_site_fract_z
 _atom_site_occupancy
  Ac  Ac0  1  0.000000  0.000000  0.000000  1
  I  I1  1  0.766420  0.955271  0.176058  1
  I  I2  1  0.233580  0.044729  0.823942  1
  I  I3  1  0.338015  0.213350  0.190492  1
  I  I4  1  0.661985  0.786650  0.809508  1
  I  I5  1  0.981658  0.293076  0.974083  1
  I  I6  1  0.018342  0.706924  0.025917  1
  I  I7  1  0.361649  0.489244  0.316094  1
  I  I8  1  0.638351  0.510756  0.683906  1
  I  I9  1  0.940604  0.582510  0.261652  1
  I  I10  1  0.059396  0.417490  0.738348  1
  I  I11  1  0.399592  0.837809  0.092517  1
  I  I12  1  0.600408  0.162191  0.907483  1
  I  I13  1  0.599817  0.246922  0.550250  1
  I  I14  1  0.400183  0.753078  0.449750  1
  I  I15  1  0.797322  0.424750  0.401752  1
  I  I16  1  0.202678  0.575250  0.598248  1
