# generated using pymatgen
data_YZn2P6BrN12
_symmetry_space_group_name_H-M   'P 1'
_cell_length_a   7.33818337
_cell_length_b   7.31840562
_cell_length_c   7.33818223
_cell_angle_alpha   109.42129201
_cell_angle_beta   109.78863826
_cell_angle_gamma   109.42127501
_symmetry_Int_Tables_number   1
_chemical_formula_structural   YZn2P6BrN12
_chemical_formula_sum   'Y1 Zn2 P6 Br1 N12'
_cell_volume   302.54897657
_cell_formula_units_Z   1
loop_
 _symmetry_equiv_pos_site_id
 _symmetry_equiv_pos_as_xyz
  1  'x, y, z'
loop_
 _atom_site_type_symbol
 _atom_site_label
 _atom_site_symmetry_multiplicity
 _atom_site_fract_x
 _atom_site_fract_y
 _atom_site_fract_z
 _atom_site_occupancy
  Y  Y0  1  0.018962  0.348895  0.018962  1
  Zn  Zn1  1  0.998190  0.002431  0.401787  1
  Zn  Zn2  1  0.401787  0.002431  0.998190  1
  P  P3  1  0.498096  0.258990  0.745157  1
  P  P4  1  0.246745  0.753488  0.494985  1
  P  P5  1  0.740966  0.503748  0.257538  1
  P  P6  1  0.745157  0.258990  0.498096  1
  P  P7  1  0.494985  0.753488  0.246745  1
  P  P8  1  0.257538  0.503748  0.740966  1
  Br  Br9  1  0.025125  0.971509  0.025125  1
  N  N10  1  0.389551  0.683482  0.389551  1
  N  N11  1  0.707428  0.433990  0.431656  1
  N  N12  1  0.431656  0.433990  0.707428  1
  N  N13  1  0.717653  0.280552  0.717653  1
  N  N14  1  0.989814  0.573017  0.286364  1
  N  N15  1  0.286364  0.573017  0.989814  1
  N  N16  1  0.278743  0.004171  0.561923  1
  N  N17  1  0.998062  0.280957  0.567484  1
  N  N18  1  0.717199  0.726987  0.286572  1
  N  N19  1  0.561923  0.004171  0.278743  1
  N  N20  1  0.286572  0.726987  0.717199  1
  N  N21  1  0.567484  0.280957  0.998062  1
