# generated using pymatgen
data_Hf4Zr2BeI12
_symmetry_space_group_name_H-M   'P 1'
_cell_length_a   9.24640601
_cell_length_b   9.29922843
_cell_length_c   9.34158658
_cell_angle_alpha   106.85479552
_cell_angle_beta   106.57625090
_cell_angle_gamma   106.73604165
_symmetry_Int_Tables_number   1
_chemical_formula_structural   Hf4Zr2BeI12
_chemical_formula_sum   'Hf4 Zr2 Be1 I12'
_cell_volume   673.93755564
_cell_formula_units_Z   1
loop_
 _symmetry_equiv_pos_site_id
 _symmetry_equiv_pos_as_xyz
  1  'x, y, z'
loop_
 _atom_site_type_symbol
 _atom_site_label
 _atom_site_symmetry_multiplicity
 _atom_site_fract_x
 _atom_site_fract_y
 _atom_site_fract_z
 _atom_site_occupancy
  Hf  Hf0  1  0.973990  0.727190  0.911016  1
  Hf  Hf1  1  0.275673  0.090279  0.026437  1
  Hf  Hf2  1  0.088410  0.026253  0.272491  1
  Hf  Hf3  1  0.910794  0.975029  0.726853  1
  Zr  Zr4  1  0.719584  0.909110  0.973498  1
  Zr  Zr5  1  0.024763  0.278540  0.090446  1
  Be  Be6  1  0.999178  0.001227  0.999906  1
  I  I7  1  0.922568  0.305806  0.774218  1
  I  I8  1  0.685714  0.223288  0.077084  1
  I  I9  1  0.437163  0.137038  0.360683  1
  I  I10  1  0.864813  0.639106  0.565509  1
  I  I11  1  0.224040  0.076711  0.694920  1
  I  I12  1  0.638259  0.558643  0.859771  1
  I  I13  1  0.366942  0.437297  0.138599  1
  I  I14  1  0.780382  0.922263  0.311394  1
  I  I15  1  0.138757  0.360644  0.439213  1
  I  I16  1  0.562108  0.860857  0.634358  1
  I  I17  1  0.309058  0.778000  0.923775  1
  I  I18  1  0.077806  0.692722  0.219828  1
