# generated using pymatgen
data_Nd2NiGeI
_symmetry_space_group_name_H-M   'P 1'
_cell_length_a   4.23068900
_cell_length_b   4.23068999
_cell_length_c   16.87187000
_cell_angle_alpha   90.00000000
_cell_angle_beta   90.00000000
_cell_angle_gamma   120.00000011
_symmetry_Int_Tables_number   1
_chemical_formula_structural   Nd2NiGeI
_chemical_formula_sum   'Nd4 Ni2 Ge2 I2'
_cell_volume   261.52677332
_cell_formula_units_Z   2
loop_
 _symmetry_equiv_pos_site_id
 _symmetry_equiv_pos_as_xyz
  1  'x, y, z'
loop_
 _atom_site_type_symbol
 _atom_site_label
 _atom_site_symmetry_multiplicity
 _atom_site_fract_x
 _atom_site_fract_y
 _atom_site_fract_z
 _atom_site_occupancy
  Nd  Nd0  1  0.000000  0.000000  0.609507  1
  Nd  Nd1  1  0.000000  0.000000  0.394599  1
  Nd  Nd2  1  0.000000  0.000000  0.109507  1
  Nd  Nd3  1  0.000000  0.000000  0.894599  1
  Ni  Ni4  1  0.666667  0.333333  0.989654  1
  Ni  Ni5  1  0.333333  0.666667  0.489654  1
  Ge  Ge6  1  0.666667  0.333333  0.507606  1
  Ge  Ge7  1  0.333333  0.666667  0.007606  1
  I  I8  1  0.666667  0.333333  0.248634  1
  I  I9  1  0.333333  0.666667  0.748634  1
