# generated using pymatgen
data_HoEr2Tm2Si3
_symmetry_space_group_name_H-M   'P 1'
_cell_length_a   8.35324414
_cell_length_b   8.35589632
_cell_length_c   6.25727200
_cell_angle_alpha   90.00000000
_cell_angle_beta   90.00000000
_cell_angle_gamma   120.01050794
_symmetry_Int_Tables_number   1
_chemical_formula_structural   HoEr2Tm2Si3
_chemical_formula_sum   'Ho2 Er4 Tm4 Si6'
_cell_volume   378.19683318
_cell_formula_units_Z   2
loop_
 _symmetry_equiv_pos_site_id
 _symmetry_equiv_pos_as_xyz
  1  'x, y, z'
loop_
 _atom_site_type_symbol
 _atom_site_label
 _atom_site_symmetry_multiplicity
 _atom_site_fract_x
 _atom_site_fract_y
 _atom_site_fract_z
 _atom_site_occupancy
  Ho  Ho0  1  0.756923  0.756986  0.250000  1
  Ho  Ho1  1  0.243077  0.000062  0.250000  1
  Er  Er2  1  0.000000  0.243170  0.250000  1
  Er  Er3  1  0.242894  0.242985  0.750000  1
  Er  Er4  1  0.757106  0.000091  0.750000  1
  Er  Er5  1  0.000000  0.756809  0.750000  1
  Tm  Tm6  1  0.666732  0.333332  0.500073  1
  Tm  Tm7  1  0.333268  0.666601  0.500073  1
  Tm  Tm8  1  0.333268  0.666601  0.999927  1
  Tm  Tm9  1  0.666732  0.333332  0.999927  1
  Si  Si10  1  0.393997  0.394201  0.250000  1
  Si  Si11  1  0.606003  0.000205  0.250000  1
  Si  Si12  1  0.000000  0.605524  0.250000  1
  Si  Si13  1  0.605925  0.605960  0.750000  1
  Si  Si14  1  0.394075  0.000036  0.750000  1
  Si  Si15  1  0.000000  0.394107  0.750000  1
