# generated using pymatgen
data_YbCoNi11B6
_symmetry_space_group_name_H-M   'P 1'
_cell_length_a   5.98722917
_cell_length_b   6.00362895
_cell_length_c   6.00363024
_cell_angle_alpha   104.42510274
_cell_angle_beta   104.57069796
_cell_angle_gamma   104.57069500
_symmetry_Int_Tables_number   1
_chemical_formula_structural   YbCoNi11B6
_chemical_formula_sum   'Yb1 Co1 Ni11 B6'
_cell_volume   190.56960717
_cell_formula_units_Z   1
loop_
 _symmetry_equiv_pos_site_id
 _symmetry_equiv_pos_as_xyz
  1  'x, y, z'
loop_
 _atom_site_type_symbol
 _atom_site_label
 _atom_site_symmetry_multiplicity
 _atom_site_fract_x
 _atom_site_fract_y
 _atom_site_fract_z
 _atom_site_occupancy
  Yb  Yb0  1  0.000000  0.000066  0.999934  1
  Co  Co1  1  0.500000  0.867337  0.132663  1
  Ni  Ni2  1  0.451396  0.452173  0.185735  1
  Ni  Ni3  1  0.186691  0.455367  0.454018  1
  Ni  Ni4  1  0.548604  0.814265  0.547827  1
  Ni  Ni5  1  0.813309  0.545982  0.544633  1
  Ni  Ni6  1  0.547734  0.546089  0.816472  1
  Ni  Ni7  1  0.130333  0.499451  0.867853  1
  Ni  Ni8  1  0.869667  0.132147  0.500549  1
  Ni  Ni9  1  0.500000  0.130838  0.869162  1
  Ni  Ni10  1  0.870041  0.499030  0.131853  1
  Ni  Ni11  1  0.129959  0.868147  0.500970  1
  Ni  Ni12  1  0.452266  0.183528  0.453911  1
  B  B13  1  0.760497  0.763836  0.324354  1
  B  B14  1  0.337801  0.765745  0.769084  1
  B  B15  1  0.763585  0.332505  0.763068  1
  B  B16  1  0.662199  0.230916  0.234255  1
  B  B17  1  0.236415  0.236932  0.667495  1
  B  B18  1  0.239503  0.675646  0.236164  1
