# generated using pymatgen
data_Pr5GeSb2
_symmetry_space_group_name_H-M   'P 1'
_cell_length_a   8.31217800
_cell_length_b   9.42171600
_cell_length_c   12.61101700
_cell_angle_alpha   90.00000000
_cell_angle_beta   90.00000000
_cell_angle_gamma   90.00000000
_symmetry_Int_Tables_number   1
_chemical_formula_structural   Pr5GeSb2
_chemical_formula_sum   'Pr20 Ge4 Sb8'
_cell_volume   987.63154990
_cell_formula_units_Z   4
loop_
 _symmetry_equiv_pos_site_id
 _symmetry_equiv_pos_as_xyz
  1  'x, y, z'
loop_
 _atom_site_type_symbol
 _atom_site_label
 _atom_site_symmetry_multiplicity
 _atom_site_fract_x
 _atom_site_fract_y
 _atom_site_fract_z
 _atom_site_occupancy
  Pr  Pr0  1  0.660707  0.750000  0.714020  1
  Pr  Pr1  1  0.339293  0.250000  0.285980  1
  Pr  Pr2  1  0.160707  0.250000  0.785980  1
  Pr  Pr3  1  0.839293  0.750000  0.214020  1
  Pr  Pr4  1  0.140136  0.750000  0.793661  1
  Pr  Pr5  1  0.859864  0.250000  0.206339  1
  Pr  Pr6  1  0.640136  0.250000  0.706339  1
  Pr  Pr7  1  0.359864  0.750000  0.293661  1
  Pr  Pr8  1  0.533237  0.750000  0.001630  1
  Pr  Pr9  1  0.466763  0.250000  0.998370  1
  Pr  Pr10  1  0.033237  0.250000  0.498370  1
  Pr  Pr11  1  0.966763  0.750000  0.501630  1
  Pr  Pr12  1  0.807796  0.456999  0.935625  1
  Pr  Pr13  1  0.192204  0.543001  0.064375  1
  Pr  Pr14  1  0.307796  0.543001  0.564375  1
  Pr  Pr15  1  0.192204  0.956999  0.064375  1
  Pr  Pr16  1  0.692204  0.456999  0.435625  1
  Pr  Pr17  1  0.807796  0.043001  0.935625  1
  Pr  Pr18  1  0.692204  0.043001  0.435625  1
  Pr  Pr19  1  0.307796  0.956999  0.564375  1
  Ge  Ge20  1  0.925455  0.750000  0.982583  1
  Ge  Ge21  1  0.074545  0.250000  0.017417  1
  Ge  Ge22  1  0.425455  0.250000  0.517417  1
  Ge  Ge23  1  0.574545  0.750000  0.482583  1
  Sb  Sb24  1  0.928410  0.008645  0.674568  1
  Sb  Sb25  1  0.071590  0.991355  0.325432  1
  Sb  Sb26  1  0.428410  0.991355  0.825432  1
  Sb  Sb27  1  0.071590  0.508645  0.325432  1
  Sb  Sb28  1  0.571590  0.008645  0.174568  1
  Sb  Sb29  1  0.928410  0.491355  0.674568  1
  Sb  Sb30  1  0.571590  0.491355  0.174568  1
  Sb  Sb31  1  0.428410  0.508645  0.825432  1
