# generated using pymatgen
data_TbHo9(Bi3C)2
_symmetry_space_group_name_H-M   'P 1'
_cell_length_a   6.47201000
_cell_length_b   9.12725071
_cell_length_c   9.12686300
_cell_angle_alpha   120.00234722
_cell_angle_beta   90.00044101
_cell_angle_gamma   89.99622118
_symmetry_Int_Tables_number   1
_chemical_formula_structural   TbHo9(Bi3C)2
_chemical_formula_sum   'Tb1 Ho9 Bi6 C2'
_cell_volume   466.89696351
_cell_formula_units_Z   1
loop_
 _symmetry_equiv_pos_site_id
 _symmetry_equiv_pos_as_xyz
  1  'x, y, z'
loop_
 _atom_site_type_symbol
 _atom_site_label
 _atom_site_symmetry_multiplicity
 _atom_site_fract_x
 _atom_site_fract_y
 _atom_site_fract_z
 _atom_site_occupancy
  Tb  Tb0  1  0.500028  0.333330  0.666668  1
  Ho  Ho1  1  0.500025  0.666672  0.333336  1
  Ho  Ho2  1  0.999976  0.666667  0.333329  1
  Ho  Ho3  1  0.999967  0.333337  0.666670  1
  Ho  Ho4  1  0.750090  0.207022  0.999947  1
  Ho  Ho5  1  0.750087  0.792884  0.792906  1
  Ho  Ho6  1  0.750092  0.000013  0.207108  1
  Ho  Ho7  1  0.249905  0.792943  0.999995  1
  Ho  Ho8  1  0.249914  0.207076  0.207110  1
  Ho  Ho9  1  0.249914  0.000042  0.792924  1
  Bi  Bi10  1  0.750493  0.598923  0.000578  1
  Bi  Bi11  1  0.750492  0.401687  0.401110  1
  Bi  Bi12  1  0.750490  0.999400  0.598319  1
  Bi  Bi13  1  0.249511  0.401666  0.000595  1
  Bi  Bi14  1  0.249507  0.598907  0.598311  1
  Bi  Bi15  1  0.249510  0.999429  0.401095  1
  C  C16  1  0.499998  0.000000  0.999998  1
  C  C17  1  0.000005  0.000002  0.000002  1
