# generated using pymatgen
data_Sm13Ho3(PaRh4)4
_symmetry_space_group_name_H-M   'P 1'
_cell_length_a   7.51209825
_cell_length_b   7.56201455
_cell_length_c   14.60988513
_cell_angle_alpha   89.89611119
_cell_angle_beta   89.74341514
_cell_angle_gamma   89.74450850
_symmetry_Int_Tables_number   1
_chemical_formula_structural   Sm13Ho3(PaRh4)4
_chemical_formula_sum   'Sm13 Ho3 Pa4 Rh16'
_cell_volume   829.91993810
_cell_formula_units_Z   1
loop_
 _symmetry_equiv_pos_site_id
 _symmetry_equiv_pos_as_xyz
  1  'x, y, z'
loop_
 _atom_site_type_symbol
 _atom_site_label
 _atom_site_symmetry_multiplicity
 _atom_site_fract_x
 _atom_site_fract_y
 _atom_site_fract_z
 _atom_site_occupancy
  Sm  Sm0  1  0.164735  0.340018  0.620451  1
  Sm  Sm1  1  0.507614  0.682037  0.594229  1
  Sm  Sm2  1  0.013268  0.822205  0.906844  1
  Sm  Sm3  1  0.490283  0.319599  0.088018  1
  Sm  Sm4  1  0.991295  0.181925  0.407137  1
  Sm  Sm5  1  0.491952  0.317720  0.410225  1
  Sm  Sm6  1  0.995572  0.181892  0.091503  1
  Sm  Sm7  1  0.505679  0.678846  0.907410  1
  Sm  Sm8  1  0.006129  0.818826  0.592626  1
  Sm  Sm9  1  0.824439  0.512019  0.750053  1
  Sm  Sm10  1  0.311592  0.990679  0.748565  1
  Sm  Sm11  1  0.192246  0.480650  0.248758  1
  Sm  Sm12  1  0.681389  0.021401  0.246482  1
  Ho  Ho13  1  0.662665  0.159524  0.621294  1
  Ho  Ho14  1  0.160520  0.340688  0.880105  1
  Ho  Ho15  1  0.340994  0.842006  0.121112  1
  Pa  Pa16  1  0.838245  0.657191  0.376972  1
  Pa  Pa17  1  0.339597  0.844751  0.376615  1
  Pa  Pa18  1  0.842823  0.655393  0.120575  1
  Pa  Pa19  1  0.660418  0.154562  0.877259  1
  Rh  Rh20  1  0.681936  0.943256  0.454069  1
  Rh  Rh21  1  0.157212  0.545249  0.046680  1
  Rh  Rh22  1  0.348663  0.044844  0.955116  1
  Rh  Rh23  1  0.812837  0.472722  0.528762  1
  Rh  Rh24  1  0.319224  0.024568  0.529598  1
  Rh  Rh25  1  0.803612  0.457552  0.969727  1
  Rh  Rh26  1  0.702389  0.952294  0.034170  1
  Rh  Rh27  1  0.173695  0.562096  0.452347  1
  Rh  Rh28  1  0.471069  0.365810  0.761472  1
  Rh  Rh29  1  0.938806  0.130293  0.759396  1
  Rh  Rh30  1  0.545491  0.645262  0.258900  1
  Rh  Rh31  1  0.031820  0.855998  0.250655  1
  Rh  Rh32  1  0.680804  0.866053  0.755871  1
  Rh  Rh33  1  0.207609  0.631499  0.750627  1
  Rh  Rh34  1  0.295495  0.113444  0.258474  1
  Rh  Rh35  1  0.807886  0.387131  0.247900  1
