# generated using pymatgen
data_Ba3Al4O9
_symmetry_space_group_name_H-M   'P 1'
_cell_length_a   7.02027582
_cell_length_b   8.24698086
_cell_length_c   9.88119665
_cell_angle_alpha   84.90598236
_cell_angle_beta   73.32862671
_cell_angle_gamma   73.94878985
_symmetry_Int_Tables_number   1
_chemical_formula_structural   Ba3Al4O9
_chemical_formula_sum   'Ba6 Al8 O18'
_cell_volume   526.64255689
_cell_formula_units_Z   2
loop_
 _symmetry_equiv_pos_site_id
 _symmetry_equiv_pos_as_xyz
  1  'x, y, z'
loop_
 _atom_site_type_symbol
 _atom_site_label
 _atom_site_symmetry_multiplicity
 _atom_site_fract_x
 _atom_site_fract_y
 _atom_site_fract_z
 _atom_site_occupancy
  Ba  Ba0  1  0.046180  0.056258  0.695909  1
  Ba  Ba1  1  0.173956  0.562919  0.654711  1
  Ba  Ba2  1  0.306652  0.216293  0.961403  1
  Ba  Ba3  1  0.693348  0.783707  0.038597  1
  Ba  Ba4  1  0.826044  0.437081  0.345289  1
  Ba  Ba5  1  0.953820  0.943742  0.304091  1
  Al  Al6  1  0.416123  0.183673  0.305489  1
  Al  Al7  1  0.336566  0.556425  0.233377  1
  Al  Al8  1  0.738679  0.278604  0.065595  1
  Al  Al9  1  0.565059  0.178595  0.588266  1
  Al  Al10  1  0.434941  0.821405  0.411734  1
  Al  Al11  1  0.261321  0.721396  0.934405  1
  Al  Al12  1  0.663434  0.443575  0.766623  1
  Al  Al13  1  0.583877  0.816327  0.694511  1
  O  O14  1  0.283369  0.026915  0.377797  1
  O  O15  1  0.234223  0.380260  0.291962  1
  O  O16  1  0.210135  0.698256  0.120626  1
  O  O17  1  0.576603  0.134125  0.126006  1
  O  O18  1  0.038464  0.791029  0.874738  1
  O  O19  1  0.308464  0.233001  0.693067  1
  O  O20  1  0.297081  0.678946  0.383759  1
  O  O21  1  0.586811  0.198763  0.404233  1
  O  O22  1  0.603898  0.480976  0.145562  1
  O  O23  1  0.396102  0.519024  0.854438  1
  O  O24  1  0.413189  0.801237  0.595767  1
  O  O25  1  0.702919  0.321054  0.616241  1
  O  O26  1  0.691536  0.766999  0.306933  1
  O  O27  1  0.961536  0.208971  0.125262  1
  O  O28  1  0.423397  0.865875  0.873994  1
  O  O29  1  0.789865  0.301744  0.879374  1
  O  O30  1  0.765777  0.619740  0.708038  1
  O  O31  1  0.716631  0.973085  0.622203  1
