# generated using pymatgen
data_TbLu3(Al8Pt3)3
_symmetry_space_group_name_H-M   'P 1'
_cell_length_a   7.51194719
_cell_length_b   7.52957670
_cell_length_c   13.12855752
_cell_angle_alpha   84.60352556
_cell_angle_beta   79.10479124
_cell_angle_gamma   59.99136271
_symmetry_Int_Tables_number   1
_chemical_formula_structural   TbLu3(Al8Pt3)3
_chemical_formula_sum   'Tb1 Lu3 Al24 Pt9'
_cell_volume   631.44143231
_cell_formula_units_Z   1
loop_
 _symmetry_equiv_pos_site_id
 _symmetry_equiv_pos_as_xyz
  1  'x, y, z'
loop_
 _atom_site_type_symbol
 _atom_site_label
 _atom_site_symmetry_multiplicity
 _atom_site_fract_x
 _atom_site_fract_y
 _atom_site_fract_z
 _atom_site_occupancy
  Tb  Tb0  1  0.393609  0.168587  0.808586  1
  Lu  Lu1  1  0.606252  0.830824  0.193047  1
  Lu  Lu2  1  0.734337  0.498898  0.806841  1
  Lu  Lu3  1  0.265345  0.501447  0.193168  1
  Al  Al4  1  0.684588  0.832632  0.944553  1
  Al  Al5  1  0.316223  0.166180  0.056843  1
  Al  Al6  1  0.146596  0.832398  0.561644  1
  Al  Al7  1  0.853579  0.167589  0.438093  1
  Al  Al8  1  0.479376  0.166763  0.558554  1
  Al  Al9  1  0.520672  0.833155  0.441044  1
  Al  Al10  1  0.218187  0.165371  0.328229  1
  Al  Al11  1  0.782718  0.833927  0.671062  1
  Al  Al12  1  0.437473  0.506898  0.671159  1
  Al  Al13  1  0.562786  0.493868  0.328084  1
  Al  Al14  1  0.108643  0.160083  0.669970  1
  Al  Al15  1  0.890876  0.839983  0.329150  1
  Al  Al16  1  0.353803  0.499886  0.944582  1
  Al  Al17  1  0.646064  0.501335  0.056086  1
  Al  Al18  1  0.014681  0.168365  0.952191  1
  Al  Al19  1  0.983878  0.831775  0.048607  1
  Al  Al20  1  0.186872  0.499315  0.441110  1
  Al  Al21  1  0.813134  0.500757  0.558651  1
  Al  Al22  1  0.733258  0.164003  0.183234  1
  Al  Al23  1  0.266753  0.834596  0.816689  1
  Al  Al24  1  0.060481  0.631801  0.815607  1
  Al  Al25  1  0.938259  0.369488  0.184267  1
  Al  Al26  1  0.856010  0.042439  0.816167  1
  Al  Al27  1  0.145265  0.957463  0.183782  1
  Pt  Pt28  1  0.119277  0.491678  0.639281  1
  Pt  Pt29  1  0.880379  0.508948  0.360253  1
  Pt  Pt30  1  0.657126  0.171394  0.999835  1
  Pt  Pt31  1  0.342863  0.828647  0.000350  1
  Pt  Pt32  1  0.537579  0.166819  0.360443  1
  Pt  Pt33  1  0.462436  0.832720  0.639183  1
  Pt  Pt34  1  0.778436  0.175413  0.637506  1
  Pt  Pt35  1  0.222201  0.824486  0.362062  1
  Pt  Pt36  1  0.999985  0.500068  0.000089  1
