# generated using pymatgen
data_Ba8PuPaSe12
_symmetry_space_group_name_H-M   'P 1'
_cell_length_a   9.04660931
_cell_length_b   9.04661117
_cell_length_c   9.04661000
_cell_angle_alpha   89.17565461
_cell_angle_beta   89.17565445
_cell_angle_gamma   89.17565301
_symmetry_Int_Tables_number   1
_chemical_formula_structural   Ba8PuPaSe12
_chemical_formula_sum   'Ba8 Pu1 Pa1 Se12'
_cell_volume   740.15732210
_cell_formula_units_Z   1
loop_
 _symmetry_equiv_pos_site_id
 _symmetry_equiv_pos_as_xyz
  1  'x, y, z'
loop_
 _atom_site_type_symbol
 _atom_site_label
 _atom_site_symmetry_multiplicity
 _atom_site_fract_x
 _atom_site_fract_y
 _atom_site_fract_z
 _atom_site_occupancy
  Ba  Ba0  1  0.878008  0.627604  0.243918  1
  Ba  Ba1  1  0.243918  0.878008  0.627604  1
  Ba  Ba2  1  0.627604  0.243918  0.878008  1
  Ba  Ba3  1  0.756082  0.121992  0.372396  1
  Ba  Ba4  1  0.372396  0.756082  0.121992  1
  Ba  Ba5  1  0.121992  0.372396  0.756082  1
  Ba  Ba6  1  0.246188  0.246188  0.246188  1
  Ba  Ba7  1  0.753812  0.753812  0.753812  1
  Pu  Pu8  1  0.000000  0.000000  0.000000  1
  Pa  Pa9  1  0.500000  0.500000  0.500000  1
  Se  Se10  1  0.205306  0.559325  0.427617  1
  Se  Se11  1  0.427617  0.205306  0.559325  1
  Se  Se12  1  0.559325  0.427617  0.205306  1
  Se  Se13  1  0.917297  0.064208  0.696388  1
  Se  Se14  1  0.696388  0.917297  0.064208  1
  Se  Se15  1  0.064208  0.696388  0.917297  1
  Se  Se16  1  0.794694  0.440675  0.572383  1
  Se  Se17  1  0.572383  0.794694  0.440675  1
  Se  Se18  1  0.440675  0.572383  0.794694  1
  Se  Se19  1  0.082703  0.935792  0.303612  1
  Se  Se20  1  0.303612  0.082703  0.935792  1
  Se  Se21  1  0.935792  0.303612  0.082703  1
