# generated using pymatgen
data_Tb5Dy11MgCd3Ru3Pt
_symmetry_space_group_name_H-M   'P 1'
_cell_length_a   9.67729011
_cell_length_b   9.72384533
_cell_length_c   9.72384694
_cell_angle_alpha   59.68663200
_cell_angle_beta   59.47998214
_cell_angle_gamma   59.47997990
_symmetry_Int_Tables_number   1
_chemical_formula_structural   Tb5Dy11MgCd3Ru3Pt
_chemical_formula_sum   'Tb5 Dy11 Mg1 Cd3 Ru3 Pt1'
_cell_volume   640.37378210
_cell_formula_units_Z   1
loop_
 _symmetry_equiv_pos_site_id
 _symmetry_equiv_pos_as_xyz
  1  'x, y, z'
loop_
 _atom_site_type_symbol
 _atom_site_label
 _atom_site_symmetry_multiplicity
 _atom_site_fract_x
 _atom_site_fract_y
 _atom_site_fract_z
 _atom_site_occupancy
  Tb  Tb0  1  0.557939  0.938281  0.938281  1
  Tb  Tb1  1  0.558063  0.938699  0.565989  1
  Tb  Tb2  1  0.936784  0.562160  0.938425  1
  Tb  Tb3  1  0.558063  0.565989  0.938699  1
  Tb  Tb4  1  0.936784  0.938425  0.562160  1
  Dy  Dy5  1  0.345478  0.351083  0.351083  1
  Dy  Dy6  1  0.344520  0.349536  0.958194  1
  Dy  Dy7  1  0.344520  0.958194  0.349536  1
  Dy  Dy8  1  0.966054  0.344619  0.344619  1
  Dy  Dy9  1  0.814840  0.189585  0.189585  1
  Dy  Dy10  1  0.185435  0.812364  0.812364  1
  Dy  Dy11  1  0.188201  0.811115  0.188859  1
  Dy  Dy12  1  0.815965  0.187986  0.806736  1
  Dy  Dy13  1  0.188201  0.188859  0.811115  1
  Dy  Dy14  1  0.815965  0.806736  0.187986  1
  Dy  Dy15  1  0.936900  0.562532  0.562532  1
  Mg  Mg16  1  0.575833  0.574843  0.574843  1
  Cd  Cd17  1  0.581321  0.580425  0.257117  1
  Cd  Cd18  1  0.581321  0.257117  0.580425  1
  Cd  Cd19  1  0.255352  0.581059  0.581059  1
  Ru  Ru20  1  0.144996  0.138358  0.138358  1
  Ru  Ru21  1  0.145816  0.139889  0.579042  1
  Ru  Ru22  1  0.145816  0.579042  0.139889  1
  Pt  Pt23  1  0.575831  0.143102  0.143102  1
