# generated using pymatgen
data_Tb9Sc(SiB4)4
_symmetry_space_group_name_H-M   'P 1'
_cell_length_a   7.23350100
_cell_length_b   7.23350100
_cell_length_c   8.09057600
_cell_angle_alpha   90.00000000
_cell_angle_beta   90.00000000
_cell_angle_gamma   90.00000000
_symmetry_Int_Tables_number   1
_chemical_formula_structural   Tb9Sc(SiB4)4
_chemical_formula_sum   'Tb9 Sc1 Si4 B16'
_cell_volume   423.32755040
_cell_formula_units_Z   1
loop_
 _symmetry_equiv_pos_site_id
 _symmetry_equiv_pos_as_xyz
  1  'x, y, z'
loop_
 _atom_site_type_symbol
 _atom_site_label
 _atom_site_symmetry_multiplicity
 _atom_site_fract_x
 _atom_site_fract_y
 _atom_site_fract_z
 _atom_site_occupancy
  Tb  Tb0  1  0.681306  0.179633  0.226193  1
  Tb  Tb1  1  0.318694  0.820367  0.773807  1
  Tb  Tb2  1  0.318694  0.820367  0.226193  1
  Tb  Tb3  1  0.820367  0.681306  0.226193  1
  Tb  Tb4  1  0.820367  0.681306  0.773807  1
  Tb  Tb5  1  0.681306  0.179633  0.773807  1
  Tb  Tb6  1  0.179633  0.318694  0.773807  1
  Tb  Tb7  1  0.179633  0.318694  0.226193  1
  Tb  Tb8  1  0.500000  0.500000  0.500000  1
  Sc  Sc9  1  0.000000  0.000000  0.500000  1
  Si  Si10  1  0.108833  0.623226  0.500000  1
  Si  Si11  1  0.891167  0.376774  0.500000  1
  Si  Si12  1  0.376774  0.108833  0.500000  1
  Si  Si13  1  0.623226  0.891167  0.500000  1
  B  B14  1  0.172484  0.039095  0.000000  1
  B  B15  1  0.827516  0.960905  0.000000  1
  B  B16  1  0.960905  0.172484  0.000000  1
  B  B17  1  0.327890  0.539302  0.000000  1
  B  B18  1  0.039095  0.827516  0.000000  1
  B  B19  1  0.672110  0.460698  0.000000  1
  B  B20  1  0.539302  0.672110  0.000000  1
  B  B21  1  0.460698  0.327890  0.000000  1
  B  B22  1  0.089976  0.589776  0.000000  1
  B  B23  1  0.910024  0.410224  0.000000  1
  B  B24  1  0.410224  0.089976  0.000000  1
  B  B25  1  0.589776  0.910024  0.000000  1
  B  B26  1  0.000000  0.000000  0.162743  1
  B  B27  1  0.000000  0.000000  0.837257  1
  B  B28  1  0.500000  0.500000  0.838271  1
  B  B29  1  0.500000  0.500000  0.161729  1
