# generated using pymatgen
data_LiLa9(Si3H)2
_symmetry_space_group_name_H-M   'P 1'
_cell_length_a   9.03533940
_cell_length_b   9.03533799
_cell_length_c   9.03533839
_cell_angle_alpha   128.13323713
_cell_angle_beta   128.13323364
_cell_angle_gamma   76.40929531
_symmetry_Int_Tables_number   1
_chemical_formula_structural   LiLa9(Si3H)2
_chemical_formula_sum   'Li1 La9 Si6 H2'
_cell_volume   443.42408414
_cell_formula_units_Z   1
loop_
 _symmetry_equiv_pos_site_id
 _symmetry_equiv_pos_as_xyz
  1  'x, y, z'
loop_
 _atom_site_type_symbol
 _atom_site_label
 _atom_site_symmetry_multiplicity
 _atom_site_fract_x
 _atom_site_fract_y
 _atom_site_fract_z
 _atom_site_occupancy
  Li  Li0  1  0.000000  0.000000  0.000000  1
  La  La1  1  0.500000  0.500000  0.000000  1
  La  La2  1  0.537822  0.020993  0.851339  1
  La  La3  1  0.169655  0.686484  0.148661  1
  La  La4  1  0.020993  0.169655  0.483172  1
  La  La5  1  0.686484  0.537822  0.516828  1
  La  La6  1  0.462178  0.979007  0.148661  1
  La  La7  1  0.830345  0.313516  0.851339  1
  La  La8  1  0.979007  0.830345  0.516828  1
  La  La9  1  0.313516  0.462178  0.483172  1
  Si  Si10  1  0.261641  0.261641  0.000000  1
  Si  Si11  1  0.738359  0.738359  0.000000  1
  Si  Si12  1  0.884892  0.392720  0.277613  1
  Si  Si13  1  0.115108  0.607280  0.722387  1
  Si  Si14  1  0.392720  0.115108  0.507828  1
  Si  Si15  1  0.607280  0.884892  0.492172  1
  H  H16  1  0.250000  0.750000  0.500000  1
  H  H17  1  0.750000  0.250000  0.500000  1
