# generated using pymatgen
data_Fe3Ni(BW)4
_symmetry_space_group_name_H-M   'P 1'
_cell_length_a   5.79793077
_cell_length_b   3.22168100
_cell_length_c   6.73832591
_cell_angle_alpha   90.00000000
_cell_angle_beta   90.24078652
_cell_angle_gamma   90.00000000
_symmetry_Int_Tables_number   1
_chemical_formula_structural   Fe3Ni(BW)4
_chemical_formula_sum   'Fe3 Ni1 B4 W4'
_cell_volume   125.86464020
_cell_formula_units_Z   1
loop_
 _symmetry_equiv_pos_site_id
 _symmetry_equiv_pos_as_xyz
  1  'x, y, z'
loop_
 _atom_site_type_symbol
 _atom_site_label
 _atom_site_symmetry_multiplicity
 _atom_site_fract_x
 _atom_site_fract_y
 _atom_site_fract_z
 _atom_site_occupancy
  Fe  Fe0  1  0.642523  0.250000  0.058905  1
  Fe  Fe1  1  0.858675  0.750000  0.556994  1
  Fe  Fe2  1  0.358945  0.750000  0.941315  1
  Ni  Ni3  1  0.145919  0.250000  0.443421  1
  B  B4  1  0.264407  0.250000  0.131369  1
  B  B5  1  0.764906  0.250000  0.373432  1
  B  B6  1  0.734264  0.750000  0.866184  1
  B  B7  1  0.229574  0.750000  0.630644  1
  W  W8  1  0.028152  0.250000  0.826440  1
  W  W9  1  0.531582  0.250000  0.672101  1
  W  W10  1  0.968138  0.750000  0.174772  1
  W  W11  1  0.472917  0.750000  0.324424  1
