# generated using pymatgen
data_Dy3Zr3(Be2Ir5)2
_symmetry_space_group_name_H-M   'P 1'
_cell_length_a   9.73544700
_cell_length_b   9.73544628
_cell_length_c   3.28367000
_cell_angle_alpha   90.00000000
_cell_angle_beta   90.00000000
_cell_angle_gamma   89.74783869
_symmetry_Int_Tables_number   1
_chemical_formula_structural   Dy3Zr3(Be2Ir5)2
_chemical_formula_sum   'Dy3 Zr3 Be4 Ir10'
_cell_volume   311.21968650
_cell_formula_units_Z   1
loop_
 _symmetry_equiv_pos_site_id
 _symmetry_equiv_pos_as_xyz
  1  'x, y, z'
loop_
 _atom_site_type_symbol
 _atom_site_label
 _atom_site_symmetry_multiplicity
 _atom_site_fract_x
 _atom_site_fract_y
 _atom_site_fract_z
 _atom_site_occupancy
  Dy  Dy0  1  0.175451  0.675493  0.000000  1
  Dy  Dy1  1  0.325120  0.174880  0.000000  1
  Dy  Dy2  1  0.824507  0.324549  0.000000  1
  Zr  Zr3  1  0.499899  0.498926  0.000000  1
  Zr  Zr4  1  0.674760  0.825240  0.000000  1
  Zr  Zr5  1  0.001074  0.000101  0.000000  1
  Be  Be6  1  0.381957  0.878546  0.000000  1
  Be  Be7  1  0.119225  0.380775  0.000000  1
  Be  Be8  1  0.878154  0.621846  0.000000  1
  Be  Be9  1  0.621454  0.118043  0.000000  1
  Ir  Ir10  1  0.221133  0.930027  0.500000  1
  Ir  Ir11  1  0.921599  0.785311  0.500000  1
  Ir  Ir12  1  0.436955  0.718558  0.500000  1
  Ir  Ir13  1  0.569973  0.278867  0.500000  1
  Ir  Ir14  1  0.714689  0.578401  0.500000  1
  Ir  Ir15  1  0.280699  0.431622  0.500000  1
  Ir  Ir16  1  0.068378  0.219301  0.500000  1
  Ir  Ir17  1  0.997359  0.502641  0.500000  1
  Ir  Ir18  1  0.506172  0.993828  0.500000  1
  Ir  Ir19  1  0.781442  0.063045  0.500000  1
