# generated using pymatgen
data_Er2BeSi3
_symmetry_space_group_name_H-M   'P 1'
_cell_length_a   7.81826200
_cell_length_b   7.81826379
_cell_length_c   7.96531300
_cell_angle_alpha   90.00000000
_cell_angle_beta   90.00000000
_cell_angle_gamma   120.00000087
_symmetry_Int_Tables_number   1
_chemical_formula_structural   Er2BeSi3
_chemical_formula_sum   'Er8 Be4 Si12'
_cell_volume   421.65185376
_cell_formula_units_Z   4
loop_
 _symmetry_equiv_pos_site_id
 _symmetry_equiv_pos_as_xyz
  1  'x, y, z'
loop_
 _atom_site_type_symbol
 _atom_site_label
 _atom_site_symmetry_multiplicity
 _atom_site_fract_x
 _atom_site_fract_y
 _atom_site_fract_z
 _atom_site_occupancy
  Er  Er0  1  0.997986  0.498994  0.250000  1
  Er  Er1  1  0.501006  0.498994  0.250000  1
  Er  Er2  1  0.498994  0.997986  0.750000  1
  Er  Er3  1  0.002014  0.501006  0.750000  1
  Er  Er4  1  0.498994  0.501006  0.750000  1
  Er  Er5  1  0.501006  0.002014  0.250000  1
  Er  Er6  1  0.000000  0.000000  0.750000  1
  Er  Er7  1  0.000000  0.000000  0.250000  1
  Be  Be8  1  0.333333  0.666667  0.007488  1
  Be  Be9  1  0.666667  0.333333  0.992512  1
  Be  Be10  1  0.666667  0.333333  0.507488  1
  Be  Be11  1  0.333333  0.666667  0.492512  1
  Si  Si12  1  0.172652  0.827348  0.499520  1
  Si  Si13  1  0.172652  0.345303  0.499520  1
  Si  Si14  1  0.654697  0.827348  0.499520  1
  Si  Si15  1  0.345303  0.172652  0.999520  1
  Si  Si16  1  0.827348  0.654697  0.500480  1
  Si  Si17  1  0.827348  0.172652  0.999520  1
  Si  Si18  1  0.827348  0.654697  0.999520  1
  Si  Si19  1  0.172652  0.345303  0.000480  1
  Si  Si20  1  0.654697  0.827348  0.000480  1
  Si  Si21  1  0.345303  0.172652  0.500480  1
  Si  Si22  1  0.827348  0.172652  0.500480  1
  Si  Si23  1  0.172652  0.827348  0.000480  1
