# generated using pymatgen
data_EuScNi7
_symmetry_space_group_name_H-M   'P 1'
_cell_length_a   4.88401900
_cell_length_b   4.88401829
_cell_length_c   23.68720000
_cell_angle_alpha   90.00000000
_cell_angle_beta   90.00000000
_cell_angle_gamma   119.99999801
_symmetry_Int_Tables_number   1
_chemical_formula_structural   EuScNi7
_chemical_formula_sum   'Eu4 Sc4 Ni28'
_cell_volume   489.32679080
_cell_formula_units_Z   4
loop_
 _symmetry_equiv_pos_site_id
 _symmetry_equiv_pos_as_xyz
  1  'x, y, z'
loop_
 _atom_site_type_symbol
 _atom_site_label
 _atom_site_symmetry_multiplicity
 _atom_site_fract_x
 _atom_site_fract_y
 _atom_site_fract_z
 _atom_site_occupancy
  Eu  Eu0  1  0.333333  0.666667  0.329491  1
  Eu  Eu1  1  0.666667  0.333333  0.670509  1
  Eu  Eu2  1  0.666667  0.333333  0.829491  1
  Eu  Eu3  1  0.333333  0.666667  0.170509  1
  Sc  Sc4  1  0.333333  0.666667  0.473629  1
  Sc  Sc5  1  0.666667  0.333333  0.526371  1
  Sc  Sc6  1  0.666667  0.333333  0.973629  1
  Sc  Sc7  1  0.333333  0.666667  0.026371  1
  Ni  Ni8  1  0.000000  0.000000  0.500000  1
  Ni  Ni9  1  0.000000  0.000000  0.000000  1
  Ni  Ni10  1  0.833259  0.166741  0.250000  1
  Ni  Ni11  1  0.833259  0.666519  0.250000  1
  Ni  Ni12  1  0.333481  0.166741  0.250000  1
  Ni  Ni13  1  0.166741  0.833259  0.750000  1
  Ni  Ni14  1  0.166741  0.333481  0.750000  1
  Ni  Ni15  1  0.666519  0.833259  0.750000  1
  Ni  Ni16  1  0.831514  0.168486  0.419045  1
  Ni  Ni17  1  0.831514  0.663030  0.419045  1
  Ni  Ni18  1  0.336970  0.168486  0.419045  1
  Ni  Ni19  1  0.168486  0.831514  0.580955  1
  Ni  Ni20  1  0.168486  0.336970  0.580955  1
  Ni  Ni21  1  0.663030  0.831514  0.580955  1
  Ni  Ni22  1  0.168486  0.831514  0.919045  1
  Ni  Ni23  1  0.168486  0.336970  0.919045  1
  Ni  Ni24  1  0.663030  0.831514  0.919045  1
  Ni  Ni25  1  0.831514  0.168486  0.080955  1
  Ni  Ni26  1  0.831514  0.663030  0.080955  1
  Ni  Ni27  1  0.336970  0.168486  0.080955  1
  Ni  Ni28  1  0.000000  0.000000  0.334711  1
  Ni  Ni29  1  0.000000  0.000000  0.665289  1
  Ni  Ni30  1  0.000000  0.000000  0.834711  1
  Ni  Ni31  1  0.000000  0.000000  0.165289  1
  Ni  Ni32  1  0.333333  0.666667  0.665370  1
  Ni  Ni33  1  0.666667  0.333333  0.334630  1
  Ni  Ni34  1  0.666667  0.333333  0.165370  1
  Ni  Ni35  1  0.333333  0.666667  0.834630  1
