# generated using pymatgen
data_PaI11
_symmetry_space_group_name_H-M   'P 1'
_cell_length_a   8.49938269
_cell_length_b   8.88271039
_cell_length_c   9.54108927
_cell_angle_alpha   90.92037310
_cell_angle_beta   90.12461287
_cell_angle_gamma   107.50006369
_symmetry_Int_Tables_number   1
_chemical_formula_structural   PaI11
_chemical_formula_sum   'Pa1 I11'
_cell_volume   686.88248560
_cell_formula_units_Z   1
loop_
 _symmetry_equiv_pos_site_id
 _symmetry_equiv_pos_as_xyz
  1  'x, y, z'
loop_
 _atom_site_type_symbol
 _atom_site_label
 _atom_site_symmetry_multiplicity
 _atom_site_fract_x
 _atom_site_fract_y
 _atom_site_fract_z
 _atom_site_occupancy
  Pa  Pa0  1  0.000000  0.500000  0.500000  1
  I  I1  1  0.000000  0.000000  0.000000  1
  I  I2  1  0.687861  0.784145  0.891878  1
  I  I3  1  0.312139  0.215855  0.108122  1
  I  I4  1  0.671999  0.263726  0.573885  1
  I  I5  1  0.328001  0.736274  0.426115  1
  I  I6  1  0.497525  0.745700  0.141789  1
  I  I7  1  0.502475  0.254300  0.858211  1
  I  I8  1  0.860593  0.763607  0.534928  1
  I  I9  1  0.139407  0.236393  0.465072  1
  I  I10  1  0.891012  0.459604  0.208909  1
  I  I11  1  0.108988  0.540396  0.791091  1
