# generated using pymatgen
data_TbPa3(InRh5)2
_symmetry_space_group_name_H-M   'P 1'
_cell_length_a   5.78929011
_cell_length_b   5.78928918
_cell_length_c   8.39323300
_cell_angle_alpha   89.98888583
_cell_angle_beta   89.98888583
_cell_angle_gamma   96.77264101
_symmetry_Int_Tables_number   1
_chemical_formula_structural   TbPa3(InRh5)2
_chemical_formula_sum   'Tb1 Pa3 In2 Rh10'
_cell_volume   279.34355702
_cell_formula_units_Z   1
loop_
 _symmetry_equiv_pos_site_id
 _symmetry_equiv_pos_as_xyz
  1  'x, y, z'
loop_
 _atom_site_type_symbol
 _atom_site_label
 _atom_site_symmetry_multiplicity
 _atom_site_fract_x
 _atom_site_fract_y
 _atom_site_fract_z
 _atom_site_occupancy
  Tb  Tb0  1  0.775949  0.224051  0.000000  1
  Pa  Pa1  1  0.783952  0.216048  0.500000  1
  Pa  Pa2  1  0.212205  0.787795  0.000000  1
  Pa  Pa3  1  0.218606  0.781394  0.500000  1
  In  In4  1  0.503420  0.497845  0.753514  1
  In  In5  1  0.502155  0.496580  0.246486  1
  Rh  Rh6  1  0.733452  0.733365  0.000346  1
  Rh  Rh7  1  0.729121  0.730465  0.499711  1
  Rh  Rh8  1  0.266635  0.266548  0.999654  1
  Rh  Rh9  1  0.269535  0.270879  0.500289  1
  Rh  Rh10  1  0.495297  0.995199  0.743012  1
  Rh  Rh11  1  0.495308  0.994565  0.256902  1
  Rh  Rh12  1  0.002232  0.998101  0.255417  1
  Rh  Rh13  1  0.001899  0.997768  0.744583  1
  Rh  Rh14  1  0.005435  0.504692  0.743098  1
  Rh  Rh15  1  0.004801  0.504703  0.256988  1
