# generated using pymatgen
data_Yb2Sb4Pd3
_symmetry_space_group_name_H-M   'P 1'
_cell_length_a   4.47941006
_cell_length_b   4.47940962
_cell_length_c   21.28771797
_cell_angle_alpha   96.03933368
_cell_angle_beta   96.03933352
_cell_angle_gamma   89.99999958
_symmetry_Int_Tables_number   1
_chemical_formula_structural   Yb2Sb4Pd3
_chemical_formula_sum   'Yb4 Sb8 Pd6'
_cell_volume   422.38580752
_cell_formula_units_Z   2
loop_
 _symmetry_equiv_pos_site_id
 _symmetry_equiv_pos_as_xyz
  1  'x, y, z'
loop_
 _atom_site_type_symbol
 _atom_site_label
 _atom_site_symmetry_multiplicity
 _atom_site_fract_x
 _atom_site_fract_y
 _atom_site_fract_z
 _atom_site_occupancy
  Yb  Yb0  1  0.054383  0.054383  0.108767  1
  Yb  Yb1  1  0.184218  0.184218  0.368437  1
  Yb  Yb2  1  0.815781  0.815781  0.631563  1
  Yb  Yb3  1  0.945616  0.945616  0.891233  1
  Sb  Sb4  1  0.537521  0.537521  0.075043  1
  Sb  Sb5  1  0.616417  0.116417  0.232836  1
  Sb  Sb6  1  0.116417  0.616417  0.232836  1
  Sb  Sb7  1  0.714808  0.714808  0.429618  1
  Sb  Sb8  1  0.285191  0.285191  0.570382  1
  Sb  Sb9  1  0.883583  0.383583  0.767165  1
  Sb  Sb10  1  0.383583  0.883583  0.767165  1
  Sb  Sb11  1  0.462479  0.462479  0.924957  1
  Pd  Pd12  1  0.500000  0.000000  0.000000  1
  Pd  Pd13  1  0.000000  0.500000  0.000000  1
  Pd  Pd14  1  0.653479  0.653479  0.306959  1
  Pd  Pd15  1  0.750000  0.250000  0.500000  1
  Pd  Pd16  1  0.250000  0.750000  0.500000  1
  Pd  Pd17  1  0.346521  0.346521  0.693041  1
