# generated using pymatgen
data_Yb2Dy3Sc(Si3Ru)8
_symmetry_space_group_name_H-M   'P 1'
_cell_length_a   10.10823410
_cell_length_b   10.10823393
_cell_length_c   8.11906263
_cell_angle_alpha   89.99878847
_cell_angle_beta   89.99878405
_cell_angle_gamma   132.64574794
_symmetry_Int_Tables_number   1
_chemical_formula_structural   Yb2Dy3Sc(Si3Ru)8
_chemical_formula_sum   'Yb2 Dy3 Sc1 Si24 Ru8'
_cell_volume   610.20033891
_cell_formula_units_Z   1
loop_
 _symmetry_equiv_pos_site_id
 _symmetry_equiv_pos_as_xyz
  1  'x, y, z'
loop_
 _atom_site_type_symbol
 _atom_site_label
 _atom_site_symmetry_multiplicity
 _atom_site_fract_x
 _atom_site_fract_y
 _atom_site_fract_z
 _atom_site_occupancy
  Yb  Yb0  1  0.500916  0.001010  0.750105  1
  Yb  Yb1  1  0.998990  0.499084  0.249895  1
  Dy  Dy2  1  0.000086  0.999914  0.000000  1
  Dy  Dy3  1  0.497060  0.996924  0.249640  1
  Dy  Dy4  1  0.003076  0.502940  0.750360  1
  Sc  Sc5  1  0.499730  0.500270  0.500000  1
  Si  Si6  1  0.794380  0.205620  0.500000  1
  Si  Si7  1  0.294472  0.705528  0.000000  1
  Si  Si8  1  0.205946  0.794054  0.500000  1
  Si  Si9  1  0.705203  0.294797  0.000000  1
  Si  Si10  1  0.331211  0.336425  0.830947  1
  Si  Si11  1  0.663575  0.668789  0.169053  1
  Si  Si12  1  0.171469  0.166516  0.333726  1
  Si  Si13  1  0.833484  0.828531  0.666274  1
  Si  Si14  1  0.121567  0.887368  0.727479  1
  Si  Si15  1  0.112632  0.878433  0.272521  1
  Si  Si16  1  0.609420  0.377450  0.229824  1
  Si  Si17  1  0.622550  0.390580  0.770176  1
  Si  Si18  1  0.876885  0.110977  0.272313  1
  Si  Si19  1  0.889023  0.123115  0.727687  1
  Si  Si20  1  0.388961  0.621180  0.770664  1
  Si  Si21  1  0.378820  0.611039  0.229336  1
  Si  Si22  1  0.345391  0.113311  0.503879  1
  Si  Si23  1  0.886689  0.654609  0.496121  1
  Si  Si24  1  0.389140  0.155537  0.005082  1
  Si  Si25  1  0.844463  0.610860  0.994918  1
  Si  Si26  1  0.654591  0.886338  0.494521  1
  Si  Si27  1  0.113662  0.345409  0.505479  1
  Si  Si28  1  0.610650  0.844303  0.996846  1
  Si  Si29  1  0.155697  0.389350  0.003154  1
  Ru  Ru30  1  0.668747  0.331253  0.500000  1
  Ru  Ru31  1  0.169078  0.830922  0.000000  1
  Ru  Ru32  1  0.332024  0.667976  0.500000  1
  Ru  Ru33  1  0.830204  0.169796  0.000000  1
  Ru  Ru34  1  0.126611  0.127659  0.625939  1
  Ru  Ru35  1  0.872341  0.873389  0.374061  1
  Ru  Ru36  1  0.374528  0.373272  0.127103  1
  Ru  Ru37  1  0.626728  0.625472  0.872897  1
