# generated using pymatgen
data_Eu2Fe7CoB8
_symmetry_space_group_name_H-M   'P 1'
_cell_length_a   7.02565993
_cell_length_b   7.01638326
_cell_length_c   3.80489000
_cell_angle_alpha   90.03000188
_cell_angle_beta   89.93936595
_cell_angle_gamma   90.12727438
_symmetry_Int_Tables_number   1
_chemical_formula_structural   Eu2Fe7CoB8
_chemical_formula_sum   'Eu2 Fe7 Co1 B8'
_cell_volume   187.56040450
_cell_formula_units_Z   1
loop_
 _symmetry_equiv_pos_site_id
 _symmetry_equiv_pos_as_xyz
  1  'x, y, z'
loop_
 _atom_site_type_symbol
 _atom_site_label
 _atom_site_symmetry_multiplicity
 _atom_site_fract_x
 _atom_site_fract_y
 _atom_site_fract_z
 _atom_site_occupancy
  Eu  Eu0  1  0.000031  0.001414  0.002579  1
  Eu  Eu1  1  0.500736  0.499745  0.502297  1
  Fe  Fe2  1  0.385024  0.130270  0.889884  1
  Fe  Fe3  1  0.615146  0.869676  0.889475  1
  Fe  Fe4  1  0.369372  0.883883  0.389816  1
  Fe  Fe5  1  0.629935  0.114921  0.390584  1
  Fe  Fe6  1  0.114352  0.369413  0.609946  1
  Fe  Fe7  1  0.884141  0.630383  0.610664  1
  Fe  Fe8  1  0.131077  0.615146  0.110931  1
  Co  Co9  1  0.865090  0.385322  0.108847  1
  B  B10  1  0.801713  0.668260  0.107249  1
  B  B11  1  0.204593  0.335193  0.106301  1
  B  B12  1  0.834367  0.299372  0.605472  1
  B  B13  1  0.166263  0.699554  0.607636  1
  B  B14  1  0.697303  0.833815  0.392051  1
  B  B15  1  0.302146  0.166149  0.392166  1
  B  B16  1  0.665092  0.196446  0.891610  1
  B  B17  1  0.333618  0.801038  0.892494  1
