# generated using pymatgen
data_Tm5Cu6
_symmetry_space_group_name_H-M   'P 1'
_cell_length_a   15.69710266
_cell_length_b   15.69710274
_cell_length_c   3.73426000
_cell_angle_alpha   90.00000000
_cell_angle_beta   90.00000000
_cell_angle_gamma   166.23538251
_symmetry_Int_Tables_number   1
_chemical_formula_structural   Tm5Cu6
_chemical_formula_sum   'Tm5 Cu6'
_cell_volume   218.92708977
_cell_formula_units_Z   1
loop_
 _symmetry_equiv_pos_site_id
 _symmetry_equiv_pos_as_xyz
  1  'x, y, z'
loop_
 _atom_site_type_symbol
 _atom_site_label
 _atom_site_symmetry_multiplicity
 _atom_site_fract_x
 _atom_site_fract_y
 _atom_site_fract_z
 _atom_site_occupancy
  Tm  Tm0  1  0.000000  0.000000  0.000000  1
  Tm  Tm1  1  0.616445  0.383553  0.000000  1
  Tm  Tm2  1  0.383553  0.616445  0.000000  1
  Tm  Tm3  1  0.804840  0.195158  0.500001  1
  Tm  Tm4  1  0.195158  0.804840  0.500001  1
  Cu  Cu5  1  0.723902  0.276096  0.000000  1
  Cu  Cu6  1  0.276096  0.723902  0.000000  1
  Cu  Cu7  1  0.909660  0.090339  0.500001  1
  Cu  Cu8  1  0.539979  0.460019  0.500001  1
  Cu  Cu9  1  0.460019  0.539979  0.500001  1
  Cu  Cu10  1  0.090339  0.909660  0.500001  1
