# generated using pymatgen
data_Er4NpURu6
_symmetry_space_group_name_H-M   'P 1'
_cell_length_a   5.74046400
_cell_length_b   5.74046343
_cell_length_c   8.20792600
_cell_angle_alpha   90.00000000
_cell_angle_beta   90.00000000
_cell_angle_gamma   120.00000326
_symmetry_Int_Tables_number   1
_chemical_formula_structural   Er4NpURu6
_chemical_formula_sum   'Er4 Np1 U1 Ru6'
_cell_volume   234.23835118
_cell_formula_units_Z   1
loop_
 _symmetry_equiv_pos_site_id
 _symmetry_equiv_pos_as_xyz
  1  'x, y, z'
loop_
 _atom_site_type_symbol
 _atom_site_label
 _atom_site_symmetry_multiplicity
 _atom_site_fract_x
 _atom_site_fract_y
 _atom_site_fract_z
 _atom_site_occupancy
  Er  Er0  1  0.333333  0.666667  0.441436  1
  Er  Er1  1  0.666667  0.333333  0.558564  1
  Er  Er2  1  0.666667  0.333333  0.938210  1
  Er  Er3  1  0.333333  0.666667  0.061790  1
  Np  Np4  1  0.000000  0.000000  0.500000  1
  U  U5  1  0.000000  0.000000  0.000000  1
  Ru  Ru6  1  0.834667  0.165333  0.249858  1
  Ru  Ru7  1  0.834667  0.669336  0.249858  1
  Ru  Ru8  1  0.330664  0.165333  0.249858  1
  Ru  Ru9  1  0.165333  0.834667  0.750142  1
  Ru  Ru10  1  0.165333  0.330664  0.750142  1
  Ru  Ru11  1  0.669336  0.834667  0.750142  1
