# generated using pymatgen
data_Nb4FeSn2B4Ru9
_symmetry_space_group_name_H-M   'P 1'
_cell_length_a   9.44475896
_cell_length_b   9.44475896
_cell_length_c   3.02517900
_cell_angle_alpha   90.00000000
_cell_angle_beta   90.00000000
_cell_angle_gamma   89.92620818
_symmetry_Int_Tables_number   1
_chemical_formula_structural   Nb4FeSn2B4Ru9
_chemical_formula_sum   'Nb4 Fe1 Sn2 B4 Ru9'
_cell_volume   269.85624575
_cell_formula_units_Z   1
loop_
 _symmetry_equiv_pos_site_id
 _symmetry_equiv_pos_as_xyz
  1  'x, y, z'
loop_
 _atom_site_type_symbol
 _atom_site_label
 _atom_site_symmetry_multiplicity
 _atom_site_fract_x
 _atom_site_fract_y
 _atom_site_fract_z
 _atom_site_occupancy
  Nb  Nb0  1  0.821463  0.678537  0.000000  1
  Nb  Nb1  1  0.178537  0.321463  0.000000  1
  Nb  Nb2  1  0.328046  0.828046  0.000000  1
  Nb  Nb3  1  0.671954  0.171954  0.000000  1
  Fe  Fe4  1  0.500000  0.000000  0.500000  1
  Sn  Sn5  1  0.500000  0.500000  0.000000  1
  Sn  Sn6  1  0.000000  0.000000  0.000000  1
  B  B7  1  0.613743  0.886257  0.000000  1
  B  B8  1  0.386257  0.113743  0.000000  1
  B  B9  1  0.122105  0.622105  0.000000  1
  B  B10  1  0.877895  0.377895  0.000000  1
  Ru  Ru11  1  0.565522  0.727587  0.500000  1
  Ru  Ru12  1  0.434478  0.272413  0.500000  1
  Ru  Ru13  1  0.069715  0.778818  0.500000  1
  Ru  Ru14  1  0.930285  0.221182  0.500000  1
  Ru  Ru15  1  0.278818  0.569715  0.500000  1
  Ru  Ru16  1  0.721182  0.430285  0.500000  1
  Ru  Ru17  1  0.227587  0.065522  0.500000  1
  Ru  Ru18  1  0.772413  0.934478  0.500000  1
  Ru  Ru19  1  0.000000  0.500000  0.500000  1
