# generated using pymatgen
data_Rb8GdEr3F20
_symmetry_space_group_name_H-M   'P 1'
_cell_length_a   6.96051974
_cell_length_b   7.47421200
_cell_length_c   11.49712046
_cell_angle_alpha   90.00000000
_cell_angle_beta   90.30992485
_cell_angle_gamma   90.00000000
_symmetry_Int_Tables_number   1
_chemical_formula_structural   Rb8GdEr3F20
_chemical_formula_sum   'Rb8 Gd1 Er3 F20'
_cell_volume   598.12204510
_cell_formula_units_Z   1
loop_
 _symmetry_equiv_pos_site_id
 _symmetry_equiv_pos_as_xyz
  1  'x, y, z'
loop_
 _atom_site_type_symbol
 _atom_site_label
 _atom_site_symmetry_multiplicity
 _atom_site_fract_x
 _atom_site_fract_y
 _atom_site_fract_z
 _atom_site_occupancy
  Rb  Rb0  1  0.536168  0.996788  0.830421  1
  Rb  Rb1  1  0.463679  0.498309  0.169553  1
  Rb  Rb2  1  0.964456  0.996477  0.328063  1
  Rb  Rb3  1  0.036430  0.498984  0.672249  1
  Rb  Rb4  1  0.536168  0.503212  0.830421  1
  Rb  Rb5  1  0.463679  0.001691  0.169553  1
  Rb  Rb6  1  0.964456  0.503523  0.328063  1
  Rb  Rb7  1  0.036430  0.001016  0.672249  1
  Gd  Gd8  1  0.560227  0.250000  0.502183  1
  Er  Er9  1  0.439681  0.750000  0.498184  1
  Er  Er10  1  0.941547  0.250000  0.001583  1
  Er  Er11  1  0.057571  0.750000  0.998488  1
  F  F12  1  0.882826  0.750000  0.840846  1
  F  F13  1  0.116327  0.250000  0.159354  1
  F  F14  1  0.615973  0.750000  0.341405  1
  F  F15  1  0.378845  0.250000  0.663371  1
  F  F16  1  0.850567  0.250000  0.819014  1
  F  F17  1  0.148701  0.750000  0.180620  1
  F  F18  1  0.651603  0.250000  0.314741  1
  F  F19  1  0.350965  0.750000  0.680834  1
  F  F20  1  0.642264  0.959699  0.570661  1
  F  F21  1  0.357029  0.470308  0.428726  1
  F  F22  1  0.858545  0.964065  0.067582  1
  F  F23  1  0.140375  0.464401  0.932578  1
  F  F24  1  0.369576  0.750000  0.983081  1
  F  F25  1  0.629708  0.250000  0.016555  1
  F  F26  1  0.126492  0.750000  0.484542  1
  F  F27  1  0.881498  0.250000  0.515531  1
  F  F28  1  0.140375  0.035599  0.932578  1
  F  F29  1  0.858545  0.535935  0.067582  1
  F  F30  1  0.357029  0.029692  0.428726  1
  F  F31  1  0.642264  0.540301  0.570661  1
