# generated using pymatgen
data_NaSr2(AsRu)6
_symmetry_space_group_name_H-M   'P 1'
_cell_length_a   8.72943532
_cell_length_b   8.72943582
_cell_length_c   6.39024836
_cell_angle_alpha   74.59006156
_cell_angle_beta   74.59006183
_cell_angle_gamma   39.59497303
_symmetry_Int_Tables_number   1
_chemical_formula_structural   NaSr2(AsRu)6
_chemical_formula_sum   'Na1 Sr2 As6 Ru6'
_cell_volume   297.73050463
_cell_formula_units_Z   1
loop_
 _symmetry_equiv_pos_site_id
 _symmetry_equiv_pos_as_xyz
  1  'x, y, z'
loop_
 _atom_site_type_symbol
 _atom_site_label
 _atom_site_symmetry_multiplicity
 _atom_site_fract_x
 _atom_site_fract_y
 _atom_site_fract_z
 _atom_site_occupancy
  Na  Na0  1  0.000000  0.000000  0.000000  1
  Sr  Sr1  1  0.663743  0.663743  0.673206  1
  Sr  Sr2  1  0.336257  0.336257  0.326794  1
  As  As3  1  0.880491  0.880491  0.518660  1
  As  As4  1  0.213318  0.213318  0.854497  1
  As  As5  1  0.547003  0.547003  0.187046  1
  As  As6  1  0.452997  0.452997  0.812954  1
  As  As7  1  0.786682  0.786682  0.145503  1
  As  As8  1  0.119509  0.119509  0.481340  1
  Ru  Ru9  1  0.083288  0.582997  0.831597  1
  Ru  Ru10  1  0.417003  0.916712  0.168403  1
  Ru  Ru11  1  0.750187  0.249813  0.500000  1
  Ru  Ru12  1  0.249813  0.750187  0.500000  1
  Ru  Ru13  1  0.582997  0.083288  0.831597  1
  Ru  Ru14  1  0.916712  0.417003  0.168403  1
