# generated using pymatgen
data_LiMoPt5Rh
_symmetry_space_group_name_H-M   'P 1'
_cell_length_a   5.53019638
_cell_length_b   5.52951441
_cell_length_c   3.90838800
_cell_angle_alpha   90.00000000
_cell_angle_beta   90.00000000
_cell_angle_gamma   90.43266233
_symmetry_Int_Tables_number   1
_chemical_formula_structural   LiMoPt5Rh
_chemical_formula_sum   'Li1 Mo1 Pt5 Rh1'
_cell_volume   119.51236378
_cell_formula_units_Z   1
loop_
 _symmetry_equiv_pos_site_id
 _symmetry_equiv_pos_as_xyz
  1  'x, y, z'
loop_
 _atom_site_type_symbol
 _atom_site_label
 _atom_site_symmetry_multiplicity
 _atom_site_fract_x
 _atom_site_fract_y
 _atom_site_fract_z
 _atom_site_occupancy
  Li  Li0  1  0.625986  0.373420  0.000000  1
  Mo  Mo1  1  0.117873  0.868320  0.000000  1
  Pt  Pt2  1  0.626841  0.871851  0.000000  1
  Pt  Pt3  1  0.122096  0.377530  0.000000  1
  Pt  Pt4  1  0.374244  0.124626  0.500000  1
  Pt  Pt5  1  0.877679  0.124031  0.500000  1
  Pt  Pt6  1  0.373593  0.628095  0.500000  1
  Rh  Rh7  1  0.881692  0.632124  0.500000  1
