# generated using pymatgen
data_ErThAl20(FeRh)2
_symmetry_space_group_name_H-M   'P 1'
_cell_length_a   6.80224357
_cell_length_b   6.80194060
_cell_length_c   9.09781927
_cell_angle_alpha   90.14174002
_cell_angle_beta   90.14681763
_cell_angle_gamma   97.24904587
_symmetry_Int_Tables_number   1
_chemical_formula_structural   ErThAl20(FeRh)2
_chemical_formula_sum   'Er1 Th1 Al20 Fe2 Rh2'
_cell_volume   417.57445791
_cell_formula_units_Z   1
loop_
 _symmetry_equiv_pos_site_id
 _symmetry_equiv_pos_as_xyz
  1  'x, y, z'
loop_
 _atom_site_type_symbol
 _atom_site_label
 _atom_site_symmetry_multiplicity
 _atom_site_fract_x
 _atom_site_fract_y
 _atom_site_fract_z
 _atom_site_occupancy
  Er  Er0  1  0.871922  0.128093  0.749870  1
  Th  Th1  1  0.124470  0.875611  0.249999  1
  Al  Al2  1  0.520972  0.776763  0.745148  1
  Al  Al3  1  0.481093  0.225071  0.255466  1
  Al  Al4  1  0.595351  0.862929  0.253761  1
  Al  Al5  1  0.778596  0.773696  0.999968  1
  Al  Al6  1  0.162312  0.846051  0.603138  1
  Al  Al7  1  0.217940  0.227239  0.993527  1
  Al  Al8  1  0.137057  0.404631  0.246277  1
  Al  Al9  1  0.626941  0.379457  0.948800  1
  Al  Al10  1  0.844788  0.162880  0.098553  1
  Al  Al11  1  0.381962  0.625349  0.450104  1
  Al  Al12  1  0.153922  0.837704  0.896962  1
  Al  Al13  1  0.223224  0.479032  0.754859  1
  Al  Al14  1  0.374631  0.618042  0.049972  1
  Al  Al15  1  0.837106  0.155210  0.401386  1
  Al  Al16  1  0.620546  0.373040  0.551143  1
  Al  Al17  1  0.413839  0.138535  0.746248  1
  Al  Al18  1  0.774941  0.518905  0.244540  1
  Al  Al19  1  0.772750  0.782053  0.506494  1
  Al  Al20  1  0.226324  0.221437  0.500079  1
  Al  Al21  1  0.861459  0.586211  0.753746  1
  Fe  Fe22  1  0.000993  0.502787  0.000811  1
  Fe  Fe23  1  0.497165  0.998965  0.499161  1
  Rh  Rh24  1  0.000611  0.500934  0.500640  1
  Rh  Rh25  1  0.499081  0.999373  0.999347  1
