# generated using pymatgen
data_YTh2Mg3Sn2Ir
_symmetry_space_group_name_H-M   'P 1'
_cell_length_a   7.54010700
_cell_length_b   7.42665968
_cell_length_c   4.67239200
_cell_angle_alpha   90.00000000
_cell_angle_beta   90.00000000
_cell_angle_gamma   120.50661984
_symmetry_Int_Tables_number   1
_chemical_formula_structural   YTh2Mg3Sn2Ir
_chemical_formula_sum   'Y1 Th2 Mg3 Sn2 Ir1'
_cell_volume   225.42450846
_cell_formula_units_Z   1
loop_
 _symmetry_equiv_pos_site_id
 _symmetry_equiv_pos_as_xyz
  1  'x, y, z'
loop_
 _atom_site_type_symbol
 _atom_site_label
 _atom_site_symmetry_multiplicity
 _atom_site_fract_x
 _atom_site_fract_y
 _atom_site_fract_z
 _atom_site_occupancy
  Y  Y0  1  0.615264  0.000000  0.000000  1
  Th  Th1  1  0.997773  0.611110  0.000000  1
  Th  Th2  1  0.386664  0.388890  0.000000  1
  Mg  Mg3  1  0.226441  0.000000  0.500000  1
  Mg  Mg4  1  0.995318  0.224764  0.500000  1
  Mg  Mg5  1  0.770555  0.775236  0.500000  1
  Sn  Sn6  1  0.332957  0.670598  0.500000  1
  Sn  Sn7  1  0.662361  0.329402  0.500000  1
  Ir  Ir8  1  0.012668  0.000000  0.000000  1
