# generated using pymatgen
data_TmAl6ZnCu5
_symmetry_space_group_name_H-M   'P 1'
_cell_length_a   5.16658166
_cell_length_b   6.62874475
_cell_length_c   6.62874400
_cell_angle_alpha   99.30976183
_cell_angle_beta   112.93649763
_cell_angle_gamma   67.06350481
_symmetry_Int_Tables_number   1
_chemical_formula_structural   TmAl6ZnCu5
_chemical_formula_sum   'Tm1 Al6 Zn1 Cu5'
_cell_volume   192.52912790
_cell_formula_units_Z   1
loop_
 _symmetry_equiv_pos_site_id
 _symmetry_equiv_pos_as_xyz
  1  'x, y, z'
loop_
 _atom_site_type_symbol
 _atom_site_label
 _atom_site_symmetry_multiplicity
 _atom_site_fract_x
 _atom_site_fract_y
 _atom_site_fract_z
 _atom_site_occupancy
  Tm  Tm0  1  0.000000  0.000913  0.000913  1
  Al  Al1  1  0.653111  0.341432  0.647654  1
  Al  Al2  1  0.346889  0.647654  0.341432  1
  Al  Al3  1  0.000000  0.344946  0.344946  1
  Al  Al4  1  0.000000  0.652398  0.652398  1
  Al  Al5  1  0.707389  0.796944  0.211721  1
  Al  Al6  1  0.292611  0.211721  0.796944  1
  Zn  Zn7  1  0.500000  0.773855  0.773855  1
  Cu  Cu8  1  0.499794  0.000280  0.501567  1
  Cu  Cu9  1  0.001493  0.000280  0.501567  1
  Cu  Cu10  1  0.500206  0.501567  0.000280  1
  Cu  Cu11  1  0.998507  0.501567  0.000280  1
  Cu  Cu12  1  0.500000  0.226443  0.226443  1
