# generated using pymatgen
data_Ba4Np(RhO4)3
_symmetry_space_group_name_H-M   'P 1'
_cell_length_a   10.29356977
_cell_length_b   10.29356995
_cell_length_c   10.29357100
_cell_angle_alpha   33.24362456
_cell_angle_beta   33.24363319
_cell_angle_gamma   33.24362212
_symmetry_Int_Tables_number   1
_chemical_formula_structural   Ba4Np(RhO4)3
_chemical_formula_sum   'Ba4 Np1 Rh3 O12'
_cell_volume   291.80742384
_cell_formula_units_Z   1
loop_
 _symmetry_equiv_pos_site_id
 _symmetry_equiv_pos_as_xyz
  1  'x, y, z'
loop_
 _atom_site_type_symbol
 _atom_site_label
 _atom_site_symmetry_multiplicity
 _atom_site_fract_x
 _atom_site_fract_y
 _atom_site_fract_z
 _atom_site_occupancy
  Ba  Ba0  1  0.718525  0.718525  0.718525  1
  Ba  Ba1  1  0.281475  0.281475  0.281475  1
  Ba  Ba2  1  0.867600  0.867600  0.867600  1
  Ba  Ba3  1  0.132400  0.132400  0.132400  1
  Np  Np4  1  0.000000  0.000000  0.000000  1
  Rh  Rh5  1  0.411717  0.411717  0.411717  1
  Rh  Rh6  1  0.500000  0.500000  0.500000  1
  Rh  Rh7  1  0.588283  0.588283  0.588283  1
  O  O8  1  0.206945  0.206945  0.706198  1
  O  O9  1  0.706198  0.206945  0.206945  1
  O  O10  1  0.206945  0.706198  0.206945  1
  O  O11  1  0.793055  0.293802  0.793055  1
  O  O12  1  0.793055  0.793055  0.293802  1
  O  O13  1  0.293802  0.793055  0.793055  1
  O  O14  1  0.387253  0.387253  0.857784  1
  O  O15  1  0.857784  0.387253  0.387253  1
  O  O16  1  0.142216  0.612747  0.612747  1
  O  O17  1  0.612747  0.612747  0.142216  1
  O  O18  1  0.612747  0.142216  0.612747  1
  O  O19  1  0.387253  0.857784  0.387253  1
