# generated using pymatgen
data_YThInNi2
_symmetry_space_group_name_H-M   'P 1'
_cell_length_a   7.55541135
_cell_length_b   7.55541135
_cell_length_c   3.67332300
_cell_angle_alpha   90.00000000
_cell_angle_beta   90.00000000
_cell_angle_gamma   93.34272536
_symmetry_Int_Tables_number   1
_chemical_formula_structural   YThInNi2
_chemical_formula_sum   'Y2 Th2 In2 Ni4'
_cell_volume   209.33209255
_cell_formula_units_Z   2
loop_
 _symmetry_equiv_pos_site_id
 _symmetry_equiv_pos_as_xyz
  1  'x, y, z'
loop_
 _atom_site_type_symbol
 _atom_site_label
 _atom_site_symmetry_multiplicity
 _atom_site_fract_x
 _atom_site_fract_y
 _atom_site_fract_z
 _atom_site_occupancy
  Y  Y0  1  0.173095  0.326905  0.500000  1
  Y  Y1  1  0.826905  0.673095  0.500000  1
  Th  Th2  1  0.675441  0.175441  0.500000  1
  Th  Th3  1  0.324559  0.824559  0.500000  1
  In  In4  1  0.500000  0.500000  0.000000  1
  In  In5  1  0.000000  0.000000  0.000000  1
  Ni  Ni6  1  0.124184  0.624184  0.000000  1
  Ni  Ni7  1  0.875816  0.375816  0.000000  1
  Ni  Ni8  1  0.619078  0.880922  0.000000  1
  Ni  Ni9  1  0.380922  0.119078  0.000000  1
