# generated using pymatgen
data_K5SrNbAs4
_symmetry_space_group_name_H-M   'P 1'
_cell_length_a   10.46586681
_cell_length_b   10.46586736
_cell_length_c   7.98479461
_cell_angle_alpha   88.43059589
_cell_angle_beta   88.43059881
_cell_angle_gamma   120.57498275
_symmetry_Int_Tables_number   1
_chemical_formula_structural   K5SrNbAs4
_chemical_formula_sum   'K10 Sr2 Nb2 As8'
_cell_volume   751.85700473
_cell_formula_units_Z   2
loop_
 _symmetry_equiv_pos_site_id
 _symmetry_equiv_pos_as_xyz
  1  'x, y, z'
loop_
 _atom_site_type_symbol
 _atom_site_label
 _atom_site_symmetry_multiplicity
 _atom_site_fract_x
 _atom_site_fract_y
 _atom_site_fract_z
 _atom_site_occupancy
  K  K0  1  0.466199  0.526484  0.606624  1
  K  K1  1  0.057980  0.528492  0.609917  1
  K  K2  1  0.526484  0.466199  0.106624  1
  K  K3  1  0.528492  0.057980  0.109917  1
  K  K4  1  0.864021  0.143036  0.787586  1
  K  K5  1  0.293047  0.153259  0.827816  1
  K  K6  1  0.854770  0.715366  0.765523  1
  K  K7  1  0.143036  0.864021  0.287586  1
  K  K8  1  0.715366  0.854770  0.265523  1
  K  K9  1  0.153259  0.293047  0.327816  1
  Sr  Sr10  1  0.464587  0.937286  0.602499  1
  Sr  Sr11  1  0.937286  0.464587  0.102499  1
  Nb  Nb12  1  0.669698  0.330853  0.500487  1
  Nb  Nb13  1  0.330853  0.669698  0.000487  1
  As  As14  1  0.687102  0.339348  0.814254  1
  As  As15  1  0.339348  0.687102  0.314254  1
  As  As16  1  0.194564  0.794527  0.892346  1
  As  As17  1  0.590323  0.801540  0.871062  1
  As  As18  1  0.187637  0.399882  0.929086  1
  As  As19  1  0.794527  0.194564  0.392346  1
  As  As20  1  0.399882  0.187637  0.429086  1
  As  As21  1  0.801540  0.590323  0.371062  1
