# generated using pymatgen
data_TbZrCo4(PRu)6
_symmetry_space_group_name_H-M   'P 1'
_cell_length_a   3.77937500
_cell_length_b   10.57356500
_cell_length_c   12.04214600
_cell_angle_alpha   90.00000000
_cell_angle_beta   90.00000000
_cell_angle_gamma   90.00000000
_symmetry_Int_Tables_number   1
_chemical_formula_structural   TbZrCo4(PRu)6
_chemical_formula_sum   'Tb2 Zr2 Co8 P12 Ru12'
_cell_volume   481.22182266
_cell_formula_units_Z   2
loop_
 _symmetry_equiv_pos_site_id
 _symmetry_equiv_pos_as_xyz
  1  'x, y, z'
loop_
 _atom_site_type_symbol
 _atom_site_label
 _atom_site_symmetry_multiplicity
 _atom_site_fract_x
 _atom_site_fract_y
 _atom_site_fract_z
 _atom_site_occupancy
  Tb  Tb0  1  0.750000  0.415768  0.293060  1
  Tb  Tb1  1  0.750000  0.084232  0.793060  1
  Zr  Zr2  1  0.250000  0.584860  0.705656  1
  Zr  Zr3  1  0.250000  0.915140  0.205656  1
  Co  Co4  1  0.250000  0.884944  0.696045  1
  Co  Co5  1  0.250000  0.615056  0.196045  1
  Co  Co6  1  0.750000  0.108200  0.300917  1
  Co  Co7  1  0.750000  0.391800  0.800917  1
  Co  Co8  1  0.250000  0.463923  0.931764  1
  Co  Co9  1  0.250000  0.036077  0.431764  1
  Co  Co10  1  0.750000  0.538935  0.064524  1
  Co  Co11  1  0.750000  0.961065  0.564524  1
  P  P12  1  0.250000  0.426645  0.111309  1
  P  P13  1  0.250000  0.073355  0.611309  1
  P  P14  1  0.750000  0.573568  0.885365  1
  P  P15  1  0.750000  0.926432  0.385365  1
  P  P16  1  0.250000  0.270722  0.872798  1
  P  P17  1  0.250000  0.229278  0.372798  1
  P  P18  1  0.750000  0.729091  0.130514  1
  P  P19  1  0.750000  0.770909  0.630514  1
  P  P20  1  0.250000  0.600796  0.386012  1
  P  P21  1  0.250000  0.899204  0.886012  1
  P  P22  1  0.750000  0.400510  0.614288  1
  P  P23  1  0.750000  0.099490  0.114288  1
  Ru  Ru24  1  0.250000  0.709002  0.987275  1
  Ru  Ru25  1  0.250000  0.790998  0.487275  1
  Ru  Ru26  1  0.750000  0.292617  0.012589  1
  Ru  Ru27  1  0.750000  0.207383  0.512589  1
  Ru  Ru28  1  0.250000  0.407775  0.487515  1
  Ru  Ru29  1  0.250000  0.092225  0.987515  1
  Ru  Ru30  1  0.750000  0.595667  0.519205  1
  Ru  Ru31  1  0.750000  0.904333  0.019205  1
  Ru  Ru32  1  0.250000  0.223132  0.181332  1
  Ru  Ru33  1  0.250000  0.276868  0.681332  1
  Ru  Ru34  1  0.750000  0.773304  0.819833  1
  Ru  Ru35  1  0.750000  0.726696  0.319833  1
