# generated using pymatgen
data_Tb6Lu4Si5As
_symmetry_space_group_name_H-M   'P 1'
_cell_length_a   8.41174500
_cell_length_b   8.42066181
_cell_length_c   6.23240200
_cell_angle_alpha   90.00000000
_cell_angle_beta   90.00000000
_cell_angle_gamma   119.96498130
_symmetry_Int_Tables_number   1
_chemical_formula_structural   Tb6Lu4Si5As
_chemical_formula_sum   'Tb6 Lu4 Si5 As1'
_cell_volume   382.44726216
_cell_formula_units_Z   1
loop_
 _symmetry_equiv_pos_site_id
 _symmetry_equiv_pos_as_xyz
  1  'x, y, z'
loop_
 _atom_site_type_symbol
 _atom_site_label
 _atom_site_symmetry_multiplicity
 _atom_site_fract_x
 _atom_site_fract_y
 _atom_site_fract_z
 _atom_site_occupancy
  Tb  Tb0  1  0.996891  0.752269  0.750000  1
  Tb  Tb1  1  0.000426  0.245788  0.250000  1
  Tb  Tb2  1  0.754638  0.754212  0.250000  1
  Tb  Tb3  1  0.755999  0.000000  0.750000  1
  Tb  Tb4  1  0.244622  0.247731  0.750000  1
  Tb  Tb5  1  0.245172  0.000000  0.250000  1
  Lu  Lu6  1  0.332974  0.664370  0.498630  1
  Lu  Lu7  1  0.668605  0.335630  0.001370  1
  Lu  Lu8  1  0.668605  0.335630  0.498630  1
  Lu  Lu9  1  0.332974  0.664370  0.001370  1
  Si  Si10  1  0.395712  0.394803  0.250000  1
  Si  Si11  1  0.000909  0.605197  0.250000  1
  Si  Si12  1  0.999672  0.395444  0.750000  1
  Si  Si13  1  0.604228  0.604556  0.750000  1
  Si  Si14  1  0.605433  0.000000  0.250000  1
  As  As15  1  0.393139  0.000000  0.750000  1
