# generated using pymatgen
data_YPa3(GePt)4
_symmetry_space_group_name_H-M   'P 1'
_cell_length_a   4.41647000
_cell_length_b   7.06553768
_cell_length_c   7.64412487
_cell_angle_alpha   89.92036042
_cell_angle_beta   90.00000000
_cell_angle_gamma   90.00000000
_symmetry_Int_Tables_number   1
_chemical_formula_structural   YPa3(GePt)4
_chemical_formula_sum   'Y1 Pa3 Ge4 Pt4'
_cell_volume   238.53266211
_cell_formula_units_Z   1
loop_
 _symmetry_equiv_pos_site_id
 _symmetry_equiv_pos_as_xyz
  1  'x, y, z'
loop_
 _atom_site_type_symbol
 _atom_site_label
 _atom_site_symmetry_multiplicity
 _atom_site_fract_x
 _atom_site_fract_y
 _atom_site_fract_z
 _atom_site_occupancy
  Y  Y0  1  0.750000  0.004428  0.204685  1
  Pa  Pa1  1  0.250000  0.493169  0.707704  1
  Pa  Pa2  1  0.250000  0.994992  0.791348  1
  Pa  Pa3  1  0.750000  0.503943  0.295084  1
  Ge  Ge4  1  0.250000  0.800792  0.409118  1
  Ge  Ge5  1  0.250000  0.307744  0.091584  1
  Ge  Ge6  1  0.750000  0.191821  0.588087  1
  Ge  Ge7  1  0.750000  0.693025  0.912554  1
  Pt  Pt8  1  0.250000  0.213666  0.419317  1
  Pt  Pt9  1  0.250000  0.715885  0.081422  1
  Pt  Pt10  1  0.750000  0.786720  0.583657  1
  Pt  Pt11  1  0.750000  0.293816  0.915441  1
