# generated using pymatgen
data_V5Si6BW5
_symmetry_space_group_name_H-M   'P 1'
_cell_length_a   7.27664058
_cell_length_b   7.28402468
_cell_length_c   4.89055914
_cell_angle_alpha   89.93544468
_cell_angle_beta   90.12924172
_cell_angle_gamma   119.96648053
_symmetry_Int_Tables_number   1
_chemical_formula_structural   V5Si6BW5
_chemical_formula_sum   'V5 Si6 B1 W5'
_cell_volume   224.56236047
_cell_formula_units_Z   1
loop_
 _symmetry_equiv_pos_site_id
 _symmetry_equiv_pos_as_xyz
  1  'x, y, z'
loop_
 _atom_site_type_symbol
 _atom_site_label
 _atom_site_symmetry_multiplicity
 _atom_site_fract_x
 _atom_site_fract_y
 _atom_site_fract_z
 _atom_site_occupancy
  V  V0  1  0.246943  0.000000  0.755844  1
  V  V1  1  0.332390  0.666143  0.500983  1
  V  V2  1  0.666249  0.333857  0.500983  1
  V  V3  1  0.667655  0.334214  0.998321  1
  V  V4  1  0.333440  0.665786  0.998321  1
  Si  Si5  1  0.999661  0.403284  0.251027  1
  Si  Si6  1  0.596377  0.596716  0.251027  1
  Si  Si7  1  0.402161  0.000000  0.246982  1
  Si  Si8  1  0.003222  0.601668  0.748782  1
  Si  Si9  1  0.401554  0.398332  0.748782  1
  Si  Si10  1  0.591039  0.000000  0.749243  1
  B  B11  1  0.004800  0.000000  0.505091  1
  W  W12  1  0.001541  0.753991  0.244055  1
  W  W13  1  0.247550  0.246009  0.244055  1
  W  W14  1  0.753859  0.000000  0.244321  1
  W  W15  1  0.998728  0.245896  0.756091  1
  W  W16  1  0.752832  0.754104  0.756091  1
