# generated using pymatgen
data_TbCe(AlRh)2
_symmetry_space_group_name_H-M   'P 1'
_cell_length_a   4.20858600
_cell_length_b   7.03127300
_cell_length_c   15.90216500
_cell_angle_alpha   90.00000000
_cell_angle_beta   90.00000000
_cell_angle_gamma   90.00000000
_symmetry_Int_Tables_number   1
_chemical_formula_structural   TbCe(AlRh)2
_chemical_formula_sum   'Tb4 Ce4 Al8 Rh8'
_cell_volume   470.57236812
_cell_formula_units_Z   4
loop_
 _symmetry_equiv_pos_site_id
 _symmetry_equiv_pos_as_xyz
  1  'x, y, z'
loop_
 _atom_site_type_symbol
 _atom_site_label
 _atom_site_symmetry_multiplicity
 _atom_site_fract_x
 _atom_site_fract_y
 _atom_site_fract_z
 _atom_site_occupancy
  Tb  Tb0  1  0.250000  0.157903  0.559420  1
  Tb  Tb1  1  0.750000  0.842097  0.440580  1
  Tb  Tb2  1  0.250000  0.657903  0.940580  1
  Tb  Tb3  1  0.750000  0.342097  0.059420  1
  Ce  Ce4  1  0.250000  0.030982  0.779629  1
  Ce  Ce5  1  0.750000  0.969018  0.220371  1
  Ce  Ce6  1  0.250000  0.530982  0.720371  1
  Ce  Ce7  1  0.750000  0.469018  0.279629  1
  Al  Al8  1  0.250000  0.139503  0.352829  1
  Al  Al9  1  0.750000  0.860497  0.647171  1
  Al  Al10  1  0.250000  0.639503  0.147171  1
  Al  Al11  1  0.750000  0.360497  0.852829  1
  Al  Al12  1  0.250000  0.006534  0.061124  1
  Al  Al13  1  0.750000  0.993466  0.938876  1
  Al  Al14  1  0.250000  0.506534  0.438876  1
  Al  Al15  1  0.750000  0.493466  0.561124  1
  Rh  Rh16  1  0.750000  0.275874  0.427623  1
  Rh  Rh17  1  0.250000  0.724126  0.572377  1
  Rh  Rh18  1  0.750000  0.775874  0.072377  1
  Rh  Rh19  1  0.250000  0.224126  0.927623  1
  Rh  Rh20  1  0.750000  0.742564  0.813599  1
  Rh  Rh21  1  0.250000  0.257436  0.186401  1
  Rh  Rh22  1  0.750000  0.242564  0.686401  1
  Rh  Rh23  1  0.250000  0.757436  0.313599  1
