# generated using pymatgen
data_ErTaTiFe9
_symmetry_space_group_name_H-M   'P 1'
_cell_length_a   8.34982888
_cell_length_b   8.34982895
_cell_length_c   8.34982731
_cell_angle_alpha   34.03540511
_cell_angle_beta   34.03541434
_cell_angle_gamma   34.03540896
_symmetry_Int_Tables_number   1
_chemical_formula_structural   ErTaTiFe9
_chemical_formula_sum   'Er1 Ta1 Ti1 Fe9'
_cell_volume   162.56904782
_cell_formula_units_Z   1
loop_
 _symmetry_equiv_pos_site_id
 _symmetry_equiv_pos_as_xyz
  1  'x, y, z'
loop_
 _atom_site_type_symbol
 _atom_site_label
 _atom_site_symmetry_multiplicity
 _atom_site_fract_x
 _atom_site_fract_y
 _atom_site_fract_z
 _atom_site_occupancy
  Er  Er0  1  0.000571  0.000571  0.000571  1
  Ta  Ta1  1  0.855028  0.855028  0.855028  1
  Ti  Ti2  1  0.144329  0.144329  0.144329  1
  Fe  Fe3  1  0.411295  0.411295  0.918480  1
  Fe  Fe4  1  0.918480  0.411295  0.411295  1
  Fe  Fe5  1  0.588247  0.082412  0.588247  1
  Fe  Fe6  1  0.588247  0.588247  0.082412  1
  Fe  Fe7  1  0.411295  0.918480  0.411295  1
  Fe  Fe8  1  0.082412  0.588247  0.588247  1
  Fe  Fe9  1  0.333536  0.333536  0.333536  1
  Fe  Fe10  1  0.666712  0.666712  0.666712  1
  Fe  Fe11  1  0.499847  0.499847  0.499847  1
