# generated using pymatgen
data_YbB3Mo
_symmetry_space_group_name_H-M   'P 1'
_cell_length_a   5.46175168
_cell_length_b   3.08869100
_cell_length_c   6.93686257
_cell_angle_alpha   90.00000000
_cell_angle_beta   102.40402698
_cell_angle_gamma   90.00000000
_symmetry_Int_Tables_number   1
_chemical_formula_structural   YbB3Mo
_chemical_formula_sum   'Yb2 B6 Mo2'
_cell_volume   114.29090017
_cell_formula_units_Z   2
loop_
 _symmetry_equiv_pos_site_id
 _symmetry_equiv_pos_as_xyz
  1  'x, y, z'
loop_
 _atom_site_type_symbol
 _atom_site_label
 _atom_site_symmetry_multiplicity
 _atom_site_fract_x
 _atom_site_fract_y
 _atom_site_fract_z
 _atom_site_occupancy
  Yb  Yb0  1  0.830317  0.750001  0.292280  1
  Yb  Yb1  1  0.169682  0.250001  0.707720  1
  B  B2  1  0.588740  0.250001  0.007539  1
  B  B3  1  0.916004  0.250001  0.008930  1
  B  B4  1  0.433337  0.750001  0.467602  1
  B  B5  1  0.566664  0.250001  0.532399  1
  B  B6  1  0.083995  0.750001  0.991070  1
  B  B7  1  0.411258  0.750001  0.992460  1
  Mo  Mo8  1  0.312140  0.250001  0.217168  1
  Mo  Mo9  1  0.687861  0.750001  0.782833  1
