# generated using pymatgen
data_BaSnPt4
_symmetry_space_group_name_H-M   'P 1'
_cell_length_a   5.69742511
_cell_length_b   5.86783063
_cell_length_c   4.41768000
_cell_angle_alpha   90.00000000
_cell_angle_beta   90.00000000
_cell_angle_gamma   120.99443782
_symmetry_Int_Tables_number   1
_chemical_formula_structural   BaSnPt4
_chemical_formula_sum   'Ba1 Sn1 Pt4'
_cell_volume   126.60223544
_cell_formula_units_Z   1
loop_
 _symmetry_equiv_pos_site_id
 _symmetry_equiv_pos_as_xyz
  1  'x, y, z'
loop_
 _atom_site_type_symbol
 _atom_site_label
 _atom_site_symmetry_multiplicity
 _atom_site_fract_x
 _atom_site_fract_y
 _atom_site_fract_z
 _atom_site_occupancy
  Ba  Ba0  1  0.000000  0.000000  0.000000  1
  Sn  Sn1  1  0.000000  0.500000  0.500000  1
  Pt  Pt2  1  0.341730  0.670866  0.000000  1
  Pt  Pt3  1  0.658270  0.329134  0.000000  1
  Pt  Pt4  1  0.500000  0.000000  0.500000  1
  Pt  Pt5  1  0.500000  0.500000  0.500000  1
