# generated using pymatgen
data_PrPa(Co3P2)2
_symmetry_space_group_name_H-M   'P 1'
_cell_length_a   3.76372300
_cell_length_b   10.46665230
_cell_length_c   12.35909163
_cell_angle_alpha   90.19472898
_cell_angle_beta   90.00000000
_cell_angle_gamma   90.00000000
_symmetry_Int_Tables_number   1
_chemical_formula_structural   PrPa(Co3P2)2
_chemical_formula_sum   'Pr3 Pa3 Co18 P12'
_cell_volume   486.86605269
_cell_formula_units_Z   3
loop_
 _symmetry_equiv_pos_site_id
 _symmetry_equiv_pos_as_xyz
  1  'x, y, z'
loop_
 _atom_site_type_symbol
 _atom_site_label
 _atom_site_symmetry_multiplicity
 _atom_site_fract_x
 _atom_site_fract_y
 _atom_site_fract_z
 _atom_site_occupancy
  Pr  Pr0  1  0.000000  0.499956  0.518980  1
  Pr  Pr1  1  0.500000  0.000042  0.480652  1
  Pr  Pr2  1  0.000000  0.314235  0.794956  1
  Pa  Pa3  1  0.500000  0.818303  0.208009  1
  Pa  Pa4  1  0.500000  0.182173  0.207569  1
  Pa  Pa5  1  0.000000  0.681367  0.790625  1
  Co  Co6  1  0.500000  0.501360  0.159548  1
  Co  Co7  1  0.000000  0.998871  0.842367  1
  Co  Co8  1  0.500000  0.512989  0.709941  1
  Co  Co9  1  0.000000  0.000114  0.288469  1
  Co  Co10  1  0.000000  0.501584  0.985163  1
  Co  Co11  1  0.500000  0.998103  0.018028  1
  Co  Co12  1  0.500000  0.332860  0.999219  1
  Co  Co13  1  0.500000  0.667111  0.997402  1
  Co  Co14  1  0.000000  0.164604  0.006966  1
  Co  Co15  1  0.000000  0.832204  0.003689  1
  Co  Co16  1  0.500000  0.297362  0.424808  1
  Co  Co17  1  0.500000  0.702650  0.424496  1
  Co  Co18  1  0.000000  0.202751  0.569870  1
  Co  Co19  1  0.000000  0.799884  0.573909  1
  Co  Co20  1  0.500000  0.876947  0.716104  1
  Co  Co21  1  0.500000  0.116633  0.712290  1
  Co  Co22  1  0.000000  0.622344  0.284009  1
  Co  Co23  1  0.000000  0.376866  0.283760  1
  P  P24  1  0.500000  0.500605  0.887526  1
  P  P25  1  0.000000  0.998584  0.113259  1
  P  P26  1  0.500000  0.500237  0.338875  1
  P  P27  1  0.000000  0.001421  0.661548  1
  P  P28  1  0.500000  0.307955  0.613865  1
  P  P29  1  0.500000  0.695003  0.611565  1
  P  P30  1  0.000000  0.191605  0.385849  1
  P  P31  1  0.000000  0.808457  0.386240  1
  P  P32  1  0.500000  0.846660  0.896248  1
  P  P33  1  0.500000  0.148123  0.896655  1
  P  P34  1  0.000000  0.652462  0.104346  1
  P  P35  1  0.000000  0.347578  0.103195  1
