# generated using pymatgen
data_LiTb2Ho2Al17Pd6
_symmetry_space_group_name_H-M   'P 1'
_cell_length_a   7.62099800
_cell_length_b   7.62099760
_cell_length_c   9.47463800
_cell_angle_alpha   90.00000000
_cell_angle_beta   90.00000000
_cell_angle_gamma   119.32888407
_symmetry_Int_Tables_number   1
_chemical_formula_structural   LiTb2Ho2Al17Pd6
_chemical_formula_sum   'Li1 Tb2 Ho2 Al17 Pd6'
_cell_volume   479.74929841
_cell_formula_units_Z   1
loop_
 _symmetry_equiv_pos_site_id
 _symmetry_equiv_pos_as_xyz
  1  'x, y, z'
loop_
 _atom_site_type_symbol
 _atom_site_label
 _atom_site_symmetry_multiplicity
 _atom_site_fract_x
 _atom_site_fract_y
 _atom_site_fract_z
 _atom_site_occupancy
  Li  Li0  1  0.129262  0.129262  0.250000  1
  Tb  Tb1  1  0.007519  0.330210  0.750000  1
  Tb  Tb2  1  0.330210  0.007519  0.750000  1
  Ho  Ho3  1  0.994799  0.664962  0.250000  1
  Ho  Ho4  1  0.664962  0.994799  0.250000  1
  Al  Al5  1  0.866228  0.866228  0.750000  1
  Al  Al6  1  0.001290  0.328753  0.080852  1
  Al  Al7  1  0.000175  0.664874  0.924837  1
  Al  Al8  1  0.000175  0.664874  0.575163  1
  Al  Al9  1  0.328753  0.001290  0.419148  1
  Al  Al10  1  0.001290  0.328753  0.419148  1
  Al  Al11  1  0.664874  0.000175  0.575163  1
  Al  Al12  1  0.664874  0.000175  0.924837  1
  Al  Al13  1  0.328753  0.001290  0.080852  1
  Al  Al14  1  0.334888  0.334888  0.546726  1
  Al  Al15  1  0.671410  0.671411  0.439230  1
  Al  Al16  1  0.671410  0.671411  0.060770  1
  Al  Al17  1  0.334888  0.334888  0.953274  1
  Al  Al18  1  0.340287  0.542844  0.250000  1
  Al  Al19  1  0.659242  0.452257  0.750000  1
  Al  Al20  1  0.542844  0.340287  0.250000  1
  Al  Al21  1  0.452257  0.659242  0.750000  1
  Pd  Pd22  1  0.675218  0.329667  0.000435  1
  Pd  Pd23  1  0.329667  0.675218  0.000435  1
  Pd  Pd24  1  0.329667  0.675218  0.499565  1
  Pd  Pd25  1  0.675218  0.329667  0.499565  1
  Pd  Pd26  1  0.999920  0.999920  0.994047  1
  Pd  Pd27  1  0.999920  0.999920  0.505953  1
