# generated using pymatgen
data_TbErCo4(PRu)6
_symmetry_space_group_name_H-M   'P 1'
_cell_length_a   3.78542700
_cell_length_b   10.61866300
_cell_length_c   12.11260000
_cell_angle_alpha   90.00000000
_cell_angle_beta   90.00000000
_cell_angle_gamma   90.00000000
_symmetry_Int_Tables_number   1
_chemical_formula_structural   TbErCo4(PRu)6
_chemical_formula_sum   'Tb2 Er2 Co8 P12 Ru12'
_cell_volume   486.88017264
_cell_formula_units_Z   2
loop_
 _symmetry_equiv_pos_site_id
 _symmetry_equiv_pos_as_xyz
  1  'x, y, z'
loop_
 _atom_site_type_symbol
 _atom_site_label
 _atom_site_symmetry_multiplicity
 _atom_site_fract_x
 _atom_site_fract_y
 _atom_site_fract_z
 _atom_site_occupancy
  Tb  Tb0  1  0.250000  0.584508  0.706650  1
  Tb  Tb1  1  0.250000  0.915492  0.206650  1
  Er  Er2  1  0.750000  0.415429  0.293435  1
  Er  Er3  1  0.750000  0.084571  0.793435  1
  Co  Co4  1  0.250000  0.888476  0.696087  1
  Co  Co5  1  0.250000  0.611524  0.196087  1
  Co  Co6  1  0.750000  0.112582  0.304497  1
  Co  Co7  1  0.750000  0.387418  0.804497  1
  Co  Co8  1  0.250000  0.462605  0.935439  1
  Co  Co9  1  0.250000  0.037395  0.435439  1
  Co  Co10  1  0.750000  0.536772  0.065377  1
  Co  Co11  1  0.750000  0.963228  0.565377  1
  P  P12  1  0.250000  0.425722  0.113321  1
  P  P13  1  0.250000  0.074278  0.613321  1
  P  P14  1  0.750000  0.574313  0.887729  1
  P  P15  1  0.750000  0.925687  0.387729  1
  P  P16  1  0.250000  0.271425  0.871346  1
  P  P17  1  0.250000  0.228575  0.371346  1
  P  P18  1  0.750000  0.728068  0.128069  1
  P  P19  1  0.750000  0.771932  0.628069  1
  P  P20  1  0.250000  0.600696  0.386530  1
  P  P21  1  0.250000  0.899304  0.886530  1
  P  P22  1  0.750000  0.398399  0.612946  1
  P  P23  1  0.750000  0.101601  0.112946  1
  Ru  Ru24  1  0.250000  0.706307  0.986183  1
  Ru  Ru25  1  0.250000  0.793693  0.486183  1
  Ru  Ru26  1  0.750000  0.293701  0.013701  1
  Ru  Ru27  1  0.750000  0.206299  0.513701  1
  Ru  Ru28  1  0.250000  0.405176  0.485316  1
  Ru  Ru29  1  0.250000  0.094824  0.985316  1
  Ru  Ru30  1  0.750000  0.594365  0.513436  1
  Ru  Ru31  1  0.750000  0.905635  0.013436  1
  Ru  Ru32  1  0.250000  0.224301  0.180651  1
  Ru  Ru33  1  0.250000  0.275699  0.680651  1
  Ru  Ru34  1  0.750000  0.776576  0.819286  1
  Ru  Ru35  1  0.750000  0.723424  0.319286  1
