# generated using pymatgen
data_RbFe(CO3)2
_symmetry_space_group_name_H-M   'P 1'
_cell_length_a   13.26946210
_cell_length_b   13.24460321
_cell_length_c   13.26880679
_cell_angle_alpha   20.89585255
_cell_angle_beta   20.94227332
_cell_angle_gamma   20.90710811
_symmetry_Int_Tables_number   1
_chemical_formula_structural   RbFe(CO3)2
_chemical_formula_sum   'Rb2 Fe2 C4 O12'
_cell_volume   260.22263908
_cell_formula_units_Z   2
loop_
 _symmetry_equiv_pos_site_id
 _symmetry_equiv_pos_as_xyz
  1  'x, y, z'
loop_
 _atom_site_type_symbol
 _atom_site_label
 _atom_site_symmetry_multiplicity
 _atom_site_fract_x
 _atom_site_fract_y
 _atom_site_fract_z
 _atom_site_occupancy
  Rb  Rb0  1  0.248484  0.250062  0.251448  1
  Rb  Rb1  1  0.751516  0.749938  0.748552  1
  Fe  Fe2  1  0.500000  0.500000  0.500000  1
  Fe  Fe3  1  0.000000  0.000000  0.000000  1
  C  C4  1  0.362640  0.361098  0.360483  1
  C  C5  1  0.860387  0.861109  0.862737  1
  C  C6  1  0.637360  0.638902  0.639517  1
  C  C7  1  0.139613  0.138891  0.137263  1
  O  O8  1  0.312725  0.654170  0.121288  1
  O  O9  1  0.124927  0.309716  0.653155  1
  O  O10  1  0.654849  0.122396  0.311269  1
  O  O11  1  0.621352  0.154017  0.812780  1
  O  O12  1  0.810869  0.622257  0.155398  1
  O  O13  1  0.153007  0.809508  0.625384  1
  O  O14  1  0.687275  0.345830  0.878712  1
  O  O15  1  0.875073  0.690284  0.346845  1
  O  O16  1  0.345151  0.877604  0.688731  1
  O  O17  1  0.378648  0.845983  0.187220  1
  O  O18  1  0.189131  0.377743  0.844602  1
  O  O19  1  0.846993  0.190492  0.374616  1
