# generated using pymatgen
data_Lu5Zr4Sc7(CdIr)4
_symmetry_space_group_name_H-M   'P 1'
_cell_length_a   9.16131963
_cell_length_b   9.17219718
_cell_length_c   9.17219728
_cell_angle_alpha   60.04442262
_cell_angle_beta   60.03922926
_cell_angle_gamma   60.03921967
_symmetry_Int_Tables_number   1
_chemical_formula_structural   Lu5Zr4Sc7(CdIr)4
_chemical_formula_sum   'Lu5 Zr4 Sc7 Cd4 Ir4'
_cell_volume   545.49754439
_cell_formula_units_Z   1
loop_
 _symmetry_equiv_pos_site_id
 _symmetry_equiv_pos_as_xyz
  1  'x, y, z'
loop_
 _atom_site_type_symbol
 _atom_site_label
 _atom_site_symmetry_multiplicity
 _atom_site_fract_x
 _atom_site_fract_y
 _atom_site_fract_z
 _atom_site_occupancy
  Lu  Lu0  1  0.557416  0.942584  0.942584  1
  Lu  Lu1  1  0.559673  0.940360  0.558093  1
  Lu  Lu2  1  0.941874  0.558093  0.940360  1
  Lu  Lu3  1  0.559673  0.558093  0.940360  1
  Lu  Lu4  1  0.941874  0.940360  0.558093  1
  Zr  Zr5  1  0.349218  0.352823  0.352823  1
  Zr  Zr6  1  0.351900  0.352735  0.943464  1
  Zr  Zr7  1  0.351900  0.943464  0.352735  1
  Zr  Zr8  1  0.945136  0.352823  0.352823  1
  Sc  Sc9  1  0.811362  0.188638  0.188638  1
  Sc  Sc10  1  0.188215  0.811785  0.811785  1
  Sc  Sc11  1  0.185466  0.811465  0.190111  1
  Sc  Sc12  1  0.812958  0.190111  0.811465  1
  Sc  Sc13  1  0.185466  0.190111  0.811465  1
  Sc  Sc14  1  0.812958  0.811465  0.190111  1
  Sc  Sc15  1  0.942751  0.557249  0.557249  1
  Cd  Cd16  1  0.586416  0.580944  0.580944  1
  Cd  Cd17  1  0.581878  0.582154  0.254090  1
  Cd  Cd18  1  0.581878  0.254090  0.582154  1
  Cd  Cd19  1  0.251695  0.580944  0.580944  1
  Ir  Ir20  1  0.143284  0.143708  0.143708  1
  Ir  Ir21  1  0.143853  0.142516  0.569778  1
  Ir  Ir22  1  0.143853  0.569778  0.142516  1
  Ir  Ir23  1  0.569300  0.143708  0.143708  1
