# generated using pymatgen
data_Ta16CoCu7N4
_symmetry_space_group_name_H-M   'P 1'
_cell_length_a   8.24304274
_cell_length_b   8.24304328
_cell_length_c   8.24304295
_cell_angle_alpha   60.21585903
_cell_angle_beta   60.21585543
_cell_angle_gamma   60.21585398
_symmetry_Int_Tables_number   1
_chemical_formula_structural   Ta16CoCu7N4
_chemical_formula_sum   'Ta16 Co1 Cu7 N4'
_cell_volume   397.98348648
_cell_formula_units_Z   1
loop_
 _symmetry_equiv_pos_site_id
 _symmetry_equiv_pos_as_xyz
  1  'x, y, z'
loop_
 _atom_site_type_symbol
 _atom_site_label
 _atom_site_symmetry_multiplicity
 _atom_site_fract_x
 _atom_site_fract_y
 _atom_site_fract_z
 _atom_site_occupancy
  Ta  Ta0  1  0.120903  0.630178  0.630178  1
  Ta  Ta1  1  0.630178  0.120903  0.630178  1
  Ta  Ta2  1  0.630178  0.630178  0.120903  1
  Ta  Ta3  1  0.625174  0.625174  0.625174  1
  Ta  Ta4  1  0.815629  0.815629  0.181446  1
  Ta  Ta5  1  0.186902  0.186902  0.813180  1
  Ta  Ta6  1  0.815629  0.181446  0.815629  1
  Ta  Ta7  1  0.186902  0.813180  0.186902  1
  Ta  Ta8  1  0.181446  0.815629  0.815629  1
  Ta  Ta9  1  0.813180  0.186902  0.186902  1
  Ta  Ta10  1  0.436500  0.436500  0.064636  1
  Ta  Ta11  1  0.064359  0.064359  0.435253  1
  Ta  Ta12  1  0.436500  0.064636  0.436500  1
  Ta  Ta13  1  0.064359  0.435253  0.064359  1
  Ta  Ta14  1  0.064636  0.436500  0.436500  1
  Ta  Ta15  1  0.435253  0.064359  0.064359  1
  Co  Co16  1  0.826711  0.826711  0.826711  1
  Cu  Cu17  1  0.753249  0.415750  0.415750  1
  Cu  Cu18  1  0.415750  0.753249  0.415750  1
  Cu  Cu19  1  0.415750  0.415750  0.753249  1
  Cu  Cu20  1  0.416519  0.416519  0.416519  1
  Cu  Cu21  1  0.495902  0.834339  0.834339  1
  Cu  Cu22  1  0.834339  0.495902  0.834339  1
  Cu  Cu23  1  0.834339  0.834339  0.495902  1
  N  N24  1  0.623824  0.125510  0.125510  1
  N  N25  1  0.125510  0.623824  0.125510  1
  N  N26  1  0.125510  0.125510  0.623824  1
  N  N27  1  0.124865  0.124865  0.124865  1
