# generated using pymatgen
data_Tb5Dy5(Bi3S)2
_symmetry_space_group_name_H-M   'P 1'
_cell_length_a   9.20943613
_cell_length_b   9.20943649
_cell_length_c   6.56681500
_cell_angle_alpha   90.00000000
_cell_angle_beta   90.00000000
_cell_angle_gamma   120.01892983
_symmetry_Int_Tables_number   1
_chemical_formula_structural   Tb5Dy5(Bi3S)2
_chemical_formula_sum   'Tb5 Dy5 Bi6 S2'
_cell_volume   482.24600362
_cell_formula_units_Z   1
loop_
 _symmetry_equiv_pos_site_id
 _symmetry_equiv_pos_as_xyz
  1  'x, y, z'
loop_
 _atom_site_type_symbol
 _atom_site_label
 _atom_site_symmetry_multiplicity
 _atom_site_fract_x
 _atom_site_fract_y
 _atom_site_fract_z
 _atom_site_occupancy
  Tb  Tb0  1  0.246276  0.999988  0.250000  1
  Tb  Tb1  1  0.999988  0.246276  0.250000  1
  Tb  Tb2  1  0.246305  0.246305  0.750000  1
  Tb  Tb3  1  0.753782  0.999998  0.750000  1
  Tb  Tb4  1  0.999998  0.753782  0.750000  1
  Dy  Dy5  1  0.666679  0.333336  0.500097  1
  Dy  Dy6  1  0.333336  0.666679  0.500097  1
  Dy  Dy7  1  0.333336  0.666679  0.999903  1
  Dy  Dy8  1  0.666679  0.333336  0.999903  1
  Dy  Dy9  1  0.754156  0.754156  0.250000  1
  Bi  Bi10  1  0.397170  0.397170  0.250000  1
  Bi  Bi11  1  0.603213  0.999677  0.250000  1
  Bi  Bi12  1  0.999677  0.603213  0.250000  1
  Bi  Bi13  1  0.603185  0.603185  0.750000  1
  Bi  Bi14  1  0.396824  0.000101  0.750000  1
  Bi  Bi15  1  0.000101  0.396824  0.750000  1
  S  S16  1  0.999647  0.999647  0.499681  1
  S  S17  1  0.999647  0.999647  0.000319  1
