# generated using pymatgen
data_Cr2SbWO8
_symmetry_space_group_name_H-M   'P 1'
_cell_length_a   4.63745230
_cell_length_b   6.30129255
_cell_length_c   9.79600522
_cell_angle_alpha   71.23873643
_cell_angle_beta   91.17646640
_cell_angle_gamma   89.99999802
_symmetry_Int_Tables_number   1
_chemical_formula_structural   Cr2SbWO8
_chemical_formula_sum   'Cr4 Sb2 W2 O16'
_cell_volume   270.98479690
_cell_formula_units_Z   2
loop_
 _symmetry_equiv_pos_site_id
 _symmetry_equiv_pos_as_xyz
  1  'x, y, z'
loop_
 _atom_site_type_symbol
 _atom_site_label
 _atom_site_symmetry_multiplicity
 _atom_site_fract_x
 _atom_site_fract_y
 _atom_site_fract_z
 _atom_site_occupancy
  Cr  Cr0  1  0.500000  0.125000  0.250000  1
  Cr  Cr1  1  0.500000  0.876047  0.750000  1
  Cr  Cr2  1  0.500000  0.373953  0.750000  1
  Cr  Cr3  1  0.500000  0.625000  0.250000  1
  Sb  Sb4  1  0.999671  0.249933  0.500135  1
  Sb  Sb5  1  0.000329  0.000067  0.999865  1
  W  W6  1  0.000456  0.750058  0.499884  1
  W  W7  1  0.999544  0.499942  0.000116  1
  O  O8  1  0.699244  0.575177  0.849646  1
  O  O9  1  0.694521  0.326504  0.346991  1
  O  O10  1  0.693808  0.076594  0.846813  1
  O  O11  1  0.698389  0.825288  0.349423  1
  O  O12  1  0.300756  0.674823  0.650354  1
  O  O13  1  0.301611  0.424712  0.150577  1
  O  O14  1  0.306192  0.173406  0.653187  1
  O  O15  1  0.305479  0.923496  0.153009  1
  O  O16  1  0.193565  0.298414  0.903202  1
  O  O17  1  0.193533  0.049110  0.403213  1
  O  O18  1  0.193565  0.798382  0.903202  1
  O  O19  1  0.193533  0.547676  0.403213  1
  O  O20  1  0.806435  0.451618  0.596798  1
  O  O21  1  0.806467  0.200890  0.096787  1
  O  O22  1  0.806435  0.951586  0.596798  1
  O  O23  1  0.806467  0.702324  0.096787  1
