# generated using pymatgen
data_Tb20CoBi8RuPt2
_symmetry_space_group_name_H-M   'P 1'
_cell_length_a   8.07927277
_cell_length_b   9.02557100
_cell_length_c   12.53186838
_cell_angle_alpha   90.00000000
_cell_angle_beta   90.10967025
_cell_angle_gamma   90.00000000
_symmetry_Int_Tables_number   1
_chemical_formula_structural   Tb20CoBi8RuPt2
_chemical_formula_sum   'Tb20 Co1 Bi8 Ru1 Pt2'
_cell_volume   913.82279553
_cell_formula_units_Z   1
loop_
 _symmetry_equiv_pos_site_id
 _symmetry_equiv_pos_as_xyz
  1  'x, y, z'
loop_
 _atom_site_type_symbol
 _atom_site_label
 _atom_site_symmetry_multiplicity
 _atom_site_fract_x
 _atom_site_fract_y
 _atom_site_fract_z
 _atom_site_occupancy
  Tb  Tb0  1  0.845215  0.750000  0.799121  1
  Tb  Tb1  1  0.158640  0.250000  0.208532  1
  Tb  Tb2  1  0.342080  0.250000  0.707995  1
  Tb  Tb3  1  0.654834  0.750000  0.296004  1
  Tb  Tb4  1  0.377984  0.750000  0.694519  1
  Tb  Tb5  1  0.625831  0.250000  0.302121  1
  Tb  Tb6  1  0.873432  0.250000  0.802505  1
  Tb  Tb7  1  0.118833  0.750000  0.190135  1
  Tb  Tb8  1  0.948955  0.750000  0.503011  1
  Tb  Tb9  1  0.048079  0.250000  0.498101  1
  Tb  Tb10  1  0.452588  0.250000  0.998824  1
  Tb  Tb11  1  0.549438  0.750000  0.002080  1
  Tb  Tb12  1  0.678586  0.038179  0.565697  1
  Tb  Tb13  1  0.320691  0.952161  0.434238  1
  Tb  Tb14  1  0.178726  0.952365  0.934610  1
  Tb  Tb15  1  0.320691  0.547839  0.434238  1
  Tb  Tb16  1  0.822617  0.032916  0.063912  1
  Tb  Tb17  1  0.678586  0.461821  0.565697  1
  Tb  Tb18  1  0.822617  0.467084  0.063912  1
  Tb  Tb19  1  0.178726  0.547635  0.934610  1
  Co  Co20  1  0.933911  0.750000  0.008466  1
  Bi  Bi21  1  0.571331  0.491741  0.827716  1
  Bi  Bi22  1  0.428822  0.508469  0.172942  1
  Bi  Bi23  1  0.070232  0.508078  0.674216  1
  Bi  Bi24  1  0.428822  0.991531  0.172942  1
  Bi  Bi25  1  0.929836  0.492270  0.326160  1
  Bi  Bi26  1  0.571331  0.008259  0.827716  1
  Bi  Bi27  1  0.929836  0.007730  0.326160  1
  Bi  Bi28  1  0.070232  0.991922  0.674216  1
  Ru  Ru29  1  0.571639  0.750000  0.511280  1
  Pt  Pt30  1  0.426822  0.250000  0.488710  1
  Pt  Pt31  1  0.070039  0.250000  0.989609  1
