# generated using pymatgen
data_Nd3Ta(P3Rh4)2
_symmetry_space_group_name_H-M   'P 1'
_cell_length_a   3.98429000
_cell_length_b   11.29243800
_cell_length_c   13.01182700
_cell_angle_alpha   90.00000000
_cell_angle_beta   90.00000000
_cell_angle_gamma   90.00000000
_symmetry_Int_Tables_number   1
_chemical_formula_structural   Nd3Ta(P3Rh4)2
_chemical_formula_sum   'Nd6 Ta2 P12 Rh16'
_cell_volume   585.43264588
_cell_formula_units_Z   2
loop_
 _symmetry_equiv_pos_site_id
 _symmetry_equiv_pos_as_xyz
  1  'x, y, z'
loop_
 _atom_site_type_symbol
 _atom_site_label
 _atom_site_symmetry_multiplicity
 _atom_site_fract_x
 _atom_site_fract_y
 _atom_site_fract_z
 _atom_site_occupancy
  Nd  Nd0  1  0.000000  0.500000  0.521287  1
  Nd  Nd1  1  0.500000  0.000000  0.478713  1
  Nd  Nd2  1  0.500000  0.818330  0.202665  1
  Nd  Nd3  1  0.500000  0.181670  0.202665  1
  Nd  Nd4  1  0.000000  0.681670  0.797335  1
  Nd  Nd5  1  0.000000  0.318330  0.797335  1
  Ta  Ta6  1  0.500000  0.500000  0.156854  1
  Ta  Ta7  1  0.000000  0.000000  0.843146  1
  P  P8  1  0.500000  0.500000  0.879265  1
  P  P9  1  0.000000  0.000000  0.120735  1
  P  P10  1  0.500000  0.500000  0.347525  1
  P  P11  1  0.000000  0.000000  0.652475  1
  P  P12  1  0.500000  0.311707  0.615797  1
  P  P13  1  0.500000  0.688293  0.615797  1
  P  P14  1  0.000000  0.188293  0.384203  1
  P  P15  1  0.000000  0.811707  0.384203  1
  P  P16  1  0.500000  0.846154  0.889353  1
  P  P17  1  0.500000  0.153846  0.889353  1
  P  P18  1  0.000000  0.653846  0.110647  1
  P  P19  1  0.000000  0.346154  0.110647  1
  Rh  Rh20  1  0.500000  0.500000  0.699884  1
  Rh  Rh21  1  0.000000  0.000000  0.300116  1
  Rh  Rh22  1  0.000000  0.500000  0.988291  1
  Rh  Rh23  1  0.500000  0.000000  0.011709  1
  Rh  Rh24  1  0.500000  0.332474  0.989976  1
  Rh  Rh25  1  0.500000  0.667526  0.989976  1
  Rh  Rh26  1  0.000000  0.167526  0.010024  1
  Rh  Rh27  1  0.000000  0.832474  0.010024  1
  Rh  Rh28  1  0.500000  0.291850  0.431242  1
  Rh  Rh29  1  0.500000  0.708150  0.431242  1
  Rh  Rh30  1  0.000000  0.208150  0.568758  1
  Rh  Rh31  1  0.000000  0.791850  0.568758  1
  Rh  Rh32  1  0.500000  0.875772  0.708510  1
  Rh  Rh33  1  0.500000  0.124228  0.708510  1
  Rh  Rh34  1  0.000000  0.624228  0.291490  1
  Rh  Rh35  1  0.000000  0.375772  0.291490  1
