# generated using pymatgen
data_SmAs3Rh5
_symmetry_space_group_name_H-M   'P 1'
_cell_length_a   4.03575700
_cell_length_b   12.94523700
_cell_length_c   11.37591300
_cell_angle_alpha   90.00000000
_cell_angle_beta   90.00000000
_cell_angle_gamma   90.00000000
_symmetry_Int_Tables_number   1
_chemical_formula_structural   SmAs3Rh5
_chemical_formula_sum   'Sm4 As12 Rh20'
_cell_volume   594.32127442
_cell_formula_units_Z   4
loop_
 _symmetry_equiv_pos_site_id
 _symmetry_equiv_pos_as_xyz
  1  'x, y, z'
loop_
 _atom_site_type_symbol
 _atom_site_label
 _atom_site_symmetry_multiplicity
 _atom_site_fract_x
 _atom_site_fract_y
 _atom_site_fract_z
 _atom_site_occupancy
  Sm  Sm0  1  0.750000  0.701651  0.081155  1
  Sm  Sm1  1  0.250000  0.298349  0.918845  1
  Sm  Sm2  1  0.250000  0.798349  0.581155  1
  Sm  Sm3  1  0.750000  0.201651  0.418845  1
  As  As4  1  0.750000  0.613849  0.582749  1
  As  As5  1  0.250000  0.386151  0.417251  1
  As  As6  1  0.250000  0.886151  0.082749  1
  As  As7  1  0.750000  0.113849  0.917251  1
  As  As8  1  0.750000  0.889769  0.398994  1
  As  As9  1  0.250000  0.110231  0.601006  1
  As  As10  1  0.250000  0.610231  0.898994  1
  As  As11  1  0.750000  0.389769  0.101006  1
  As  As12  1  0.750000  0.869678  0.767856  1
  As  As13  1  0.250000  0.130322  0.232144  1
  As  As14  1  0.250000  0.630322  0.267856  1
  As  As15  1  0.750000  0.369678  0.732144  1
  Rh  Rh16  1  0.750000  0.700552  0.383882  1
  Rh  Rh17  1  0.250000  0.299448  0.616118  1
  Rh  Rh18  1  0.250000  0.799448  0.883882  1
  Rh  Rh19  1  0.750000  0.200552  0.116118  1
  Rh  Rh20  1  0.750000  0.995356  0.222098  1
  Rh  Rh21  1  0.250000  0.004644  0.777902  1
  Rh  Rh22  1  0.250000  0.504644  0.722098  1
  Rh  Rh23  1  0.750000  0.495356  0.277902  1
  Rh  Rh24  1  0.750000  0.675981  0.780754  1
  Rh  Rh25  1  0.250000  0.324019  0.219246  1
  Rh  Rh26  1  0.250000  0.824019  0.280754  1
  Rh  Rh27  1  0.750000  0.175981  0.719246  1
  Rh  Rh28  1  0.750000  0.929465  0.968067  1
  Rh  Rh29  1  0.250000  0.070535  0.031933  1
  Rh  Rh30  1  0.250000  0.570535  0.468067  1
  Rh  Rh31  1  0.750000  0.429465  0.531933  1
  Rh  Rh32  1  0.750000  0.980564  0.590440  1
  Rh  Rh33  1  0.250000  0.019436  0.409560  1
  Rh  Rh34  1  0.250000  0.519436  0.090440  1
  Rh  Rh35  1  0.750000  0.480563  0.909560  1
