# generated using pymatgen
data_Pr3Pa(Co5P3)4
_symmetry_space_group_name_H-M   'P 1'
_cell_length_a   3.70783700
_cell_length_b   10.41071281
_cell_length_c   11.82764765
_cell_angle_alpha   89.90595487
_cell_angle_beta   90.00000000
_cell_angle_gamma   90.00000000
_symmetry_Int_Tables_number   1
_chemical_formula_structural   Pr3Pa(Co5P3)4
_chemical_formula_sum   'Pr3 Pa1 Co20 P12'
_cell_volume   456.56108685
_cell_formula_units_Z   1
loop_
 _symmetry_equiv_pos_site_id
 _symmetry_equiv_pos_as_xyz
  1  'x, y, z'
loop_
 _atom_site_type_symbol
 _atom_site_label
 _atom_site_symmetry_multiplicity
 _atom_site_fract_x
 _atom_site_fract_y
 _atom_site_fract_z
 _atom_site_occupancy
  Pr  Pr0  1  0.250000  0.915742  0.201335  1
  Pr  Pr1  1  0.750000  0.416852  0.299227  1
  Pr  Pr2  1  0.750000  0.083795  0.797783  1
  Pa  Pa3  1  0.250000  0.582738  0.700976  1
  Co  Co4  1  0.250000  0.713497  0.988789  1
  Co  Co5  1  0.250000  0.783469  0.492520  1
  Co  Co6  1  0.750000  0.285629  0.005548  1
  Co  Co7  1  0.750000  0.214832  0.509101  1
  Co  Co8  1  0.250000  0.409908  0.493434  1
  Co  Co9  1  0.250000  0.094453  0.990469  1
  Co  Co10  1  0.750000  0.595302  0.520267  1
  Co  Co11  1  0.750000  0.903845  0.008395  1
  Co  Co12  1  0.250000  0.221667  0.175406  1
  Co  Co13  1  0.250000  0.280232  0.676908  1
  Co  Co14  1  0.750000  0.774802  0.821752  1
  Co  Co15  1  0.750000  0.719174  0.326454  1
  Co  Co16  1  0.250000  0.879350  0.697513  1
  Co  Co17  1  0.250000  0.617205  0.196450  1
  Co  Co18  1  0.750000  0.117004  0.302632  1
  Co  Co19  1  0.750000  0.390400  0.799215  1
  Co  Co20  1  0.250000  0.471118  0.928772  1
  Co  Co21  1  0.250000  0.029752  0.432973  1
  Co  Co22  1  0.750000  0.530081  0.065700  1
  Co  Co23  1  0.750000  0.968964  0.567804  1
  P  P24  1  0.250000  0.418112  0.108482  1
  P  P25  1  0.250000  0.082247  0.609682  1
  P  P26  1  0.750000  0.583033  0.889365  1
  P  P27  1  0.750000  0.917562  0.390693  1
  P  P28  1  0.250000  0.275680  0.871295  1
  P  P29  1  0.250000  0.223317  0.370162  1
  P  P30  1  0.750000  0.722826  0.129701  1
  P  P31  1  0.750000  0.776560  0.630982  1
  P  P32  1  0.250000  0.606400  0.392343  1
  P  P33  1  0.250000  0.894888  0.893270  1
  P  P34  1  0.750000  0.393257  0.607983  1
  P  P35  1  0.750000  0.106309  0.106621  1
