# generated using pymatgen
data_Zr7MnCo16SiP11
_symmetry_space_group_name_H-M   'P 1'
_cell_length_a   12.09692751
_cell_length_b   12.09692801
_cell_length_c   3.65223400
_cell_angle_alpha   90.00000000
_cell_angle_beta   90.00000000
_cell_angle_gamma   120.21872592
_symmetry_Int_Tables_number   1
_chemical_formula_structural   Zr7MnCo16SiP11
_chemical_formula_sum   'Zr7 Mn1 Co16 Si1 P11'
_cell_volume   461.82557402
_cell_formula_units_Z   1
loop_
 _symmetry_equiv_pos_site_id
 _symmetry_equiv_pos_as_xyz
  1  'x, y, z'
loop_
 _atom_site_type_symbol
 _atom_site_label
 _atom_site_symmetry_multiplicity
 _atom_site_fract_x
 _atom_site_fract_y
 _atom_site_fract_z
 _atom_site_occupancy
  Zr  Zr0  1  0.555247  0.000118  0.000000  1
  Zr  Zr1  1  0.000118  0.555247  0.000000  1
  Zr  Zr2  1  0.665909  0.333521  0.000000  1
  Zr  Zr3  1  0.333521  0.665909  0.000000  1
  Zr  Zr4  1  0.819446  0.819446  0.500000  1
  Zr  Zr5  1  0.175895  0.999761  0.500000  1
  Zr  Zr6  1  0.999761  0.175895  0.500000  1
  Mn  Mn7  1  0.442507  0.442507  0.000000  1
  Co  Co8  1  0.199946  0.374486  0.000000  1
  Co  Co9  1  0.178734  0.808168  0.000000  1
  Co  Co10  1  0.821856  0.626781  0.000000  1
  Co  Co11  1  0.808168  0.178734  0.000000  1
  Co  Co12  1  0.374486  0.199946  0.000000  1
  Co  Co13  1  0.128909  0.478740  0.500000  1
  Co  Co14  1  0.354129  0.874959  0.500000  1
  Co  Co15  1  0.513437  0.640591  0.500000  1
  Co  Co16  1  0.640591  0.513437  0.500000  1
  Co  Co17  1  0.874959  0.354129  0.500000  1
  Co  Co18  1  0.478740  0.128909  0.500000  1
  Co  Co19  1  0.001717  0.001717  0.000000  1
  Co  Co20  1  0.722831  0.001527  0.500000  1
  Co  Co21  1  0.001527  0.722831  0.500000  1
  Co  Co22  1  0.626781  0.821856  0.000000  1
  Co  Co23  1  0.283715  0.283715  0.500000  1
  Si  Si24  1  0.640397  0.640397  0.000000  1
  P  P25  1  0.346788  0.004915  0.000000  1
  P  P26  1  0.004915  0.346788  0.000000  1
  P  P27  1  0.480477  0.315766  0.500000  1
  P  P28  1  0.691399  0.174710  0.500000  1
  P  P29  1  0.824840  0.517973  0.500000  1
  P  P30  1  0.517973  0.824840  0.500000  1
  P  P31  1  0.174710  0.691399  0.500000  1
  P  P32  1  0.824155  0.997748  0.000000  1
  P  P33  1  0.997748  0.824155  0.000000  1
  P  P34  1  0.315766  0.480477  0.500000  1
  P  P35  1  0.177901  0.177901  0.000000  1
