# generated using pymatgen
data_La9Nd7Cd4Ru3Pt
_symmetry_space_group_name_H-M   'P 1'
_cell_length_a   10.02218568
_cell_length_b   10.04230824
_cell_length_c   10.05273900
_cell_angle_alpha   59.96563145
_cell_angle_beta   59.89909952
_cell_angle_gamma   60.14496156
_symmetry_Int_Tables_number   1
_chemical_formula_structural   La9Nd7Cd4Ru3Pt
_chemical_formula_sum   'La9 Nd7 Cd4 Ru3 Pt1'
_cell_volume   715.47247278
_cell_formula_units_Z   1
loop_
 _symmetry_equiv_pos_site_id
 _symmetry_equiv_pos_as_xyz
  1  'x, y, z'
loop_
 _atom_site_type_symbol
 _atom_site_label
 _atom_site_symmetry_multiplicity
 _atom_site_fract_x
 _atom_site_fract_y
 _atom_site_fract_z
 _atom_site_occupancy
  La  La0  1  0.342979  0.350296  0.350476  1
  La  La1  1  0.342979  0.350296  0.956249  1
  La  La2  1  0.343972  0.955670  0.350179  1
  La  La3  1  0.960951  0.347553  0.345748  1
  La  La4  1  0.816619  0.189785  0.191118  1
  La  La5  1  0.188483  0.809751  0.812668  1
  La  La6  1  0.188483  0.809751  0.189098  1
  La  La7  1  0.816619  0.189785  0.802478  1
  La  La8  1  0.190268  0.188883  0.810425  1
  Nd  Nd9  1  0.811955  0.803109  0.192468  1
  Nd  Nd10  1  0.935075  0.564866  0.563138  1
  Nd  Nd11  1  0.562143  0.936094  0.936767  1
  Nd  Nd12  1  0.562143  0.936094  0.564996  1
  Nd  Nd13  1  0.935075  0.564866  0.936921  1
  Nd  Nd14  1  0.561509  0.565752  0.936369  1
  Nd  Nd15  1  0.936234  0.937089  0.563339  1
  Cd  Cd16  1  0.580972  0.580870  0.579274  1
  Cd  Cd17  1  0.580972  0.580870  0.258884  1
  Cd  Cd18  1  0.580278  0.258816  0.580453  1
  Cd  Cd19  1  0.258810  0.580375  0.580408  1
  Ru  Ru20  1  0.139920  0.137215  0.136663  1
  Ru  Ru21  1  0.139920  0.137215  0.586202  1
  Ru  Ru22  1  0.146765  0.582337  0.135449  1
  Pt  Pt23  1  0.576876  0.142664  0.140230  1
