# generated using pymatgen
data_Ac4Pd3Au5
_symmetry_space_group_name_H-M   'P 1'
_cell_length_a   4.92957700
_cell_length_b   8.09201893
_cell_length_c   7.89038884
_cell_angle_alpha   90.03153775
_cell_angle_beta   90.00000000
_cell_angle_gamma   90.00000000
_symmetry_Int_Tables_number   1
_chemical_formula_structural   Ac4Pd3Au5
_chemical_formula_sum   'Ac4 Pd3 Au5'
_cell_volume   314.74938118
_cell_formula_units_Z   1
loop_
 _symmetry_equiv_pos_site_id
 _symmetry_equiv_pos_as_xyz
  1  'x, y, z'
loop_
 _atom_site_type_symbol
 _atom_site_label
 _atom_site_symmetry_multiplicity
 _atom_site_fract_x
 _atom_site_fract_y
 _atom_site_fract_z
 _atom_site_occupancy
  Ac  Ac0  1  0.500000  0.503279  0.747484  1
  Ac  Ac1  1  0.500000  0.996069  0.743113  1
  Ac  Ac2  1  0.000000  0.503296  0.250437  1
  Ac  Ac3  1  0.000000  0.997475  0.254218  1
  Pd  Pd4  1  0.500000  0.746020  0.427999  1
  Pd  Pd5  1  0.000000  0.753333  0.930576  1
  Pd  Pd6  1  0.000000  0.253241  0.567928  1
  Au  Au7  1  0.500000  0.752434  0.080893  1
  Au  Au8  1  0.500000  0.252787  0.425456  1
  Au  Au9  1  0.000000  0.247533  0.912701  1
  Au  Au10  1  0.000000  0.747857  0.583429  1
  Au  Au11  1  0.500000  0.246678  0.075766  1
