# generated using pymatgen
data_Ce2Dy7YAl3GaRu6
_symmetry_space_group_name_H-M   'P 1'
_cell_length_a   8.45993440
_cell_length_b   8.36548363
_cell_length_c   8.33693800
_cell_angle_alpha   109.95698905
_cell_angle_beta   109.32633703
_cell_angle_gamma   110.23020197
_symmetry_Int_Tables_number   1
_chemical_formula_structural   Ce2Dy7YAl3GaRu6
_chemical_formula_sum   'Ce2 Dy7 Y1 Al3 Ga1 Ru6'
_cell_volume   447.90234368
_cell_formula_units_Z   1
loop_
 _symmetry_equiv_pos_site_id
 _symmetry_equiv_pos_as_xyz
  1  'x, y, z'
loop_
 _atom_site_type_symbol
 _atom_site_label
 _atom_site_symmetry_multiplicity
 _atom_site_fract_x
 _atom_site_fract_y
 _atom_site_fract_z
 _atom_site_occupancy
  Ce  Ce0  1  0.944666  0.251779  0.196207  1
  Ce  Ce1  1  0.198098  0.943343  0.252416  1
  Dy  Dy2  1  0.779941  0.784467  0.777007  1
  Dy  Dy3  1  0.317463  0.565613  0.753981  1
  Dy  Dy4  1  0.750570  0.316922  0.567446  1
  Dy  Dy5  1  0.566511  0.747483  0.312816  1
  Dy  Dy6  1  0.721711  0.503042  0.999536  1
  Dy  Dy7  1  0.999805  0.719703  0.505523  1
  Dy  Dy8  1  0.500290  0.992039  0.716182  1
  Y  Y9  1  0.254464  0.189727  0.933908  1
  Al  Al10  1  0.091658  0.491645  0.996452  1
  Al  Al11  1  0.997930  0.091055  0.502217  1
  Al  Al12  1  0.502617  0.010434  0.094635  1
  Ga  Ga13  1  0.417845  0.412795  0.410756  1
  Ru  Ru14  1  0.866039  0.115914  0.739119  1
  Ru  Ru15  1  0.754002  0.903236  0.121854  1
  Ru  Ru16  1  0.126918  0.763355  0.909192  1
  Ru  Ru17  1  0.222557  0.591578  0.362479  1
  Ru  Ru18  1  0.357094  0.219770  0.595152  1
  Ru  Ru19  1  0.629819  0.386100  0.253119  1
