# generated using pymatgen
data_K3TlSn2Se5
_symmetry_space_group_name_H-M   'P 1'
_cell_length_a   7.93825181
_cell_length_b   9.24203373
_cell_length_c   11.81395700
_cell_angle_alpha   73.58093670
_cell_angle_beta   70.38362654
_cell_angle_gamma   80.95209771
_symmetry_Int_Tables_number   1
_chemical_formula_structural   K3TlSn2Se5
_chemical_formula_sum   'K6 Tl2 Sn4 Se10'
_cell_volume   781.27192236
_cell_formula_units_Z   2
loop_
 _symmetry_equiv_pos_site_id
 _symmetry_equiv_pos_as_xyz
  1  'x, y, z'
loop_
 _atom_site_type_symbol
 _atom_site_label
 _atom_site_symmetry_multiplicity
 _atom_site_fract_x
 _atom_site_fract_y
 _atom_site_fract_z
 _atom_site_occupancy
  K  K0  1  0.203249  0.000722  0.594344  1
  K  K1  1  0.796751  0.999278  0.405656  1
  K  K2  1  0.916598  0.514956  0.689360  1
  K  K3  1  0.083402  0.485044  0.310640  1
  K  K4  1  0.500000  0.500000  0.500000  1
  K  K5  1  0.000000  0.000000  0.000000  1
  Tl  Tl6  1  0.265364  0.501420  0.897448  1
  Tl  Tl7  1  0.734636  0.498580  0.102552  1
  Sn  Sn8  1  0.427792  0.839254  0.226993  1
  Sn  Sn9  1  0.572208  0.160746  0.773007  1
  Sn  Sn10  1  0.381750  0.161829  0.163273  1
  Sn  Sn11  1  0.618250  0.838171  0.836727  1
  Se  Se12  1  0.065512  0.244583  0.151967  1
  Se  Se13  1  0.934488  0.755417  0.848033  1
  Se  Se14  1  0.630823  0.263022  0.946115  1
  Se  Se15  1  0.369177  0.736978  0.053885  1
  Se  Se16  1  0.827561  0.250630  0.576614  1
  Se  Se17  1  0.172439  0.749370  0.423386  1
  Se  Se18  1  0.547817  0.748246  0.674461  1
  Se  Se19  1  0.452183  0.251754  0.325539  1
  Se  Se20  1  0.263373  0.256577  0.750182  1
  Se  Se21  1  0.736627  0.743423  0.249818  1
