# generated using pymatgen
data_Sm2HoTm5(Si3Rh)4
_symmetry_space_group_name_H-M   'P 1'
_cell_length_a   8.16351528
_cell_length_b   8.15980625
_cell_length_c   7.88066900
_cell_angle_alpha   90.00000000
_cell_angle_beta   90.00000000
_cell_angle_gamma   119.98497342
_symmetry_Int_Tables_number   1
_chemical_formula_structural   Sm2HoTm5(Si3Rh)4
_chemical_formula_sum   'Sm2 Ho1 Tm5 Si12 Rh4'
_cell_volume   454.69116490
_cell_formula_units_Z   1
loop_
 _symmetry_equiv_pos_site_id
 _symmetry_equiv_pos_as_xyz
  1  'x, y, z'
loop_
 _atom_site_type_symbol
 _atom_site_label
 _atom_site_symmetry_multiplicity
 _atom_site_fract_x
 _atom_site_fract_y
 _atom_site_fract_z
 _atom_site_occupancy
  Sm  Sm0  1  0.000210  0.000105  0.250000  1
  Sm  Sm1  1  0.999806  0.999903  0.750000  1
  Ho  Ho2  1  0.018234  0.509117  0.750000  1
  Tm  Tm3  1  0.508864  0.491062  0.250000  1
  Tm  Tm4  1  0.508864  0.017803  0.250000  1
  Tm  Tm5  1  0.982185  0.491093  0.250000  1
  Tm  Tm6  1  0.491436  0.508899  0.750000  1
  Tm  Tm7  1  0.491436  0.982536  0.750000  1
  Si  Si8  1  0.168314  0.832218  0.500313  1
  Si  Si9  1  0.168314  0.336094  0.500313  1
  Si  Si10  1  0.663767  0.831882  0.500895  1
  Si  Si11  1  0.831786  0.167915  0.498795  1
  Si  Si12  1  0.831786  0.663874  0.498795  1
  Si  Si13  1  0.336044  0.168023  0.498935  1
  Si  Si14  1  0.831786  0.167915  0.001205  1
  Si  Si15  1  0.831786  0.663874  0.001205  1
  Si  Si16  1  0.336044  0.168023  0.001065  1
  Si  Si17  1  0.168314  0.832218  0.999687  1
  Si  Si18  1  0.168314  0.336094  0.999687  1
  Si  Si19  1  0.663767  0.831882  0.999105  1
  Rh  Rh20  1  0.333807  0.666904  0.463594  1
  Rh  Rh21  1  0.665664  0.332831  0.534427  1
  Rh  Rh22  1  0.665664  0.332831  0.965573  1
  Rh  Rh23  1  0.333807  0.666904  0.036406  1
