# generated using pymatgen
data_Sc6NiI10
_symmetry_space_group_name_H-M   'P 1'
_cell_length_a   7.30774592
_cell_length_b   9.30030592
_cell_length_c   9.31958614
_cell_angle_alpha   107.10737222
_cell_angle_beta   96.89273788
_cell_angle_gamma   104.40912667
_symmetry_Int_Tables_number   1
_chemical_formula_structural   Sc6NiI10
_chemical_formula_sum   'Sc6 Ni1 I10'
_cell_volume   573.41741322
_cell_formula_units_Z   1
loop_
 _symmetry_equiv_pos_site_id
 _symmetry_equiv_pos_as_xyz
  1  'x, y, z'
loop_
 _atom_site_type_symbol
 _atom_site_label
 _atom_site_symmetry_multiplicity
 _atom_site_fract_x
 _atom_site_fract_y
 _atom_site_fract_z
 _atom_site_occupancy
  Sc  Sc0  1  0.337263  0.118529  0.157848  1
  Sc  Sc1  1  0.662737  0.881471  0.842152  1
  Sc  Sc2  1  0.970797  0.272766  0.080775  1
  Sc  Sc3  1  0.029203  0.727234  0.919225  1
  Sc  Sc4  1  0.891627  0.962176  0.232126  1
  Sc  Sc5  1  0.108373  0.037824  0.767874  1
  Ni  Ni6  1  0.000000  0.000000  0.000000  1
  I  I7  1  0.348625  0.444789  0.269874  1
  I  I8  1  0.651375  0.555211  0.730126  1
  I  I9  1  0.782292  0.256553  0.342920  1
  I  I10  1  0.217708  0.743447  0.657080  1
  I  I11  1  0.544423  0.181979  0.906976  1
  I  I12  1  0.455577  0.818021  0.093024  1
  I  I13  1  0.742211  0.911835  0.542962  1
  I  I14  1  0.257789  0.088165  0.457038  1
  I  I15  1  0.915306  0.633937  0.178383  1
  I  I16  1  0.084694  0.366063  0.821617  1
