# generated using pymatgen
data_Zr10Bi5Pb2
_symmetry_space_group_name_H-M   'P 1'
_cell_length_a   6.05324225
_cell_length_b   8.83725438
_cell_length_c   8.84242036
_cell_angle_alpha   120.01929286
_cell_angle_beta   89.96714334
_cell_angle_gamma   90.01642930
_symmetry_Int_Tables_number   1
_chemical_formula_structural   Zr10Bi5Pb2
_chemical_formula_sum   'Zr10 Bi5 Pb2'
_cell_volume   409.56483878
_cell_formula_units_Z   1
loop_
 _symmetry_equiv_pos_site_id
 _symmetry_equiv_pos_as_xyz
  1  'x, y, z'
loop_
 _atom_site_type_symbol
 _atom_site_label
 _atom_site_symmetry_multiplicity
 _atom_site_fract_x
 _atom_site_fract_y
 _atom_site_fract_z
 _atom_site_occupancy
  Zr  Zr0  1  0.501452  0.333862  0.667043  1
  Zr  Zr1  1  0.501451  0.666140  0.333179  1
  Zr  Zr2  1  0.997535  0.666206  0.333027  1
  Zr  Zr3  1  0.997534  0.333793  0.666823  1
  Zr  Zr4  1  0.782533  0.269064  0.001166  1
  Zr  Zr5  1  0.782529  0.730939  0.732103  1
  Zr  Zr6  1  0.784464  0.000005  0.268342  1
  Zr  Zr7  1  0.216605  0.733342  0.000007  1
  Zr  Zr8  1  0.216605  0.266659  0.266667  1
  Zr  Zr9  1  0.216316  0.000000  0.732664  1
  Bi  Bi10  1  0.740432  0.000001  0.614369  1
  Bi  Bi11  1  0.259778  0.388372  0.000431  1
  Bi  Bi12  1  0.259773  0.611626  0.612057  1
  Bi  Bi13  1  0.260606  0.000001  0.386625  1
  Bi  Bi14  1  0.501961  0.999999  0.000050  1
  Pb  Pb15  1  0.740212  0.614903  0.000178  1
  Pb  Pb16  1  0.740215  0.385090  0.385271  1
