# generated using pymatgen
data_Mg3Nb(ZnRh2)4
_symmetry_space_group_name_H-M   'P 1'
_cell_length_a   6.13399800
_cell_length_b   6.08895200
_cell_length_c   6.24418300
_cell_angle_alpha   90.00007458
_cell_angle_beta   89.99982434
_cell_angle_gamma   90.00124176
_symmetry_Int_Tables_number   1
_chemical_formula_structural   Mg3Nb(ZnRh2)4
_chemical_formula_sum   'Mg3 Nb1 Zn4 Rh8'
_cell_volume   233.21785846
_cell_formula_units_Z   1
loop_
 _symmetry_equiv_pos_site_id
 _symmetry_equiv_pos_as_xyz
  1  'x, y, z'
loop_
 _atom_site_type_symbol
 _atom_site_label
 _atom_site_symmetry_multiplicity
 _atom_site_fract_x
 _atom_site_fract_y
 _atom_site_fract_z
 _atom_site_occupancy
  Mg  Mg0  1  0.749997  0.250032  0.000018  1
  Mg  Mg1  1  0.250005  0.749929  0.000038  1
  Mg  Mg2  1  0.750000  0.250029  0.499969  1
  Nb  Nb3  1  0.250001  0.750018  0.500021  1
  Zn  Zn4  1  0.249999  0.249980  0.999992  1
  Zn  Zn5  1  0.750000  0.749993  0.999995  1
  Zn  Zn6  1  0.749999  0.749987  0.499988  1
  Zn  Zn7  1  0.249999  0.250005  0.499992  1
  Rh  Rh8  1  0.001435  0.501647  0.250863  1
  Rh  Rh9  1  0.001384  0.998375  0.250802  1
  Rh  Rh10  1  0.498560  0.501626  0.250857  1
  Rh  Rh11  1  0.498607  0.998366  0.250799  1
  Rh  Rh12  1  0.498590  0.501618  0.749145  1
  Rh  Rh13  1  0.498630  0.998391  0.749186  1
  Rh  Rh14  1  0.001410  0.501612  0.749147  1
  Rh  Rh15  1  0.001383  0.998394  0.749188  1
