# generated using pymatgen
data_TmNp(AlC)6
_symmetry_space_group_name_H-M   'P 1'
_cell_length_a   3.41251800
_cell_length_b   3.41251776
_cell_length_c   17.32007900
_cell_angle_alpha   90.00000000
_cell_angle_beta   90.00000000
_cell_angle_gamma   120.00000234
_symmetry_Int_Tables_number   1
_chemical_formula_structural   TmNp(AlC)6
_chemical_formula_sum   'Tm1 Np1 Al6 C6'
_cell_volume   174.67484275
_cell_formula_units_Z   1
loop_
 _symmetry_equiv_pos_site_id
 _symmetry_equiv_pos_as_xyz
  1  'x, y, z'
loop_
 _atom_site_type_symbol
 _atom_site_label
 _atom_site_symmetry_multiplicity
 _atom_site_fract_x
 _atom_site_fract_y
 _atom_site_fract_z
 _atom_site_occupancy
  Tm  Tm0  1  0.000000  0.000000  0.003262  1
  Np  Np1  1  0.000000  0.000000  0.503128  1
  Al  Al2  1  0.333333  0.666667  0.133814  1
  Al  Al3  1  0.666667  0.333333  0.872641  1
  Al  Al4  1  0.666667  0.333333  0.639446  1
  Al  Al5  1  0.333333  0.666667  0.761562  1
  Al  Al6  1  0.333333  0.666667  0.366975  1
  Al  Al7  1  0.666667  0.333333  0.245848  1
  C  C8  1  0.333333  0.666667  0.595927  1
  C  C9  1  0.666667  0.333333  0.409858  1
  C  C10  1  0.333333  0.666667  0.909923  1
  C  C11  1  0.666667  0.333333  0.095832  1
  C  C12  1  0.666667  0.333333  0.755197  1
  C  C13  1  0.333333  0.666667  0.251189  1
