# generated using pymatgen
data_HoEr9(Ga2Ru3)2
_symmetry_space_group_name_H-M   'P 1'
_cell_length_a   8.28684760
_cell_length_b   8.28684815
_cell_length_c   8.27867300
_cell_angle_alpha   109.12842817
_cell_angle_beta   109.50980269
_cell_angle_gamma   109.81583464
_symmetry_Int_Tables_number   1
_chemical_formula_structural   HoEr9(Ga2Ru3)2
_chemical_formula_sum   'Ho1 Er9 Ga4 Ru6'
_cell_volume   437.41035974
_cell_formula_units_Z   1
loop_
 _symmetry_equiv_pos_site_id
 _symmetry_equiv_pos_as_xyz
  1  'x, y, z'
loop_
 _atom_site_type_symbol
 _atom_site_label
 _atom_site_symmetry_multiplicity
 _atom_site_fract_x
 _atom_site_fract_y
 _atom_site_fract_z
 _atom_site_occupancy
  Ho  Ho0  1  0.183820  0.933820  0.250000  1
  Er  Er1  1  0.783159  0.784293  0.783543  1
  Er  Er2  1  0.317051  0.567051  0.750000  1
  Er  Er3  1  0.752114  0.321223  0.570813  1
  Er  Er4  1  0.568515  0.748845  0.317942  1
  Er  Er5  1  0.715239  0.499289  0.998511  1
  Er  Er6  1  0.000779  0.716728  0.501489  1
  Er  Er7  1  0.500750  0.999617  0.716457  1
  Er  Er8  1  0.250411  0.181302  0.929187  1
  Er  Er9  1  0.930903  0.250573  0.182058  1
  Ga  Ga10  1  0.413351  0.412838  0.412007  1
  Ga  Ga11  1  0.089982  0.499454  0.003024  1
  Ga  Ga12  1  0.996430  0.086960  0.496976  1
  Ga  Ga13  1  0.500830  0.001344  0.087993  1
  Ru  Ru14  1  0.874372  0.124372  0.750000  1
  Ru  Ru15  1  0.746676  0.872173  0.120853  1
  Ru  Ru16  1  0.124167  0.749209  0.875293  1
  Ru  Ru17  1  0.251321  0.625825  0.379147  1
  Ru  Ru18  1  0.373916  0.248874  0.624707  1
  Ru  Ru19  1  0.626210  0.376210  0.250000  1
