# generated using pymatgen
data_LaPdPt4
_symmetry_space_group_name_H-M   'P 1'
_cell_length_a   5.43142700
_cell_length_b   5.43142696
_cell_length_c   4.46455100
_cell_angle_alpha   90.00000000
_cell_angle_beta   90.00000000
_cell_angle_gamma   119.99999417
_symmetry_Int_Tables_number   1
_chemical_formula_structural   LaPdPt4
_chemical_formula_sum   'La1 Pd1 Pt4'
_cell_volume   114.06077967
_cell_formula_units_Z   1
loop_
 _symmetry_equiv_pos_site_id
 _symmetry_equiv_pos_as_xyz
  1  'x, y, z'
loop_
 _atom_site_type_symbol
 _atom_site_label
 _atom_site_symmetry_multiplicity
 _atom_site_fract_x
 _atom_site_fract_y
 _atom_site_fract_z
 _atom_site_occupancy
  La  La0  1  0.333333  0.666667  0.000000  1
  Pd  Pd1  1  0.000000  0.000000  0.000000  1
  Pt  Pt2  1  0.666667  0.333333  0.000000  1
  Pt  Pt3  1  0.833847  0.166153  0.500000  1
  Pt  Pt4  1  0.833847  0.667693  0.500000  1
  Pt  Pt5  1  0.332307  0.166153  0.500000  1
