# generated using pymatgen
data_BaBiSbPt2
_symmetry_space_group_name_H-M   'P 1'
_cell_length_a   4.81619400
_cell_length_b   4.95493432
_cell_length_c   10.83556323
_cell_angle_alpha   88.25660231
_cell_angle_beta   90.00000000
_cell_angle_gamma   90.00000000
_symmetry_Int_Tables_number   1
_chemical_formula_structural   BaBiSbPt2
_chemical_formula_sum   'Ba2 Bi2 Sb2 Pt4'
_cell_volume   258.45937204
_cell_formula_units_Z   2
loop_
 _symmetry_equiv_pos_site_id
 _symmetry_equiv_pos_as_xyz
  1  'x, y, z'
loop_
 _atom_site_type_symbol
 _atom_site_label
 _atom_site_symmetry_multiplicity
 _atom_site_fract_x
 _atom_site_fract_y
 _atom_site_fract_z
 _atom_site_occupancy
  Ba  Ba0  1  0.250000  0.744895  0.761263  1
  Ba  Ba1  1  0.750000  0.255105  0.238737  1
  Bi  Bi2  1  0.750000  0.750249  0.502124  1
  Bi  Bi3  1  0.250000  0.249751  0.497876  1
  Sb  Sb4  1  0.250000  0.794192  0.112913  1
  Sb  Sb5  1  0.750000  0.205808  0.887087  1
  Pt  Pt6  1  0.750000  0.689203  0.000593  1
  Pt  Pt7  1  0.750000  0.245380  0.640148  1
  Pt  Pt8  1  0.250000  0.754620  0.359852  1
  Pt  Pt9  1  0.250000  0.310797  0.999407  1
