# generated using pymatgen
data_Nd4Y12Cd4Ni3Ir
_symmetry_space_group_name_H-M   'P 1'
_cell_length_a   9.69376716
_cell_length_b   9.69376729
_cell_length_c   9.69376744
_cell_angle_alpha   59.64155165
_cell_angle_beta   59.64154938
_cell_angle_gamma   59.64154849
_symmetry_Int_Tables_number   1
_chemical_formula_structural   Nd4Y12Cd4Ni3Ir
_chemical_formula_sum   'Nd4 Y12 Cd4 Ni3 Ir1'
_cell_volume   638.86768714
_cell_formula_units_Z   1
loop_
 _symmetry_equiv_pos_site_id
 _symmetry_equiv_pos_as_xyz
  1  'x, y, z'
loop_
 _atom_site_type_symbol
 _atom_site_label
 _atom_site_symmetry_multiplicity
 _atom_site_fract_x
 _atom_site_fract_y
 _atom_site_fract_z
 _atom_site_occupancy
  Nd  Nd0  1  0.599401  0.599401  0.599401  1
  Nd  Nd1  1  0.602878  0.602878  0.197918  1
  Nd  Nd2  1  0.602878  0.197918  0.602878  1
  Nd  Nd3  1  0.197918  0.602878  0.602878  1
  Y  Y4  1  0.060816  0.437779  0.437779  1
  Y  Y5  1  0.435731  0.062833  0.062833  1
  Y  Y6  1  0.437779  0.060816  0.437779  1
  Y  Y7  1  0.062833  0.435731  0.062833  1
  Y  Y8  1  0.437779  0.437779  0.060816  1
  Y  Y9  1  0.062833  0.062833  0.435731  1
  Y  Y10  1  0.185283  0.816234  0.816234  1
  Y  Y11  1  0.811309  0.186685  0.186685  1
  Y  Y12  1  0.816234  0.185283  0.816234  1
  Y  Y13  1  0.186685  0.811309  0.186685  1
  Y  Y14  1  0.816234  0.816234  0.185283  1
  Y  Y15  1  0.186685  0.186685  0.811309  1
  Cd  Cd16  1  0.831608  0.831608  0.831608  1
  Cd  Cd17  1  0.830593  0.830593  0.504202  1
  Cd  Cd18  1  0.830593  0.504202  0.830593  1
  Cd  Cd19  1  0.504202  0.830593  0.830593  1
  Ni  Ni20  1  0.390701  0.390701  0.826607  1
  Ni  Ni21  1  0.390701  0.826607  0.390701  1
  Ni  Ni22  1  0.826607  0.390701  0.390701  1
  Ir  Ir23  1  0.391717  0.391717  0.391717  1
