# generated using pymatgen
data_YHo2Ag3SnGe2
_symmetry_space_group_name_H-M   'P 1'
_cell_length_a   7.26387215
_cell_length_b   7.26387333
_cell_length_c   4.29512900
_cell_angle_alpha   90.00000000
_cell_angle_beta   90.00000000
_cell_angle_gamma   120.05135453
_symmetry_Int_Tables_number   1
_chemical_formula_structural   YHo2Ag3SnGe2
_chemical_formula_sum   'Y1 Ho2 Ag3 Sn1 Ge2'
_cell_volume   196.16355572
_cell_formula_units_Z   1
loop_
 _symmetry_equiv_pos_site_id
 _symmetry_equiv_pos_as_xyz
  1  'x, y, z'
loop_
 _atom_site_type_symbol
 _atom_site_label
 _atom_site_symmetry_multiplicity
 _atom_site_fract_x
 _atom_site_fract_y
 _atom_site_fract_z
 _atom_site_occupancy
  Y  Y0  1  0.430495  0.430495  0.000000  1
  Ho  Ho1  1  0.569197  0.000099  0.000000  1
  Ho  Ho2  1  0.000099  0.569197  0.000000  1
  Ag  Ag3  1  0.260391  0.999878  0.500000  1
  Ag  Ag4  1  0.999878  0.260391  0.500000  1
  Ag  Ag5  1  0.740102  0.740102  0.500000  1
  Sn  Sn6  1  0.999190  0.999190  0.000000  1
  Ge  Ge7  1  0.332858  0.667790  0.500000  1
  Ge  Ge8  1  0.667790  0.332858  0.500000  1
