# generated using pymatgen
data_Dy16CdHg3(IrRh)2
_symmetry_space_group_name_H-M   'P 1'
_cell_length_a   9.60542091
_cell_length_b   9.60821383
_cell_length_c   9.59264100
_cell_angle_alpha   60.05360404
_cell_angle_beta   60.04400591
_cell_angle_gamma   60.12320178
_symmetry_Int_Tables_number   1
_chemical_formula_structural   Dy16CdHg3(IrRh)2
_chemical_formula_sum   'Dy16 Cd1 Hg3 Ir2 Rh2'
_cell_volume   627.05489660
_cell_formula_units_Z   1
loop_
 _symmetry_equiv_pos_site_id
 _symmetry_equiv_pos_as_xyz
  1  'x, y, z'
loop_
 _atom_site_type_symbol
 _atom_site_label
 _atom_site_symmetry_multiplicity
 _atom_site_fract_x
 _atom_site_fract_y
 _atom_site_fract_z
 _atom_site_occupancy
  Dy  Dy0  1  0.600647  0.600115  0.598822  1
  Dy  Dy1  1  0.600647  0.600115  0.200418  1
  Dy  Dy2  1  0.602024  0.198471  0.599753  1
  Dy  Dy3  1  0.195575  0.602591  0.600916  1
  Dy  Dy4  1  0.059123  0.439758  0.440531  1
  Dy  Dy5  1  0.438544  0.060030  0.061288  1
  Dy  Dy6  1  0.438544  0.060030  0.440138  1
  Dy  Dy7  1  0.059123  0.439758  0.060587  1
  Dy  Dy8  1  0.439009  0.439723  0.060634  1
  Dy  Dy9  1  0.059482  0.059773  0.440372  1
  Dy  Dy10  1  0.187054  0.813228  0.812229  1
  Dy  Dy11  1  0.812668  0.187950  0.187023  1
  Dy  Dy12  1  0.812668  0.187950  0.812360  1
  Dy  Dy13  1  0.187054  0.813228  0.187491  1
  Dy  Dy14  1  0.811479  0.812175  0.188174  1
  Dy  Dy15  1  0.186007  0.187499  0.813247  1
  Cd  Cd16  1  0.509027  0.830260  0.830356  1
  Hg  Hg17  1  0.833789  0.835542  0.835247  1
  Hg  Hg18  1  0.833789  0.835542  0.495422  1
  Hg  Hg19  1  0.834046  0.494524  0.835715  1
  Ir  Ir20  1  0.392275  0.823609  0.392058  1
  Ir  Ir21  1  0.823679  0.392726  0.391798  1
  Rh  Rh22  1  0.391874  0.392702  0.391590  1
  Rh  Rh23  1  0.391874  0.392702  0.823834  1
