# generated using pymatgen
data_Ho7Th(Sc3Pt4)4
_symmetry_space_group_name_H-M   'P 1'
_cell_length_a   7.28543394
_cell_length_b   7.30744470
_cell_length_c   14.12744620
_cell_angle_alpha   90.03222016
_cell_angle_beta   90.19541443
_cell_angle_gamma   90.03792365
_symmetry_Int_Tables_number   1
_chemical_formula_structural   Ho7Th(Sc3Pt4)4
_chemical_formula_sum   'Ho7 Th1 Sc12 Pt16'
_cell_volume   752.11098789
_cell_formula_units_Z   1
loop_
 _symmetry_equiv_pos_site_id
 _symmetry_equiv_pos_as_xyz
  1  'x, y, z'
loop_
 _atom_site_type_symbol
 _atom_site_label
 _atom_site_symmetry_multiplicity
 _atom_site_fract_x
 _atom_site_fract_y
 _atom_site_fract_z
 _atom_site_occupancy
  Ho  Ho0  1  0.997616  0.823628  0.908484  1
  Ho  Ho1  1  0.502507  0.324000  0.092852  1
  Ho  Ho2  1  0.003649  0.176454  0.405777  1
  Ho  Ho3  1  0.505517  0.321843  0.403395  1
  Ho  Ho4  1  0.001801  0.176619  0.092398  1
  Ho  Ho5  1  0.497785  0.675856  0.907139  1
  Ho  Ho6  1  0.997357  0.826278  0.594609  1
  Th  Th7  1  0.494832  0.676132  0.592958  1
  Sc  Sc8  1  0.655878  0.166888  0.624022  1
  Sc  Sc9  1  0.156778  0.335484  0.877258  1
  Sc  Sc10  1  0.343698  0.834524  0.123738  1
  Sc  Sc11  1  0.848366  0.664886  0.374965  1
  Sc  Sc12  1  0.339697  0.836549  0.372609  1
  Sc  Sc13  1  0.841955  0.664579  0.124356  1
  Sc  Sc14  1  0.657469  0.164136  0.876853  1
  Sc  Sc15  1  0.151013  0.331221  0.625391  1
  Sc  Sc16  1  0.824839  0.498999  0.753207  1
  Sc  Sc17  1  0.321280  0.001694  0.752572  1
  Sc  Sc18  1  0.178433  0.500255  0.248156  1
  Sc  Sc19  1  0.677204  0.998632  0.249721  1
  Pt  Pt20  1  0.681275  0.956165  0.458012  1
  Pt  Pt21  1  0.179359  0.543509  0.041478  1
  Pt  Pt22  1  0.318315  0.043867  0.959043  1
  Pt  Pt23  1  0.820571  0.457032  0.539509  1
  Pt  Pt24  1  0.319830  0.045300  0.539741  1
  Pt  Pt25  1  0.818012  0.456581  0.959242  1
  Pt  Pt26  1  0.679357  0.957033  0.041422  1
  Pt  Pt27  1  0.186373  0.540891  0.459438  1
  Pt  Pt28  1  0.456536  0.377252  0.750993  1
  Pt  Pt29  1  0.956328  0.121224  0.751495  1
  Pt  Pt30  1  0.542996  0.621000  0.250294  1
  Pt  Pt31  1  0.041854  0.880226  0.248626  1
  Pt  Pt32  1  0.687868  0.852957  0.750398  1
  Pt  Pt33  1  0.186897  0.648050  0.751931  1
  Pt  Pt34  1  0.312777  0.147275  0.248306  1
  Pt  Pt35  1  0.813980  0.352980  0.249611  1
