# generated using pymatgen
data_Eu4ErSc7Se16
_symmetry_space_group_name_H-M   'P 1'
_cell_length_a   3.99810100
_cell_length_b   12.34060940
_cell_length_c   14.44211100
_cell_angle_alpha   90.17626199
_cell_angle_beta   90.00000000
_cell_angle_gamma   90.00000000
_symmetry_Int_Tables_number   1
_chemical_formula_structural   Eu4ErSc7Se16
_chemical_formula_sum   'Eu4 Er1 Sc7 Se16'
_cell_volume   712.55598274
_cell_formula_units_Z   1
loop_
 _symmetry_equiv_pos_site_id
 _symmetry_equiv_pos_as_xyz
  1  'x, y, z'
loop_
 _atom_site_type_symbol
 _atom_site_label
 _atom_site_symmetry_multiplicity
 _atom_site_fract_x
 _atom_site_fract_y
 _atom_site_fract_z
 _atom_site_occupancy
  Eu  Eu0  1  0.250000  0.761747  0.330014  1
  Eu  Eu1  1  0.250000  0.261334  0.165733  1
  Eu  Eu2  1  0.750000  0.242149  0.673095  1
  Eu  Eu3  1  0.750000  0.738216  0.831630  1
  Er  Er4  1  0.750000  0.083792  0.404657  1
  Sc  Sc5  1  0.250000  0.445273  0.388281  1
  Sc  Sc6  1  0.250000  0.940130  0.107526  1
  Sc  Sc7  1  0.750000  0.557896  0.610308  1
  Sc  Sc8  1  0.750000  0.057153  0.888902  1
  Sc  Sc9  1  0.250000  0.419392  0.902995  1
  Sc  Sc10  1  0.250000  0.915718  0.599572  1
  Sc  Sc11  1  0.750000  0.581534  0.096432  1
  Se  Se12  1  0.250000  0.203813  0.838866  1
  Se  Se13  1  0.250000  0.702379  0.664575  1
  Se  Se14  1  0.750000  0.795408  0.161144  1
  Se  Se15  1  0.750000  0.301888  0.332962  1
  Se  Se16  1  0.250000  0.126251  0.539714  1
  Se  Se17  1  0.250000  0.625146  0.969459  1
  Se  Se18  1  0.750000  0.869599  0.473427  1
  Se  Se19  1  0.750000  0.375101  0.029600  1
  Se  Se20  1  0.250000  0.025645  0.280112  1
  Se  Se21  1  0.250000  0.531254  0.214222  1
  Se  Se22  1  0.750000  0.968203  0.716643  1
  Se  Se23  1  0.750000  0.470638  0.784819  1
  Se  Se24  1  0.250000  0.410998  0.574126  1
  Se  Se25  1  0.250000  0.909123  0.923006  1
  Se  Se26  1  0.750000  0.591288  0.424430  1
  Se  Se27  1  0.750000  0.088932  0.073752  1
