# generated using pymatgen
data_LiDy3Y2TiP12Ir17
_symmetry_space_group_name_H-M   'P 1'
_cell_length_a   12.66666700
_cell_length_b   12.76829347
_cell_length_c   3.96272300
_cell_angle_alpha   90.00000000
_cell_angle_beta   90.00000000
_cell_angle_gamma   119.73705902
_symmetry_Int_Tables_number   1
_chemical_formula_structural   LiDy3Y2TiP12Ir17
_chemical_formula_sum   'Li1 Dy3 Y2 Ti1 P12 Ir17'
_cell_volume   556.49871049
_cell_formula_units_Z   1
loop_
 _symmetry_equiv_pos_site_id
 _symmetry_equiv_pos_as_xyz
  1  'x, y, z'
loop_
 _atom_site_type_symbol
 _atom_site_label
 _atom_site_symmetry_multiplicity
 _atom_site_fract_x
 _atom_site_fract_y
 _atom_site_fract_z
 _atom_site_occupancy
  Li  Li0  1  0.555519  0.557269  0.500000  1
  Dy  Dy1  1  0.330647  0.661642  0.500000  1
  Dy  Dy2  1  0.671106  0.338636  0.500000  1
  Dy  Dy3  1  0.812409  0.003253  0.000000  1
  Y  Y4  1  0.002112  0.812196  0.000000  1
  Y  Y5  1  0.189751  0.190271  0.000000  1
  Ti  Ti6  1  0.999513  0.443652  0.500000  1
  P  P7  1  0.999603  0.636502  0.500000  1
  P  P8  1  0.367277  0.365406  0.500000  1
  P  P9  1  0.641318  0.998383  0.500000  1
  P  P10  1  0.513591  0.684361  0.000000  1
  P  P11  1  0.308688  0.823926  0.000000  1
  P  P12  1  0.163983  0.479191  0.000000  1
  P  P13  1  0.484702  0.177680  0.000000  1
  P  P14  1  0.685027  0.519366  0.000000  1
  P  P15  1  0.832010  0.317432  0.000000  1
  P  P16  1  0.998971  0.173845  0.500000  1
  P  P17  1  0.819988  0.821240  0.500000  1
  P  P18  1  0.179814  0.999137  0.500000  1
  Ir  Ir19  1  0.505636  0.867462  0.000000  1
  Ir  Ir20  1  0.127966  0.638765  0.000000  1
  Ir  Ir21  1  0.354277  0.491941  0.000000  1
  Ir  Ir22  1  0.486871  0.361299  0.000000  1
  Ir  Ir23  1  0.867205  0.510408  0.000000  1
  Ir  Ir24  1  0.640129  0.136999  0.000000  1
  Ir  Ir25  1  0.462336  0.001462  0.500000  1
  Ir  Ir26  1  0.995810  0.280092  0.000000  1
  Ir  Ir27  1  0.718038  0.721731  0.000000  1
  Ir  Ir28  1  0.287337  0.999394  0.000000  1
  Ir  Ir29  1  0.620982  0.805321  0.500000  1
  Ir  Ir30  1  0.199823  0.821691  0.500000  1
  Ir  Ir31  1  0.176637  0.366565  0.500000  1
  Ir  Ir32  1  0.379315  0.176471  0.500000  1
  Ir  Ir33  1  0.805782  0.628399  0.500000  1
  Ir  Ir34  1  0.816278  0.192584  0.500000  1
  Ir  Ir35  1  0.999546  0.996028  0.500000  1
