# generated using pymatgen
data_Hf16Co2Ni2Os3Rh
_symmetry_space_group_name_H-M   'P 1'
_cell_length_a   8.59754757
_cell_length_b   8.59754710
_cell_length_c   8.59287988
_cell_angle_alpha   60.02074464
_cell_angle_beta   60.02074522
_cell_angle_gamma   60.05585865
_symmetry_Int_Tables_number   1
_chemical_formula_structural   Hf16Co2Ni2Os3Rh
_chemical_formula_sum   'Hf16 Co2 Ni2 Os3 Rh1'
_cell_volume   449.46110744
_cell_formula_units_Z   1
loop_
 _symmetry_equiv_pos_site_id
 _symmetry_equiv_pos_as_xyz
  1  'x, y, z'
loop_
 _atom_site_type_symbol
 _atom_site_label
 _atom_site_symmetry_multiplicity
 _atom_site_fract_x
 _atom_site_fract_y
 _atom_site_fract_z
 _atom_site_occupancy
  Hf  Hf0  1  0.682123  0.107434  0.104948  1
  Hf  Hf1  1  0.107434  0.682123  0.104948  1
  Hf  Hf2  1  0.104649  0.104649  0.688017  1
  Hf  Hf3  1  0.103327  0.103327  0.100759  1
  Hf  Hf4  1  0.314914  0.314914  0.688627  1
  Hf  Hf5  1  0.686212  0.686212  0.314265  1
  Hf  Hf6  1  0.315396  0.689613  0.314130  1
  Hf  Hf7  1  0.685696  0.314926  0.685951  1
  Hf  Hf8  1  0.689613  0.315396  0.314130  1
  Hf  Hf9  1  0.314926  0.685696  0.685951  1
  Hf  Hf10  1  0.953667  0.953667  0.546415  1
  Hf  Hf11  1  0.553446  0.553446  0.945241  1
  Hf  Hf12  1  0.951320  0.546544  0.949920  1
  Hf  Hf13  1  0.547812  0.948454  0.553612  1
  Hf  Hf14  1  0.546544  0.951320  0.949920  1
  Hf  Hf15  1  0.948454  0.547812  0.553612  1
  Co  Co16  1  0.324064  0.890447  0.891514  1
  Co  Co17  1  0.890447  0.324064  0.891514  1
  Ni  Ni18  1  0.890389  0.890389  0.324339  1
  Ni  Ni19  1  0.891740  0.891740  0.893782  1
  Os  Os20  1  0.998543  0.332611  0.333087  1
  Os  Os21  1  0.332611  0.998543  0.333087  1
  Os  Os22  1  0.332932  0.332932  0.998280  1
  Rh  Rh23  1  0.333738  0.333738  0.333947  1
