# generated using pymatgen
data_Mn4TlS8
_symmetry_space_group_name_H-M   'P 1'
_cell_length_a   8.76934562
_cell_length_b   8.76934481
_cell_length_c   8.76934600
_cell_angle_alpha   44.95111059
_cell_angle_beta   44.95110671
_cell_angle_gamma   44.95110108
_symmetry_Int_Tables_number   1
_chemical_formula_structural   Mn4TlS8
_chemical_formula_sum   'Mn4 Tl1 S8'
_cell_volume   306.34578176
_cell_formula_units_Z   1
loop_
 _symmetry_equiv_pos_site_id
 _symmetry_equiv_pos_as_xyz
  1  'x, y, z'
loop_
 _atom_site_type_symbol
 _atom_site_label
 _atom_site_symmetry_multiplicity
 _atom_site_fract_x
 _atom_site_fract_y
 _atom_site_fract_z
 _atom_site_occupancy
  Mn  Mn0  1  0.000000  0.500000  0.500000  1
  Mn  Mn1  1  0.500000  0.000000  0.500000  1
  Mn  Mn2  1  0.500000  0.500000  0.000000  1
  Mn  Mn3  1  0.000000  0.000000  0.000000  1
  Tl  Tl4  1  0.500000  0.500000  0.500000  1
  S  S5  1  0.277224  0.777918  0.777918  1
  S  S6  1  0.222082  0.222082  0.722776  1
  S  S7  1  0.722776  0.222082  0.222082  1
  S  S8  1  0.222082  0.722776  0.222082  1
  S  S9  1  0.277507  0.277507  0.277507  1
  S  S10  1  0.722493  0.722493  0.722493  1
  S  S11  1  0.777918  0.277224  0.777918  1
  S  S12  1  0.777918  0.777918  0.277224  1
