# generated using pymatgen
data_YSn6(RuRh)2
_symmetry_space_group_name_H-M   'P 1'
_cell_length_a   6.95900998
_cell_length_b   6.94417553
_cell_length_c   6.95901017
_cell_angle_alpha   120.10500802
_cell_angle_beta   120.08040587
_cell_angle_gamma   89.90055873
_symmetry_Int_Tables_number   1
_chemical_formula_structural   YSn6(RuRh)2
_chemical_formula_sum   'Y1 Sn6 Ru2 Rh2'
_cell_volume   237.33314563
_cell_formula_units_Z   1
loop_
 _symmetry_equiv_pos_site_id
 _symmetry_equiv_pos_as_xyz
  1  'x, y, z'
loop_
 _atom_site_type_symbol
 _atom_site_label
 _atom_site_symmetry_multiplicity
 _atom_site_fract_x
 _atom_site_fract_y
 _atom_site_fract_z
 _atom_site_occupancy
  Y  Y0  1  0.990720  0.000000  0.990720  1
  Sn  Sn1  1  0.876702  0.535232  0.003806  1
  Sn  Sn2  1  0.538627  0.878842  0.006635  1
  Sn  Sn3  1  0.127793  0.121158  0.659785  1
  Sn  Sn4  1  0.999671  0.500000  0.499671  1
  Sn  Sn5  1  0.468574  0.464768  0.341470  1
  Sn  Sn6  1  0.502675  0.000000  0.502675  1
  Ru  Ru7  1  0.602436  0.243844  0.999020  1
  Ru  Ru8  1  0.755176  0.756156  0.358592  1
  Rh  Rh9  1  0.242092  0.603307  0.998840  1
  Rh  Rh10  1  0.395533  0.396693  0.638785  1
