# generated using pymatgen
data_La3Mn2Zn7Rh6
_symmetry_space_group_name_H-M   'P 1'
_cell_length_a   9.46030558
_cell_length_b   9.46030572
_cell_length_c   4.18473400
_cell_angle_alpha   90.00000000
_cell_angle_beta   90.00000000
_cell_angle_gamma   120.15772539
_symmetry_Int_Tables_number   1
_chemical_formula_structural   La3Mn2Zn7Rh6
_chemical_formula_sum   'La3 Mn2 Zn7 Rh6'
_cell_volume   323.82948169
_cell_formula_units_Z   1
loop_
 _symmetry_equiv_pos_site_id
 _symmetry_equiv_pos_as_xyz
  1  'x, y, z'
loop_
 _atom_site_type_symbol
 _atom_site_label
 _atom_site_symmetry_multiplicity
 _atom_site_fract_x
 _atom_site_fract_y
 _atom_site_fract_z
 _atom_site_occupancy
  La  La0  1  0.667632  0.332368  0.500000  1
  La  La1  1  0.332368  0.667632  0.500000  1
  La  La2  1  0.000000  0.000000  0.000000  1
  Mn  Mn3  1  0.000000  0.500000  0.000000  1
  Mn  Mn4  1  0.500000  0.000000  0.000000  1
  Zn  Zn5  1  0.500000  0.500000  0.000000  1
  Zn  Zn6  1  0.697561  0.000199  0.500000  1
  Zn  Zn7  1  0.706718  0.706718  0.500000  1
  Zn  Zn8  1  0.999801  0.302439  0.500000  1
  Zn  Zn9  1  0.000199  0.697561  0.500000  1
  Zn  Zn10  1  0.302439  0.999801  0.500000  1
  Zn  Zn11  1  0.293282  0.293282  0.500000  1
  Rh  Rh12  1  0.816198  0.183802  0.000000  1
  Rh  Rh13  1  0.183802  0.816198  0.000000  1
  Rh  Rh14  1  0.631450  0.814785  0.000000  1
  Rh  Rh15  1  0.368550  0.185215  0.000000  1
  Rh  Rh16  1  0.185215  0.368550  0.000000  1
  Rh  Rh17  1  0.814785  0.631450  0.000000  1
