# generated using pymatgen
data_Zr12ZnTe16
_symmetry_space_group_name_H-M   'P 1'
_cell_length_a   7.93303458
_cell_length_b   11.16584471
_cell_length_c   11.82893863
_cell_angle_alpha   118.10468764
_cell_angle_beta   109.53661048
_cell_angle_gamma   90.03875922
_symmetry_Int_Tables_number   1
_chemical_formula_structural   Zr12ZnTe16
_chemical_formula_sum   'Zr12 Zn1 Te16'
_cell_volume   855.11753457
_cell_formula_units_Z   1
loop_
 _symmetry_equiv_pos_site_id
 _symmetry_equiv_pos_as_xyz
  1  'x, y, z'
loop_
 _atom_site_type_symbol
 _atom_site_label
 _atom_site_symmetry_multiplicity
 _atom_site_fract_x
 _atom_site_fract_y
 _atom_site_fract_z
 _atom_site_occupancy
  Zr  Zr0  1  0.120894  0.126624  0.490925  1
  Zr  Zr1  1  0.620398  0.126597  0.491558  1
  Zr  Zr2  1  0.311138  0.365074  0.873634  1
  Zr  Zr3  1  0.811472  0.365017  0.873666  1
  Zr  Zr4  1  0.191998  0.508711  0.634299  1
  Zr  Zr5  1  0.692864  0.509159  0.634932  1
  Zr  Zr6  1  0.379602  0.873403  0.508442  1
  Zr  Zr7  1  0.879106  0.873376  0.509075  1
  Zr  Zr8  1  0.188528  0.634983  0.126334  1
  Zr  Zr9  1  0.688862  0.634926  0.126366  1
  Zr  Zr10  1  0.307136  0.490841  0.365068  1
  Zr  Zr11  1  0.808002  0.491289  0.365701  1
  Zn  Zn12  1  0.500000  0.000000  0.000000  1
  Te  Te13  1  0.729572  0.055035  0.709839  1
  Te  Te14  1  0.229962  0.054922  0.709731  1
  Te  Te15  1  0.847575  0.654977  0.944989  1
  Te  Te16  1  0.347819  0.655534  0.945068  1
  Te  Te17  1  0.547361  0.289468  0.344246  1
  Te  Te18  1  0.047087  0.289453  0.344227  1
  Te  Te19  1  0.770038  0.945078  0.290269  1
  Te  Te20  1  0.270428  0.944965  0.290161  1
  Te  Te21  1  0.652181  0.344466  0.054932  1
  Te  Te22  1  0.152425  0.345023  0.055011  1
  Te  Te23  1  0.952913  0.710547  0.655773  1
  Te  Te24  1  0.452639  0.710532  0.655754  1
  Te  Te25  1  0.958296  0.333148  0.666524  1
  Te  Te26  1  0.458423  0.333765  0.666938  1
  Te  Te27  1  0.541577  0.666235  0.333062  1
  Te  Te28  1  0.041704  0.666852  0.333476  1
