# generated using pymatgen
data_Y2Ho3Sn3Bi
_symmetry_space_group_name_H-M   'P 1'
_cell_length_a   8.15817300
_cell_length_b   8.18090600
_cell_length_c   15.44374700
_cell_angle_alpha   90.00000000
_cell_angle_beta   90.00000000
_cell_angle_gamma   90.00000000
_symmetry_Int_Tables_number   1
_chemical_formula_structural   Y2Ho3Sn3Bi
_chemical_formula_sum   'Y8 Ho12 Sn12 Bi4'
_cell_volume   1030.73492456
_cell_formula_units_Z   4
loop_
 _symmetry_equiv_pos_site_id
 _symmetry_equiv_pos_as_xyz
  1  'x, y, z'
loop_
 _atom_site_type_symbol
 _atom_site_label
 _atom_site_symmetry_multiplicity
 _atom_site_fract_x
 _atom_site_fract_y
 _atom_site_fract_z
 _atom_site_occupancy
  Y  Y0  1  0.543770  0.326227  0.895456  1
  Y  Y1  1  0.043770  0.173773  0.604544  1
  Y  Y2  1  0.456230  0.673773  0.395456  1
  Y  Y3  1  0.956230  0.826227  0.104544  1
  Y  Y4  1  0.474170  0.673673  0.102589  1
  Y  Y5  1  0.974170  0.826327  0.397411  1
  Y  Y6  1  0.525830  0.326327  0.602589  1
  Y  Y7  1  0.025830  0.173673  0.897411  1
  Ho  Ho8  1  0.377694  0.839587  0.875275  1
  Ho  Ho9  1  0.877694  0.660413  0.624725  1
  Ho  Ho10  1  0.622306  0.160413  0.375275  1
  Ho  Ho11  1  0.122306  0.339587  0.124725  1
  Ho  Ho12  1  0.631401  0.162244  0.123000  1
  Ho  Ho13  1  0.131401  0.337756  0.377000  1
  Ho  Ho14  1  0.368599  0.837756  0.623000  1
  Ho  Ho15  1  0.868599  0.662244  0.877000  1
  Ho  Ho16  1  0.203159  0.501148  0.747070  1
  Ho  Ho17  1  0.703159  0.998852  0.752930  1
  Ho  Ho18  1  0.796841  0.498852  0.247070  1
  Ho  Ho19  1  0.296841  0.001148  0.252930  1
  Sn  Sn20  1  0.714291  0.966944  0.957115  1
  Sn  Sn21  1  0.214291  0.533056  0.542885  1
  Sn  Sn22  1  0.285709  0.033056  0.457115  1
  Sn  Sn23  1  0.785709  0.466944  0.042885  1
  Sn  Sn24  1  0.568587  0.623453  0.748374  1
  Sn  Sn25  1  0.068587  0.876547  0.751626  1
  Sn  Sn26  1  0.431413  0.376547  0.248374  1
  Sn  Sn27  1  0.931413  0.123453  0.251626  1
  Sn  Sn28  1  0.340500  0.147467  0.751165  1
  Sn  Sn29  1  0.840500  0.352533  0.748835  1
  Sn  Sn30  1  0.659500  0.852533  0.251165  1
  Sn  Sn31  1  0.159500  0.647467  0.248835  1
  Bi  Bi32  1  0.282118  0.030165  0.043133  1
  Bi  Bi33  1  0.782118  0.469835  0.456867  1
  Bi  Bi34  1  0.717882  0.969835  0.543133  1
  Bi  Bi35  1  0.217882  0.530165  0.956867  1
