# generated using pymatgen
data_Sr3CaTaNbO9
_symmetry_space_group_name_H-M   'P 1'
_cell_length_a   5.91502817
_cell_length_b   5.91879150
_cell_length_c   15.05062277
_cell_angle_alpha   89.90398231
_cell_angle_beta   90.06902468
_cell_angle_gamma   120.03102638
_symmetry_Int_Tables_number   1
_chemical_formula_structural   Sr3CaTaNbO9
_chemical_formula_sum   'Sr6 Ca2 Ta2 Nb2 O18'
_cell_volume   456.18231936
_cell_formula_units_Z   2
loop_
 _symmetry_equiv_pos_site_id
 _symmetry_equiv_pos_as_xyz
  1  'x, y, z'
loop_
 _atom_site_type_symbol
 _atom_site_label
 _atom_site_symmetry_multiplicity
 _atom_site_fract_x
 _atom_site_fract_y
 _atom_site_fract_z
 _atom_site_occupancy
  Sr  Sr0  1  0.333622  0.661492  0.138380  1
  Sr  Sr1  1  0.666378  0.338508  0.861620  1
  Sr  Sr2  1  0.999953  0.998174  0.254508  1
  Sr  Sr3  1  0.000047  0.001826  0.745492  1
  Sr  Sr4  1  0.664831  0.328710  0.615950  1
  Sr  Sr5  1  0.335169  0.671290  0.384050  1
  Ca  Ca6  1  0.000000  0.000000  0.000000  1
  Ca  Ca7  1  0.000000  0.000000  0.500000  1
  Ta  Ta8  1  0.669438  0.335661  0.350177  1
  Ta  Ta9  1  0.330562  0.664339  0.649823  1
  Nb  Nb10  1  0.334791  0.672490  0.849472  1
  Nb  Nb11  1  0.665209  0.327510  0.150528  1
  O  O12  1  0.647392  0.905612  0.590687  1
  O  O13  1  0.352608  0.094388  0.409313  1
  O  O14  1  0.086474  0.733321  0.589931  1
  O  O15  1  0.913526  0.266679  0.410069  1
  O  O16  1  0.257646  0.343103  0.594829  1
  O  O17  1  0.742354  0.656897  0.405171  1
  O  O18  1  0.964291  0.551114  0.253318  1
  O  O19  1  0.035709  0.448886  0.746682  1
  O  O20  1  0.448497  0.407168  0.251857  1
  O  O21  1  0.551503  0.592832  0.748143  1
  O  O22  1  0.588587  0.033816  0.255483  1
  O  O23  1  0.411413  0.966184  0.744517  1
  O  O24  1  0.345229  0.075316  0.096970  1
  O  O25  1  0.654771  0.924684  0.903030  1
  O  O26  1  0.917689  0.251918  0.100951  1
  O  O27  1  0.082311  0.748082  0.899049  1
  O  O28  1  0.736863  0.645370  0.094514  1
  O  O29  1  0.263137  0.354630  0.905486  1
