# generated using pymatgen
data_Tb5Sm3(PI6)2
_symmetry_space_group_name_H-M   'P 1'
_cell_length_a   4.24193400
_cell_length_b   13.99051054
_cell_length_c   14.77836169
_cell_angle_alpha   89.93089434
_cell_angle_beta   90.00000000
_cell_angle_gamma   90.00000000
_symmetry_Int_Tables_number   1
_chemical_formula_structural   Tb5Sm3(PI6)2
_chemical_formula_sum   'Tb5 Sm3 P2 I12'
_cell_volume   877.04816781
_cell_formula_units_Z   1
loop_
 _symmetry_equiv_pos_site_id
 _symmetry_equiv_pos_as_xyz
  1  'x, y, z'
loop_
 _atom_site_type_symbol
 _atom_site_label
 _atom_site_symmetry_multiplicity
 _atom_site_fract_x
 _atom_site_fract_y
 _atom_site_fract_z
 _atom_site_occupancy
  Tb  Tb0  1  0.500000  0.113108  0.350527  1
  Tb  Tb1  1  0.500000  0.886901  0.649543  1
  Tb  Tb2  1  0.500000  0.612879  0.149354  1
  Tb  Tb3  1  0.500000  0.387019  0.850642  1
  Tb  Tb4  1  0.000000  0.392476  0.072195  1
  Sm  Sm5  1  0.000000  0.108394  0.572825  1
  Sm  Sm6  1  0.000000  0.891628  0.427128  1
  Sm  Sm7  1  0.000000  0.607400  0.927795  1
  P  P8  1  0.500000  0.000010  0.499967  1
  P  P9  1  0.500000  0.497946  0.001339  1
  I  I10  1  0.500000  0.247890  0.161316  1
  I  I11  1  0.500000  0.754949  0.837175  1
  I  I12  1  0.500000  0.744188  0.336591  1
  I  I13  1  0.500000  0.255580  0.663540  1
  I  I14  1  0.000000  0.259437  0.413047  1
  I  I15  1  0.000000  0.740630  0.586807  1
  I  I16  1  0.000000  0.759180  0.086570  1
  I  I17  1  0.000000  0.241877  0.915504  1
  I  I18  1  0.000000  0.002420  0.239497  1
  I  I19  1  0.000000  0.997932  0.760416  1
  I  I20  1  0.000000  0.500096  0.258350  1
  I  I21  1  0.000000  0.498061  0.739872  1
