# generated using pymatgen
data_Nd3Sc7Si20Ir3Pt5
_symmetry_space_group_name_H-M   'P 1'
_cell_length_a   12.50893655
_cell_length_b   12.53367790
_cell_length_c   4.21105200
_cell_angle_alpha   90.00000000
_cell_angle_beta   90.00000000
_cell_angle_gamma   90.14566026
_symmetry_Int_Tables_number   1
_chemical_formula_structural   Nd3Sc7Si20Ir3Pt5
_chemical_formula_sum   'Nd3 Sc7 Si20 Ir3 Pt5'
_cell_volume   660.21915429
_cell_formula_units_Z   1
loop_
 _symmetry_equiv_pos_site_id
 _symmetry_equiv_pos_as_xyz
  1  'x, y, z'
loop_
 _atom_site_type_symbol
 _atom_site_label
 _atom_site_symmetry_multiplicity
 _atom_site_fract_x
 _atom_site_fract_y
 _atom_site_fract_z
 _atom_site_occupancy
  Nd  Nd0  1  0.114605  0.613844  0.500000  1
  Nd  Nd1  1  0.885937  0.385784  0.500000  1
  Nd  Nd2  1  0.612618  0.886580  0.500000  1
  Sc  Sc3  1  0.386795  0.113446  0.500000  1
  Sc  Sc4  1  0.673972  0.175252  0.500000  1
  Sc  Sc5  1  0.325508  0.825698  0.500000  1
  Sc  Sc6  1  0.177913  0.324133  0.500000  1
  Sc  Sc7  1  0.823510  0.674500  0.500000  1
  Sc  Sc8  1  0.001082  0.999642  0.000000  1
  Sc  Sc9  1  0.499358  0.503038  0.000000  1
  Si  Si10  1  0.564091  0.067159  0.000000  1
  Si  Si11  1  0.432334  0.932494  0.000000  1
  Si  Si12  1  0.070121  0.432918  0.000000  1
  Si  Si13  1  0.930078  0.566448  0.000000  1
  Si  Si14  1  0.206655  0.165674  0.000000  1
  Si  Si15  1  0.795329  0.832779  0.000000  1
  Si  Si16  1  0.168041  0.796944  0.000000  1
  Si  Si17  1  0.700089  0.336884  0.000000  1
  Si  Si18  1  0.833138  0.203555  0.000000  1
  Si  Si19  1  0.301028  0.662338  0.000000  1
  Si  Si20  1  0.661303  0.698898  0.000000  1
  Si  Si21  1  0.336116  0.299027  0.000000  1
  Si  Si22  1  0.010241  0.147256  0.500000  1
  Si  Si23  1  0.992115  0.852620  0.500000  1
  Si  Si24  1  0.150082  0.993840  0.500000  1
  Si  Si25  1  0.505684  0.349766  0.500000  1
  Si  Si26  1  0.852419  0.009435  0.500000  1
  Si  Si27  1  0.490033  0.652152  0.500000  1
  Si  Si28  1  0.649849  0.508453  0.500000  1
  Si  Si29  1  0.349452  0.490867  0.500000  1
  Ir  Ir30  1  0.475327  0.742273  0.000000  1
  Ir  Ir31  1  0.739550  0.523184  0.000000  1
  Ir  Ir32  1  0.260353  0.474861  0.000000  1
  Pt  Pt33  1  0.024568  0.239147  0.000000  1
  Pt  Pt34  1  0.976936  0.760476  0.000000  1
  Pt  Pt35  1  0.243309  0.979334  0.000000  1
  Pt  Pt36  1  0.521150  0.255665  0.000000  1
  Pt  Pt37  1  0.759309  0.023642  0.000000  1
