# generated using pymatgen
data_SrLaLu2(NiP)4
_symmetry_space_group_name_H-M   'P 1'
_cell_length_a   3.91115600
_cell_length_b   3.91115647
_cell_length_c   16.19200000
_cell_angle_alpha   90.00000000
_cell_angle_beta   90.00000000
_cell_angle_gamma   119.99999600
_symmetry_Int_Tables_number   1
_chemical_formula_structural   SrLaLu2(NiP)4
_chemical_formula_sum   'Sr1 La1 Lu2 Ni4 P4'
_cell_volume   214.50700238
_cell_formula_units_Z   1
loop_
 _symmetry_equiv_pos_site_id
 _symmetry_equiv_pos_as_xyz
  1  'x, y, z'
loop_
 _atom_site_type_symbol
 _atom_site_label
 _atom_site_symmetry_multiplicity
 _atom_site_fract_x
 _atom_site_fract_y
 _atom_site_fract_z
 _atom_site_occupancy
  Sr  Sr0  1  0.000000  0.000000  0.000000  1
  La  La1  1  0.000000  0.000000  0.500000  1
  Lu  Lu2  1  0.000000  0.000000  0.251452  1
  Lu  Lu3  1  0.000000  0.000000  0.748548  1
  Ni  Ni4  1  0.333333  0.666667  0.364796  1
  Ni  Ni5  1  0.666667  0.333333  0.635204  1
  Ni  Ni6  1  0.666667  0.333333  0.855210  1
  Ni  Ni7  1  0.333333  0.666667  0.144790  1
  P  P8  1  0.333333  0.666667  0.863542  1
  P  P9  1  0.666667  0.333333  0.136458  1
  P  P10  1  0.666667  0.333333  0.371066  1
  P  P11  1  0.333333  0.666667  0.628934  1
