# generated using pymatgen
data_Yb3Er(B4Ru5)2
_symmetry_space_group_name_H-M   'P 1'
_cell_length_a   3.01078000
_cell_length_b   8.70094220
_cell_length_c   10.19653917
_cell_angle_alpha   89.95429251
_cell_angle_beta   90.00000000
_cell_angle_gamma   90.00000000
_symmetry_Int_Tables_number   1
_chemical_formula_structural   Yb3Er(B4Ru5)2
_chemical_formula_sum   'Yb3 Er1 B8 Ru10'
_cell_volume   267.11480507
_cell_formula_units_Z   1
loop_
 _symmetry_equiv_pos_site_id
 _symmetry_equiv_pos_as_xyz
  1  'x, y, z'
loop_
 _atom_site_type_symbol
 _atom_site_label
 _atom_site_symmetry_multiplicity
 _atom_site_fract_x
 _atom_site_fract_y
 _atom_site_fract_z
 _atom_site_occupancy
  Yb  Yb0  1  0.500000  0.841829  0.181295  1
  Yb  Yb1  1  0.500000  0.157705  0.817662  1
  Yb  Yb2  1  0.500000  0.658098  0.683154  1
  Er  Er3  1  0.500000  0.342380  0.317906  1
  B  B4  1  0.500000  0.964665  0.589932  1
  B  B5  1  0.500000  0.033598  0.411579  1
  B  B6  1  0.500000  0.853268  0.899321  1
  B  B7  1  0.500000  0.146484  0.098592  1
  B  B8  1  0.500000  0.648330  0.400094  1
  B  B9  1  0.500000  0.352923  0.602073  1
  B  B10  1  0.500000  0.466090  0.910114  1
  B  B11  1  0.500000  0.535946  0.087830  1
  Ru  Ru12  1  0.000000  0.656685  0.954634  1
  Ru  Ru13  1  0.000000  0.342928  0.046251  1
  Ru  Ru14  1  0.000000  0.842976  0.454261  1
  Ru  Ru15  1  0.000000  0.157175  0.545015  1
  Ru  Ru16  1  0.000000  0.999869  0.000000  1
  Ru  Ru17  1  0.000000  0.404536  0.760298  1
  Ru  Ru18  1  0.000000  0.596058  0.239556  1
  Ru  Ru19  1  0.000000  0.500239  0.500474  1
  Ru  Ru20  1  0.000000  0.904476  0.739986  1
  Ru  Ru21  1  0.000000  0.093742  0.259975  1
