# generated using pymatgen
data_Sc3TcSn3Pt2
_symmetry_space_group_name_H-M   'P 1'
_cell_length_a   7.67179100
_cell_length_b   7.67179084
_cell_length_c   6.87047000
_cell_angle_alpha   90.00000000
_cell_angle_beta   90.00000000
_cell_angle_gamma   119.99999639
_symmetry_Int_Tables_number   1
_chemical_formula_structural   Sc3TcSn3Pt2
_chemical_formula_sum   'Sc6 Tc2 Sn6 Pt4'
_cell_volume   350.19554095
_cell_formula_units_Z   2
loop_
 _symmetry_equiv_pos_site_id
 _symmetry_equiv_pos_as_xyz
  1  'x, y, z'
loop_
 _atom_site_type_symbol
 _atom_site_label
 _atom_site_symmetry_multiplicity
 _atom_site_fract_x
 _atom_site_fract_y
 _atom_site_fract_z
 _atom_site_occupancy
  Sc  Sc0  1  0.393163  0.008191  0.250000  1
  Sc  Sc1  1  0.615028  0.606837  0.250000  1
  Sc  Sc2  1  0.991809  0.384972  0.250000  1
  Sc  Sc3  1  0.384972  0.991809  0.750000  1
  Sc  Sc4  1  0.606837  0.615028  0.750000  1
  Sc  Sc5  1  0.008191  0.393163  0.750000  1
  Tc  Tc6  1  0.000000  0.000000  0.750000  1
  Tc  Tc7  1  0.000000  0.000000  0.250000  1
  Sn  Sn8  1  0.278731  0.278731  0.000000  1
  Sn  Sn9  1  0.000000  0.721269  0.000000  1
  Sn  Sn10  1  0.000000  0.721269  0.500000  1
  Sn  Sn11  1  0.721269  0.000000  0.500000  1
  Sn  Sn12  1  0.278731  0.278731  0.500000  1
  Sn  Sn13  1  0.721269  0.000000  0.000000  1
  Pt  Pt14  1  0.666667  0.333333  0.987067  1
  Pt  Pt15  1  0.333333  0.666667  0.487067  1
  Pt  Pt16  1  0.333333  0.666667  0.012933  1
  Pt  Pt17  1  0.666667  0.333333  0.512933  1
