# generated using pymatgen
data_Sr3LiIr2N3
_symmetry_space_group_name_H-M   'P 1'
_cell_length_a   5.50400800
_cell_length_b   9.29989100
_cell_length_c   13.45006800
_cell_angle_alpha   90.00000000
_cell_angle_beta   90.00000000
_cell_angle_gamma   90.00000000
_symmetry_Int_Tables_number   1
_chemical_formula_structural   Sr3LiIr2N3
_chemical_formula_sum   'Sr12 Li4 Ir8 N12'
_cell_volume   688.46425222
_cell_formula_units_Z   4
loop_
 _symmetry_equiv_pos_site_id
 _symmetry_equiv_pos_as_xyz
  1  'x, y, z'
loop_
 _atom_site_type_symbol
 _atom_site_label
 _atom_site_symmetry_multiplicity
 _atom_site_fract_x
 _atom_site_fract_y
 _atom_site_fract_z
 _atom_site_occupancy
  Sr  Sr0  1  0.496949  0.483301  0.745936  1
  Sr  Sr1  1  0.996949  0.016699  0.254064  1
  Sr  Sr2  1  0.003051  0.983301  0.754064  1
  Sr  Sr3  1  0.503051  0.516699  0.245936  1
  Sr  Sr4  1  0.972283  0.341000  0.408513  1
  Sr  Sr5  1  0.472283  0.159000  0.591487  1
  Sr  Sr6  1  0.527717  0.841000  0.091487  1
  Sr  Sr7  1  0.027717  0.659000  0.908513  1
  Sr  Sr8  1  0.994429  0.666352  0.580432  1
  Sr  Sr9  1  0.494429  0.833648  0.419568  1
  Sr  Sr10  1  0.505571  0.166352  0.919568  1
  Sr  Sr11  1  0.005571  0.333648  0.080432  1
  Li  Li12  1  0.519060  0.817137  0.855739  1
  Li  Li13  1  0.019060  0.682863  0.144261  1
  Li  Li14  1  0.980940  0.317137  0.644261  1
  Li  Li15  1  0.480940  0.182863  0.355739  1
  Ir  Ir16  1  0.490716  0.172878  0.166715  1
  Ir  Ir17  1  0.990716  0.327122  0.833285  1
  Ir  Ir18  1  0.009284  0.672878  0.333285  1
  Ir  Ir19  1  0.509284  0.827122  0.666715  1
  Ir  Ir20  1  0.027087  0.990974  0.005695  1
  Ir  Ir21  1  0.527087  0.509026  0.994305  1
  Ir  Ir22  1  0.472913  0.490974  0.494305  1
  Ir  Ir23  1  0.972913  0.009026  0.505695  1
  N  N24  1  0.272172  0.742597  0.751350  1
  N  N25  1  0.772172  0.757403  0.248650  1
  N  N26  1  0.227828  0.242597  0.748650  1
  N  N27  1  0.727828  0.257403  0.251350  1
  N  N28  1  0.223254  0.087008  0.426653  1
  N  N29  1  0.723254  0.412992  0.573347  1
  N  N30  1  0.276746  0.587008  0.073347  1
  N  N31  1  0.776746  0.912992  0.926653  1
  N  N32  1  0.740020  0.918656  0.585470  1
  N  N33  1  0.240020  0.581344  0.414530  1
  N  N34  1  0.759980  0.418656  0.914530  1
  N  N35  1  0.259980  0.081344  0.085470  1
