# generated using pymatgen
data_LiNd4As8Au3
_symmetry_space_group_name_H-M   'P 1'
_cell_length_a   4.04806500
_cell_length_b   4.09082404
_cell_length_c   20.97111721
_cell_angle_alpha   90.01621908
_cell_angle_beta   90.00000000
_cell_angle_gamma   90.00000000
_symmetry_Int_Tables_number   1
_chemical_formula_structural   LiNd4As8Au3
_chemical_formula_sum   'Li1 Nd4 As8 Au3'
_cell_volume   347.28004340
_cell_formula_units_Z   1
loop_
 _symmetry_equiv_pos_site_id
 _symmetry_equiv_pos_as_xyz
  1  'x, y, z'
loop_
 _atom_site_type_symbol
 _atom_site_label
 _atom_site_symmetry_multiplicity
 _atom_site_fract_x
 _atom_site_fract_y
 _atom_site_fract_z
 _atom_site_occupancy
  Li  Li0  1  0.750000  0.225768  0.249982  1
  Nd  Nd1  1  0.250000  0.228752  0.117049  1
  Nd  Nd2  1  0.750000  0.727083  0.382468  1
  Nd  Nd3  1  0.250000  0.272554  0.617609  1
  Nd  Nd4  1  0.750000  0.772411  0.882622  1
  As  As5  1  0.250000  0.708293  0.001364  1
  As  As6  1  0.750000  0.727379  0.165564  1
  As  As7  1  0.250000  0.226360  0.334313  1
  As  As8  1  0.750000  0.204600  0.498599  1
  As  As9  1  0.250000  0.794135  0.501269  1
  As  As10  1  0.750000  0.772949  0.658323  1
  As  As11  1  0.250000  0.272713  0.841699  1
  As  As12  1  0.750000  0.290468  0.998843  1
  Au  Au13  1  0.250000  0.724466  0.250209  1
  Au  Au14  1  0.750000  0.276059  0.749928  1
  Au  Au15  1  0.250000  0.776011  0.750159  1
