# generated using pymatgen
data_Tb6Dy2Sc11Si16Ru
_symmetry_space_group_name_H-M   'P 1'
_cell_length_a   7.02480409
_cell_length_b   7.37380034
_cell_length_c   13.91838123
_cell_angle_alpha   89.97939838
_cell_angle_beta   90.00401780
_cell_angle_gamma   90.05920259
_symmetry_Int_Tables_number   1
_chemical_formula_structural   Tb6Dy2Sc11Si16Ru
_chemical_formula_sum   'Tb6 Dy2 Sc11 Si16 Ru1'
_cell_volume   720.96479476
_cell_formula_units_Z   1
loop_
 _symmetry_equiv_pos_site_id
 _symmetry_equiv_pos_as_xyz
  1  'x, y, z'
loop_
 _atom_site_type_symbol
 _atom_site_label
 _atom_site_symmetry_multiplicity
 _atom_site_fract_x
 _atom_site_fract_y
 _atom_site_fract_z
 _atom_site_occupancy
  Tb  Tb0  1  0.011953  0.177509  0.093653  1
  Tb  Tb1  1  0.992768  0.818882  0.900446  1
  Tb  Tb2  1  0.488377  0.672527  0.901820  1
  Tb  Tb3  1  0.992706  0.818800  0.599293  1
  Tb  Tb4  1  0.511418  0.324102  0.095084  1
  Tb  Tb5  1  0.012070  0.177556  0.406541  1
  Dy  Dy6  1  0.511519  0.323838  0.404854  1
  Dy  Dy7  1  0.488318  0.672769  0.598262  1
  Sc  Sc8  1  0.841778  0.496370  0.250039  1
  Sc  Sc9  1  0.341845  0.002736  0.250152  1
  Sc  Sc10  1  0.658196  0.997301  0.749886  1
  Sc  Sc11  1  0.325993  0.177461  0.627197  1
  Sc  Sc12  1  0.672067  0.824503  0.374460  1
  Sc  Sc13  1  0.172401  0.673706  0.376460  1
  Sc  Sc14  1  0.672104  0.824775  0.125748  1
  Sc  Sc15  1  0.826441  0.331348  0.628031  1
  Sc  Sc16  1  0.325805  0.177302  0.872610  1
  Sc  Sc17  1  0.826638  0.331298  0.871688  1
  Sc  Sc18  1  0.172452  0.673822  0.123808  1
  Si  Si19  1  0.029352  0.119344  0.749841  1
  Si  Si20  1  0.972554  0.884217  0.250111  1
  Si  Si21  1  0.468983  0.616433  0.250204  1
  Si  Si22  1  0.516997  0.393596  0.749790  1
  Si  Si23  1  0.286624  0.867887  0.749772  1
  Si  Si24  1  0.715722  0.127901  0.250243  1
  Si  Si25  1  0.215164  0.372375  0.250270  1
  Si  Si26  1  0.793478  0.628276  0.749793  1
  Si  Si27  1  0.156572  0.465130  0.547047  1
  Si  Si28  1  0.843223  0.535934  0.463022  1
  Si  Si29  1  0.346290  0.964296  0.463002  1
  Si  Si30  1  0.844019  0.536259  0.036949  1
  Si  Si31  1  0.657404  0.034556  0.539877  1
  Si  Si32  1  0.155818  0.464773  0.953126  1
  Si  Si33  1  0.657619  0.034660  0.960104  1
  Si  Si34  1  0.346010  0.964281  0.037017  1
  Ru  Ru35  1  0.149324  0.493478  0.749796  1
