# generated using pymatgen
data_Ac12Pd2PtRh
_symmetry_space_group_name_H-M   'P 1'
_cell_length_a   7.07867300
_cell_length_b   7.82758575
_cell_length_c   10.68147900
_cell_angle_alpha   90.00000000
_cell_angle_beta   90.00000000
_cell_angle_gamma   89.85886091
_symmetry_Int_Tables_number   1
_chemical_formula_structural   Ac12Pd2PtRh
_chemical_formula_sum   'Ac12 Pd2 Pt1 Rh1'
_cell_volume   591.84741861
_cell_formula_units_Z   1
loop_
 _symmetry_equiv_pos_site_id
 _symmetry_equiv_pos_as_xyz
  1  'x, y, z'
loop_
 _atom_site_type_symbol
 _atom_site_label
 _atom_site_symmetry_multiplicity
 _atom_site_fract_x
 _atom_site_fract_y
 _atom_site_fract_z
 _atom_site_occupancy
  Ac  Ac0  1  0.331099  0.676403  0.066172  1
  Ac  Ac1  1  0.164781  0.171886  0.433222  1
  Ac  Ac2  1  0.664244  0.331552  0.570297  1
  Ac  Ac3  1  0.829150  0.822860  0.931141  1
  Ac  Ac4  1  0.664244  0.331552  0.929703  1
  Ac  Ac5  1  0.829150  0.822860  0.568859  1
  Ac  Ac6  1  0.331099  0.676403  0.433828  1
  Ac  Ac7  1  0.164781  0.171886  0.066778  1
  Ac  Ac8  1  0.851214  0.540552  0.250000  1
  Ac  Ac9  1  0.653847  0.037604  0.250000  1
  Ac  Ac10  1  0.157309  0.463619  0.750000  1
  Ac  Ac11  1  0.355233  0.951384  0.750000  1
  Pd  Pd12  1  0.427677  0.380202  0.250000  1
  Pd  Pd13  1  0.932789  0.120715  0.750000  1
  Pt  Pt14  1  0.068644  0.878054  0.250000  1
  Rh  Rh15  1  0.574740  0.622469  0.750000  1
