# generated using pymatgen
data_Ho6Zn3GaPt13
_symmetry_space_group_name_H-M   'P 1'
_cell_length_a   8.27811123
_cell_length_b   8.26005653
_cell_length_c   8.26005700
_cell_angle_alpha   109.42690528
_cell_angle_beta   109.51550586
_cell_angle_gamma   109.51549834
_symmetry_Int_Tables_number   1
_chemical_formula_structural   Ho6Zn3GaPt13
_chemical_formula_sum   'Ho6 Zn3 Ga1 Pt13'
_cell_volume   434.54803149
_cell_formula_units_Z   1
loop_
 _symmetry_equiv_pos_site_id
 _symmetry_equiv_pos_as_xyz
  1  'x, y, z'
loop_
 _atom_site_type_symbol
 _atom_site_label
 _atom_site_symmetry_multiplicity
 _atom_site_fract_x
 _atom_site_fract_y
 _atom_site_fract_z
 _atom_site_occupancy
  Ho  Ho0  1  0.697763  0.696972  0.000000  1
  Ho  Ho1  1  0.302237  0.000000  0.303028  1
  Ho  Ho2  1  0.000791  0.303028  0.303028  1
  Ho  Ho3  1  0.302237  0.303028  0.000000  1
  Ho  Ho4  1  0.697763  0.000000  0.696972  1
  Ho  Ho5  1  0.999209  0.696972  0.696972  1
  Zn  Zn6  1  0.000000  0.000000  0.500000  1
  Zn  Zn7  1  0.000000  0.500000  0.000000  1
  Zn  Zn8  1  0.500000  0.500000  0.500000  1
  Ga  Ga9  1  0.500000  0.000000  0.000000  1
  Pt  Pt10  1  0.328975  0.328975  0.657952  1
  Pt  Pt11  1  0.673559  0.000000  0.326262  1
  Pt  Pt12  1  0.000000  0.671025  0.328975  1
  Pt  Pt13  1  0.673559  0.326262  0.000000  1
  Pt  Pt14  1  0.328975  0.657952  0.328975  1
  Pt  Pt15  1  0.000000  0.328975  0.671025  1
  Pt  Pt16  1  0.326441  0.673738  0.000000  1
  Pt  Pt17  1  0.326441  0.000000  0.673738  1
  Pt  Pt18  1  0.652703  0.326262  0.326262  1
  Pt  Pt19  1  0.671025  0.671025  0.342048  1
  Pt  Pt20  1  0.671025  0.342048  0.671025  1
  Pt  Pt21  1  0.347297  0.673738  0.673738  1
  Pt  Pt22  1  0.000000  0.000000  0.000000  1
