# generated using pymatgen
data_PrZn3As2P
_symmetry_space_group_name_H-M   'P 1'
_cell_length_a   4.16636639
_cell_length_b   4.16970892
_cell_length_c   20.55725400
_cell_angle_alpha   90.00000000
_cell_angle_beta   90.00000000
_cell_angle_gamma   119.97378611
_symmetry_Int_Tables_number   1
_chemical_formula_structural   PrZn3As2P
_chemical_formula_sum   'Pr2 Zn6 As4 P2'
_cell_volume   309.36671769
_cell_formula_units_Z   2
loop_
 _symmetry_equiv_pos_site_id
 _symmetry_equiv_pos_as_xyz
  1  'x, y, z'
loop_
 _atom_site_type_symbol
 _atom_site_label
 _atom_site_symmetry_multiplicity
 _atom_site_fract_x
 _atom_site_fract_y
 _atom_site_fract_z
 _atom_site_occupancy
  Pr  Pr0  1  0.998037  0.000883  0.500009  1
  Pr  Pr1  1  0.998037  0.000883  0.999991  1
  Zn  Zn2  1  0.667912  0.335394  0.132529  1
  Zn  Zn3  1  0.334317  0.667006  0.867457  1
  Zn  Zn4  1  0.334317  0.667006  0.632543  1
  Zn  Zn5  1  0.667912  0.335394  0.367471  1
  Zn  Zn6  1  0.632284  0.359149  0.750000  1
  Zn  Zn7  1  0.273993  0.633711  0.250000  1
  As  As8  1  0.666568  0.334053  0.589234  1
  As  As9  1  0.333164  0.668136  0.410792  1
  As  As10  1  0.333164  0.668136  0.089208  1
  As  As11  1  0.666568  0.334053  0.910766  1
  P  P12  1  0.295629  0.695504  0.750000  1
  P  P13  1  0.600995  0.296788  0.250000  1
