# generated using pymatgen
data_Ca2Mn2NbNi9As7
_symmetry_space_group_name_H-M   'P 1'
_cell_length_a   3.83855100
_cell_length_b   9.56131907
_cell_length_c   9.55108402
_cell_angle_alpha   119.95608543
_cell_angle_beta   90.00000000
_cell_angle_gamma   90.00000000
_symmetry_Int_Tables_number   1
_chemical_formula_structural   Ca2Mn2NbNi9As7
_chemical_formula_sum   'Ca2 Mn2 Nb1 Ni9 As7'
_cell_volume   303.71093902
_cell_formula_units_Z   1
loop_
 _symmetry_equiv_pos_site_id
 _symmetry_equiv_pos_as_xyz
  1  'x, y, z'
loop_
 _atom_site_type_symbol
 _atom_site_label
 _atom_site_symmetry_multiplicity
 _atom_site_fract_x
 _atom_site_fract_y
 _atom_site_fract_z
 _atom_site_occupancy
  Ca  Ca0  1  0.000000  0.663581  0.329891  1
  Ca  Ca1  1  0.500000  0.334284  0.666885  1
  Mn  Mn2  1  0.500000  0.777200  0.896507  1
  Mn  Mn3  1  0.500000  0.119265  0.221045  1
  Nb  Nb4  1  0.500000  0.100113  0.883465  1
  Ni  Ni5  1  0.000000  0.575268  0.938436  1
  Ni  Ni6  1  0.000000  0.369273  0.429582  1
  Ni  Ni7  1  0.000000  0.060729  0.632012  1
  Ni  Ni8  1  0.000000  0.874968  0.158037  1
  Ni  Ni9  1  0.000000  0.279639  0.127645  1
  Ni  Ni10  1  0.000000  0.842221  0.717075  1
  Ni  Ni11  1  0.500000  0.950395  0.380419  1
  Ni  Ni12  1  0.500000  0.435282  0.055352  1
  Ni  Ni13  1  0.500000  0.621266  0.569395  1
  As  As14  1  0.500000  0.705674  0.113600  1
  As  As15  1  0.500000  0.407465  0.293828  1
  As  As16  1  0.500000  0.879811  0.583891  1
  As  As17  1  0.000000  0.995488  0.002186  1
  As  As18  1  0.000000  0.586671  0.697791  1
  As  As19  1  0.000000  0.114613  0.412755  1
  As  As20  1  0.000000  0.306796  0.890200  1
