# generated using pymatgen
data_Ho6ReB14Ru
_symmetry_space_group_name_H-M   'P 1'
_cell_length_a   8.04102928
_cell_length_b   8.04102834
_cell_length_c   9.31266800
_cell_angle_alpha   90.00000000
_cell_angle_beta   90.00000000
_cell_angle_gamma   154.69681593
_symmetry_Int_Tables_number   1
_chemical_formula_structural   Ho6ReB14Ru
_chemical_formula_sum   'Ho6 Re1 B14 Ru1'
_cell_volume   257.35944404
_cell_formula_units_Z   1
loop_
 _symmetry_equiv_pos_site_id
 _symmetry_equiv_pos_as_xyz
  1  'x, y, z'
loop_
 _atom_site_type_symbol
 _atom_site_label
 _atom_site_symmetry_multiplicity
 _atom_site_fract_x
 _atom_site_fract_y
 _atom_site_fract_z
 _atom_site_occupancy
  Ho  Ho0  1  0.894421  0.105579  0.060048  1
  Ho  Ho1  1  0.105666  0.894334  0.560909  1
  Ho  Ho2  1  0.105666  0.894334  0.939091  1
  Ho  Ho3  1  0.894421  0.105579  0.439952  1
  Ho  Ho4  1  0.243239  0.756761  0.250000  1
  Ho  Ho5  1  0.756850  0.243150  0.750000  1
  Re  Re6  1  0.947238  0.052761  0.750000  1
  B  B7  1  0.456710  0.543290  0.250000  1
  B  B8  1  0.544173  0.455827  0.750000  1
  B  B9  1  0.726999  0.273001  0.034345  1
  B  B10  1  0.272519  0.727481  0.533428  1
  B  B11  1  0.272519  0.727481  0.966572  1
  B  B12  1  0.726999  0.273001  0.465655  1
  B  B13  1  0.631612  0.368388  0.348741  1
  B  B14  1  0.367665  0.632335  0.849315  1
  B  B15  1  0.367665  0.632335  0.650685  1
  B  B16  1  0.631612  0.368388  0.151259  1
  B  B17  1  0.520486  0.479514  0.403879  1
  B  B18  1  0.479601  0.520399  0.904967  1
  B  B19  1  0.479601  0.520399  0.595033  1
  B  B20  1  0.520486  0.479514  0.096121  1
  Ru  Ru21  1  0.053853  0.946147  0.250000  1
