# generated using pymatgen
data_NaLa3(Si5Pt3)2
_symmetry_space_group_name_H-M   'P 1'
_cell_length_a   8.34582010
_cell_length_b   8.32039037
_cell_length_c   8.32038918
_cell_angle_alpha   137.26489230
_cell_angle_beta   104.94997923
_cell_angle_gamma   90.38482236
_symmetry_Int_Tables_number   1
_chemical_formula_structural   NaLa3(Si5Pt3)2
_chemical_formula_sum   'Na1 La3 Si10 Pt6'
_cell_volume   361.45135562
_cell_formula_units_Z   1
loop_
 _symmetry_equiv_pos_site_id
 _symmetry_equiv_pos_as_xyz
  1  'x, y, z'
loop_
 _atom_site_type_symbol
 _atom_site_label
 _atom_site_symmetry_multiplicity
 _atom_site_fract_x
 _atom_site_fract_y
 _atom_site_fract_z
 _atom_site_occupancy
  Na  Na0  1  0.894418  0.128744  0.765675  1
  La  La1  1  0.640116  0.373327  0.266788  1
  La  La2  1  0.362829  0.629113  0.733716  1
  La  La3  1  0.100865  0.868931  0.231934  1
  Si  Si4  1  0.269282  0.519998  0.249291  1
  Si  Si5  1  0.731058  0.478042  0.750892  1
  Si  Si6  1  0.731058  0.980167  0.253016  1
  Si  Si7  1  0.269282  0.019990  0.749284  1
  Si  Si8  1  0.464103  0.111119  0.352983  1
  Si  Si9  1  0.540934  0.891752  0.649183  1
  Si  Si10  1  0.762348  0.612940  0.149409  1
  Si  Si11  1  0.235491  0.385104  0.850387  1
  Si  Si12  1  0.999484  0.247762  0.245541  1
  Si  Si13  1  0.999484  0.753943  0.751723  1
  Pt  Pt14  1  0.250676  0.136973  0.113703  1
  Pt  Pt15  1  0.753073  0.864760  0.888313  1
  Pt  Pt16  1  0.024185  0.635218  0.388967  1
  Pt  Pt17  1  0.974944  0.362827  0.612116  1
  Pt  Pt18  1  0.498186  0.253130  0.752024  1
  Pt  Pt19  1  0.498186  0.746162  0.245056  1
