# generated using pymatgen
data_Ba4Dy(IrO6)2
_symmetry_space_group_name_H-M   'P 1'
_cell_length_a   10.10922968
_cell_length_b   10.10922979
_cell_length_c   10.10922997
_cell_angle_alpha   33.91870468
_cell_angle_beta   33.91870586
_cell_angle_gamma   33.91871154
_symmetry_Int_Tables_number   1
_chemical_formula_structural   Ba4Dy(IrO6)2
_chemical_formula_sum   'Ba4 Dy1 Ir2 O12'
_cell_volume   286.71469182
_cell_formula_units_Z   1
loop_
 _symmetry_equiv_pos_site_id
 _symmetry_equiv_pos_as_xyz
  1  'x, y, z'
loop_
 _atom_site_type_symbol
 _atom_site_label
 _atom_site_symmetry_multiplicity
 _atom_site_fract_x
 _atom_site_fract_y
 _atom_site_fract_z
 _atom_site_occupancy
  Ba  Ba0  1  0.712429  0.712429  0.712429  1
  Ba  Ba1  1  0.287571  0.287571  0.287571  1
  Ba  Ba2  1  0.866586  0.866586  0.866586  1
  Ba  Ba3  1  0.133414  0.133414  0.133414  1
  Dy  Dy4  1  0.000000  0.000000  0.000000  1
  Ir  Ir5  1  0.579635  0.579635  0.579635  1
  Ir  Ir6  1  0.420365  0.420365  0.420365  1
  O  O7  1  0.222521  0.690047  0.222521  1
  O  O8  1  0.222521  0.222521  0.690047  1
  O  O9  1  0.690047  0.222521  0.222521  1
  O  O10  1  0.777479  0.309953  0.777479  1
  O  O11  1  0.777479  0.777479  0.309953  1
  O  O12  1  0.309953  0.777479  0.777479  1
  O  O13  1  0.386789  0.859932  0.386789  1
  O  O14  1  0.386789  0.386789  0.859932  1
  O  O15  1  0.859932  0.386789  0.386789  1
  O  O16  1  0.613211  0.140068  0.613211  1
  O  O17  1  0.613211  0.613211  0.140068  1
  O  O18  1  0.140068  0.613211  0.613211  1
