# generated using pymatgen
data_Sr2GaSb3Pt4
_symmetry_space_group_name_H-M   'P 1'
_cell_length_a   4.67224411
_cell_length_b   4.57658100
_cell_length_c   10.44522557
_cell_angle_alpha   90.00000000
_cell_angle_beta   91.79249869
_cell_angle_gamma   90.00000000
_symmetry_Int_Tables_number   1
_chemical_formula_structural   Sr2GaSb3Pt4
_chemical_formula_sum   'Sr2 Ga1 Sb3 Pt4'
_cell_volume   223.23995900
_cell_formula_units_Z   1
loop_
 _symmetry_equiv_pos_site_id
 _symmetry_equiv_pos_as_xyz
  1  'x, y, z'
loop_
 _atom_site_type_symbol
 _atom_site_label
 _atom_site_symmetry_multiplicity
 _atom_site_fract_x
 _atom_site_fract_y
 _atom_site_fract_z
 _atom_site_occupancy
  Sr  Sr0  1  0.260285  0.750001  0.249545  1
  Sr  Sr1  1  0.740975  0.250000  0.749027  1
  Ga  Ga2  1  0.252331  0.250000  0.005251  1
  Sb  Sb3  1  0.795918  0.250000  0.371963  1
  Sb  Sb4  1  0.206035  0.750001  0.627031  1
  Sb  Sb5  1  0.745069  0.750001  0.996104  1
  Pt  Pt6  1  0.760777  0.250000  0.120167  1
  Pt  Pt7  1  0.694689  0.750001  0.497357  1
  Pt  Pt8  1  0.306208  0.250000  0.503413  1
  Pt  Pt9  1  0.237713  0.750001  0.880143  1
