# generated using pymatgen
data_MnNb12Al8Ni3C4
_symmetry_space_group_name_H-M   'P 1'
_cell_length_a   8.28883637
_cell_length_b   8.24486403
_cell_length_c   8.24486500
_cell_angle_alpha   60.00000816
_cell_angle_beta   60.17534170
_cell_angle_gamma   60.17534276
_symmetry_Int_Tables_number   1
_chemical_formula_structural   MnNb12Al8Ni3C4
_chemical_formula_sum   'Mn1 Nb12 Al8 Ni3 C4'
_cell_volume   399.47681782
_cell_formula_units_Z   1
loop_
 _symmetry_equiv_pos_site_id
 _symmetry_equiv_pos_as_xyz
  1  'x, y, z'
loop_
 _atom_site_type_symbol
 _atom_site_label
 _atom_site_symmetry_multiplicity
 _atom_site_fract_x
 _atom_site_fract_y
 _atom_site_fract_z
 _atom_site_occupancy
  Mn  Mn0  1  0.125000  0.625000  0.625000  1
  Nb  Nb1  1  0.815737  0.811961  0.186151  1
  Nb  Nb2  1  0.182210  0.200378  0.808706  1
  Nb  Nb3  1  0.815737  0.186151  0.811961  1
  Nb  Nb4  1  0.182210  0.808706  0.200378  1
  Nb  Nb5  1  0.182210  0.808706  0.808706  1
  Nb  Nb6  1  0.815737  0.186151  0.186151  1
  Nb  Nb7  1  0.434263  0.438039  0.063849  1
  Nb  Nb8  1  0.067790  0.049622  0.441294  1
  Nb  Nb9  1  0.434263  0.063849  0.438039  1
  Nb  Nb10  1  0.067790  0.441294  0.049622  1
  Nb  Nb11  1  0.067790  0.441294  0.441294  1
  Nb  Nb12  1  0.434263  0.063849  0.063849  1
  Al  Al13  1  0.753821  0.415393  0.415393  1
  Al  Al14  1  0.422354  0.744776  0.416435  1
  Al  Al15  1  0.422354  0.416435  0.744776  1
  Al  Al16  1  0.422354  0.416435  0.416435  1
  Al  Al17  1  0.496179  0.834607  0.834607  1
  Al  Al18  1  0.827646  0.505224  0.833565  1
  Al  Al19  1  0.827646  0.833565  0.505224  1
  Al  Al20  1  0.827646  0.833565  0.833565  1
  Ni  Ni21  1  0.625000  0.125000  0.625000  1
  Ni  Ni22  1  0.625000  0.625000  0.125000  1
  Ni  Ni23  1  0.625000  0.625000  0.625000  1
  C  C24  1  0.625000  0.125000  0.125000  1
  C  C25  1  0.125000  0.625000  0.125000  1
  C  C26  1  0.125000  0.125000  0.625000  1
  C  C27  1  0.125000  0.125000  0.125000  1
