# generated using pymatgen
data_LiY6Tm13(Cd3Ru)2
_symmetry_space_group_name_H-M   'P 1'
_cell_length_a   9.46571300
_cell_length_b   9.46571282
_cell_length_c   9.65189300
_cell_angle_alpha   90.00000000
_cell_angle_beta   90.00000000
_cell_angle_gamma   119.99999715
_symmetry_Int_Tables_number   1
_chemical_formula_structural   LiY6Tm13(Cd3Ru)2
_chemical_formula_sum   'Li1 Y6 Tm13 Cd6 Ru2'
_cell_volume   748.94478242
_cell_formula_units_Z   1
loop_
 _symmetry_equiv_pos_site_id
 _symmetry_equiv_pos_as_xyz
  1  'x, y, z'
loop_
 _atom_site_type_symbol
 _atom_site_label
 _atom_site_symmetry_multiplicity
 _atom_site_fract_x
 _atom_site_fract_y
 _atom_site_fract_z
 _atom_site_occupancy
  Li  Li0  1  0.000000  0.000000  0.500000  1
  Y  Y1  1  0.540798  0.459202  0.251781  1
  Y  Y2  1  0.540798  0.081596  0.251781  1
  Y  Y3  1  0.918404  0.459202  0.251781  1
  Y  Y4  1  0.459202  0.540798  0.748219  1
  Y  Y5  1  0.459202  0.918404  0.748219  1
  Y  Y6  1  0.081596  0.540798  0.748219  1
  Tm  Tm7  1  0.000000  0.000000  0.000000  1
  Tm  Tm8  1  0.208872  0.791128  0.440385  1
  Tm  Tm9  1  0.208872  0.417743  0.440385  1
  Tm  Tm10  1  0.582257  0.791128  0.440385  1
  Tm  Tm11  1  0.791128  0.208872  0.559615  1
  Tm  Tm12  1  0.791128  0.582257  0.559615  1
  Tm  Tm13  1  0.417743  0.208872  0.559615  1
  Tm  Tm14  1  0.789163  0.210837  0.941466  1
  Tm  Tm15  1  0.789163  0.578325  0.941466  1
  Tm  Tm16  1  0.421675  0.210837  0.941466  1
  Tm  Tm17  1  0.210837  0.789163  0.058534  1
  Tm  Tm18  1  0.210837  0.421675  0.058534  1
  Tm  Tm19  1  0.578325  0.789163  0.058534  1
  Cd  Cd20  1  0.888906  0.111094  0.258288  1
  Cd  Cd21  1  0.888906  0.777813  0.258288  1
  Cd  Cd22  1  0.222187  0.111094  0.258288  1
  Cd  Cd23  1  0.111094  0.888906  0.741712  1
  Cd  Cd24  1  0.111094  0.222187  0.741712  1
  Cd  Cd25  1  0.777813  0.888906  0.741712  1
  Ru  Ru26  1  0.333333  0.666667  0.250245  1
  Ru  Ru27  1  0.666667  0.333333  0.749755  1
