# generated using pymatgen
data_ErPu(BC)4
_symmetry_space_group_name_H-M   'P 1'
_cell_length_a   5.36045300
_cell_length_b   5.36045300
_cell_length_c   3.58081000
_cell_angle_alpha   90.00000000
_cell_angle_beta   90.00000000
_cell_angle_gamma   90.00000000
_symmetry_Int_Tables_number   1
_chemical_formula_structural   ErPu(BC)4
_chemical_formula_sum   'Er1 Pu1 B4 C4'
_cell_volume   102.89262870
_cell_formula_units_Z   1
loop_
 _symmetry_equiv_pos_site_id
 _symmetry_equiv_pos_as_xyz
  1  'x, y, z'
loop_
 _atom_site_type_symbol
 _atom_site_label
 _atom_site_symmetry_multiplicity
 _atom_site_fract_x
 _atom_site_fract_y
 _atom_site_fract_z
 _atom_site_occupancy
  Er  Er0  1  0.000000  0.000000  0.000000  1
  Pu  Pu1  1  0.500000  0.500000  0.000000  1
  B  B2  1  0.136866  0.636392  0.500000  1
  B  B3  1  0.636392  0.863134  0.500000  1
  B  B4  1  0.863134  0.363608  0.500000  1
  B  B5  1  0.363608  0.136866  0.500000  1
  C  C6  1  0.837797  0.662019  0.500000  1
  C  C7  1  0.337981  0.837797  0.500000  1
  C  C8  1  0.662019  0.162203  0.500000  1
  C  C9  1  0.162203  0.337981  0.500000  1
