# generated using pymatgen
data_Nb6Zn3GaN2
_symmetry_space_group_name_H-M   'P 1'
_cell_length_a   7.04113569
_cell_length_b   7.04247400
_cell_length_c   7.04290626
_cell_angle_alpha   90.00000000
_cell_angle_beta   90.07126300
_cell_angle_gamma   90.00000000
_symmetry_Int_Tables_number   1
_chemical_formula_structural   Nb6Zn3GaN2
_chemical_formula_sum   'Nb12 Zn6 Ga2 N4'
_cell_volume   349.23642848
_cell_formula_units_Z   2
loop_
 _symmetry_equiv_pos_site_id
 _symmetry_equiv_pos_as_xyz
  1  'x, y, z'
loop_
 _atom_site_type_symbol
 _atom_site_label
 _atom_site_symmetry_multiplicity
 _atom_site_fract_x
 _atom_site_fract_y
 _atom_site_fract_z
 _atom_site_occupancy
  Nb  Nb0  1  0.792694  0.957436  0.373467  1
  Nb  Nb1  1  0.707734  0.043168  0.876023  1
  Nb  Nb2  1  0.207306  0.457436  0.126533  1
  Nb  Nb3  1  0.292266  0.543168  0.623977  1
  Nb  Nb4  1  0.957339  0.374285  0.792336  1
  Nb  Nb5  1  0.042661  0.874285  0.707664  1
  Nb  Nb6  1  0.456856  0.124963  0.207177  1
  Nb  Nb7  1  0.543144  0.624963  0.292823  1
  Nb  Nb8  1  0.373730  0.792983  0.957318  1
  Nb  Nb9  1  0.875608  0.707965  0.042964  1
  Nb  Nb10  1  0.124392  0.207965  0.457036  1
  Nb  Nb11  1  0.626270  0.292983  0.542682  1
  Zn  Zn12  1  0.182215  0.821042  0.322647  1
  Zn  Zn13  1  0.323427  0.179681  0.818679  1
  Zn  Zn14  1  0.817785  0.321042  0.177353  1
  Zn  Zn15  1  0.676573  0.679681  0.681321  1
  Zn  Zn16  1  0.570578  0.429232  0.928632  1
  Zn  Zn17  1  0.429422  0.929232  0.571368  1
  Ga  Ga18  1  0.927388  0.572377  0.428197  1
  Ga  Ga19  1  0.072612  0.072377  0.071803  1
  N  N20  1  0.874393  0.122757  0.624731  1
  N  N21  1  0.623068  0.874110  0.124019  1
  N  N22  1  0.125607  0.622757  0.875269  1
  N  N23  1  0.376932  0.374110  0.375981  1
