# generated using pymatgen
data_Hf4V4Si3P
_symmetry_space_group_name_H-M   'P 1'
_cell_length_a   3.50708700
_cell_length_b   6.72261888
_cell_length_c   8.01827379
_cell_angle_alpha   89.80350724
_cell_angle_beta   90.00000000
_cell_angle_gamma   90.00000000
_symmetry_Int_Tables_number   1
_chemical_formula_structural   Hf4V4Si3P
_chemical_formula_sum   'Hf4 V4 Si3 P1'
_cell_volume   189.04420025
_cell_formula_units_Z   1
loop_
 _symmetry_equiv_pos_site_id
 _symmetry_equiv_pos_as_xyz
  1  'x, y, z'
loop_
 _atom_site_type_symbol
 _atom_site_label
 _atom_site_symmetry_multiplicity
 _atom_site_fract_x
 _atom_site_fract_y
 _atom_site_fract_z
 _atom_site_occupancy
  Hf  Hf0  1  0.250000  0.039671  0.832900  1
  Hf  Hf1  1  0.250000  0.546205  0.670362  1
  Hf  Hf2  1  0.750000  0.955449  0.166519  1
  Hf  Hf3  1  0.750000  0.454875  0.333323  1
  V  V4  1  0.250000  0.124873  0.442261  1
  V  V5  1  0.250000  0.629581  0.054082  1
  V  V6  1  0.750000  0.872387  0.560605  1
  V  V7  1  0.750000  0.376355  0.940849  1
  Si  Si8  1  0.250000  0.757732  0.363207  1
  Si  Si9  1  0.250000  0.260208  0.135925  1
  Si  Si10  1  0.750000  0.241684  0.637593  1
  P  P11  1  0.750000  0.740979  0.862372  1
