# generated using pymatgen
data_Li6Nd5Th3(ZnPt4)2
_symmetry_space_group_name_H-M   'P 1'
_cell_length_a   4.05536200
_cell_length_b   7.48103609
_cell_length_c   16.94948460
_cell_angle_alpha   90.21084536
_cell_angle_beta   90.00000000
_cell_angle_gamma   90.00000000
_symmetry_Int_Tables_number   1
_chemical_formula_structural   Li6Nd5Th3(ZnPt4)2
_chemical_formula_sum   'Li6 Nd5 Th3 Zn2 Pt8'
_cell_volume   514.21522780
_cell_formula_units_Z   1
loop_
 _symmetry_equiv_pos_site_id
 _symmetry_equiv_pos_as_xyz
  1  'x, y, z'
loop_
 _atom_site_type_symbol
 _atom_site_label
 _atom_site_symmetry_multiplicity
 _atom_site_fract_x
 _atom_site_fract_y
 _atom_site_fract_z
 _atom_site_occupancy
  Li  Li0  1  0.750000  0.012543  0.560749  1
  Li  Li1  1  0.250000  0.625391  0.349245  1
  Li  Li2  1  0.750000  0.373464  0.651562  1
  Li  Li3  1  0.250000  0.498545  0.057591  1
  Li  Li4  1  0.250000  0.985785  0.439059  1
  Li  Li5  1  0.250000  0.124639  0.148947  1
  Nd  Nd6  1  0.750000  0.947894  0.285111  1
  Nd  Nd7  1  0.750000  0.833021  0.062067  1
  Nd  Nd8  1  0.750000  0.449160  0.214537  1
  Nd  Nd9  1  0.250000  0.046408  0.717285  1
  Nd  Nd10  1  0.250000  0.553245  0.788280  1
  Th  Th11  1  0.250000  0.168591  0.938080  1
  Th  Th12  1  0.250000  0.666666  0.562978  1
  Th  Th13  1  0.750000  0.332841  0.437194  1
  Zn  Zn14  1  0.750000  0.511004  0.940928  1
  Zn  Zn15  1  0.750000  0.879364  0.846841  1
  Pt  Pt16  1  0.750000  0.732152  0.442383  1
  Pt  Pt17  1  0.250000  0.248535  0.317384  1
  Pt  Pt18  1  0.750000  0.247824  0.818690  1
  Pt  Pt19  1  0.750000  0.750126  0.682470  1
  Pt  Pt20  1  0.250000  0.267779  0.557542  1
  Pt  Pt21  1  0.250000  0.744098  0.188424  1
  Pt  Pt22  1  0.750000  0.243561  0.057826  1
  Pt  Pt23  1  0.250000  0.757361  0.934827  1
