# generated using pymatgen
data_Zr8In4NiAu7
_symmetry_space_group_name_H-M   'P 1'
_cell_length_a   7.58721178
_cell_length_b   7.58721178
_cell_length_c   7.09137390
_cell_angle_alpha   90.12773597
_cell_angle_beta   90.12773597
_cell_angle_gamma   90.38158862
_symmetry_Int_Tables_number   1
_chemical_formula_structural   Zr8In4NiAu7
_chemical_formula_sum   'Zr8 In4 Ni1 Au7'
_cell_volume   408.20939241
_cell_formula_units_Z   1
loop_
 _symmetry_equiv_pos_site_id
 _symmetry_equiv_pos_as_xyz
  1  'x, y, z'
loop_
 _atom_site_type_symbol
 _atom_site_label
 _atom_site_symmetry_multiplicity
 _atom_site_fract_x
 _atom_site_fract_y
 _atom_site_fract_z
 _atom_site_occupancy
  Zr  Zr0  1  0.154852  0.154852  0.009538  1
  Zr  Zr1  1  0.853898  0.853898  0.000654  1
  Zr  Zr2  1  0.637906  0.348154  0.492616  1
  Zr  Zr3  1  0.348154  0.637906  0.492616  1
  Zr  Zr4  1  0.686418  0.303068  0.005018  1
  Zr  Zr5  1  0.303068  0.686418  0.005018  1
  Zr  Zr6  1  0.803727  0.803727  0.498333  1
  Zr  Zr7  1  0.205038  0.205038  0.489207  1
  In  In8  1  0.498060  0.007017  0.247365  1
  In  In9  1  0.499381  0.998538  0.749536  1
  In  In10  1  0.007017  0.498060  0.247365  1
  In  In11  1  0.998538  0.499381  0.749536  1
  Ni  Ni12  1  0.372076  0.372076  0.206844  1
  Au  Au13  1  0.629565  0.629565  0.792665  1
  Au  Au14  1  0.624106  0.624106  0.204833  1
  Au  Au15  1  0.872585  0.132546  0.707980  1
  Au  Au16  1  0.872034  0.130528  0.296423  1
  Au  Au17  1  0.370504  0.370504  0.800050  1
  Au  Au18  1  0.130528  0.872034  0.296423  1
  Au  Au19  1  0.132546  0.872585  0.707980  1
