# generated using pymatgen
data_Mn18Cr3(MoC3)2
_symmetry_space_group_name_H-M   'P 1'
_cell_length_a   7.41859505
_cell_length_b   7.41859582
_cell_length_c   7.41859514
_cell_angle_alpha   59.91387206
_cell_angle_beta   59.91386773
_cell_angle_gamma   59.91386975
_symmetry_Int_Tables_number   1
_chemical_formula_structural   Mn18Cr3(MoC3)2
_chemical_formula_sum   'Mn18 Cr3 Mo2 C6'
_cell_volume   288.13809232
_cell_formula_units_Z   1
loop_
 _symmetry_equiv_pos_site_id
 _symmetry_equiv_pos_as_xyz
  1  'x, y, z'
loop_
 _atom_site_type_symbol
 _atom_site_label
 _atom_site_symmetry_multiplicity
 _atom_site_fract_x
 _atom_site_fract_y
 _atom_site_fract_z
 _atom_site_occupancy
  Mn  Mn0  1  0.000603  0.000603  0.000603  1
  Mn  Mn1  1  0.615706  0.615706  0.152500  1
  Mn  Mn2  1  0.615706  0.152500  0.615706  1
  Mn  Mn3  1  0.152500  0.615706  0.615706  1
  Mn  Mn4  1  0.615697  0.615697  0.615697  1
  Mn  Mn5  1  0.383297  0.383297  0.848421  1
  Mn  Mn6  1  0.383297  0.848421  0.383297  1
  Mn  Mn7  1  0.848421  0.383297  0.383297  1
  Mn  Mn8  1  0.383739  0.383739  0.383739  1
  Mn  Mn9  1  0.000309  0.000309  0.338942  1
  Mn  Mn10  1  0.662949  0.998395  0.338506  1
  Mn  Mn11  1  0.998395  0.662949  0.338506  1
  Mn  Mn12  1  0.662949  0.338506  0.998395  1
  Mn  Mn13  1  0.000309  0.338942  0.000309  1
  Mn  Mn14  1  0.998395  0.338506  0.662949  1
  Mn  Mn15  1  0.338506  0.662949  0.998395  1
  Mn  Mn16  1  0.338506  0.998395  0.662949  1
  Mn  Mn17  1  0.338942  0.000309  0.000309  1
  Cr  Cr18  1  0.001390  0.001390  0.660389  1
  Cr  Cr19  1  0.001390  0.660389  0.001390  1
  Cr  Cr20  1  0.660389  0.001390  0.001390  1
  Mo  Mo21  1  0.749718  0.749718  0.749718  1
  Mo  Mo22  1  0.250027  0.250027  0.250027  1
  C  C23  1  0.722891  0.722891  0.279859  1
  C  C24  1  0.273306  0.726604  0.273306  1
  C  C25  1  0.726604  0.273306  0.273306  1
  C  C26  1  0.273306  0.273306  0.726604  1
  C  C27  1  0.722891  0.279859  0.722891  1
  C  C28  1  0.279859  0.722891  0.722891  1
