# generated using pymatgen
data_Ho3Er(Si5Os3)2
_symmetry_space_group_name_H-M   'P 1'
_cell_length_a   8.12426730
_cell_length_b   8.12517482
_cell_length_c   5.78577411
_cell_angle_alpha   70.53447092
_cell_angle_beta   70.53742273
_cell_angle_gamma   94.03764433
_symmetry_Int_Tables_number   1
_chemical_formula_structural   Ho3Er(Si5Os3)2
_chemical_formula_sum   'Ho3 Er1 Si10 Os6'
_cell_volume   332.37180275
_cell_formula_units_Z   1
loop_
 _symmetry_equiv_pos_site_id
 _symmetry_equiv_pos_as_xyz
  1  'x, y, z'
loop_
 _atom_site_type_symbol
 _atom_site_label
 _atom_site_symmetry_multiplicity
 _atom_site_fract_x
 _atom_site_fract_y
 _atom_site_fract_z
 _atom_site_occupancy
  Ho  Ho0  1  0.398802  0.131328  0.746126  1
  Ho  Ho1  1  0.131282  0.398801  0.246188  1
  Ho  Ho2  1  0.601220  0.868690  0.253851  1
  Er  Er3  1  0.868629  0.601116  0.753866  1
  Si  Si4  1  0.068056  0.261771  0.833730  1
  Si  Si5  1  0.738312  0.931742  0.666298  1
  Si  Si6  1  0.931874  0.738203  0.166338  1
  Si  Si7  1  0.261767  0.068107  0.333728  1
  Si  Si8  1  0.206136  0.793691  0.749989  1
  Si  Si9  1  0.793756  0.206269  0.250022  1
  Si  Si10  1  0.512907  0.487329  0.749953  1
  Si  Si11  1  0.487302  0.512776  0.249960  1
  Si  Si12  1  0.774737  0.225370  0.749969  1
  Si  Si13  1  0.225201  0.774699  0.250136  1
  Os  Os14  1  0.255425  0.544038  0.631284  1
  Os  Os15  1  0.456000  0.744319  0.868811  1
  Os  Os16  1  0.744456  0.456145  0.368560  1
  Os  Os17  1  0.544153  0.255803  0.131098  1
  Os  Os18  1  0.002129  0.997763  0.750040  1
  Os  Os19  1  0.997855  0.002042  0.250056  1
