# generated using pymatgen
data_Pr2NiSn4
_symmetry_space_group_name_H-M   'P 1'
_cell_length_a   4.54512000
_cell_length_b   9.09030900
_cell_length_c   17.26645100
_cell_angle_alpha   90.00000000
_cell_angle_beta   90.00000000
_cell_angle_gamma   90.00000000
_symmetry_Int_Tables_number   1
_chemical_formula_structural   Pr2NiSn4
_chemical_formula_sum   'Pr8 Ni4 Sn16'
_cell_volume   713.39010391
_cell_formula_units_Z   4
loop_
 _symmetry_equiv_pos_site_id
 _symmetry_equiv_pos_as_xyz
  1  'x, y, z'
loop_
 _atom_site_type_symbol
 _atom_site_label
 _atom_site_symmetry_multiplicity
 _atom_site_fract_x
 _atom_site_fract_y
 _atom_site_fract_z
 _atom_site_occupancy
  Pr  Pr0  1  0.250000  0.609464  0.646801  1
  Pr  Pr1  1  0.250000  0.366577  0.147905  1
  Pr  Pr2  1  0.250000  0.890536  0.146801  1
  Pr  Pr3  1  0.750000  0.109464  0.853199  1
  Pr  Pr4  1  0.750000  0.633423  0.852095  1
  Pr  Pr5  1  0.250000  0.133423  0.647905  1
  Pr  Pr6  1  0.750000  0.866577  0.352095  1
  Pr  Pr7  1  0.750000  0.390536  0.353199  1
  Ni  Ni8  1  0.750000  0.356299  0.561446  1
  Ni  Ni9  1  0.250000  0.643701  0.438554  1
  Ni  Ni10  1  0.750000  0.143701  0.061446  1
  Ni  Ni11  1  0.250000  0.856299  0.938554  1
  Sn  Sn12  1  0.250000  0.609113  0.007989  1
  Sn  Sn13  1  0.750000  0.871274  0.007994  1
  Sn  Sn14  1  0.750000  0.627417  0.175731  1
  Sn  Sn15  1  0.250000  0.127417  0.324269  1
  Sn  Sn16  1  0.750000  0.390887  0.992011  1
  Sn  Sn17  1  0.750000  0.370013  0.709848  1
  Sn  Sn18  1  0.750000  0.628726  0.507994  1
  Sn  Sn19  1  0.250000  0.870013  0.790152  1
  Sn  Sn20  1  0.750000  0.109113  0.492011  1
  Sn  Sn21  1  0.250000  0.372583  0.824269  1
  Sn  Sn22  1  0.750000  0.129987  0.209848  1
  Sn  Sn23  1  0.250000  0.371274  0.492006  1
  Sn  Sn24  1  0.250000  0.629987  0.290152  1
  Sn  Sn25  1  0.750000  0.872583  0.675731  1
  Sn  Sn26  1  0.250000  0.890887  0.507989  1
  Sn  Sn27  1  0.250000  0.128726  0.992006  1
