# generated using pymatgen
data_Tb4ThU(Co3P2)6
_symmetry_space_group_name_H-M   'P 1'
_cell_length_a   3.73700100
_cell_length_b   10.56113800
_cell_length_c   12.20573200
_cell_angle_alpha   90.00000000
_cell_angle_beta   90.00000000
_cell_angle_gamma   90.00000000
_symmetry_Int_Tables_number   1
_chemical_formula_structural   Tb4ThU(Co3P2)6
_chemical_formula_sum   'Tb4 Th1 U1 Co18 P12'
_cell_volume   481.72342061
_cell_formula_units_Z   1
loop_
 _symmetry_equiv_pos_site_id
 _symmetry_equiv_pos_as_xyz
  1  'x, y, z'
loop_
 _atom_site_type_symbol
 _atom_site_label
 _atom_site_symmetry_multiplicity
 _atom_site_fract_x
 _atom_site_fract_y
 _atom_site_fract_z
 _atom_site_occupancy
  Tb  Tb0  1  0.500000  0.814141  0.204481  1
  Tb  Tb1  1  0.500000  0.185859  0.204481  1
  Tb  Tb2  1  0.000000  0.684254  0.794784  1
  Tb  Tb3  1  0.000000  0.315746  0.794784  1
  Th  Th4  1  0.500000  0.000000  0.474107  1
  U  U5  1  0.000000  0.500000  0.530173  1
  Co  Co6  1  0.500000  0.500000  0.159208  1
  Co  Co7  1  0.000000  0.000000  0.844511  1
  Co  Co8  1  0.500000  0.500000  0.691686  1
  Co  Co9  1  0.000000  0.000000  0.298032  1
  Co  Co10  1  0.000000  0.500000  0.983998  1
  Co  Co11  1  0.500000  0.000000  0.014340  1
  Co  Co12  1  0.500000  0.334900  0.993672  1
  Co  Co13  1  0.500000  0.665100  0.993672  1
  Co  Co14  1  0.000000  0.166886  0.005882  1
  Co  Co15  1  0.000000  0.833114  0.005882  1
  Co  Co16  1  0.500000  0.304857  0.431156  1
  Co  Co17  1  0.500000  0.695143  0.431156  1
  Co  Co18  1  0.000000  0.203650  0.569248  1
  Co  Co19  1  0.000000  0.796350  0.569248  1
  Co  Co20  1  0.500000  0.879857  0.712980  1
  Co  Co21  1  0.500000  0.120143  0.712980  1
  Co  Co22  1  0.000000  0.618332  0.289961  1
  Co  Co23  1  0.000000  0.381668  0.289961  1
  P  P24  1  0.500000  0.500000  0.878005  1
  P  P25  1  0.000000  0.000000  0.118418  1
  P  P26  1  0.500000  0.500000  0.344419  1
  P  P27  1  0.000000  0.000000  0.661279  1
  P  P28  1  0.500000  0.306369  0.615777  1
  P  P29  1  0.500000  0.693631  0.615777  1
  P  P30  1  0.000000  0.194927  0.382226  1
  P  P31  1  0.000000  0.805073  0.382226  1
  P  P32  1  0.500000  0.846383  0.895772  1
  P  P33  1  0.500000  0.153617  0.895772  1
  P  P34  1  0.000000  0.651070  0.104972  1
  P  P35  1  0.000000  0.348930  0.104972  1
