# generated using pymatgen
data_Pr4MgIr2Pb
_symmetry_space_group_name_H-M   'P 1'
_cell_length_a   7.59732490
_cell_length_b   7.59732561
_cell_length_c   9.49142600
_cell_angle_alpha   113.59195997
_cell_angle_beta   113.59196232
_cell_angle_gamma   90.00000188
_symmetry_Int_Tables_number   1
_chemical_formula_structural   Pr4MgIr2Pb
_chemical_formula_sum   'Pr8 Mg2 Ir4 Pb2'
_cell_volume   451.64235003
_cell_formula_units_Z   2
loop_
 _symmetry_equiv_pos_site_id
 _symmetry_equiv_pos_as_xyz
  1  'x, y, z'
loop_
 _atom_site_type_symbol
 _atom_site_label
 _atom_site_symmetry_multiplicity
 _atom_site_fract_x
 _atom_site_fract_y
 _atom_site_fract_z
 _atom_site_occupancy
  Pr  Pr0  1  0.948349  0.801189  0.249539  1
  Pr  Pr1  1  0.301189  0.448349  0.249539  1
  Pr  Pr2  1  0.801189  0.301189  0.249539  1
  Pr  Pr3  1  0.448349  0.948349  0.249539  1
  Pr  Pr4  1  0.051651  0.198811  0.750461  1
  Pr  Pr5  1  0.698811  0.551651  0.750461  1
  Pr  Pr6  1  0.198811  0.698811  0.750461  1
  Pr  Pr7  1  0.551651  0.051651  0.750461  1
  Mg  Mg8  1  0.500000  0.500000  0.000000  1
  Mg  Mg9  1  0.000000  0.000000  0.000000  1
  Ir  Ir10  1  0.628268  0.871732  0.000000  1
  Ir  Ir11  1  0.371732  0.128268  0.000000  1
  Ir  Ir12  1  0.871732  0.371732  0.000000  1
  Ir  Ir13  1  0.128268  0.628268  0.000000  1
  Pb  Pb14  1  0.750000  0.750000  0.500000  1
  Pb  Pb15  1  0.250000  0.250000  0.500000  1
