# generated using pymatgen
data_Pr2Zn14Ru3
_symmetry_space_group_name_H-M   'P 1'
_cell_length_a   6.88816239
_cell_length_b   6.88816339
_cell_length_c   6.88816262
_cell_angle_alpha   82.17397734
_cell_angle_beta   97.82602152
_cell_angle_gamma   97.82601948
_symmetry_Int_Tables_number   1
_chemical_formula_structural   Pr2Zn14Ru3
_chemical_formula_sum   'Pr2 Zn14 Ru3'
_cell_volume   318.44967267
_cell_formula_units_Z   1
loop_
 _symmetry_equiv_pos_site_id
 _symmetry_equiv_pos_as_xyz
  1  'x, y, z'
loop_
 _atom_site_type_symbol
 _atom_site_label
 _atom_site_symmetry_multiplicity
 _atom_site_fract_x
 _atom_site_fract_y
 _atom_site_fract_z
 _atom_site_occupancy
  Pr  Pr0  1  0.670092  0.329907  0.329908  1
  Pr  Pr1  1  0.329907  0.670091  0.670092  1
  Zn  Zn2  1  0.710138  0.710138  0.000000  1
  Zn  Zn3  1  0.289863  0.289862  0.000000  1
  Zn  Zn4  1  0.897452  0.102547  0.102547  1
  Zn  Zn5  1  0.347258  0.652743  0.157200  1
  Zn  Zn6  1  0.289862  0.000000  0.289862  1
  Zn  Zn7  1  0.000000  0.710138  0.289863  1
  Zn  Zn8  1  0.652743  0.842799  0.347256  1
  Zn  Zn9  1  0.157201  0.347257  0.347257  1
  Zn  Zn10  1  0.347257  0.157201  0.652742  1
  Zn  Zn11  1  0.842800  0.652743  0.652742  1
  Zn  Zn12  1  0.000000  0.289863  0.710138  1
  Zn  Zn13  1  0.710138  0.000000  0.710138  1
  Zn  Zn14  1  0.652743  0.347257  0.842799  1
  Zn  Zn15  1  0.102546  0.897453  0.897453  1
  Ru  Ru16  1  0.000000  0.499999  0.999999  1
  Ru  Ru17  1  0.499999  0.000001  0.000000  1
  Ru  Ru18  1  0.000000  0.000000  0.499999  1
