# generated using pymatgen
data_Th2MnFe6Tc2Ni3P7
_symmetry_space_group_name_H-M   'P 1'
_cell_length_a   9.16812300
_cell_length_b   9.16812325
_cell_length_c   3.70785600
_cell_angle_alpha   90.00000000
_cell_angle_beta   90.00000000
_cell_angle_gamma   119.99999549
_symmetry_Int_Tables_number   1
_chemical_formula_structural   Th2MnFe6Tc2Ni3P7
_chemical_formula_sum   'Th2 Mn1 Fe6 Tc2 Ni3 P7'
_cell_volume   269.90714722
_cell_formula_units_Z   1
loop_
 _symmetry_equiv_pos_site_id
 _symmetry_equiv_pos_as_xyz
  1  'x, y, z'
loop_
 _atom_site_type_symbol
 _atom_site_label
 _atom_site_symmetry_multiplicity
 _atom_site_fract_x
 _atom_site_fract_y
 _atom_site_fract_z
 _atom_site_occupancy
  Th  Th0  1  0.334863  0.668723  0.000000  1
  Th  Th1  1  0.999757  0.999886  0.500000  1
  Mn  Mn2  1  0.450919  0.221020  0.500000  1
  Fe  Fe3  1  0.542391  0.058949  0.000000  1
  Fe  Fe4  1  0.944342  0.486911  0.000000  1
  Fe  Fe5  1  0.512238  0.451986  0.000000  1
  Fe  Fe6  1  0.616491  0.895296  0.500000  1
  Fe  Fe7  1  0.104696  0.720616  0.500000  1
  Fe  Fe8  1  0.276936  0.379612  0.500000  1
  Tc  Tc9  1  0.787640  0.235725  0.500000  1
  Tc  Tc10  1  0.768267  0.549666  0.500000  1
  Ni  Ni11  1  0.030089  0.268871  0.000000  1
  Ni  Ni12  1  0.731949  0.762594  0.000000  1
  Ni  Ni13  1  0.233300  0.968798  0.000000  1
  P  P14  1  0.760561  0.026768  0.000000  1
  P  P15  1  0.975631  0.736574  0.000000  1
  P  P16  1  0.261997  0.234423  0.000000  1
  P  P17  1  0.380606  0.934145  0.500000  1
  P  P18  1  0.067979  0.450435  0.500000  1
  P  P19  1  0.550397  0.614424  0.500000  1
  P  P20  1  0.668956  0.334575  0.000000  1
