# generated using pymatgen
data_USF34
_symmetry_space_group_name_H-M   'P 1'
_cell_length_a   8.83640242
_cell_length_b   8.55835585
_cell_length_c   10.10411362
_cell_angle_alpha   80.88696165
_cell_angle_beta   86.87538827
_cell_angle_gamma   66.48642962
_symmetry_Int_Tables_number   1
_chemical_formula_structural   USF34
_chemical_formula_sum   'U1 S1 F34'
_cell_volume   691.79987791
_cell_formula_units_Z   1
loop_
 _symmetry_equiv_pos_site_id
 _symmetry_equiv_pos_as_xyz
  1  'x, y, z'
loop_
 _atom_site_type_symbol
 _atom_site_label
 _atom_site_symmetry_multiplicity
 _atom_site_fract_x
 _atom_site_fract_y
 _atom_site_fract_z
 _atom_site_occupancy
  U  U0  1  0.131041  0.748542  0.241405  1
  S  S1  1  0.864346  0.249349  0.759168  1
  F  F2  1  0.619931  0.201369  0.478391  1
  F  F3  1  0.398458  0.783112  0.529796  1
  F  F4  1  0.824436  0.700203  0.711751  1
  F  F5  1  0.177342  0.291536  0.272783  1
  F  F6  1  0.083536  0.753262  0.857211  1
  F  F7  1  0.907212  0.247337  0.133882  1
  F  F8  1  0.559242  0.145276  0.374773  1
  F  F9  1  0.435511  0.863241  0.630308  1
  F  F10  1  0.678813  0.315673  0.705300  1
  F  F11  1  0.364232  0.663023  0.313765  1
  F  F12  1  0.919655  0.094124  0.673729  1
  F  F13  1  0.050471  0.935524  0.359275  1
  F  F14  1  0.904446  0.366534  0.635140  1
  F  F15  1  0.080665  0.594641  0.394027  1
  F  F16  1  0.850445  0.824487  0.612110  1
  F  F17  1  0.154670  0.189512  0.391856  1
  F  F18  1  0.809084  0.405206  0.844715  1
  F  F19  1  0.202265  0.556896  0.127340  1
  F  F20  1  0.217941  0.686870  0.769437  1
  F  F21  1  0.786752  0.313491  0.232478  1
  F  F22  1  0.901724  0.833245  0.162307  1
  F  F23  1  0.048828  0.183241  0.814307  1
  F  F24  1  0.823324  0.131820  0.883247  1
  F  F25  1  0.185583  0.905843  0.093121  1
  F  F26  1  0.500372  0.589145  0.986093  1
  F  F27  1  0.519473  0.413633  0.005560  1
  F  F28  1  0.450726  0.095013  0.866750  1
  F  F29  1  0.547891  0.914717  0.132084  1
  F  F30  1  0.288541  0.260073  0.606480  1
  F  F31  1  0.712115  0.738031  0.397868  1
  F  F32  1  0.259532  0.398296  0.680227  1
  F  F33  1  0.744024  0.597615  0.325859  1
  F  F34  1  0.557791  0.931047  0.833545  1
  F  F35  1  0.439580  0.079074  0.163915  1
