# generated using pymatgen
data_Li8La8Pt7Rh
_symmetry_space_group_name_H-M   'P 1'
_cell_length_a   4.17495300
_cell_length_b   7.47703446
_cell_length_c   16.98747200
_cell_angle_alpha   89.78601779
_cell_angle_beta   90.00000000
_cell_angle_gamma   90.00000000
_symmetry_Int_Tables_number   1
_chemical_formula_structural   Li8La8Pt7Rh
_chemical_formula_sum   'Li8 La8 Pt7 Rh1'
_cell_volume   530.28177090
_cell_formula_units_Z   1
loop_
 _symmetry_equiv_pos_site_id
 _symmetry_equiv_pos_as_xyz
  1  'x, y, z'
loop_
 _atom_site_type_symbol
 _atom_site_label
 _atom_site_symmetry_multiplicity
 _atom_site_fract_x
 _atom_site_fract_y
 _atom_site_fract_z
 _atom_site_occupancy
  Li  Li0  1  0.250000  0.642039  0.352439  1
  Li  Li1  1  0.750000  0.354233  0.648828  1
  Li  Li2  1  0.750000  0.856695  0.850741  1
  Li  Li3  1  0.250000  0.145630  0.148516  1
  Li  Li4  1  0.250000  0.494745  0.058707  1
  Li  Li5  1  0.750000  0.506373  0.941642  1
  Li  Li6  1  0.750000  0.999872  0.558370  1
  Li  Li7  1  0.250000  0.991576  0.442703  1
  La  La8  1  0.250000  0.533880  0.783863  1
  La  La9  1  0.750000  0.467148  0.216617  1
  La  La10  1  0.750000  0.966462  0.285233  1
  La  La11  1  0.250000  0.035218  0.713829  1
  La  La12  1  0.250000  0.652695  0.559602  1
  La  La13  1  0.750000  0.334916  0.443259  1
  La  La14  1  0.750000  0.839370  0.060195  1
  La  La15  1  0.250000  0.162074  0.939681  1
  Pt  Pt16  1  0.250000  0.761045  0.188523  1
  Pt  Pt17  1  0.750000  0.239381  0.810532  1
  Pt  Pt18  1  0.750000  0.743148  0.688292  1
  Pt  Pt19  1  0.250000  0.259953  0.311665  1
  Pt  Pt20  1  0.250000  0.747097  0.937524  1
  Pt  Pt21  1  0.750000  0.252736  0.062251  1
  Pt  Pt22  1  0.750000  0.753357  0.437381  1
  Rh  Rh23  1  0.250000  0.260356  0.559607  1
