# generated using pymatgen
data_Ba4HgP3Pt4
_symmetry_space_group_name_H-M   'P 1'
_cell_length_a   6.77623352
_cell_length_b   6.77623352
_cell_length_c   6.77623352
_cell_angle_alpha   90.67175319
_cell_angle_beta   89.32824681
_cell_angle_gamma   90.67175319
_symmetry_Int_Tables_number   1
_chemical_formula_structural   Ba4HgP3Pt4
_chemical_formula_sum   'Ba4 Hg1 P3 Pt4'
_cell_volume   311.08296589
_cell_formula_units_Z   1
loop_
 _symmetry_equiv_pos_site_id
 _symmetry_equiv_pos_as_xyz
  1  'x, y, z'
loop_
 _atom_site_type_symbol
 _atom_site_label
 _atom_site_symmetry_multiplicity
 _atom_site_fract_x
 _atom_site_fract_y
 _atom_site_fract_z
 _atom_site_occupancy
  Ba  Ba0  1  0.637612  0.382609  0.866749  1
  Ba  Ba1  1  0.366749  0.862388  0.617391  1
  Ba  Ba2  1  0.117391  0.133251  0.137612  1
  Ba  Ba3  1  0.868583  0.631417  0.368583  1
  Hg  Hg4  1  0.582710  0.917290  0.082710  1
  P  P5  1  0.083537  0.578272  0.908604  1
  P  P6  1  0.921728  0.091396  0.583537  1
  P  P7  1  0.408604  0.416463  0.421728  1
  Pt  Pt8  1  0.154275  0.345725  0.654275  1
  Pt  Pt9  1  0.663951  0.192351  0.387213  1
  Pt  Pt10  1  0.887213  0.836049  0.807649  1
  Pt  Pt11  1  0.307649  0.612787  0.163951  1
