# generated using pymatgen
data_Na10MnFe3P4(CO7)4
_symmetry_space_group_name_H-M   'P 1'
_cell_length_a   5.20485105
_cell_length_b   8.96962202
_cell_length_c   13.40277000
_cell_angle_alpha   89.93225781
_cell_angle_beta   89.94916436
_cell_angle_gamma   89.27510188
_symmetry_Int_Tables_number   1
_chemical_formula_structural   Na10MnFe3P4(CO7)4
_chemical_formula_sum   'Na10 Mn1 Fe3 P4 C4 O28'
_cell_volume   625.66488961
_cell_formula_units_Z   1
loop_
 _symmetry_equiv_pos_site_id
 _symmetry_equiv_pos_as_xyz
  1  'x, y, z'
loop_
 _atom_site_type_symbol
 _atom_site_label
 _atom_site_symmetry_multiplicity
 _atom_site_fract_x
 _atom_site_fract_y
 _atom_site_fract_z
 _atom_site_occupancy
  Na  Na0  1  0.242064  0.919632  0.374621  1
  Na  Na1  1  0.755624  0.751121  0.753889  1
  Na  Na2  1  0.758809  0.769647  0.996148  1
  Na  Na3  1  0.753711  0.751448  0.249736  1
  Na  Na4  1  0.750615  0.739692  0.500190  1
  Na  Na5  1  0.240562  0.230226  0.003047  1
  Na  Na6  1  0.243713  0.247527  0.245176  1
  Na  Na7  1  0.247993  0.260555  0.502308  1
  Na  Na8  1  0.246720  0.249725  0.749860  1
  Na  Na9  1  0.759742  0.079812  0.625930  1
  Mn  Mn10  1  0.778805  0.359311  0.374663  1
  Fe  Fe11  1  0.215780  0.645180  0.122871  1
  Fe  Fe12  1  0.216936  0.645205  0.626112  1
  Fe  Fe13  1  0.783262  0.354929  0.876034  1
  P  P14  1  0.287896  0.578574  0.875708  1
  P  P15  1  0.295825  0.585415  0.373292  1
  P  P16  1  0.712501  0.421663  0.122728  1
  P  P17  1  0.702475  0.415475  0.628047  1
  C  C18  1  0.264684  0.924068  0.125342  1
  C  C19  1  0.268973  0.937168  0.624578  1
  C  C20  1  0.734037  0.061580  0.375601  1
  C  C21  1  0.735051  0.075414  0.874483  1
  O  O22  1  0.708469  0.936509  0.870112  1
  O  O23  1  0.711464  0.918155  0.377274  1
  O  O24  1  0.040581  0.858439  0.123941  1
  O  O25  1  0.044193  0.874726  0.624211  1
  O  O26  1  0.473817  0.852000  0.624128  1
  O  O27  1  0.460545  0.828000  0.124454  1
  O  O28  1  0.212023  0.669132  0.783046  1
  O  O29  1  0.218898  0.666053  0.971722  1
  O  O30  1  0.212091  0.676061  0.278227  1
  O  O31  1  0.207657  0.679406  0.464965  1
  O  O32  1  0.586868  0.547537  0.874025  1
  O  O33  1  0.594534  0.571236  0.374033  1
  O  O34  1  0.849269  0.576131  0.122073  1
  O  O35  1  0.829712  0.569656  0.627385  1
  O  O36  1  0.151508  0.424204  0.877126  1
  O  O37  1  0.177482  0.428353  0.372981  1
  O  O38  1  0.413480  0.454105  0.125479  1
  O  O39  1  0.404382  0.434274  0.626719  1
  O  O40  1  0.778774  0.335600  0.026068  1
  O  O41  1  0.789661  0.329375  0.214015  1
  O  O42  1  0.788520  0.317467  0.538155  1
  O  O43  1  0.781868  0.324461  0.723788  1
  O  O44  1  0.538673  0.170857  0.875748  1
  O  O45  1  0.530374  0.147793  0.375533  1
  O  O46  1  0.959003  0.141295  0.875809  1
  O  O47  1  0.959919  0.122361  0.375882  1
  O  O48  1  0.292180  0.062813  0.129325  1
  O  O49  1  0.288279  0.080635  0.623415  1
