# generated using pymatgen
data_Nd4Ho16Si15Au
_symmetry_space_group_name_H-M   'P 1'
_cell_length_a   7.46746312
_cell_length_b   7.72597774
_cell_length_c   14.71102920
_cell_angle_alpha   90.15585144
_cell_angle_beta   89.39880543
_cell_angle_gamma   89.77521290
_symmetry_Int_Tables_number   1
_chemical_formula_structural   Nd4Ho16Si15Au
_chemical_formula_sum   'Nd4 Ho16 Si15 Au1'
_cell_volume   848.67359502
_cell_formula_units_Z   1
loop_
 _symmetry_equiv_pos_site_id
 _symmetry_equiv_pos_as_xyz
  1  'x, y, z'
loop_
 _atom_site_type_symbol
 _atom_site_label
 _atom_site_symmetry_multiplicity
 _atom_site_fract_x
 _atom_site_fract_y
 _atom_site_fract_z
 _atom_site_occupancy
  Nd  Nd0  1  0.228420  0.681256  0.152892  1
  Nd  Nd1  1  0.733555  0.818905  0.848829  1
  Nd  Nd2  1  0.268814  0.325756  0.652950  1
  Nd  Nd3  1  0.770704  0.180723  0.345671  1
  Ho  Ho4  1  0.919311  0.675863  0.625690  1
  Ho  Ho5  1  0.427214  0.821529  0.373025  1
  Ho  Ho6  1  0.572660  0.323217  0.125346  1
  Ho  Ho7  1  0.076074  0.171371  0.875008  1
  Ho  Ho8  1  0.578464  0.320529  0.872925  1
  Ho  Ho9  1  0.074478  0.180214  0.128600  1
  Ho  Ho10  1  0.927073  0.680202  0.370857  1
  Ho  Ho11  1  0.424591  0.822892  0.628727  1
  Ho  Ho12  1  0.090509  0.009453  0.501406  1
  Ho  Ho13  1  0.590793  0.489319  0.499315  1
  Ho  Ho14  1  0.407983  0.990409  0.999563  1
  Ho  Ho15  1  0.907104  0.506626  0.998634  1
  Ho  Ho16  1  0.275685  0.318613  0.350875  1
  Ho  Ho17  1  0.767544  0.181121  0.647541  1
  Ho  Ho18  1  0.230801  0.678501  0.853506  1
  Ho  Ho19  1  0.725315  0.817224  0.149006  1
  Si  Si20  1  0.596746  0.534968  0.286930  1
  Si  Si21  1  0.404863  0.036436  0.212876  1
  Si  Si22  1  0.908867  0.463643  0.788592  1
  Si  Si23  1  0.407675  0.028286  0.792817  1
  Si  Si24  1  0.892002  0.474358  0.207849  1
  Si  Si25  1  0.108578  0.974740  0.291180  1
  Si  Si26  1  0.601680  0.528386  0.710318  1
  Si  Si27  1  0.975511  0.376908  0.497560  1
  Si  Si28  1  0.473991  0.124542  0.498719  1
  Si  Si29  1  0.525361  0.625510  0.000092  1
  Si  Si30  1  0.024242  0.872464  0.003250  1
  Si  Si31  1  0.218148  0.611716  0.497867  1
  Si  Si32  1  0.716903  0.891026  0.498287  1
  Si  Si33  1  0.279324  0.390416  0.000255  1
  Si  Si34  1  0.780953  0.107186  0.002583  1
  Au  Au35  1  0.088068  0.965692  0.710459  1
