# generated using pymatgen
data_CaPr(GaN)2
_symmetry_space_group_name_H-M   'P 1'
_cell_length_a   3.71160500
_cell_length_b   3.71160500
_cell_length_c   7.46044400
_cell_angle_alpha   90.00000000
_cell_angle_beta   90.00000000
_cell_angle_gamma   90.00000000
_symmetry_Int_Tables_number   1
_chemical_formula_structural   CaPr(GaN)2
_chemical_formula_sum   'Ca1 Pr1 Ga2 N2'
_cell_volume   102.77516365
_cell_formula_units_Z   1
loop_
 _symmetry_equiv_pos_site_id
 _symmetry_equiv_pos_as_xyz
  1  'x, y, z'
loop_
 _atom_site_type_symbol
 _atom_site_label
 _atom_site_symmetry_multiplicity
 _atom_site_fract_x
 _atom_site_fract_y
 _atom_site_fract_z
 _atom_site_occupancy
  Ca  Ca0  1  0.500000  0.000000  0.337627  1
  Pr  Pr1  1  0.000000  0.500000  0.653642  1
  Ga  Ga2  1  0.000000  0.500000  0.077141  1
  Ga  Ga3  1  0.500000  0.000000  0.930961  1
  N  N4  1  0.000000  0.500000  0.334277  1
  N  N5  1  0.500000  0.000000  0.666353  1
