# generated using pymatgen
data_Nb3Tl(TeO6)2
_symmetry_space_group_name_H-M   'P 1'
_cell_length_a   3.98979900
_cell_length_b   15.21514400
_cell_length_c   17.76537100
_cell_angle_alpha   90.00000000
_cell_angle_beta   90.00000000
_cell_angle_gamma   90.00000000
_symmetry_Int_Tables_number   1
_chemical_formula_structural   Nb3Tl(TeO6)2
_chemical_formula_sum   'Nb12 Tl4 Te8 O48'
_cell_volume   1078.45335430
_cell_formula_units_Z   4
loop_
 _symmetry_equiv_pos_site_id
 _symmetry_equiv_pos_as_xyz
  1  'x, y, z'
loop_
 _atom_site_type_symbol
 _atom_site_label
 _atom_site_symmetry_multiplicity
 _atom_site_fract_x
 _atom_site_fract_y
 _atom_site_fract_z
 _atom_site_occupancy
  Nb  Nb0  1  0.249279  0.793614  0.750000  1
  Nb  Nb1  1  0.750721  0.206386  0.250000  1
  Nb  Nb2  1  0.249279  0.706386  0.250000  1
  Nb  Nb3  1  0.750721  0.293614  0.750000  1
  Nb  Nb4  1  0.756016  0.150643  0.569439  1
  Nb  Nb5  1  0.243984  0.849357  0.069439  1
  Nb  Nb6  1  0.756016  0.349357  0.430561  1
  Nb  Nb7  1  0.243984  0.650643  0.930561  1
  Nb  Nb8  1  0.243984  0.849357  0.430561  1
  Nb  Nb9  1  0.756016  0.150643  0.930561  1
  Nb  Nb10  1  0.243984  0.650643  0.569439  1
  Nb  Nb11  1  0.756016  0.349357  0.069439  1
  Tl  Tl12  1  0.220734  0.071212  0.750000  1
  Tl  Tl13  1  0.779266  0.928788  0.250000  1
  Tl  Tl14  1  0.220734  0.428788  0.250000  1
  Tl  Tl15  1  0.779266  0.571212  0.750000  1
  Te  Te16  1  0.624635  0.913673  0.596917  1
  Te  Te17  1  0.375365  0.086327  0.096917  1
  Te  Te18  1  0.624635  0.586327  0.403083  1
  Te  Te19  1  0.375365  0.413673  0.903083  1
  Te  Te20  1  0.375365  0.086327  0.403083  1
  Te  Te21  1  0.624635  0.913673  0.903083  1
  Te  Te22  1  0.375365  0.413673  0.596917  1
  Te  Te23  1  0.624635  0.586327  0.096917  1
  O  O24  1  0.281844  0.932749  0.524038  1
  O  O25  1  0.718156  0.067251  0.024038  1
  O  O26  1  0.281844  0.567251  0.475962  1
  O  O27  1  0.718156  0.432749  0.975962  1
  O  O28  1  0.718156  0.067251  0.475962  1
  O  O29  1  0.281844  0.932749  0.975962  1
  O  O30  1  0.718156  0.432749  0.524038  1
  O  O31  1  0.281844  0.567251  0.024038  1
  O  O32  1  0.701369  0.031091  0.628489  1
  O  O33  1  0.298631  0.968909  0.128489  1
  O  O34  1  0.701369  0.468909  0.371511  1
  O  O35  1  0.298631  0.531091  0.871511  1
  O  O36  1  0.298631  0.968909  0.371511  1
  O  O37  1  0.701369  0.031091  0.871511  1
  O  O38  1  0.298631  0.531091  0.628489  1
  O  O39  1  0.701369  0.468909  0.128489  1
  O  O40  1  0.293045  0.896016  0.673237  1
  O  O41  1  0.706955  0.103984  0.173237  1
  O  O42  1  0.293045  0.603984  0.326763  1
  O  O43  1  0.706955  0.396016  0.826763  1
  O  O44  1  0.706955  0.103984  0.326763  1
  O  O45  1  0.293045  0.896016  0.826763  1
  O  O46  1  0.706955  0.396016  0.673237  1
  O  O47  1  0.293045  0.603984  0.173237  1
  O  O48  1  0.295974  0.708464  0.667420  1
  O  O49  1  0.704026  0.291536  0.167420  1
  O  O50  1  0.295974  0.791536  0.332580  1
  O  O51  1  0.704026  0.208464  0.832580  1
  O  O52  1  0.704026  0.291536  0.332580  1
  O  O53  1  0.295974  0.708464  0.832580  1
  O  O54  1  0.704026  0.208464  0.667420  1
  O  O55  1  0.295974  0.791536  0.167420  1
  O  O56  1  0.788409  0.802490  0.750000  1
  O  O57  1  0.211591  0.197510  0.250000  1
  O  O58  1  0.788409  0.697510  0.250000  1
  O  O59  1  0.211591  0.302490  0.750000  1
  O  O60  1  0.702394  0.250000  0.500000  1
  O  O61  1  0.297606  0.750000  0.000000  1
  O  O62  1  0.297606  0.750000  0.500000  1
  O  O63  1  0.702394  0.250000  0.000000  1
  O  O64  1  0.215540  0.145829  0.566381  1
  O  O65  1  0.784460  0.854171  0.066381  1
  O  O66  1  0.215540  0.354171  0.433619  1
  O  O67  1  0.784460  0.645829  0.933619  1
  O  O68  1  0.784460  0.854171  0.433619  1
  O  O69  1  0.215540  0.145829  0.933619  1
  O  O70  1  0.784460  0.645829  0.566381  1
  O  O71  1  0.215540  0.354171  0.066381  1
