# generated using pymatgen
data_Nd2Th6TiSe17
_symmetry_space_group_name_H-M   'P 1'
_cell_length_a   8.45129060
_cell_length_b   8.45129086
_cell_length_c   11.19407031
_cell_angle_alpha   80.70200823
_cell_angle_beta   80.70201452
_cell_angle_gamma   65.32746003
_symmetry_Int_Tables_number   1
_chemical_formula_structural   Nd2Th6TiSe17
_chemical_formula_sum   'Nd2 Th6 Ti1 Se17'
_cell_volume   713.03242115
_cell_formula_units_Z   1
loop_
 _symmetry_equiv_pos_site_id
 _symmetry_equiv_pos_as_xyz
  1  'x, y, z'
loop_
 _atom_site_type_symbol
 _atom_site_label
 _atom_site_symmetry_multiplicity
 _atom_site_fract_x
 _atom_site_fract_y
 _atom_site_fract_z
 _atom_site_occupancy
  Nd  Nd0  1  0.814018  0.304294  0.296968  1
  Nd  Nd1  1  0.304294  0.814018  0.296968  1
  Th  Th2  1  0.185300  0.698414  0.701307  1
  Th  Th3  1  0.698414  0.185300  0.701307  1
  Th  Th4  1  0.203968  0.203968  0.539845  1
  Th  Th5  1  0.794219  0.794219  0.457736  1
  Th  Th6  1  0.680059  0.680059  0.983918  1
  Th  Th7  1  0.319990  0.319990  0.021057  1
  Ti  Ti8  1  0.004435  0.004435  0.007379  1
  Se  Se9  1  0.822412  0.431733  0.537063  1
  Se  Se10  1  0.431733  0.822412  0.537063  1
  Se  Se11  1  0.174604  0.568216  0.469206  1
  Se  Se12  1  0.568216  0.174604  0.469206  1
  Se  Se13  1  0.944107  0.321348  0.021702  1
  Se  Se14  1  0.321348  0.944107  0.021702  1
  Se  Se15  1  0.057295  0.679905  0.971692  1
  Se  Se16  1  0.679905  0.057295  0.971692  1
  Se  Se17  1  0.210803  0.210803  0.275403  1
  Se  Se18  1  0.789762  0.789762  0.725495  1
  Se  Se19  1  0.057921  0.057921  0.775804  1
  Se  Se20  1  0.937274  0.937274  0.223712  1
  Se  Se21  1  0.303498  0.303498  0.754597  1
  Se  Se22  1  0.698589  0.698589  0.242922  1
  Se  Se23  1  0.519892  0.519892  0.832396  1
  Se  Se24  1  0.480264  0.480264  0.160081  1
  Se  Se25  1  0.997683  0.997683  0.503779  1
