# generated using pymatgen
data_Er8Nb11Si16Rh
_symmetry_space_group_name_H-M   'P 1'
_cell_length_a   7.02961387
_cell_length_b   7.02961384
_cell_length_c   12.95722759
_cell_angle_alpha   90.21566123
_cell_angle_beta   89.78433882
_cell_angle_gamma   89.70597962
_symmetry_Int_Tables_number   1
_chemical_formula_structural   Er8Nb11Si16Rh
_chemical_formula_sum   'Er8 Nb11 Si16 Rh1'
_cell_volume   640.26995485
_cell_formula_units_Z   1
loop_
 _symmetry_equiv_pos_site_id
 _symmetry_equiv_pos_as_xyz
  1  'x, y, z'
loop_
 _atom_site_type_symbol
 _atom_site_label
 _atom_site_symmetry_multiplicity
 _atom_site_fract_x
 _atom_site_fract_y
 _atom_site_fract_z
 _atom_site_occupancy
  Er  Er0  1  0.341580  0.002922  0.467670  1
  Er  Er1  1  0.495947  0.842496  0.718877  1
  Er  Er2  1  0.501322  0.158063  0.216623  1
  Er  Er3  1  0.842496  0.495947  0.281123  1
  Er  Er4  1  0.158063  0.501322  0.783377  1
  Er  Er5  1  0.656698  0.998303  0.968109  1
  Er  Er6  1  0.002922  0.341580  0.532330  1
  Er  Er7  1  0.998303  0.656698  0.031891  1
  Nb  Nb8  1  0.174827  0.827869  0.247436  1
  Nb  Nb9  1  0.827869  0.174827  0.752564  1
  Nb  Nb10  1  0.671404  0.671404  0.500000  1
  Nb  Nb11  1  0.149071  0.002461  0.874784  1
  Nb  Nb12  1  0.495739  0.657982  0.123838  1
  Nb  Nb13  1  0.504401  0.348185  0.625453  1
  Nb  Nb14  1  0.657982  0.495739  0.876162  1
  Nb  Nb15  1  0.348185  0.504401  0.374547  1
  Nb  Nb16  1  0.848648  0.993922  0.373798  1
  Nb  Nb17  1  0.002461  0.149071  0.125216  1
  Nb  Nb18  1  0.993922  0.848648  0.626202  1
  Si  Si19  1  0.203089  0.136521  0.683243  1
  Si  Si20  1  0.368211  0.703086  0.932583  1
  Si  Si21  1  0.635674  0.295306  0.432025  1
  Si  Si22  1  0.703086  0.368211  0.067417  1
  Si  Si23  1  0.295306  0.635674  0.567975  1
  Si  Si24  1  0.795477  0.864889  0.182514  1
  Si  Si25  1  0.136521  0.203089  0.316757  1
  Si  Si26  1  0.864889  0.795477  0.817486  1
  Si  Si27  1  0.290478  0.955006  0.060918  1
  Si  Si28  1  0.546038  0.794676  0.313408  1
  Si  Si29  1  0.448426  0.208872  0.817171  1
  Si  Si30  1  0.794676  0.546038  0.686592  1
  Si  Si31  1  0.208872  0.448426  0.182829  1
  Si  Si32  1  0.705265  0.046358  0.564350  1
  Si  Si33  1  0.955006  0.290478  0.939082  1
  Si  Si34  1  0.046358  0.705265  0.435650  1
  Rh  Rh35  1  0.330785  0.330785  0.000000  1
