# generated using pymatgen
data_Ti5BeFe4
_symmetry_space_group_name_H-M   'P 1'
_cell_length_a   2.96798700
_cell_length_b   2.96798700
_cell_length_c   14.65720000
_cell_angle_alpha   90.00000000
_cell_angle_beta   90.00000000
_cell_angle_gamma   90.00000000
_symmetry_Int_Tables_number   1
_chemical_formula_structural   Ti5BeFe4
_chemical_formula_sum   'Ti5 Be1 Fe4'
_cell_volume   129.11449551
_cell_formula_units_Z   1
loop_
 _symmetry_equiv_pos_site_id
 _symmetry_equiv_pos_as_xyz
  1  'x, y, z'
loop_
 _atom_site_type_symbol
 _atom_site_label
 _atom_site_symmetry_multiplicity
 _atom_site_fract_x
 _atom_site_fract_y
 _atom_site_fract_z
 _atom_site_occupancy
  Ti  Ti0  1  0.500000  0.500000  0.098891  1
  Ti  Ti1  1  0.500000  0.500000  0.299160  1
  Ti  Ti2  1  0.500000  0.500000  0.500000  1
  Ti  Ti3  1  0.500000  0.500000  0.700840  1
  Ti  Ti4  1  0.500000  0.500000  0.901109  1
  Be  Be5  1  0.000000  0.000000  0.000000  1
  Fe  Fe6  1  0.000000  0.000000  0.197461  1
  Fe  Fe7  1  0.000000  0.000000  0.399549  1
  Fe  Fe8  1  0.000000  0.000000  0.600451  1
  Fe  Fe9  1  0.000000  0.000000  0.802539  1
