# generated using pymatgen
data_Tm5SnRu2
_symmetry_space_group_name_H-M   'P 1'
_cell_length_a   8.63672410
_cell_length_b   8.63672296
_cell_length_c   8.63672367
_cell_angle_alpha   127.79183691
_cell_angle_beta   127.79183226
_cell_angle_gamma   76.96249753
_symmetry_Int_Tables_number   1
_chemical_formula_structural   Tm5SnRu2
_chemical_formula_sum   'Tm10 Sn2 Ru4'
_cell_volume   390.54944954
_cell_formula_units_Z   2
loop_
 _symmetry_equiv_pos_site_id
 _symmetry_equiv_pos_as_xyz
  1  'x, y, z'
loop_
 _atom_site_type_symbol
 _atom_site_label
 _atom_site_symmetry_multiplicity
 _atom_site_fract_x
 _atom_site_fract_y
 _atom_site_fract_z
 _atom_site_occupancy
  Tm  Tm0  1  0.000000  0.000000  0.000000  1
  Tm  Tm1  1  0.500000  0.500000  0.000000  1
  Tm  Tm2  1  0.791572  0.291572  0.816929  1
  Tm  Tm3  1  0.208428  0.708428  0.183071  1
  Tm  Tm4  1  0.474643  0.974643  0.183071  1
  Tm  Tm5  1  0.291572  0.474643  0.500000  1
  Tm  Tm6  1  0.025357  0.208428  0.500000  1
  Tm  Tm7  1  0.525357  0.025357  0.816929  1
  Tm  Tm8  1  0.708428  0.525357  0.500000  1
  Tm  Tm9  1  0.974643  0.791572  0.500000  1
  Sn  Sn10  1  0.250000  0.250000  0.000000  1
  Sn  Sn11  1  0.750000  0.750000  0.000000  1
  Ru  Ru12  1  0.140834  0.640834  0.781666  1
  Ru  Ru13  1  0.859166  0.359166  0.218334  1
  Ru  Ru14  1  0.640834  0.859166  0.500000  1
  Ru  Ru15  1  0.359166  0.140834  0.500000  1
