# generated using pymatgen
data_Tb2YEr(Ga3Rh)6
_symmetry_space_group_name_H-M   'P 1'
_cell_length_a   7.57769112
_cell_length_b   7.58057762
_cell_length_c   9.52772100
_cell_angle_alpha   90.00000000
_cell_angle_beta   90.00000000
_cell_angle_gamma   119.82537481
_symmetry_Int_Tables_number   1
_chemical_formula_structural   Tb2YEr(Ga3Rh)6
_chemical_formula_sum   'Tb2 Y1 Er1 Ga18 Rh6'
_cell_volume   474.81056764
_cell_formula_units_Z   1
loop_
 _symmetry_equiv_pos_site_id
 _symmetry_equiv_pos_as_xyz
  1  'x, y, z'
loop_
 _atom_site_type_symbol
 _atom_site_label
 _atom_site_symmetry_multiplicity
 _atom_site_fract_x
 _atom_site_fract_y
 _atom_site_fract_z
 _atom_site_occupancy
  Tb  Tb0  1  0.002991  0.331871  0.750000  1
  Tb  Tb1  1  0.668072  0.997019  0.250000  1
  Y  Y2  1  0.996969  0.668040  0.250000  1
  Er  Er3  1  0.331980  0.003012  0.750000  1
  Ga  Ga4  1  0.124934  0.125233  0.250000  1
  Ga  Ga5  1  0.875284  0.875175  0.750000  1
  Ga  Ga6  1  0.000258  0.334038  0.079951  1
  Ga  Ga7  1  0.000057  0.665846  0.919244  1
  Ga  Ga8  1  0.000057  0.665846  0.580756  1
  Ga  Ga9  1  0.334768  0.000540  0.420233  1
  Ga  Ga10  1  0.000258  0.334038  0.420049  1
  Ga  Ga11  1  0.665160  0.999744  0.580467  1
  Ga  Ga12  1  0.665160  0.999744  0.919533  1
  Ga  Ga13  1  0.334768  0.000540  0.079767  1
  Ga  Ga14  1  0.332699  0.332435  0.564842  1
  Ga  Ga15  1  0.667079  0.667401  0.435944  1
  Ga  Ga16  1  0.667079  0.667401  0.064056  1
  Ga  Ga17  1  0.332699  0.332435  0.935158  1
  Ga  Ga18  1  0.339136  0.548057  0.250000  1
  Ga  Ga19  1  0.660857  0.451743  0.750000  1
  Ga  Ga20  1  0.547597  0.338393  0.250000  1
  Ga  Ga21  1  0.452033  0.661347  0.750000  1
  Rh  Rh22  1  0.671370  0.328346  0.999768  1
  Rh  Rh23  1  0.328339  0.671462  0.999771  1
  Rh  Rh24  1  0.328339  0.671462  0.500229  1
  Rh  Rh25  1  0.671370  0.328346  0.500232  1
  Rh  Rh26  1  0.000346  0.000241  0.999628  1
  Rh  Rh27  1  0.000346  0.000241  0.500372  1
