# generated using pymatgen
data_Y5Re2C7
_symmetry_space_group_name_H-M   'P 1'
_cell_length_a   8.34030619
_cell_length_b   8.34030645
_cell_length_c   3.43179100
_cell_angle_alpha   90.00000000
_cell_angle_beta   90.00000000
_cell_angle_gamma   122.57396851
_symmetry_Int_Tables_number   1
_chemical_formula_structural   Y5Re2C7
_chemical_formula_sum   'Y5 Re2 C7'
_cell_volume   201.16681018
_cell_formula_units_Z   1
loop_
 _symmetry_equiv_pos_site_id
 _symmetry_equiv_pos_as_xyz
  1  'x, y, z'
loop_
 _atom_site_type_symbol
 _atom_site_label
 _atom_site_symmetry_multiplicity
 _atom_site_fract_x
 _atom_site_fract_y
 _atom_site_fract_z
 _atom_site_occupancy
  Y  Y0  1  0.500000  0.500000  0.000000  1
  Y  Y1  1  0.075640  0.334697  0.500000  1
  Y  Y2  1  0.924360  0.665303  0.500000  1
  Y  Y3  1  0.665303  0.924360  0.500000  1
  Y  Y4  1  0.334697  0.075640  0.500000  1
  Re  Re5  1  0.714274  0.285726  0.000000  1
  Re  Re6  1  0.285726  0.714274  0.000000  1
  C  C7  1  0.627663  0.372337  0.500000  1
  C  C8  1  0.372337  0.627663  0.500000  1
  C  C9  1  0.000000  0.000000  0.000000  1
  C  C10  1  0.169351  0.169351  0.000000  1
  C  C11  1  0.830649  0.830649  0.000000  1
  C  C12  1  0.000000  0.500000  0.000000  1
  C  C13  1  0.500000  0.000000  0.000000  1
