# generated using pymatgen
data_AgBi3Ir3RhO14
_symmetry_space_group_name_H-M   'P 1'
_cell_length_a   7.39613406
_cell_length_b   7.24943826
_cell_length_c   7.39613400
_cell_angle_alpha   59.32832791
_cell_angle_beta   60.00000026
_cell_angle_gamma   59.32832782
_symmetry_Int_Tables_number   1
_chemical_formula_structural   AgBi3Ir3RhO14
_chemical_formula_sum   'Ag1 Bi3 Ir3 Rh1 O14'
_cell_volume   277.53284045
_cell_formula_units_Z   1
loop_
 _symmetry_equiv_pos_site_id
 _symmetry_equiv_pos_as_xyz
  1  'x, y, z'
loop_
 _atom_site_type_symbol
 _atom_site_label
 _atom_site_symmetry_multiplicity
 _atom_site_fract_x
 _atom_site_fract_y
 _atom_site_fract_z
 _atom_site_occupancy
  Ag  Ag0  1  0.125000  0.625000  0.125000  1
  Bi  Bi1  1  0.125000  0.125000  0.125000  1
  Bi  Bi2  1  0.625000  0.125000  0.125000  1
  Bi  Bi3  1  0.125000  0.125000  0.625000  1
  Ir  Ir4  1  0.625000  0.625000  0.625000  1
  Ir  Ir5  1  0.625000  0.625000  0.125000  1
  Ir  Ir6  1  0.125000  0.625000  0.625000  1
  Rh  Rh7  1  0.625000  0.125000  0.625000  1
  O  O8  1  0.245425  0.263724  0.245425  1
  O  O9  1  0.300620  0.704905  0.300620  1
  O  O10  1  0.958466  0.958517  0.541508  1
  O  O11  1  0.541508  0.958517  0.541508  1
  O  O12  1  0.693856  0.704905  0.300620  1
  O  O13  1  0.949380  0.545095  0.556144  1
  O  O14  1  0.708492  0.291483  0.708492  1
  O  O15  1  0.291534  0.291483  0.708492  1
  O  O16  1  0.708492  0.291483  0.291534  1
  O  O17  1  0.300620  0.704905  0.693856  1
  O  O18  1  0.949380  0.545095  0.949380  1
  O  O19  1  0.556144  0.545095  0.949380  1
  O  O20  1  0.004575  0.986276  0.004575  1
  O  O21  1  0.541508  0.958517  0.958466  1
