# generated using pymatgen
data_Tb5Ho11(CdIr)4
_symmetry_space_group_name_H-M   'P 1'
_cell_length_a   9.63554683
_cell_length_b   9.62839446
_cell_length_c   9.62839504
_cell_angle_alpha   59.96414075
_cell_angle_beta   59.97542010
_cell_angle_gamma   59.97542452
_symmetry_Int_Tables_number   1
_chemical_formula_structural   Tb5Ho11(CdIr)4
_chemical_formula_sum   'Tb5 Ho11 Cd4 Ir4'
_cell_volume   631.23338488
_cell_formula_units_Z   1
loop_
 _symmetry_equiv_pos_site_id
 _symmetry_equiv_pos_as_xyz
  1  'x, y, z'
loop_
 _atom_site_type_symbol
 _atom_site_label
 _atom_site_symmetry_multiplicity
 _atom_site_fract_x
 _atom_site_fract_y
 _atom_site_fract_z
 _atom_site_occupancy
  Tb  Tb0  1  0.811592  0.188408  0.188408  1
  Tb  Tb1  1  0.812127  0.188181  0.811654  1
  Tb  Tb2  1  0.188038  0.811654  0.188181  1
  Tb  Tb3  1  0.812127  0.811654  0.188181  1
  Tb  Tb4  1  0.188038  0.188181  0.811654  1
  Ho  Ho5  1  0.598160  0.599210  0.599210  1
  Ho  Ho6  1  0.598751  0.599813  0.202685  1
  Ho  Ho7  1  0.598751  0.202685  0.599813  1
  Ho  Ho8  1  0.203420  0.599210  0.599210  1
  Ho  Ho9  1  0.060880  0.439120  0.439120  1
  Ho  Ho10  1  0.439003  0.060997  0.060997  1
  Ho  Ho11  1  0.439482  0.060225  0.438800  1
  Ho  Ho12  1  0.061493  0.438800  0.060225  1
  Ho  Ho13  1  0.439482  0.438800  0.060225  1
  Ho  Ho14  1  0.061493  0.060225  0.438800  1
  Ho  Ho15  1  0.188273  0.811727  0.811727  1
  Cd  Cd16  1  0.831350  0.830757  0.830757  1
  Cd  Cd17  1  0.831100  0.830963  0.506838  1
  Cd  Cd18  1  0.831100  0.506838  0.830963  1
  Cd  Cd19  1  0.507136  0.830757  0.830757  1
  Ir  Ir20  1  0.391148  0.392121  0.392121  1
  Ir  Ir21  1  0.391224  0.392806  0.824747  1
  Ir  Ir22  1  0.391224  0.824747  0.392806  1
  Ir  Ir23  1  0.824610  0.392121  0.392121  1
