# generated using pymatgen
data_Ho16Cd4Ru2PtRh
_symmetry_space_group_name_H-M   'P 1'
_cell_length_a   9.60811144
_cell_length_b   9.60084585
_cell_length_c   9.64163600
_cell_angle_alpha   59.85936454
_cell_angle_beta   59.88451802
_cell_angle_gamma   59.61569121
_symmetry_Int_Tables_number   1
_chemical_formula_structural   Ho16Cd4Ru2PtRh
_chemical_formula_sum   'Ho16 Cd4 Ru2 Pt1 Rh1'
_cell_volume   625.84600487
_cell_formula_units_Z   1
loop_
 _symmetry_equiv_pos_site_id
 _symmetry_equiv_pos_as_xyz
  1  'x, y, z'
loop_
 _atom_site_type_symbol
 _atom_site_label
 _atom_site_symmetry_multiplicity
 _atom_site_fract_x
 _atom_site_fract_y
 _atom_site_fract_z
 _atom_site_occupancy
  Ho  Ho0  1  0.597621  0.600999  0.599838  1
  Ho  Ho1  1  0.597621  0.600999  0.201544  1
  Ho  Ho2  1  0.596111  0.205393  0.599248  1
  Ho  Ho3  1  0.207642  0.596462  0.597948  1
  Ho  Ho4  1  0.064528  0.438007  0.440687  1
  Ho  Ho5  1  0.437341  0.062490  0.060315  1
  Ho  Ho6  1  0.437341  0.062490  0.439854  1
  Ho  Ho7  1  0.064528  0.438007  0.056777  1
  Ho  Ho8  1  0.438452  0.437854  0.061847  1
  Ho  Ho9  1  0.061694  0.056078  0.441114  1
  Ho  Ho10  1  0.187266  0.809792  0.814956  1
  Ho  Ho11  1  0.808499  0.187623  0.187500  1
  Ho  Ho12  1  0.808499  0.187623  0.816379  1
  Ho  Ho13  1  0.187266  0.809792  0.187987  1
  Ho  Ho14  1  0.812339  0.814742  0.186460  1
  Ho  Ho15  1  0.188052  0.187952  0.811998  1
  Cd  Cd16  1  0.830375  0.830093  0.831183  1
  Cd  Cd17  1  0.830375  0.830093  0.508350  1
  Cd  Cd18  1  0.831095  0.505871  0.831516  1
  Cd  Cd19  1  0.505510  0.831157  0.831666  1
  Ru  Ru20  1  0.394519  0.393245  0.386748  1
  Ru  Ru21  1  0.394519  0.393245  0.825489  1
  Pt  Pt22  1  0.824743  0.394086  0.390585  1
  Rh  Rh23  1  0.394068  0.825911  0.390011  1
