# generated using pymatgen
data_Y6Co2P12Ru9Rh7
_symmetry_space_group_name_H-M   'P 1'
_cell_length_a   3.89007000
_cell_length_b   11.17527516
_cell_length_c   12.63879552
_cell_angle_alpha   90.23621071
_cell_angle_beta   90.00000000
_cell_angle_gamma   90.00000000
_symmetry_Int_Tables_number   1
_chemical_formula_structural   Y6Co2P12Ru9Rh7
_chemical_formula_sum   'Y6 Co2 P12 Ru9 Rh7'
_cell_volume   549.43666621
_cell_formula_units_Z   1
loop_
 _symmetry_equiv_pos_site_id
 _symmetry_equiv_pos_as_xyz
  1  'x, y, z'
loop_
 _atom_site_type_symbol
 _atom_site_label
 _atom_site_symmetry_multiplicity
 _atom_site_fract_x
 _atom_site_fract_y
 _atom_site_fract_z
 _atom_site_occupancy
  Y  Y0  1  0.000000  0.500691  0.521241  1
  Y  Y1  1  0.500000  0.997700  0.478990  1
  Y  Y2  1  0.500000  0.819154  0.202352  1
  Y  Y3  1  0.500000  0.181478  0.203247  1
  Y  Y4  1  0.000000  0.681205  0.797500  1
  Y  Y5  1  0.000000  0.318704  0.797280  1
  Co  Co6  1  0.000000  0.499710  0.989929  1
  Co  Co7  1  0.500000  0.999887  0.009973  1
  P  P8  1  0.500000  0.499288  0.885535  1
  P  P9  1  0.000000  0.000173  0.114712  1
  P  P10  1  0.500000  0.499496  0.344870  1
  P  P11  1  0.000000  0.005803  0.655891  1
  P  P12  1  0.500000  0.308810  0.615729  1
  P  P13  1  0.500000  0.687050  0.616387  1
  P  P14  1  0.000000  0.191833  0.384369  1
  P  P15  1  0.000000  0.809558  0.381790  1
  P  P16  1  0.500000  0.846762  0.898780  1
  P  P17  1  0.500000  0.152161  0.899567  1
  P  P18  1  0.000000  0.652753  0.100621  1
  P  P19  1  0.000000  0.347941  0.100793  1
  Ru  Ru20  1  0.500000  0.500227  0.157884  1
  Ru  Ru21  1  0.000000  0.999613  0.842044  1
  Ru  Ru22  1  0.500000  0.335259  0.991323  1
  Ru  Ru23  1  0.500000  0.664119  0.991389  1
  Ru  Ru24  1  0.000000  0.164160  0.009104  1
  Ru  Ru25  1  0.000000  0.835705  0.008218  1
  Ru  Ru26  1  0.500000  0.298710  0.428244  1
  Ru  Ru27  1  0.500000  0.703335  0.429119  1
  Ru  Ru28  1  0.000000  0.202607  0.571744  1
  Rh  Rh29  1  0.500000  0.498931  0.700949  1
  Rh  Rh30  1  0.000000  0.000759  0.299601  1
  Rh  Rh31  1  0.000000  0.797694  0.571823  1
  Rh  Rh32  1  0.500000  0.873716  0.715398  1
  Rh  Rh33  1  0.500000  0.123105  0.716373  1
  Rh  Rh34  1  0.000000  0.625556  0.283670  1
  Rh  Rh35  1  0.000000  0.376347  0.283562  1
