# generated using pymatgen
data_Er4As6Ir6Ru
_symmetry_space_group_name_H-M   'P 1'
_cell_length_a   7.24832772
_cell_length_b   7.24832888
_cell_length_c   7.24832800
_cell_angle_alpha   109.47121539
_cell_angle_beta   109.47121861
_cell_angle_gamma   109.47122339
_symmetry_Int_Tables_number   1
_chemical_formula_structural   Er4As6Ir6Ru
_chemical_formula_sum   'Er4 As6 Ir6 Ru1'
_cell_volume   293.15120422
_cell_formula_units_Z   1
loop_
 _symmetry_equiv_pos_site_id
 _symmetry_equiv_pos_as_xyz
  1  'x, y, z'
loop_
 _atom_site_type_symbol
 _atom_site_label
 _atom_site_symmetry_multiplicity
 _atom_site_fract_x
 _atom_site_fract_y
 _atom_site_fract_z
 _atom_site_occupancy
  Er  Er0  1  0.000000  0.000000  0.500000  1
  Er  Er1  1  0.500000  0.000000  0.000000  1
  Er  Er2  1  0.000000  0.500000  0.000000  1
  Er  Er3  1  0.500000  0.500000  0.500000  1
  As  As4  1  0.684551  0.684551  0.000000  1
  As  As5  1  0.315449  0.315449  0.000000  1
  As  As6  1  0.000000  0.684551  0.684551  1
  As  As7  1  0.000000  0.315449  0.315449  1
  As  As8  1  0.684551  0.000000  0.684551  1
  As  As9  1  0.315449  0.000000  0.315449  1
  Ir  Ir10  1  0.250000  0.500000  0.750000  1
  Ir  Ir11  1  0.750000  0.250000  0.500000  1
  Ir  Ir12  1  0.500000  0.250000  0.750000  1
  Ir  Ir13  1  0.500000  0.750000  0.250000  1
  Ir  Ir14  1  0.750000  0.500000  0.250000  1
  Ir  Ir15  1  0.250000  0.750000  0.500000  1
  Ru  Ru16  1  0.000000  0.000000  0.000000  1
