# generated using pymatgen
data_ErLu2(Co3As2)3
_symmetry_space_group_name_H-M   'P 1'
_cell_length_a   3.78484300
_cell_length_b   10.83981900
_cell_length_c   12.62229500
_cell_angle_alpha   90.00000000
_cell_angle_beta   90.00000000
_cell_angle_gamma   90.00000000
_symmetry_Int_Tables_number   1
_chemical_formula_structural   ErLu2(Co3As2)3
_chemical_formula_sum   'Er2 Lu4 Co18 As12'
_cell_volume   517.85506186
_cell_formula_units_Z   2
loop_
 _symmetry_equiv_pos_site_id
 _symmetry_equiv_pos_as_xyz
  1  'x, y, z'
loop_
 _atom_site_type_symbol
 _atom_site_label
 _atom_site_symmetry_multiplicity
 _atom_site_fract_x
 _atom_site_fract_y
 _atom_site_fract_z
 _atom_site_occupancy
  Er  Er0  1  0.000000  0.500000  0.523330  1
  Er  Er1  1  0.500000  0.000000  0.476670  1
  Lu  Lu2  1  0.500000  0.819261  0.206531  1
  Lu  Lu3  1  0.500000  0.180739  0.206531  1
  Lu  Lu4  1  0.000000  0.680739  0.793469  1
  Lu  Lu5  1  0.000000  0.319261  0.793469  1
  Co  Co6  1  0.500000  0.500000  0.157011  1
  Co  Co7  1  0.000000  0.000000  0.842989  1
  Co  Co8  1  0.500000  0.500000  0.703141  1
  Co  Co9  1  0.000000  0.000000  0.296859  1
  Co  Co10  1  0.000000  0.500000  0.986455  1
  Co  Co11  1  0.500000  0.000000  0.013545  1
  Co  Co12  1  0.500000  0.332841  0.995799  1
  Co  Co13  1  0.500000  0.667159  0.995799  1
  Co  Co14  1  0.000000  0.167159  0.004201  1
  Co  Co15  1  0.000000  0.832841  0.004201  1
  Co  Co16  1  0.500000  0.298846  0.431000  1
  Co  Co17  1  0.500000  0.701154  0.431000  1
  Co  Co18  1  0.000000  0.201154  0.569000  1
  Co  Co19  1  0.000000  0.798846  0.569000  1
  Co  Co20  1  0.500000  0.878707  0.707403  1
  Co  Co21  1  0.500000  0.121293  0.707403  1
  Co  Co22  1  0.000000  0.621293  0.292597  1
  Co  Co23  1  0.000000  0.378707  0.292597  1
  As  As24  1  0.500000  0.500000  0.880511  1
  As  As25  1  0.000000  0.000000  0.119489  1
  As  As26  1  0.500000  0.500000  0.347323  1
  As  As27  1  0.000000  0.000000  0.652677  1
  As  As28  1  0.500000  0.313614  0.616962  1
  As  As29  1  0.500000  0.686386  0.616962  1
  As  As30  1  0.000000  0.186386  0.383038  1
  As  As31  1  0.000000  0.813614  0.383038  1
  As  As32  1  0.500000  0.845670  0.889491  1
  As  As33  1  0.500000  0.154330  0.889491  1
  As  As34  1  0.000000  0.654330  0.110509  1
  As  As35  1  0.000000  0.345670  0.110509  1
