# generated using pymatgen
data_KRb2Rh3F12
_symmetry_space_group_name_H-M   'P 1'
_cell_length_a   7.48137628
_cell_length_b   7.48137648
_cell_length_c   13.37525579
_cell_angle_alpha   74.19239876
_cell_angle_beta   74.19239884
_cell_angle_gamma   59.86399891
_symmetry_Int_Tables_number   1
_chemical_formula_structural   KRb2Rh3F12
_chemical_formula_sum   'K2 Rb4 Rh6 F24'
_cell_volume   614.62192946
_cell_formula_units_Z   2
loop_
 _symmetry_equiv_pos_site_id
 _symmetry_equiv_pos_as_xyz
  1  'x, y, z'
loop_
 _atom_site_type_symbol
 _atom_site_label
 _atom_site_symmetry_multiplicity
 _atom_site_fract_x
 _atom_site_fract_y
 _atom_site_fract_z
 _atom_site_occupancy
  K  K0  1  0.227032  0.772968  0.750000  1
  K  K1  1  0.772968  0.227032  0.250000  1
  Rb  Rb2  1  0.885668  0.477551  0.693002  1
  Rb  Rb3  1  0.114332  0.522449  0.306998  1
  Rb  Rb4  1  0.522449  0.114332  0.806998  1
  Rb  Rb5  1  0.477551  0.885668  0.193002  1
  Rh  Rh6  1  0.500000  0.000000  0.500000  1
  Rh  Rh7  1  0.000000  0.500000  0.000000  1
  Rh  Rh8  1  0.000000  0.000000  0.500000  1
  Rh  Rh9  1  0.000000  0.000000  0.000000  1
  Rh  Rh10  1  0.500000  0.500000  0.500000  1
  Rh  Rh11  1  0.500000  0.500000  0.000000  1
  F  F12  1  0.886538  0.968559  0.653812  1
  F  F13  1  0.525265  0.884908  0.652057  1
  F  F14  1  0.284748  0.393950  0.037689  1
  F  F15  1  0.688481  0.187406  0.033949  1
  F  F16  1  0.884908  0.525265  0.152057  1
  F  F17  1  0.115092  0.474735  0.847943  1
  F  F18  1  0.474735  0.115092  0.347943  1
  F  F19  1  0.812594  0.311519  0.466051  1
  F  F20  1  0.113462  0.031441  0.346188  1
  F  F21  1  0.606050  0.715252  0.462311  1
  F  F22  1  0.452353  0.521704  0.150704  1
  F  F23  1  0.393950  0.284748  0.537689  1
  F  F24  1  0.521704  0.452353  0.650704  1
  F  F25  1  0.810194  0.921695  0.458377  1
  F  F26  1  0.189806  0.078305  0.541623  1
  F  F27  1  0.547647  0.478296  0.849296  1
  F  F28  1  0.921695  0.810194  0.958377  1
  F  F29  1  0.478296  0.547647  0.349296  1
  F  F30  1  0.715252  0.606050  0.962311  1
  F  F31  1  0.968559  0.886538  0.153812  1
  F  F32  1  0.078305  0.189806  0.041623  1
  F  F33  1  0.311519  0.812594  0.966051  1
  F  F34  1  0.031441  0.113462  0.846188  1
  F  F35  1  0.187406  0.688481  0.533949  1
