# generated using pymatgen
data_Hf3BeAsPOs3
_symmetry_space_group_name_H-M   'P 1'
_cell_length_a   6.59517300
_cell_length_b   6.59517280
_cell_length_c   3.65409200
_cell_angle_alpha   90.00000000
_cell_angle_beta   90.00000000
_cell_angle_gamma   119.99998594
_symmetry_Int_Tables_number   1
_chemical_formula_structural   Hf3BeAsPOs3
_chemical_formula_sum   'Hf3 Be1 As1 P1 Os3'
_cell_volume   137.64566620
_cell_formula_units_Z   1
loop_
 _symmetry_equiv_pos_site_id
 _symmetry_equiv_pos_as_xyz
  1  'x, y, z'
loop_
 _atom_site_type_symbol
 _atom_site_label
 _atom_site_symmetry_multiplicity
 _atom_site_fract_x
 _atom_site_fract_y
 _atom_site_fract_z
 _atom_site_occupancy
  Hf  Hf0  1  0.396122  0.408739  0.500000  1
  Hf  Hf1  1  0.591261  0.987383  0.500000  1
  Hf  Hf2  1  0.012617  0.603878  0.500000  1
  Be  Be3  1  0.000000  0.000000  0.500000  1
  As  As4  1  0.666667  0.333333  0.000000  1
  P  P5  1  0.333333  0.666667  0.000000  1
  Os  Os6  1  0.755811  0.764389  0.000000  1
  Os  Os7  1  0.235611  0.991421  0.000000  1
  Os  Os8  1  0.008579  0.244189  0.000000  1
