# generated using pymatgen
data_Hf6BMo2As5Ru4
_symmetry_space_group_name_H-M   'P 1'
_cell_length_a   7.67767723
_cell_length_b   7.67755472
_cell_length_c   7.67767810
_cell_angle_alpha   126.70591911
_cell_angle_beta   124.30969875
_cell_angle_gamma   80.71375492
_symmetry_Int_Tables_number   1
_chemical_formula_structural   Hf6BMo2As5Ru4
_chemical_formula_sum   'Hf6 B1 Mo2 As5 Ru4'
_cell_volume   288.97660939
_cell_formula_units_Z   1
loop_
 _symmetry_equiv_pos_site_id
 _symmetry_equiv_pos_as_xyz
  1  'x, y, z'
loop_
 _atom_site_type_symbol
 _atom_site_label
 _atom_site_symmetry_multiplicity
 _atom_site_fract_x
 _atom_site_fract_y
 _atom_site_fract_z
 _atom_site_occupancy
  Hf  Hf0  1  0.448438  0.657138  0.708699  1
  Hf  Hf1  1  0.551957  0.258894  0.206936  1
  Hf  Hf2  1  0.750043  0.839549  0.589506  1
  Hf  Hf3  1  0.250072  0.859559  0.109487  1
  Hf  Hf4  1  0.051495  0.260373  0.708877  1
  Hf  Hf5  1  0.947965  0.654707  0.206742  1
  B  B6  1  0.249973  0.254961  0.504989  1
  Mo  Mo7  1  0.486512  0.491558  0.978069  1
  Mo  Mo8  1  0.013490  0.491558  0.505046  1
  As  As9  1  0.749887  0.227516  0.977630  1
  As  As10  1  0.331274  0.589099  0.255958  1
  As  As11  1  0.666982  0.924642  0.255869  1
  As  As12  1  0.168773  0.924642  0.757660  1
  As  As13  1  0.833143  0.589099  0.757825  1
  Ru  Ru14  1  0.153916  0.254893  0.167161  1
  Ru  Ru15  1  0.912421  0.013258  0.167330  1
  Ru  Ru16  1  0.345927  0.013258  0.600837  1
  Ru  Ru17  1  0.587732  0.254893  0.600977  1
