# generated using pymatgen
data_NdSmV2(WO6)2
_symmetry_space_group_name_H-M   'P 1'
_cell_length_a   5.36332352
_cell_length_b   7.53280674
_cell_length_c   11.20187400
_cell_angle_alpha   90.00000000
_cell_angle_beta   90.00000000
_cell_angle_gamma   89.94937294
_symmetry_Int_Tables_number   1
_chemical_formula_structural   NdSmV2(WO6)2
_chemical_formula_sum   'Nd2 Sm2 V4 W4 O24'
_cell_volume   452.56538565
_cell_formula_units_Z   2
loop_
 _symmetry_equiv_pos_site_id
 _symmetry_equiv_pos_as_xyz
  1  'x, y, z'
loop_
 _atom_site_type_symbol
 _atom_site_label
 _atom_site_symmetry_multiplicity
 _atom_site_fract_x
 _atom_site_fract_y
 _atom_site_fract_z
 _atom_site_occupancy
  Nd  Nd0  1  0.543506  0.253285  0.045257  1
  Nd  Nd1  1  0.043505  0.753285  0.454742  1
  Sm  Sm2  1  0.953800  0.253293  0.545893  1
  Sm  Sm3  1  0.453802  0.753293  0.954108  1
  V  V4  1  0.049777  0.506205  0.133691  1
  V  V5  1  0.549776  0.006205  0.366310  1
  V  V6  1  0.449417  0.505305  0.634570  1
  V  V7  1  0.949416  0.005305  0.865429  1
  W  W8  1  0.054895  0.997899  0.143430  1
  W  W9  1  0.554896  0.497899  0.356570  1
  W  W10  1  0.444366  0.999881  0.644276  1
  W  W11  1  0.944367  0.499881  0.855724  1
  O  O12  1  0.762822  0.543534  0.018752  1
  O  O13  1  0.768600  0.960034  0.029341  1
  O  O14  1  0.168186  0.755260  0.119086  1
  O  O15  1  0.948627  0.245918  0.141921  1
  O  O16  1  0.366105  0.063831  0.209286  1
  O  O17  1  0.383128  0.441914  0.215865  1
  O  O18  1  0.883127  0.941913  0.284136  1
  O  O19  1  0.866104  0.563831  0.290713  1
  O  O20  1  0.448629  0.745918  0.358079  1
  O  O21  1  0.668185  0.255261  0.380915  1
  O  O22  1  0.268600  0.460034  0.470660  1
  O  O23  1  0.262821  0.043533  0.481249  1
  O  O24  1  0.736922  0.538664  0.519992  1
  O  O25  1  0.730852  0.964080  0.530179  1
  O  O26  1  0.337361  0.756262  0.619774  1
  O  O27  1  0.556697  0.246411  0.644130  1
  O  O28  1  0.131397  0.066523  0.707991  1
  O  O29  1  0.113539  0.441901  0.714086  1
  O  O30  1  0.613538  0.941900  0.785914  1
  O  O31  1  0.631397  0.566523  0.792010  1
  O  O32  1  0.056698  0.746411  0.855870  1
  O  O33  1  0.837360  0.256263  0.880225  1
  O  O34  1  0.230851  0.464080  0.969821  1
  O  O35  1  0.236921  0.038663  0.980007  1
