# generated using pymatgen
data_Hf6Al5Ga(PdPt2)2
_symmetry_space_group_name_H-M   'P 1'
_cell_length_a   7.11471297
_cell_length_b   7.14955316
_cell_length_c   7.18760980
_cell_angle_alpha   89.99999661
_cell_angle_beta   89.81675635
_cell_angle_gamma   120.16212488
_symmetry_Int_Tables_number   1
_chemical_formula_structural   Hf6Al5Ga(PdPt2)2
_chemical_formula_sum   'Hf6 Al5 Ga1 Pd2 Pt4'
_cell_volume   316.10882352
_cell_formula_units_Z   1
loop_
 _symmetry_equiv_pos_site_id
 _symmetry_equiv_pos_as_xyz
  1  'x, y, z'
loop_
 _atom_site_type_symbol
 _atom_site_label
 _atom_site_symmetry_multiplicity
 _atom_site_fract_x
 _atom_site_fract_y
 _atom_site_fract_z
 _atom_site_occupancy
  Hf  Hf0  1  0.607612  0.581206  0.250170  1
  Hf  Hf1  1  0.025869  0.421268  0.751177  1
  Hf  Hf2  1  0.419395  0.025955  0.250039  1
  Hf  Hf3  1  0.974131  0.395397  0.248823  1
  Hf  Hf4  1  0.392388  0.973595  0.749830  1
  Hf  Hf5  1  0.580605  0.606561  0.749961  1
  Al  Al6  1  0.256948  0.258548  0.500010  1
  Al  Al7  1  0.743052  0.001600  0.499990  1
  Al  Al8  1  0.000000  0.742681  0.500000  1
  Al  Al9  1  0.741806  0.002662  0.999891  1
  Al  Al10  1  0.258194  0.260856  0.000109  1
  Ga  Ga11  1  0.000000  0.735498  0.000000  1
  Pd  Pd12  1  0.999576  0.001150  0.751249  1
  Pd  Pd13  1  0.000424  0.001574  0.248751  1
  Pt  Pt14  1  0.333103  0.665940  0.466705  1
  Pt  Pt15  1  0.339262  0.665968  0.034411  1
  Pt  Pt16  1  0.666897  0.332836  0.533295  1
  Pt  Pt17  1  0.660738  0.326705  0.965589  1
