# generated using pymatgen
data_RbFeAs2O7
_symmetry_space_group_name_H-M   'P 1'
_cell_length_a   6.53668629
_cell_length_b   6.60866258
_cell_length_c   8.53431663
_cell_angle_alpha   96.38191440
_cell_angle_beta   103.26289406
_cell_angle_gamma   103.88767040
_symmetry_Int_Tables_number   1
_chemical_formula_structural   RbFeAs2O7
_chemical_formula_sum   'Rb2 Fe2 As4 O14'
_cell_volume   342.91644679
_cell_formula_units_Z   2
loop_
 _symmetry_equiv_pos_site_id
 _symmetry_equiv_pos_as_xyz
  1  'x, y, z'
loop_
 _atom_site_type_symbol
 _atom_site_label
 _atom_site_symmetry_multiplicity
 _atom_site_fract_x
 _atom_site_fract_y
 _atom_site_fract_z
 _atom_site_occupancy
  Rb  Rb0  1  0.000000  0.500000  0.500000  1
  Rb  Rb1  1  0.000000  0.500000  0.000000  1
  Fe  Fe2  1  0.375264  0.188333  0.727192  1
  Fe  Fe3  1  0.624736  0.811667  0.272808  1
  As  As4  1  0.820942  0.030067  0.687495  1
  As  As5  1  0.487969  0.744935  0.835080  1
  As  As6  1  0.179058  0.969933  0.312505  1
  As  As7  1  0.512031  0.255065  0.164920  1
  O  O8  1  0.232408  0.123980  0.155435  1
  O  O9  1  0.320286  0.873746  0.727603  1
  O  O10  1  0.572146  0.499830  0.277937  1
  O  O11  1  0.917266  0.818062  0.227092  1
  O  O12  1  0.679714  0.126254  0.272397  1
  O  O13  1  0.767592  0.876020  0.844565  1
  O  O14  1  0.332153  0.793223  0.322972  1
  O  O15  1  0.462526  0.742471  0.028416  1
  O  O16  1  0.427854  0.500170  0.722063  1
  O  O17  1  0.219138  0.147396  0.483359  1
  O  O18  1  0.780862  0.852604  0.516641  1
  O  O19  1  0.082734  0.181938  0.772908  1
  O  O20  1  0.537474  0.257529  0.971584  1
  O  O21  1  0.667847  0.206777  0.677028  1
