# generated using pymatgen
data_YHoMoRuC3
_symmetry_space_group_name_H-M   'P 1'
_cell_length_a   6.03975488
_cell_length_b   6.03975490
_cell_length_c   5.69366054
_cell_angle_alpha   67.69494113
_cell_angle_beta   67.69494316
_cell_angle_gamma   32.36323604
_symmetry_Int_Tables_number   1
_chemical_formula_structural   YHoMoRuC3
_chemical_formula_sum   'Y1 Ho1 Mo1 Ru1 C3'
_cell_volume   102.12698629
_cell_formula_units_Z   1
loop_
 _symmetry_equiv_pos_site_id
 _symmetry_equiv_pos_as_xyz
  1  'x, y, z'
loop_
 _atom_site_type_symbol
 _atom_site_label
 _atom_site_symmetry_multiplicity
 _atom_site_fract_x
 _atom_site_fract_y
 _atom_site_fract_z
 _atom_site_occupancy
  Y  Y0  1  0.391144  0.391144  0.819453  1
  Ho  Ho1  1  0.608785  0.608785  0.168806  1
  Mo  Mo2  1  0.841681  0.841681  0.323476  1
  Ru  Ru3  1  0.159172  0.159172  0.681069  1
  C  C4  1  0.751829  0.751829  0.730400  1
  C  C5  1  0.245488  0.245488  0.272689  1
  C  C6  1  0.001901  0.001901  0.004107  1
