# generated using pymatgen
data_Rb8Cr5Tc3N16
_symmetry_space_group_name_H-M   'P 1'
_cell_length_a   5.86909704
_cell_length_b   8.34223959
_cell_length_c   11.76650582
_cell_angle_alpha   89.95818704
_cell_angle_beta   90.00810072
_cell_angle_gamma   89.98936724
_symmetry_Int_Tables_number   1
_chemical_formula_structural   Rb8Cr5Tc3N16
_chemical_formula_sum   'Rb8 Cr5 Tc3 N16'
_cell_volume   576.10458971
_cell_formula_units_Z   1
loop_
 _symmetry_equiv_pos_site_id
 _symmetry_equiv_pos_as_xyz
  1  'x, y, z'
loop_
 _atom_site_type_symbol
 _atom_site_label
 _atom_site_symmetry_multiplicity
 _atom_site_fract_x
 _atom_site_fract_y
 _atom_site_fract_z
 _atom_site_occupancy
  Rb  Rb0  1  0.750357  0.108325  0.999952  1
  Rb  Rb1  1  0.250790  0.885258  0.507868  1
  Rb  Rb2  1  0.250818  0.866381  0.992855  1
  Rb  Rb3  1  0.750337  0.128349  0.500898  1
  Rb  Rb4  1  0.736719  0.384288  0.241199  1
  Rb  Rb5  1  0.236758  0.633108  0.256930  1
  Rb  Rb6  1  0.261997  0.631245  0.743783  1
  Rb  Rb7  1  0.761494  0.366036  0.756332  1
  Cr  Cr8  1  0.750959  0.635748  0.996409  1
  Cr  Cr9  1  0.250907  0.368256  0.505855  1
  Cr  Cr10  1  0.740816  0.868146  0.247407  1
  Cr  Cr11  1  0.757234  0.881600  0.751716  1
  Cr  Cr12  1  0.257208  0.120178  0.748383  1
  Tc  Tc13  1  0.251031  0.381005  0.994873  1
  Tc  Tc14  1  0.750850  0.622862  0.502862  1
  Tc  Tc15  1  0.240838  0.121280  0.252555  1
  N  N16  1  0.976109  0.999519  0.250057  1
  N  N17  1  0.488212  0.982853  0.249619  1
  N  N18  1  0.012088  0.996585  0.750171  1
  N  N19  1  0.511637  0.005437  0.750011  1
  N  N20  1  0.250278  0.246558  0.382289  1
  N  N21  1  0.749873  0.750863  0.122438  1
  N  N22  1  0.752697  0.764614  0.876459  1
  N  N23  1  0.252262  0.240516  0.625332  1
  N  N24  1  0.752433  0.757329  0.628935  1
  N  N25  1  0.252050  0.247947  0.869101  1
  N  N26  1  0.250761  0.255924  0.125769  1
  N  N27  1  0.749948  0.741586  0.369693  1
  N  N28  1  0.494775  0.492426  0.506817  1
  N  N29  1  0.994551  0.511643  0.993515  1
  N  N30  1  0.506769  0.512316  0.993129  1
  N  N31  1  0.006445  0.491818  0.506789  1
