# generated using pymatgen
data_Ac2Er(MgIr)3
_symmetry_space_group_name_H-M   'P 1'
_cell_length_a   7.51507296
_cell_length_b   7.48293687
_cell_length_c   4.24238000
_cell_angle_alpha   90.00000000
_cell_angle_beta   90.00000000
_cell_angle_gamma   119.85864463
_symmetry_Int_Tables_number   1
_chemical_formula_structural   Ac2Er(MgIr)3
_chemical_formula_sum   'Ac2 Er1 Mg3 Ir3'
_cell_volume   206.90087417
_cell_formula_units_Z   1
loop_
 _symmetry_equiv_pos_site_id
 _symmetry_equiv_pos_as_xyz
  1  'x, y, z'
loop_
 _atom_site_type_symbol
 _atom_site_label
 _atom_site_symmetry_multiplicity
 _atom_site_fract_x
 _atom_site_fract_y
 _atom_site_fract_z
 _atom_site_occupancy
  Ac  Ac0  1  0.415089  0.417176  0.500000  1
  Ac  Ac1  1  0.584911  0.002087  0.500000  1
  Er  Er2  1  0.000000  0.595138  0.500000  1
  Mg  Mg3  1  0.771475  0.760323  0.000000  1
  Mg  Mg4  1  0.228525  0.988848  0.000000  1
  Mg  Mg5  1  0.000000  0.243588  0.000000  1
  Ir  Ir6  1  0.690679  0.348217  0.000000  1
  Ir  Ir7  1  0.309321  0.657539  0.000000  1
  Ir  Ir8  1  0.000000  0.987084  0.500000  1
