# generated using pymatgen
data_LaYb4Ir
_symmetry_space_group_name_H-M   'P 1'
_cell_length_a   7.57574700
_cell_length_b   15.81865900
_cell_length_c   6.73686200
_cell_angle_alpha   90.00000000
_cell_angle_beta   90.00000000
_cell_angle_gamma   90.00000000
_symmetry_Int_Tables_number   1
_chemical_formula_structural   LaYb4Ir
_chemical_formula_sum   'La4 Yb16 Ir4'
_cell_volume   807.33313590
_cell_formula_units_Z   4
loop_
 _symmetry_equiv_pos_site_id
 _symmetry_equiv_pos_as_xyz
  1  'x, y, z'
loop_
 _atom_site_type_symbol
 _atom_site_label
 _atom_site_symmetry_multiplicity
 _atom_site_fract_x
 _atom_site_fract_y
 _atom_site_fract_z
 _atom_site_occupancy
  La  La0  1  0.593412  0.250000  0.153460  1
  La  La1  1  0.093412  0.250000  0.346540  1
  La  La2  1  0.906588  0.750000  0.653461  1
  La  La3  1  0.406588  0.750000  0.846540  1
  Yb  Yb4  1  0.309553  0.062811  0.139201  1
  Yb  Yb5  1  0.309553  0.437189  0.139201  1
  Yb  Yb6  1  0.038409  0.644601  0.171500  1
  Yb  Yb7  1  0.038409  0.855399  0.171500  1
  Yb  Yb8  1  0.538409  0.644601  0.328500  1
  Yb  Yb9  1  0.538409  0.855399  0.328500  1
  Yb  Yb10  1  0.809553  0.062811  0.360798  1
  Yb  Yb11  1  0.809553  0.437189  0.360798  1
  Yb  Yb12  1  0.190447  0.562812  0.639202  1
  Yb  Yb13  1  0.190447  0.937189  0.639202  1
  Yb  Yb14  1  0.461591  0.144601  0.671500  1
  Yb  Yb15  1  0.461591  0.355399  0.671500  1
  Yb  Yb16  1  0.961591  0.144601  0.828500  1
  Yb  Yb17  1  0.961591  0.355399  0.828500  1
  Yb  Yb18  1  0.690447  0.562812  0.860799  1
  Yb  Yb19  1  0.690447  0.937189  0.860799  1
  Ir  Ir20  1  0.734888  0.750000  0.030255  1
  Ir  Ir21  1  0.234888  0.750000  0.469745  1
  Ir  Ir22  1  0.765112  0.250000  0.530256  1
  Ir  Ir23  1  0.265112  0.250000  0.969745  1
