# generated using pymatgen
data_Lu5Tc2BC6
_symmetry_space_group_name_H-M   'P 1'
_cell_length_a   8.14463100
_cell_length_b   8.14475588
_cell_length_c   3.35250700
_cell_angle_alpha   90.00000000
_cell_angle_beta   90.00000000
_cell_angle_gamma   121.52380220
_symmetry_Int_Tables_number   1
_chemical_formula_structural   Lu5Tc2BC6
_chemical_formula_sum   'Lu5 Tc2 B1 C6'
_cell_volume   189.57207030
_cell_formula_units_Z   1
loop_
 _symmetry_equiv_pos_site_id
 _symmetry_equiv_pos_as_xyz
  1  'x, y, z'
loop_
 _atom_site_type_symbol
 _atom_site_label
 _atom_site_symmetry_multiplicity
 _atom_site_fract_x
 _atom_site_fract_y
 _atom_site_fract_z
 _atom_site_occupancy
  Lu  Lu0  1  0.333120  0.081820  0.500000  1
  Lu  Lu1  1  0.666880  0.918180  0.500000  1
  Lu  Lu2  1  0.081827  0.333147  0.500000  1
  Lu  Lu3  1  0.918173  0.666853  0.500000  1
  Lu  Lu4  1  0.500000  0.500000  0.000000  1
  Tc  Tc5  1  0.285438  0.714569  0.000000  1
  Tc  Tc6  1  0.714562  0.285431  0.000000  1
  B  B7  1  0.000000  0.000000  0.000000  1
  C  C8  1  0.184482  0.184490  0.000000  1
  C  C9  1  0.815518  0.815510  0.000000  1
  C  C10  1  0.376072  0.623949  0.500000  1
  C  C11  1  0.623928  0.376051  0.500000  1
  C  C12  1  0.500000  0.000000  0.000000  1
  C  C13  1  0.000000  0.500000  0.000000  1
