# generated using pymatgen
data_Lu4Zn4SiRh8
_symmetry_space_group_name_H-M   'P 1'
_cell_length_a   7.14466735
_cell_length_b   7.10045521
_cell_length_c   7.14466764
_cell_angle_alpha   108.79260268
_cell_angle_beta   111.08175769
_cell_angle_gamma   108.79260846
_symmetry_Int_Tables_number   1
_chemical_formula_structural   Lu4Zn4SiRh8
_chemical_formula_sum   'Lu4 Zn4 Si1 Rh8'
_cell_volume   278.02826925
_cell_formula_units_Z   1
loop_
 _symmetry_equiv_pos_site_id
 _symmetry_equiv_pos_as_xyz
  1  'x, y, z'
loop_
 _atom_site_type_symbol
 _atom_site_label
 _atom_site_symmetry_multiplicity
 _atom_site_fract_x
 _atom_site_fract_y
 _atom_site_fract_z
 _atom_site_occupancy
  Lu  Lu0  1  0.991692  0.983385  0.491692  1
  Lu  Lu1  1  0.029455  0.518141  0.029455  1
  Lu  Lu2  1  0.491692  0.983385  0.991692  1
  Lu  Lu3  1  0.488687  0.518141  0.488687  1
  Zn  Zn4  1  0.747444  0.248770  0.501326  1
  Zn  Zn5  1  0.747458  0.494916  0.247458  1
  Zn  Zn6  1  0.501326  0.248770  0.747444  1
  Zn  Zn7  1  0.247458  0.494916  0.747458  1
  Si  Si8  1  0.998190  0.996380  0.998190  1
  Rh  Rh9  1  0.248984  0.758280  0.509296  1
  Rh  Rh10  1  0.509296  0.758280  0.248984  1
  Rh  Rh11  1  0.716859  0.700971  0.984112  1
  Rh  Rh12  1  0.296247  0.028681  0.296247  1
  Rh  Rh13  1  0.986845  0.268667  0.281822  1
  Rh  Rh14  1  0.281822  0.268667  0.986845  1
  Rh  Rh15  1  0.732434  0.028681  0.732434  1
  Rh  Rh16  1  0.984112  0.700971  0.716859  1
