# generated using pymatgen
data_RbSn2(H6Os)2
_symmetry_space_group_name_H-M   'P 1'
_cell_length_a   4.97691700
_cell_length_b   4.97691577
_cell_length_c   8.60542700
_cell_angle_alpha   90.00000000
_cell_angle_beta   90.00000000
_cell_angle_gamma   119.99998824
_symmetry_Int_Tables_number   1
_chemical_formula_structural   RbSn2(H6Os)2
_chemical_formula_sum   'Rb1 Sn2 H12 Os2'
_cell_volume   184.59664213
_cell_formula_units_Z   1
loop_
 _symmetry_equiv_pos_site_id
 _symmetry_equiv_pos_as_xyz
  1  'x, y, z'
loop_
 _atom_site_type_symbol
 _atom_site_label
 _atom_site_symmetry_multiplicity
 _atom_site_fract_x
 _atom_site_fract_y
 _atom_site_fract_z
 _atom_site_occupancy
  Rb  Rb0  1  0.000000  0.000000  0.000000  1
  Sn  Sn1  1  0.666667  0.333333  0.391970  1
  Sn  Sn2  1  0.333333  0.666667  0.608030  1
  H  H3  1  0.143366  0.856634  0.315053  1
  H  H4  1  0.713268  0.856634  0.315053  1
  H  H5  1  0.143366  0.286732  0.315053  1
  H  H6  1  0.856634  0.143366  0.684947  1
  H  H7  1  0.286732  0.143366  0.684947  1
  H  H8  1  0.856634  0.713268  0.684947  1
  H  H9  1  0.534667  0.069332  0.855801  1
  H  H10  1  0.534667  0.465333  0.855801  1
  H  H11  1  0.930668  0.465333  0.855801  1
  H  H12  1  0.465333  0.930668  0.144199  1
  H  H13  1  0.465333  0.534667  0.144199  1
  H  H14  1  0.069332  0.534667  0.144199  1
  Os  Os15  1  0.666667  0.333333  0.716358  1
  Os  Os16  1  0.333333  0.666667  0.283642  1
