# generated using pymatgen
data_Ti3Sn2(PO4)6
_symmetry_space_group_name_H-M   'P 1'
_cell_length_a   8.51485340
_cell_length_b   8.51485314
_cell_length_c   9.15224400
_cell_angle_alpha   62.27822218
_cell_angle_beta   117.72177692
_cell_angle_gamma   120.00000779
_symmetry_Int_Tables_number   1
_chemical_formula_structural   Ti3Sn2(PO4)6
_chemical_formula_sum   'Ti3 Sn2 P6 O24'
_cell_volume   484.72279414
_cell_formula_units_Z   1
loop_
 _symmetry_equiv_pos_site_id
 _symmetry_equiv_pos_as_xyz
  1  'x, y, z'
loop_
 _atom_site_type_symbol
 _atom_site_label
 _atom_site_symmetry_multiplicity
 _atom_site_fract_x
 _atom_site_fract_y
 _atom_site_fract_z
 _atom_site_occupancy
  Ti  Ti0  1  0.153654  0.846347  0.460960  1
  Ti  Ti1  1  0.850932  0.149069  0.552796  1
  Ti  Ti2  1  0.645004  0.354996  0.935012  1
  Sn  Sn3  1  0.353337  0.646663  0.060010  1
  Sn  Sn4  1  0.013435  0.986565  0.040305  1
  P  P5  1  0.026245  0.246608  0.243780  1
  P  P6  1  0.753391  0.535857  0.243780  1
  P  P7  1  0.464144  0.973755  0.243780  1
  P  P8  1  0.541290  0.036312  0.752749  1
  P  P9  1  0.247771  0.458710  0.752749  1
  P  P10  1  0.963688  0.752230  0.752749  1
  O  O11  1  0.483123  0.155838  0.087534  1
  O  O12  1  0.844163  0.239751  0.087534  1
  O  O13  1  0.760250  0.516878  0.087534  1
  O  O14  1  0.187157  0.441871  0.217001  1
  O  O15  1  0.558128  0.528284  0.217001  1
  O  O16  1  0.471718  0.812844  0.217001  1
  O  O17  1  0.087557  0.087323  0.267430  1
  O  O18  1  0.912677  0.732806  0.267430  1
  O  O19  1  0.267195  0.912442  0.267430  1
  O  O20  1  0.991150  0.196419  0.413270  1
  O  O21  1  0.803581  0.381460  0.413270  1
  O  O22  1  0.618540  0.008851  0.413270  1
  O  O23  1  0.368673  0.000571  0.587688  1
  O  O24  1  0.219586  0.631327  0.587688  1
  O  O25  1  0.999429  0.780414  0.587688  1
  O  O26  1  0.725034  0.103631  0.712595  1
  O  O27  1  0.091191  0.274965  0.712595  1
  O  O28  1  0.896367  0.908809  0.712595  1
  O  O29  1  0.539689  0.189263  0.796132  1
  O  O30  1  0.445707  0.460311  0.796132  1
  O  O31  1  0.810738  0.554293  0.796132  1
  O  O32  1  0.224516  0.470051  0.905459  1
  O  O33  1  0.150994  0.775484  0.905459  1
  O  O34  1  0.529950  0.849007  0.905459  1
