# generated using pymatgen
data_PrTh(Ga2Ir3)2
_symmetry_space_group_name_H-M   'P 1'
_cell_length_a   6.84418641
_cell_length_b   6.84418539
_cell_length_c   6.84418655
_cell_angle_alpha   131.22714002
_cell_angle_beta   110.88172849
_cell_angle_gamma   89.11269249
_symmetry_Int_Tables_number   1
_chemical_formula_structural   PrTh(Ga2Ir3)2
_chemical_formula_sum   'Pr1 Th1 Ga4 Ir6'
_cell_volume   214.02272474
_cell_formula_units_Z   1
loop_
 _symmetry_equiv_pos_site_id
 _symmetry_equiv_pos_as_xyz
  1  'x, y, z'
loop_
 _atom_site_type_symbol
 _atom_site_label
 _atom_site_symmetry_multiplicity
 _atom_site_fract_x
 _atom_site_fract_y
 _atom_site_fract_z
 _atom_site_occupancy
  Pr  Pr0  1  0.750000  0.036170  0.286170  1
  Th  Th1  1  0.250000  0.950663  0.700663  1
  Ga  Ga2  1  0.078990  0.285251  0.206261  1
  Ga  Ga3  1  0.912233  0.699844  0.787610  1
  Ga  Ga4  1  0.421010  0.627270  0.206261  1
  Ga  Ga5  1  0.587767  0.375377  0.787610  1
  Ir  Ir6  1  0.493713  0.499936  0.493650  1
  Ir  Ir7  1  0.006287  0.499936  0.006222  1
  Ir  Ir8  1  0.266772  0.001279  0.278269  1
  Ir  Ir9  1  0.723011  0.001279  0.734508  1
  Ir  Ir10  1  0.233228  0.511497  0.734508  1
  Ir  Ir11  1  0.776989  0.511497  0.278269  1
