# generated using pymatgen
data_TbYb(Si7Ir3)2
_symmetry_space_group_name_H-M   'P 1'
_cell_length_a   8.03134443
_cell_length_b   8.03134538
_cell_length_c   8.03134402
_cell_angle_alpha   56.76437392
_cell_angle_beta   56.76437083
_cell_angle_gamma   56.76437676
_symmetry_Int_Tables_number   1
_chemical_formula_structural   TbYb(Si7Ir3)2
_chemical_formula_sum   'Tb1 Yb1 Si14 Ir6'
_cell_volume   338.95027227
_cell_formula_units_Z   1
loop_
 _symmetry_equiv_pos_site_id
 _symmetry_equiv_pos_as_xyz
  1  'x, y, z'
loop_
 _atom_site_type_symbol
 _atom_site_label
 _atom_site_symmetry_multiplicity
 _atom_site_fract_x
 _atom_site_fract_y
 _atom_site_fract_z
 _atom_site_occupancy
  Tb  Tb0  1  0.000000  0.000000  0.000000  1
  Yb  Yb1  1  0.500000  0.500000  0.500000  1
  Si  Si2  1  0.849211  0.065977  0.672142  1
  Si  Si3  1  0.672142  0.849211  0.065977  1
  Si  Si4  1  0.065977  0.672142  0.849211  1
  Si  Si5  1  0.648378  0.826448  0.435303  1
  Si  Si6  1  0.249923  0.249923  0.249923  1
  Si  Si7  1  0.750077  0.750077  0.750077  1
  Si  Si8  1  0.173552  0.564697  0.351622  1
  Si  Si9  1  0.564697  0.351622  0.173552  1
  Si  Si10  1  0.351622  0.173552  0.564697  1
  Si  Si11  1  0.934023  0.327858  0.150789  1
  Si  Si12  1  0.327858  0.150789  0.934023  1
  Si  Si13  1  0.150789  0.934023  0.327858  1
  Si  Si14  1  0.826448  0.435303  0.648378  1
  Si  Si15  1  0.435303  0.648378  0.826448  1
  Ir  Ir16  1  0.751183  0.069482  0.428110  1
  Ir  Ir17  1  0.428110  0.751183  0.069482  1
  Ir  Ir18  1  0.069482  0.428110  0.751183  1
  Ir  Ir19  1  0.248817  0.930518  0.571890  1
  Ir  Ir20  1  0.571890  0.248817  0.930518  1
  Ir  Ir21  1  0.930518  0.571890  0.248817  1
