# generated using pymatgen
data_Ba4GeSb2Se11
_symmetry_space_group_name_H-M   'P 1'
_cell_length_a   13.90360614
_cell_length_b   13.90360556
_cell_length_c   8.99873700
_cell_angle_alpha   90.00000000
_cell_angle_beta   90.00000000
_cell_angle_gamma   139.75941238
_symmetry_Int_Tables_number   1
_chemical_formula_structural   Ba4GeSb2Se11
_chemical_formula_sum   'Ba8 Ge2 Sb4 Se22'
_cell_volume   1123.74565111
_cell_formula_units_Z   2
loop_
 _symmetry_equiv_pos_site_id
 _symmetry_equiv_pos_as_xyz
  1  'x, y, z'
loop_
 _atom_site_type_symbol
 _atom_site_label
 _atom_site_symmetry_multiplicity
 _atom_site_fract_x
 _atom_site_fract_y
 _atom_site_fract_z
 _atom_site_occupancy
  Ba  Ba0  1  0.962677  0.542059  0.999167  1
  Ba  Ba1  1  0.457941  0.037323  0.999167  1
  Ba  Ba2  1  0.037323  0.457941  0.499167  1
  Ba  Ba3  1  0.542059  0.962677  0.499167  1
  Ba  Ba4  1  0.786588  0.706446  0.240017  1
  Ba  Ba5  1  0.293554  0.213412  0.240017  1
  Ba  Ba6  1  0.213412  0.293554  0.740017  1
  Ba  Ba7  1  0.706446  0.786588  0.740017  1
  Ge  Ge8  1  0.920532  0.079468  0.407424  1
  Ge  Ge9  1  0.079468  0.920532  0.907424  1
  Sb  Sb10  1  0.351211  0.648789  0.067895  1
  Sb  Sb11  1  0.648789  0.351211  0.567895  1
  Sb  Sb12  1  0.855468  0.144532  0.069437  1
  Sb  Sb13  1  0.144532  0.855468  0.569437  1
  Se  Se14  1  0.616674  0.383326  0.094578  1
  Se  Se15  1  0.383326  0.616674  0.594578  1
  Se  Se16  1  0.555217  0.444783  0.894233  1
  Se  Se17  1  0.444783  0.555217  0.394233  1
  Se  Se18  1  0.527394  0.472606  0.522137  1
  Se  Se19  1  0.472606  0.527394  0.022137  1
  Se  Se20  1  0.733124  0.266876  0.725007  1
  Se  Se21  1  0.266876  0.733124  0.225007  1
  Se  Se22  1  0.881024  0.552373  0.395655  1
  Se  Se23  1  0.447627  0.118976  0.395655  1
  Se  Se24  1  0.118976  0.447627  0.895655  1
  Se  Se25  1  0.552373  0.881024  0.895655  1
  Se  Se26  1  0.768509  0.231491  0.207951  1
  Se  Se27  1  0.231491  0.768509  0.707951  1
  Se  Se28  1  0.904778  0.703714  0.753825  1
  Se  Se29  1  0.296286  0.095222  0.753825  1
  Se  Se30  1  0.095222  0.296286  0.253825  1
  Se  Se31  1  0.703714  0.904778  0.253825  1
  Se  Se32  1  0.873652  0.126348  0.632463  1
  Se  Se33  1  0.126348  0.873652  0.132463  1
  Se  Se34  1  0.007780  0.992220  0.485145  1
  Se  Se35  1  0.992220  0.007780  0.985145  1
