# generated using pymatgen
data_La4Y12Cd4TcPd3
_symmetry_space_group_name_H-M   'P 1'
_cell_length_a   9.91385499
_cell_length_b   9.91385579
_cell_length_c   9.91385401
_cell_angle_alpha   59.30089253
_cell_angle_beta   59.30088682
_cell_angle_gamma   59.30089650
_symmetry_Int_Tables_number   1
_chemical_formula_structural   La4Y12Cd4TcPd3
_chemical_formula_sum   'La4 Y12 Cd4 Tc1 Pd3'
_cell_volume   678.02182742
_cell_formula_units_Z   1
loop_
 _symmetry_equiv_pos_site_id
 _symmetry_equiv_pos_as_xyz
  1  'x, y, z'
loop_
 _atom_site_type_symbol
 _atom_site_label
 _atom_site_symmetry_multiplicity
 _atom_site_fract_x
 _atom_site_fract_y
 _atom_site_fract_z
 _atom_site_occupancy
  La  La0  1  0.355555  0.355555  0.355555  1
  La  La1  1  0.348319  0.348319  0.945886  1
  La  La2  1  0.348319  0.945886  0.348319  1
  La  La3  1  0.945886  0.348319  0.348319  1
  Y  Y4  1  0.819934  0.185459  0.185459  1
  Y  Y5  1  0.186639  0.811350  0.811350  1
  Y  Y6  1  0.185459  0.819934  0.185459  1
  Y  Y7  1  0.811350  0.186639  0.811350  1
  Y  Y8  1  0.185459  0.185459  0.819934  1
  Y  Y9  1  0.811350  0.811350  0.186639  1
  Y  Y10  1  0.932896  0.566751  0.566751  1
  Y  Y11  1  0.560827  0.933456  0.933456  1
  Y  Y12  1  0.566751  0.932896  0.566751  1
  Y  Y13  1  0.933456  0.560827  0.933456  1
  Y  Y14  1  0.566751  0.566751  0.932896  1
  Y  Y15  1  0.933456  0.933456  0.560827  1
  Cd  Cd16  1  0.581290  0.581290  0.581290  1
  Cd  Cd17  1  0.583096  0.583096  0.248818  1
  Cd  Cd18  1  0.583096  0.248818  0.583096  1
  Cd  Cd19  1  0.248818  0.583096  0.583096  1
  Tc  Tc20  1  0.145935  0.145935  0.145935  1
  Pd  Pd21  1  0.144209  0.144209  0.576938  1
  Pd  Pd22  1  0.144209  0.576938  0.144209  1
  Pd  Pd23  1  0.576938  0.144209  0.144209  1
