# generated using pymatgen
data_YHo7Re(TcB8)3
_symmetry_space_group_name_H-M   'P 1'
_cell_length_a   3.67575700
_cell_length_b   9.14933903
_cell_length_c   11.52965301
_cell_angle_alpha   90.02472969
_cell_angle_beta   90.00000000
_cell_angle_gamma   90.00000000
_symmetry_Int_Tables_number   1
_chemical_formula_structural   YHo7Re(TcB8)3
_chemical_formula_sum   'Y1 Ho7 Re1 Tc3 B24'
_cell_volume   387.75080710
_cell_formula_units_Z   1
loop_
 _symmetry_equiv_pos_site_id
 _symmetry_equiv_pos_as_xyz
  1  'x, y, z'
loop_
 _atom_site_type_symbol
 _atom_site_label
 _atom_site_symmetry_multiplicity
 _atom_site_fract_x
 _atom_site_fract_y
 _atom_site_fract_z
 _atom_site_occupancy
  Y  Y0  1  0.000000  0.323862  0.414096  1
  Ho  Ho1  1  0.000000  0.676174  0.585925  1
  Ho  Ho2  1  0.000000  0.823908  0.086058  1
  Ho  Ho3  1  0.000000  0.176409  0.914228  1
  Ho  Ho4  1  0.000000  0.942705  0.369160  1
  Ho  Ho5  1  0.000000  0.057681  0.630018  1
  Ho  Ho6  1  0.000000  0.442820  0.130727  1
  Ho  Ho7  1  0.000000  0.556214  0.869695  1
  Re  Re8  1  0.000000  0.861181  0.820757  1
  Tc  Tc9  1  0.000000  0.639197  0.320518  1
  Tc  Tc10  1  0.000000  0.361137  0.679564  1
  Tc  Tc11  1  0.000000  0.138782  0.179224  1
  B  B12  1  0.500000  0.553795  0.433091  1
  B  B13  1  0.500000  0.446848  0.567209  1
  B  B14  1  0.500000  0.053398  0.066965  1
  B  B15  1  0.500000  0.946798  0.933324  1
  B  B16  1  0.500000  0.749232  0.418805  1
  B  B17  1  0.500000  0.250982  0.581573  1
  B  B18  1  0.500000  0.249091  0.081175  1
  B  B19  1  0.500000  0.750510  0.918924  1
  B  B20  1  0.500000  0.792246  0.265231  1
  B  B21  1  0.500000  0.207757  0.734672  1
  B  B22  1  0.500000  0.292101  0.234489  1
  B  B23  1  0.500000  0.707424  0.765339  1
  B  B24  1  0.500000  0.631058  0.185460  1
  B  B25  1  0.500000  0.368856  0.814527  1
  B  B26  1  0.500000  0.130734  0.314318  1
  B  B27  1  0.500000  0.869138  0.685293  1
  B  B28  1  0.500000  0.982176  0.211628  1
  B  B29  1  0.500000  0.018094  0.788136  1
  B  B30  1  0.500000  0.482607  0.288102  1
  B  B31  1  0.500000  0.517723  0.711851  1
  B  B32  1  0.500000  0.600167  0.028092  1
  B  B33  1  0.500000  0.399407  0.972083  1
  B  B34  1  0.500000  0.099922  0.471844  1
  B  B35  1  0.500000  0.899864  0.527900  1
