# generated using pymatgen
data_MgSc12InNi4
_symmetry_space_group_name_H-M   'P 1'
_cell_length_a   7.83455415
_cell_length_b   7.83455436
_cell_length_c   7.83455488
_cell_angle_alpha   111.33869031
_cell_angle_beta   110.59354270
_cell_angle_gamma   106.52200582
_symmetry_Int_Tables_number   1
_chemical_formula_structural   MgSc12InNi4
_chemical_formula_sum   'Mg1 Sc12 In1 Ni4'
_cell_volume   369.43954831
_cell_formula_units_Z   1
loop_
 _symmetry_equiv_pos_site_id
 _symmetry_equiv_pos_as_xyz
  1  'x, y, z'
loop_
 _atom_site_type_symbol
 _atom_site_label
 _atom_site_symmetry_multiplicity
 _atom_site_fract_x
 _atom_site_fract_y
 _atom_site_fract_z
 _atom_site_occupancy
  Mg  Mg0  1  0.000000  0.000000  0.000000  1
  Sc  Sc1  1  0.444941  0.234974  0.209969  1
  Sc  Sc2  1  0.555059  0.765026  0.790031  1
  Sc  Sc3  1  0.025005  0.234974  0.790031  1
  Sc  Sc4  1  0.974995  0.765026  0.209969  1
  Sc  Sc5  1  0.320088  0.616548  0.296459  1
  Sc  Sc6  1  0.679912  0.383452  0.703541  1
  Sc  Sc7  1  0.320088  0.023629  0.703541  1
  Sc  Sc8  1  0.679912  0.976371  0.296459  1
  Sc  Sc9  1  0.188020  0.287435  0.475457  1
  Sc  Sc10  1  0.811980  0.712564  0.524543  1
  Sc  Sc11  1  0.188020  0.712564  0.900585  1
  Sc  Sc12  1  0.811980  0.287435  0.099415  1
  In  In13  1  0.500000  0.500000  0.000000  1
  Ni  Ni14  1  0.351484  0.000000  0.351484  1
  Ni  Ni15  1  0.648516  0.000000  0.648516  1
  Ni  Ni16  1  0.127030  0.627030  0.500000  1
  Ni  Ni17  1  0.872970  0.372970  0.500000  1
