# generated using pymatgen
data_Ba3Gd2TeO9
_symmetry_space_group_name_H-M   'P 1'
_cell_length_a   6.16736200
_cell_length_b   6.16736049
_cell_length_c   14.92414600
_cell_angle_alpha   90.00000000
_cell_angle_beta   90.00000000
_cell_angle_gamma   119.99999737
_symmetry_Int_Tables_number   1
_chemical_formula_structural   Ba3Gd2TeO9
_chemical_formula_sum   'Ba6 Gd4 Te2 O18'
_cell_volume   491.60796082
_cell_formula_units_Z   2
loop_
 _symmetry_equiv_pos_site_id
 _symmetry_equiv_pos_as_xyz
  1  'x, y, z'
loop_
 _atom_site_type_symbol
 _atom_site_label
 _atom_site_symmetry_multiplicity
 _atom_site_fract_x
 _atom_site_fract_y
 _atom_site_fract_z
 _atom_site_occupancy
  Ba  Ba0  1  0.333333  0.666667  0.090016  1
  Ba  Ba1  1  0.666667  0.333333  0.909984  1
  Ba  Ba2  1  0.333333  0.666667  0.590016  1
  Ba  Ba3  1  0.666667  0.333333  0.409984  1
  Ba  Ba4  1  0.000000  0.000000  0.250000  1
  Ba  Ba5  1  0.000000  0.000000  0.750000  1
  Gd  Gd6  1  0.333333  0.666667  0.834225  1
  Gd  Gd7  1  0.666667  0.333333  0.165775  1
  Gd  Gd8  1  0.333333  0.666667  0.334225  1
  Gd  Gd9  1  0.666667  0.333333  0.665775  1
  Te  Te10  1  0.000000  0.000000  0.000000  1
  Te  Te11  1  0.000000  0.000000  0.500000  1
  O  O12  1  0.896570  0.700424  0.575045  1
  O  O13  1  0.000000  0.556724  0.250000  1
  O  O14  1  0.196147  0.299576  0.924955  1
  O  O15  1  0.896570  0.196147  0.075045  1
  O  O16  1  0.803853  0.103430  0.575045  1
  O  O17  1  0.803853  0.700424  0.075045  1
  O  O18  1  0.700424  0.803853  0.424955  1
  O  O19  1  0.443276  0.000000  0.750000  1
  O  O20  1  0.556724  0.556724  0.750000  1
  O  O21  1  0.299576  0.196147  0.575045  1
  O  O22  1  0.103430  0.299576  0.424955  1
  O  O23  1  0.196147  0.896570  0.424955  1
  O  O24  1  0.299576  0.103430  0.075045  1
  O  O25  1  0.556724  0.000000  0.250000  1
  O  O26  1  0.443276  0.443276  0.250000  1
  O  O27  1  0.000000  0.443276  0.750000  1
  O  O28  1  0.103430  0.803853  0.924955  1
  O  O29  1  0.700424  0.896570  0.924955  1
