# generated using pymatgen
data_Ho6Lu4AlSb5
_symmetry_space_group_name_H-M   'P 1'
_cell_length_a   8.86696500
_cell_length_b   8.86020510
_cell_length_c   6.25942300
_cell_angle_alpha   90.00000000
_cell_angle_beta   90.00000000
_cell_angle_gamma   120.02524516
_symmetry_Int_Tables_number   1
_chemical_formula_structural   Ho6Lu4AlSb5
_chemical_formula_sum   'Ho6 Lu4 Al1 Sb5'
_cell_volume   425.76814687
_cell_formula_units_Z   1
loop_
 _symmetry_equiv_pos_site_id
 _symmetry_equiv_pos_as_xyz
  1  'x, y, z'
loop_
 _atom_site_type_symbol
 _atom_site_label
 _atom_site_symmetry_multiplicity
 _atom_site_fract_x
 _atom_site_fract_y
 _atom_site_fract_z
 _atom_site_occupancy
  Ho  Ho0  1  0.752493  0.000000  0.750000  1
  Ho  Ho1  1  0.755152  0.755384  0.250000  1
  Ho  Ho2  1  0.999768  0.244616  0.250000  1
  Ho  Ho3  1  0.009380  0.763612  0.750000  1
  Ho  Ho4  1  0.245768  0.236388  0.750000  1
  Ho  Ho5  1  0.241198  0.000000  0.250000  1
  Lu  Lu6  1  0.335062  0.673842  0.997716  1
  Lu  Lu7  1  0.661221  0.326158  0.502284  1
  Lu  Lu8  1  0.661221  0.326158  0.997716  1
  Lu  Lu9  1  0.335062  0.673842  0.502284  1
  Al  Al10  1  0.398346  0.000000  0.750000  1
  Sb  Sb11  1  0.391180  0.394503  0.250000  1
  Sb  Sb12  1  0.996677  0.605497  0.250000  1
  Sb  Sb13  1  0.002394  0.392506  0.750000  1
  Sb  Sb14  1  0.609888  0.607494  0.750000  1
  Sb  Sb15  1  0.605193  0.000000  0.250000  1
