# generated using pymatgen
data_Y4Al17CuPd6
_symmetry_space_group_name_H-M   'P 1'
_cell_length_a   7.59546129
_cell_length_b   7.59546088
_cell_length_c   9.45712900
_cell_angle_alpha   90.00000000
_cell_angle_beta   90.00000000
_cell_angle_gamma   119.00993708
_symmetry_Int_Tables_number   1
_chemical_formula_structural   Y4Al17CuPd6
_chemical_formula_sum   'Y4 Al17 Cu1 Pd6'
_cell_volume   477.13919995
_cell_formula_units_Z   1
loop_
 _symmetry_equiv_pos_site_id
 _symmetry_equiv_pos_as_xyz
  1  'x, y, z'
loop_
 _atom_site_type_symbol
 _atom_site_label
 _atom_site_symmetry_multiplicity
 _atom_site_fract_x
 _atom_site_fract_y
 _atom_site_fract_z
 _atom_site_occupancy
  Y  Y0  1  0.991467  0.670104  0.250000  1
  Y  Y1  1  0.006456  0.329328  0.750000  1
  Y  Y2  1  0.670104  0.991467  0.250000  1
  Y  Y3  1  0.329328  0.006456  0.750000  1
  Al  Al4  1  0.866809  0.866809  0.750000  1
  Al  Al5  1  0.003763  0.327028  0.083610  1
  Al  Al6  1  0.999485  0.663620  0.923444  1
  Al  Al7  1  0.999485  0.663620  0.576556  1
  Al  Al8  1  0.327028  0.003763  0.416390  1
  Al  Al9  1  0.003763  0.327028  0.416390  1
  Al  Al10  1  0.663620  0.999485  0.576556  1
  Al  Al11  1  0.663620  0.999485  0.923444  1
  Al  Al12  1  0.327028  0.003763  0.083610  1
  Al  Al13  1  0.332923  0.332923  0.551160  1
  Al  Al14  1  0.666732  0.666732  0.442274  1
  Al  Al15  1  0.666732  0.666732  0.057726  1
  Al  Al16  1  0.332923  0.332923  0.948840  1
  Al  Al17  1  0.337890  0.543836  0.250000  1
  Al  Al18  1  0.660025  0.450957  0.750000  1
  Al  Al19  1  0.543836  0.337890  0.250000  1
  Al  Al20  1  0.450957  0.660025  0.750000  1
  Cu  Cu21  1  0.155861  0.155861  0.250000  1
  Pd  Pd22  1  0.674611  0.328129  0.000513  1
  Pd  Pd23  1  0.328129  0.674611  0.000513  1
  Pd  Pd24  1  0.328129  0.674611  0.499487  1
  Pd  Pd25  1  0.674611  0.328129  0.499487  1
  Pd  Pd26  1  0.997344  0.997344  0.994438  1
  Pd  Pd27  1  0.997344  0.997344  0.505562  1
