# generated using pymatgen
data_AcAs12IrOs3
_symmetry_space_group_name_H-M   'P 1'
_cell_length_a   7.49666283
_cell_length_b   7.50873649
_cell_length_c   7.49666300
_cell_angle_alpha   109.50384550
_cell_angle_beta   109.43856439
_cell_angle_gamma   109.50386029
_symmetry_Int_Tables_number   1
_chemical_formula_structural   AcAs12IrOs3
_chemical_formula_sum   'Ac1 As12 Ir1 Os3'
_cell_volume   324.71765548
_cell_formula_units_Z   1
loop_
 _symmetry_equiv_pos_site_id
 _symmetry_equiv_pos_as_xyz
  1  'x, y, z'
loop_
 _atom_site_type_symbol
 _atom_site_label
 _atom_site_symmetry_multiplicity
 _atom_site_fract_x
 _atom_site_fract_y
 _atom_site_fract_z
 _atom_site_occupancy
  Ac  Ac0  1  0.000000  0.000000  0.000000  1
  As  As1  1  0.348728  0.197749  0.849453  1
  As  As2  1  0.651272  0.802251  0.150547  1
  As  As3  1  0.648358  0.500916  0.849279  1
  As  As4  1  0.351642  0.499084  0.150721  1
  As  As5  1  0.200921  0.852557  0.351642  1
  As  As6  1  0.799079  0.147443  0.648358  1
  As  As7  1  0.500726  0.849022  0.651272  1
  As  As8  1  0.499274  0.150978  0.348728  1
  As  As9  1  0.849279  0.348363  0.200921  1
  As  As10  1  0.150721  0.651637  0.799079  1
  As  As11  1  0.849453  0.651704  0.500726  1
  As  As12  1  0.150547  0.348296  0.499274  1
  Ir  Ir13  1  0.000000  0.500000  0.000000  1
  Os  Os14  1  0.000000  0.000000  0.500000  1
  Os  Os15  1  0.500000  0.000000  0.000000  1
  Os  Os16  1  0.500000  0.500000  0.500000  1
