# generated using pymatgen
data_LaS27
_symmetry_space_group_name_H-M   'P 1'
_cell_length_a   14.53718763
_cell_length_b   14.53718761
_cell_length_c   14.53718900
_cell_angle_alpha   118.78525822
_cell_angle_beta   118.78525828
_cell_angle_gamma   118.78525861
_symmetry_Int_Tables_number   1
_chemical_formula_structural   LaS27
_chemical_formula_sum   'La1 S27'
_cell_volume   874.82429389
_cell_formula_units_Z   1
loop_
 _symmetry_equiv_pos_site_id
 _symmetry_equiv_pos_as_xyz
  1  'x, y, z'
loop_
 _atom_site_type_symbol
 _atom_site_label
 _atom_site_symmetry_multiplicity
 _atom_site_fract_x
 _atom_site_fract_y
 _atom_site_fract_z
 _atom_site_occupancy
  La  La0  1  0.444995  0.444995  0.444995  1
  S  S1  1  0.022822  0.625085  0.625085  1
  S  S2  1  0.625085  0.625085  0.022822  1
  S  S3  1  0.625085  0.022822  0.625085  1
  S  S4  1  0.248369  0.862286  0.729128  1
  S  S5  1  0.862286  0.729128  0.248369  1
  S  S6  1  0.729128  0.248369  0.862286  1
  S  S7  1  0.862286  0.248369  0.729128  1
  S  S8  1  0.248369  0.729128  0.862286  1
  S  S9  1  0.729128  0.862286  0.248369  1
  S  S10  1  0.095725  0.624971  0.437794  1
  S  S11  1  0.624971  0.437794  0.095725  1
  S  S12  1  0.437794  0.095725  0.624971  1
  S  S13  1  0.624971  0.095725  0.437794  1
  S  S14  1  0.095725  0.437794  0.624971  1
  S  S15  1  0.437794  0.624971  0.095725  1
  S  S16  1  0.358901  0.741086  0.606406  1
  S  S17  1  0.741086  0.606406  0.358901  1
  S  S18  1  0.606406  0.358901  0.741086  1
  S  S19  1  0.741086  0.358901  0.606406  1
  S  S20  1  0.358901  0.606406  0.741086  1
  S  S21  1  0.606406  0.741086  0.358901  1
  S  S22  1  0.181142  0.450106  0.450106  1
  S  S23  1  0.450106  0.450106  0.181142  1
  S  S24  1  0.450106  0.181142  0.450106  1
  S  S25  1  0.020475  0.908976  0.908976  1
  S  S26  1  0.908976  0.908976  0.020475  1
  S  S27  1  0.908976  0.020475  0.908976  1
