# generated using pymatgen
data_Rb3Ba3InBiSb3
_symmetry_space_group_name_H-M   'P 1'
_cell_length_a   11.51757000
_cell_length_b   11.51756845
_cell_length_c   8.51257100
_cell_angle_alpha   90.00000000
_cell_angle_beta   90.00000000
_cell_angle_gamma   119.99999870
_symmetry_Int_Tables_number   1
_chemical_formula_structural   Rb3Ba3InBiSb3
_chemical_formula_sum   'Rb6 Ba6 In2 Bi2 Sb6'
_cell_volume   977.94188466
_cell_formula_units_Z   2
loop_
 _symmetry_equiv_pos_site_id
 _symmetry_equiv_pos_as_xyz
  1  'x, y, z'
loop_
 _atom_site_type_symbol
 _atom_site_label
 _atom_site_symmetry_multiplicity
 _atom_site_fract_x
 _atom_site_fract_y
 _atom_site_fract_z
 _atom_site_occupancy
  Rb  Rb0  1  0.862064  0.724128  0.961613  1
  Rb  Rb1  1  0.862064  0.137936  0.961613  1
  Rb  Rb2  1  0.137936  0.275872  0.461613  1
  Rb  Rb3  1  0.275872  0.137936  0.961613  1
  Rb  Rb4  1  0.137936  0.862064  0.461613  1
  Rb  Rb5  1  0.724128  0.862064  0.461613  1
  Ba  Ba6  1  0.478983  0.957964  0.781572  1
  Ba  Ba7  1  0.478983  0.521017  0.781572  1
  Ba  Ba8  1  0.521017  0.042036  0.281572  1
  Ba  Ba9  1  0.042036  0.521017  0.781572  1
  Ba  Ba10  1  0.521017  0.478983  0.281572  1
  Ba  Ba11  1  0.957964  0.478983  0.281572  1
  In  In12  1  0.666667  0.333333  0.648713  1
  In  In13  1  0.333333  0.666667  0.148713  1
  Bi  Bi14  1  0.666667  0.333333  0.009617  1
  Bi  Bi15  1  0.333333  0.666667  0.509617  1
  Sb  Sb16  1  0.804285  0.608570  0.546172  1
  Sb  Sb17  1  0.804285  0.195715  0.546172  1
  Sb  Sb18  1  0.195715  0.391430  0.046172  1
  Sb  Sb19  1  0.391430  0.195715  0.546172  1
  Sb  Sb20  1  0.195715  0.804285  0.046172  1
  Sb  Sb21  1  0.608570  0.804285  0.046172  1
