# generated using pymatgen
data_Ac11(Zn2Sn3)2
_symmetry_space_group_name_H-M   'P 1'
_cell_length_a   4.76876947
_cell_length_b   10.41353975
_cell_length_c   15.42894414
_cell_angle_alpha   104.52181741
_cell_angle_beta   89.94038736
_cell_angle_gamma   103.25761604
_symmetry_Int_Tables_number   1
_chemical_formula_structural   Ac11(Zn2Sn3)2
_chemical_formula_sum   'Ac11 Zn4 Sn6'
_cell_volume   720.65438745
_cell_formula_units_Z   1
loop_
 _symmetry_equiv_pos_site_id
 _symmetry_equiv_pos_as_xyz
  1  'x, y, z'
loop_
 _atom_site_type_symbol
 _atom_site_label
 _atom_site_symmetry_multiplicity
 _atom_site_fract_x
 _atom_site_fract_y
 _atom_site_fract_z
 _atom_site_occupancy
  Ac  Ac0  1  0.905165  0.809763  0.222368  1
  Ac  Ac1  1  0.864124  0.723888  0.652142  1
  Ac  Ac2  1  0.220379  0.439402  0.105149  1
  Ac  Ac3  1  0.551606  0.106023  0.137251  1
  Ac  Ac4  1  0.346150  0.690090  0.403356  1
  Ac  Ac5  1  0.448639  0.893543  0.864054  1
  Ac  Ac6  1  0.000055  0.999808  0.500401  1
  Ac  Ac7  1  0.136128  0.275916  0.348800  1
  Ac  Ac8  1  0.779944  0.560178  0.896174  1
  Ac  Ac9  1  0.654196  0.309883  0.597471  1
  Ac  Ac10  1  0.095170  0.189962  0.778818  1
  Zn  Zn11  1  0.755982  0.511248  0.460127  1
  Zn  Zn12  1  0.943002  0.886379  0.022630  1
  Zn  Zn13  1  0.057212  0.113037  0.978511  1
  Zn  Zn14  1  0.244423  0.488912  0.540960  1
  Sn  Sn15  1  0.628753  0.257153  0.951198  1
  Sn  Sn16  1  0.262597  0.526505  0.732504  1
  Sn  Sn17  1  0.737486  0.473149  0.268636  1
  Sn  Sn18  1  0.371383  0.742362  0.050103  1
  Sn  Sn19  1  0.515560  0.031122  0.348946  1
  Sn  Sn20  1  0.484638  0.968723  0.651926  1
