# generated using pymatgen
data_Dy4Lu(SiAs)2
_symmetry_space_group_name_H-M   'P 1'
_cell_length_a   8.17654113
_cell_length_b   8.17654173
_cell_length_c   7.60627800
_cell_angle_alpha   90.00000000
_cell_angle_beta   90.00000000
_cell_angle_gamma   125.09568452
_symmetry_Int_Tables_number   1
_chemical_formula_structural   Dy4Lu(SiAs)2
_chemical_formula_sum   'Dy8 Lu2 Si4 As4'
_cell_volume   416.07081173
_cell_formula_units_Z   2
loop_
 _symmetry_equiv_pos_site_id
 _symmetry_equiv_pos_as_xyz
  1  'x, y, z'
loop_
 _atom_site_type_symbol
 _atom_site_label
 _atom_site_symmetry_multiplicity
 _atom_site_fract_x
 _atom_site_fract_y
 _atom_site_fract_z
 _atom_site_occupancy
  Dy  Dy0  1  0.034295  0.305415  0.333605  1
  Dy  Dy1  1  0.965705  0.694585  0.666395  1
  Dy  Dy2  1  0.465705  0.194585  0.833605  1
  Dy  Dy3  1  0.805415  0.534295  0.166395  1
  Dy  Dy4  1  0.534295  0.805415  0.166395  1
  Dy  Dy5  1  0.194585  0.465705  0.833605  1
  Dy  Dy6  1  0.694585  0.965705  0.666395  1
  Dy  Dy7  1  0.305415  0.034295  0.333605  1
  Lu  Lu8  1  0.000000  0.000000  0.000000  1
  Lu  Lu9  1  0.500000  0.500000  0.500000  1
  Si  Si10  1  0.375216  0.375216  0.125345  1
  Si  Si11  1  0.624784  0.624784  0.874655  1
  Si  Si12  1  0.124784  0.124784  0.625345  1
  Si  Si13  1  0.875216  0.875216  0.374655  1
  As  As14  1  0.800109  0.199891  0.000000  1
  As  As15  1  0.199891  0.800109  0.000000  1
  As  As16  1  0.699891  0.300109  0.500000  1
  As  As17  1  0.300109  0.699891  0.500000  1
