# generated using pymatgen
data_MnV4Co3P4
_symmetry_space_group_name_H-M   'P 1'
_cell_length_a   3.49303800
_cell_length_b   5.88960741
_cell_length_c   6.71804703
_cell_angle_alpha   89.72075895
_cell_angle_beta   90.00000000
_cell_angle_gamma   90.00000000
_symmetry_Int_Tables_number   1
_chemical_formula_structural   MnV4Co3P4
_chemical_formula_sum   'Mn1 V4 Co3 P4'
_cell_volume   138.20620409
_cell_formula_units_Z   1
loop_
 _symmetry_equiv_pos_site_id
 _symmetry_equiv_pos_as_xyz
  1  'x, y, z'
loop_
 _atom_site_type_symbol
 _atom_site_label
 _atom_site_symmetry_multiplicity
 _atom_site_fract_x
 _atom_site_fract_y
 _atom_site_fract_z
 _atom_site_occupancy
  Mn  Mn0  1  0.250000  0.141757  0.559666  1
  V  V1  1  0.250000  0.027312  0.174417  1
  V  V2  1  0.250000  0.529064  0.332586  1
  V  V3  1  0.750000  0.976551  0.827060  1
  V  V4  1  0.750000  0.468994  0.667186  1
  Co  Co5  1  0.250000  0.642052  0.939582  1
  Co  Co6  1  0.750000  0.855150  0.437496  1
  Co  Co7  1  0.750000  0.357433  0.061906  1
  P  P8  1  0.250000  0.767422  0.626557  1
  P  P9  1  0.250000  0.266909  0.875092  1
  P  P10  1  0.750000  0.233276  0.373264  1
  P  P11  1  0.750000  0.734079  0.125187  1
