# generated using pymatgen
data_Li8Y5Ho3Sn7Sb
_symmetry_space_group_name_H-M   'P 1'
_cell_length_a   9.38461200
_cell_length_b   9.38525904
_cell_length_c   7.26878010
_cell_angle_alpha   90.07459218
_cell_angle_beta   90.00094894
_cell_angle_gamma   120.00031017
_symmetry_Int_Tables_number   1
_chemical_formula_structural   Li8Y5Ho3Sn7Sb
_chemical_formula_sum   'Li8 Y5 Ho3 Sn7 Sb1'
_cell_volume   554.43787932
_cell_formula_units_Z   1
loop_
 _symmetry_equiv_pos_site_id
 _symmetry_equiv_pos_as_xyz
  1  'x, y, z'
loop_
 _atom_site_type_symbol
 _atom_site_label
 _atom_site_symmetry_multiplicity
 _atom_site_fract_x
 _atom_site_fract_y
 _atom_site_fract_z
 _atom_site_occupancy
  Li  Li0  1  0.166654  0.333437  0.288029  1
  Li  Li1  1  0.166982  0.833317  0.288255  1
  Li  Li2  1  0.666342  0.833386  0.288302  1
  Li  Li3  1  0.833449  0.666691  0.788019  1
  Li  Li4  1  0.832484  0.166254  0.789156  1
  Li  Li5  1  0.333710  0.166105  0.789027  1
  Li  Li6  1  0.333610  0.667316  0.671083  1
  Li  Li7  1  0.666851  0.333485  0.172044  1
  Y  Y8  1  0.512129  0.024268  0.493774  1
  Y  Y9  1  0.514731  0.489812  0.491918  1
  Y  Y10  1  0.975192  0.489861  0.491846  1
  Y  Y11  1  0.487887  0.975786  0.994306  1
  Y  Y12  1  0.490048  0.512438  0.994945  1
  Ho  Ho13  1  0.022315  0.512431  0.995007  1
  Ho  Ho14  1  0.998921  0.997805  0.498403  1
  Ho  Ho15  1  0.999025  0.998068  0.001465  1
  Sn  Sn16  1  0.165982  0.832669  0.730393  1
  Sn  Sn17  1  0.666832  0.832992  0.730130  1
  Sn  Sn18  1  0.833848  0.667278  0.230667  1
  Sn  Sn19  1  0.834341  0.167318  0.230256  1
  Sn  Sn20  1  0.332830  0.167043  0.230526  1
  Sn  Sn21  1  0.332439  0.665401  0.260446  1
  Sn  Sn22  1  0.667131  0.333877  0.761590  1
  Sb  Sb23  1  0.166267  0.332964  0.732381  1
