# generated using pymatgen
data_ErZn3AgRh
_symmetry_space_group_name_H-M   'P 1'
_cell_length_a   5.24193394
_cell_length_b   5.24193477
_cell_length_c   5.21917695
_cell_angle_alpha   59.85566170
_cell_angle_beta   59.85565234
_cell_angle_gamma   59.99999258
_symmetry_Int_Tables_number   1
_chemical_formula_structural   ErZn3AgRh
_chemical_formula_sum   'Er1 Zn3 Ag1 Rh1'
_cell_volume   101.18570986
_cell_formula_units_Z   1
loop_
 _symmetry_equiv_pos_site_id
 _symmetry_equiv_pos_as_xyz
  1  'x, y, z'
loop_
 _atom_site_type_symbol
 _atom_site_label
 _atom_site_symmetry_multiplicity
 _atom_site_fract_x
 _atom_site_fract_y
 _atom_site_fract_z
 _atom_site_occupancy
  Er  Er0  1  0.998007  0.998007  0.005979  1
  Zn  Zn1  1  0.623908  0.130938  0.621244  1
  Zn  Zn2  1  0.130938  0.623908  0.621244  1
  Zn  Zn3  1  0.623908  0.623908  0.621244  1
  Ag  Ag4  1  0.245670  0.245670  0.262988  1
  Rh  Rh5  1  0.627566  0.627566  0.117300  1
