# generated using pymatgen
data_TmLu15(In3Pt)2
_symmetry_space_group_name_H-M   'P 1'
_cell_length_a   10.30596800
_cell_length_b   10.30497084
_cell_length_c   6.85669206
_cell_angle_alpha   90.01329450
_cell_angle_beta   90.00000000
_cell_angle_gamma   120.00320743
_symmetry_Int_Tables_number   1
_chemical_formula_structural   TmLu15(In3Pt)2
_chemical_formula_sum   'Tm1 Lu15 In6 Pt2'
_cell_volume   630.61860711
_cell_formula_units_Z   1
loop_
 _symmetry_equiv_pos_site_id
 _symmetry_equiv_pos_as_xyz
  1  'x, y, z'
loop_
 _atom_site_type_symbol
 _atom_site_label
 _atom_site_symmetry_multiplicity
 _atom_site_fract_x
 _atom_site_fract_y
 _atom_site_fract_z
 _atom_site_occupancy
  Tm  Tm0  1  0.530558  0.061116  0.525528  1
  Lu  Lu1  1  0.938473  0.469246  0.525528  1
  Lu  Lu2  1  0.530773  0.469246  0.525528  1
  Lu  Lu3  1  0.469155  0.938311  0.025458  1
  Lu  Lu4  1  0.061521  0.530732  0.025490  1
  Lu  Lu5  1  0.469211  0.530732  0.025490  1
  Lu  Lu6  1  0.175633  0.351265  0.731998  1
  Lu  Lu7  1  0.648911  0.824146  0.732176  1
  Lu  Lu8  1  0.175235  0.824146  0.732176  1
  Lu  Lu9  1  0.824391  0.648782  0.231951  1
  Lu  Lu10  1  0.351098  0.175733  0.231698  1
  Lu  Lu11  1  0.824634  0.175733  0.231698  1
  Lu  Lu12  1  0.666818  0.333634  0.899919  1
  Lu  Lu13  1  0.333177  0.666356  0.399673  1
  Lu  Lu14  1  0.999991  0.999981  0.504903  1
  Lu  Lu15  1  0.000017  0.000034  0.004985  1
  In  In16  1  0.837460  0.674919  0.767620  1
  In  In17  1  0.324907  0.162555  0.767683  1
  In  In18  1  0.837649  0.162555  0.767683  1
  In  In19  1  0.162526  0.325053  0.267658  1
  In  In20  1  0.674927  0.837511  0.267602  1
  In  In21  1  0.162583  0.837511  0.267602  1
  Pt  Pt22  1  0.666964  0.333926  0.297623  1
  Pt  Pt23  1  0.333388  0.666778  0.798010  1
