# generated using pymatgen
data_Ca5Zr3(As3Pd4)4
_symmetry_space_group_name_H-M   'P 1'
_cell_length_a   13.61984300
_cell_length_b   13.61984235
_cell_length_c   4.13905400
_cell_angle_alpha   90.00000000
_cell_angle_beta   90.00000000
_cell_angle_gamma   120.00000400
_symmetry_Int_Tables_number   1
_chemical_formula_structural   Ca5Zr3(As3Pd4)4
_chemical_formula_sum   'Ca5 Zr3 As12 Pd16'
_cell_volume   664.92994048
_cell_formula_units_Z   1
loop_
 _symmetry_equiv_pos_site_id
 _symmetry_equiv_pos_as_xyz
  1  'x, y, z'
loop_
 _atom_site_type_symbol
 _atom_site_label
 _atom_site_symmetry_multiplicity
 _atom_site_fract_x
 _atom_site_fract_y
 _atom_site_fract_z
 _atom_site_occupancy
  Ca  Ca0  1  0.186246  0.186246  0.500000  1
  Ca  Ca1  1  0.813754  0.000000  0.500000  1
  Ca  Ca2  1  0.000000  0.813754  0.500000  1
  Ca  Ca3  1  0.333333  0.666667  0.000000  1
  Ca  Ca4  1  0.666667  0.333333  0.000000  1
  Zr  Zr5  1  0.555208  0.555208  0.000000  1
  Zr  Zr6  1  0.444792  0.000000  0.000000  1
  Zr  Zr7  1  0.000000  0.444792  0.000000  1
  As  As8  1  0.824106  0.824106  0.000000  1
  As  As9  1  0.175894  0.000000  0.000000  1
  As  As10  1  0.000000  0.175894  0.000000  1
  As  As11  1  0.164653  0.480726  0.500000  1
  As  As12  1  0.519274  0.683926  0.500000  1
  As  As13  1  0.316074  0.835347  0.500000  1
  As  As14  1  0.683926  0.519274  0.500000  1
  As  As15  1  0.835347  0.316074  0.500000  1
  As  As16  1  0.480726  0.164653  0.500000  1
  As  As17  1  0.357896  0.357896  0.000000  1
  As  As18  1  0.642104  0.000000  0.000000  1
  As  As19  1  0.000000  0.642104  0.000000  1
  Pd  Pd20  1  0.723471  0.723471  0.500000  1
  Pd  Pd21  1  0.276529  0.000000  0.500000  1
  Pd  Pd22  1  0.000000  0.276529  0.500000  1
  Pd  Pd23  1  0.183344  0.376042  0.000000  1
  Pd  Pd24  1  0.623958  0.807302  0.000000  1
  Pd  Pd25  1  0.192698  0.816656  0.000000  1
  Pd  Pd26  1  0.807302  0.623958  0.000000  1
  Pd  Pd27  1  0.816656  0.192698  0.000000  1
  Pd  Pd28  1  0.376042  0.183344  0.000000  1
  Pd  Pd29  1  0.357318  0.484191  0.500000  1
  Pd  Pd30  1  0.515809  0.873127  0.500000  1
  Pd  Pd31  1  0.126873  0.642682  0.500000  1
  Pd  Pd32  1  0.873127  0.515809  0.500000  1
  Pd  Pd33  1  0.642682  0.126873  0.500000  1
  Pd  Pd34  1  0.484191  0.357318  0.500000  1
  Pd  Pd35  1  0.000000  0.000000  0.000000  1
