# generated using pymatgen
data_Er12TcNi4Hg
_symmetry_space_group_name_H-M   'P 1'
_cell_length_a   8.21510129
_cell_length_b   8.21510062
_cell_length_c   8.21510176
_cell_angle_alpha   111.61835358
_cell_angle_beta   109.83698046
_cell_angle_gamma   106.99166802
_symmetry_Int_Tables_number   1
_chemical_formula_structural   Er12TcNi4Hg
_chemical_formula_sum   'Er12 Tc1 Ni4 Hg1'
_cell_volume   426.08840319
_cell_formula_units_Z   1
loop_
 _symmetry_equiv_pos_site_id
 _symmetry_equiv_pos_as_xyz
  1  'x, y, z'
loop_
 _atom_site_type_symbol
 _atom_site_label
 _atom_site_symmetry_multiplicity
 _atom_site_fract_x
 _atom_site_fract_y
 _atom_site_fract_z
 _atom_site_occupancy
  Er  Er0  1  0.324134  0.128303  0.804168  1
  Er  Er1  1  0.675866  0.480035  0.804168  1
  Er  Er2  1  0.415650  0.726368  0.689282  1
  Er  Er3  1  0.584350  0.273632  0.310718  1
  Er  Er4  1  0.962914  0.273632  0.689282  1
  Er  Er5  1  0.037086  0.726368  0.310718  1
  Er  Er6  1  0.324134  0.519965  0.195832  1
  Er  Er7  1  0.675866  0.871697  0.195832  1
  Er  Er8  1  0.178138  0.779499  0.957637  1
  Er  Er9  1  0.821862  0.779499  0.601361  1
  Er  Er10  1  0.178138  0.220501  0.398639  1
  Er  Er11  1  0.821862  0.220501  0.042363  1
  Tc  Tc12  1  0.000000  0.500000  0.500000  1
  Ni  Ni13  1  0.879841  0.879841  0.000000  1
  Ni  Ni14  1  0.120159  0.120159  0.000000  1
  Ni  Ni15  1  0.646736  0.500000  0.146736  1
  Ni  Ni16  1  0.353264  0.500000  0.853264  1
  Hg  Hg17  1  0.500000  0.000000  0.500000  1
