# generated using pymatgen
data_Sm7P12Pd17
_symmetry_space_group_name_H-M   'P 1'
_cell_length_a   12.37518117
_cell_length_b   12.37518171
_cell_length_c   13.63294701
_cell_angle_alpha   68.34127400
_cell_angle_beta   68.34127347
_cell_angle_gamma   18.86722362
_symmetry_Int_Tables_number   1
_chemical_formula_structural   Sm7P12Pd17
_chemical_formula_sum   'Sm7 P12 Pd17'
_cell_volume   626.11703433
_cell_formula_units_Z   1
loop_
 _symmetry_equiv_pos_site_id
 _symmetry_equiv_pos_as_xyz
  1  'x, y, z'
loop_
 _atom_site_type_symbol
 _atom_site_label
 _atom_site_symmetry_multiplicity
 _atom_site_fract_x
 _atom_site_fract_y
 _atom_site_fract_z
 _atom_site_occupancy
  Sm  Sm0  1  0.500000  0.500000  0.500000  1
  Sm  Sm1  1  0.365023  0.365023  0.000233  1
  Sm  Sm2  1  0.634977  0.634977  0.999767  1
  Sm  Sm3  1  0.233397  0.233397  0.313795  1
  Sm  Sm4  1  0.766603  0.766603  0.686205  1
  Sm  Sm5  1  0.418364  0.418364  0.261409  1
  Sm  Sm6  1  0.581636  0.581636  0.738591  1
  P  P7  1  0.061691  0.061691  0.924132  1
  P  P8  1  0.938309  0.938309  0.075868  1
  P  P9  1  0.886642  0.886642  0.828942  1
  P  P10  1  0.113358  0.113358  0.171058  1
  P  P11  1  0.188343  0.188343  0.621151  1
  P  P12  1  0.811657  0.811657  0.378849  1
  P  P13  1  0.364648  0.364648  0.580753  1
  P  P14  1  0.635352  0.635352  0.419247  1
  P  P15  1  0.011549  0.011549  0.668946  1
  P  P16  1  0.988451  0.988451  0.331054  1
  P  P17  1  0.231776  0.231776  0.882360  1
  P  P18  1  0.768224  0.768224  0.117640  1
  Pd  Pd19  1  0.838934  0.838934  0.194170  1
  Pd  Pd20  1  0.161066  0.161066  0.805830  1
  Pd  Pd21  1  0.026347  0.026347  0.123997  1
  Pd  Pd22  1  0.973653  0.973653  0.876003  1
  Pd  Pd23  1  0.889323  0.889323  0.456734  1
  Pd  Pd24  1  0.110677  0.110677  0.543266  1
  Pd  Pd25  1  0.500000  0.500000  0.000000  1
  Pd  Pd26  1  0.545975  0.545975  0.254158  1
  Pd  Pd27  1  0.454025  0.454025  0.745842  1
  Pd  Pd28  1  0.296266  0.296266  0.488346  1
  Pd  Pd29  1  0.703734  0.703734  0.511654  1
  Pd  Pd30  1  0.667280  0.667280  0.223802  1
  Pd  Pd31  1  0.332720  0.332720  0.776198  1
  Pd  Pd32  1  0.908759  0.908759  0.642879  1
  Pd  Pd33  1  0.091241  0.091241  0.357121  1
  Pd  Pd34  1  0.217239  0.217239  0.069072  1
  Pd  Pd35  1  0.782761  0.782761  0.930928  1
