# generated using pymatgen
data_La3CuRh8
_symmetry_space_group_name_H-M   'P 1'
_cell_length_a   5.40468400
_cell_length_b   5.40468294
_cell_length_c   17.52125900
_cell_angle_alpha   90.00000000
_cell_angle_beta   90.00000000
_cell_angle_gamma   119.99999423
_symmetry_Int_Tables_number   1
_chemical_formula_structural   La3CuRh8
_chemical_formula_sum   'La6 Cu2 Rh16'
_cell_volume   443.23749831
_cell_formula_units_Z   2
loop_
 _symmetry_equiv_pos_site_id
 _symmetry_equiv_pos_as_xyz
  1  'x, y, z'
loop_
 _atom_site_type_symbol
 _atom_site_label
 _atom_site_symmetry_multiplicity
 _atom_site_fract_x
 _atom_site_fract_y
 _atom_site_fract_z
 _atom_site_occupancy
  La  La0  1  0.333333  0.666667  0.541597  1
  La  La1  1  0.666667  0.333333  0.041597  1
  La  La2  1  0.666667  0.333333  0.458403  1
  La  La3  1  0.333333  0.666667  0.958403  1
  La  La4  1  0.333333  0.666667  0.750000  1
  La  La5  1  0.666667  0.333333  0.250000  1
  Cu  Cu6  1  0.000000  0.000000  0.250000  1
  Cu  Cu7  1  0.000000  0.000000  0.750000  1
  Rh  Rh8  1  0.166739  0.333476  0.127767  1
  Rh  Rh9  1  0.833261  0.666524  0.627767  1
  Rh  Rh10  1  0.666524  0.833261  0.127767  1
  Rh  Rh11  1  0.166739  0.833261  0.127767  1
  Rh  Rh12  1  0.833261  0.166739  0.627767  1
  Rh  Rh13  1  0.333476  0.166739  0.627767  1
  Rh  Rh14  1  0.833261  0.666524  0.872233  1
  Rh  Rh15  1  0.833261  0.166739  0.872233  1
  Rh  Rh16  1  0.333476  0.166739  0.872233  1
  Rh  Rh17  1  0.666524  0.833261  0.372233  1
  Rh  Rh18  1  0.166739  0.833261  0.372233  1
  Rh  Rh19  1  0.166739  0.333476  0.372233  1
  Rh  Rh20  1  0.333333  0.666667  0.250000  1
  Rh  Rh21  1  0.666667  0.333333  0.750000  1
  Rh  Rh22  1  0.000000  0.000000  0.000000  1
  Rh  Rh23  1  0.000000  0.000000  0.500000  1
