# generated using pymatgen
data_La2Zn21Pd
_symmetry_space_group_name_H-M   'P 1'
_cell_length_a   8.32683314
_cell_length_b   8.32203050
_cell_length_c   8.32204471
_cell_angle_alpha   99.66543663
_cell_angle_beta   100.21398788
_cell_angle_gamma   130.87719187
_symmetry_Int_Tables_number   1
_chemical_formula_structural   La2Zn21Pd
_chemical_formula_sum   'La2 Zn21 Pd1'
_cell_volume   396.66076968
_cell_formula_units_Z   1
loop_
 _symmetry_equiv_pos_site_id
 _symmetry_equiv_pos_as_xyz
  1  'x, y, z'
loop_
 _atom_site_type_symbol
 _atom_site_label
 _atom_site_symmetry_multiplicity
 _atom_site_fract_x
 _atom_site_fract_y
 _atom_site_fract_z
 _atom_site_occupancy
  La  La0  1  0.496976  0.500594  0.996412  1
  La  La1  1  0.753024  0.249406  0.503588  1
  Zn  Zn2  1  0.844768  0.431548  0.170865  1
  Zn  Zn3  1  0.125000  0.875000  0.750000  1
  Zn  Zn4  1  0.325744  0.152492  0.583224  1
  Zn  Zn5  1  0.259438  0.431843  0.583814  1
  Zn  Zn6  1  0.325749  0.742523  0.173260  1
  Zn  Zn7  1  0.990562  0.318157  0.916186  1
  Zn  Zn8  1  0.259416  0.675626  0.827592  1
  Zn  Zn9  1  0.249132  0.754496  0.494628  1
  Zn  Zn10  1  0.990584  0.074374  0.672408  1
  Zn  Zn11  1  0.000868  0.995504  0.005372  1
  Zn  Zn12  1  0.681706  0.011064  0.084893  1
  Zn  Zn13  1  0.625000  0.875000  0.750000  1
  Zn  Zn14  1  0.405232  0.318452  0.329135  1
  Zn  Zn15  1  0.924251  0.007477  0.326740  1
  Zn  Zn16  1  0.844776  0.673918  0.413218  1
  Zn  Zn17  1  0.568294  0.738936  0.415107  1
  Zn  Zn18  1  0.681695  0.596817  0.670644  1
  Zn  Zn19  1  0.405224  0.076082  0.086782  1
  Zn  Zn20  1  0.924256  0.597508  0.916776  1
  Zn  Zn21  1  0.568305  0.153183  0.829356  1
  Zn  Zn22  1  0.125000  0.375000  0.250000  1
  Pd  Pd23  1  0.125000  0.875000  0.250000  1
