# generated using pymatgen
data_Zr9Sc(Co2Si5)4
_symmetry_space_group_name_H-M   'P 1'
_cell_length_a   11.98325800
_cell_length_b   11.98325800
_cell_length_c   3.92578900
_cell_angle_alpha   90.00000000
_cell_angle_beta   90.00000000
_cell_angle_gamma   90.00000000
_symmetry_Int_Tables_number   1
_chemical_formula_structural   Zr9Sc(Co2Si5)4
_chemical_formula_sum   'Zr9 Sc1 Co8 Si20'
_cell_volume   563.73730295
_cell_formula_units_Z   1
loop_
 _symmetry_equiv_pos_site_id
 _symmetry_equiv_pos_as_xyz
  1  'x, y, z'
loop_
 _atom_site_type_symbol
 _atom_site_label
 _atom_site_symmetry_multiplicity
 _atom_site_fract_x
 _atom_site_fract_y
 _atom_site_fract_z
 _atom_site_occupancy
  Zr  Zr0  1  0.000000  0.000000  0.000000  1
  Zr  Zr1  1  0.677820  0.179044  0.500000  1
  Zr  Zr2  1  0.179044  0.322180  0.500000  1
  Zr  Zr3  1  0.820956  0.677820  0.500000  1
  Zr  Zr4  1  0.322180  0.820956  0.500000  1
  Zr  Zr5  1  0.887365  0.387447  0.500000  1
  Zr  Zr6  1  0.387447  0.112635  0.500000  1
  Zr  Zr7  1  0.612553  0.887365  0.500000  1
  Zr  Zr8  1  0.112635  0.612553  0.500000  1
  Sc  Sc9  1  0.500000  0.500000  0.000000  1
  Co  Co10  1  0.526345  0.255742  0.000000  1
  Co  Co11  1  0.255742  0.473655  0.000000  1
  Co  Co12  1  0.744258  0.526345  0.000000  1
  Co  Co13  1  0.473655  0.744258  0.000000  1
  Co  Co14  1  0.973381  0.755757  0.000000  1
  Co  Co15  1  0.026619  0.244243  0.000000  1
  Co  Co16  1  0.755757  0.026619  0.000000  1
  Co  Co17  1  0.244243  0.973381  0.000000  1
  Si  Si18  1  0.568220  0.068352  0.000000  1
  Si  Si19  1  0.068352  0.431780  0.000000  1
  Si  Si20  1  0.931648  0.568220  0.000000  1
  Si  Si21  1  0.431780  0.931648  0.000000  1
  Si  Si22  1  0.199666  0.154544  0.000000  1
  Si  Si23  1  0.154544  0.800334  0.000000  1
  Si  Si24  1  0.845456  0.199666  0.000000  1
  Si  Si25  1  0.800334  0.845456  0.000000  1
  Si  Si26  1  0.301891  0.653253  0.000000  1
  Si  Si27  1  0.698109  0.346747  0.000000  1
  Si  Si28  1  0.653253  0.698109  0.000000  1
  Si  Si29  1  0.346747  0.301891  0.000000  1
  Si  Si30  1  0.000593  0.165287  0.500000  1
  Si  Si31  1  0.165287  0.999407  0.500000  1
  Si  Si32  1  0.834713  0.000593  0.500000  1
  Si  Si33  1  0.999407  0.834713  0.500000  1
  Si  Si34  1  0.498427  0.662112  0.500000  1
  Si  Si35  1  0.501573  0.337888  0.500000  1
  Si  Si36  1  0.662112  0.501573  0.500000  1
  Si  Si37  1  0.337888  0.498427  0.500000  1
