# generated using pymatgen
data_Tm15Pa(ZnCo)4
_symmetry_space_group_name_H-M   'P 1'
_cell_length_a   9.24354591
_cell_length_b   9.24355684
_cell_length_c   9.24357026
_cell_angle_alpha   59.58160423
_cell_angle_beta   59.58177139
_cell_angle_gamma   59.58221817
_symmetry_Int_Tables_number   1
_chemical_formula_structural   Tm15Pa(ZnCo)4
_chemical_formula_sum   'Tm15 Pa1 Zn4 Co4'
_cell_volume   553.16519856
_cell_formula_units_Z   1
loop_
 _symmetry_equiv_pos_site_id
 _symmetry_equiv_pos_as_xyz
  1  'x, y, z'
loop_
 _atom_site_type_symbol
 _atom_site_label
 _atom_site_symmetry_multiplicity
 _atom_site_fract_x
 _atom_site_fract_y
 _atom_site_fract_z
 _atom_site_occupancy
  Tm  Tm0  1  0.351372  0.351375  0.944971  1
  Tm  Tm1  1  0.351370  0.944973  0.351376  1
  Tm  Tm2  1  0.944973  0.351371  0.351376  1
  Tm  Tm3  1  0.810615  0.191241  0.191241  1
  Tm  Tm4  1  0.191511  0.810214  0.810207  1
  Tm  Tm5  1  0.191240  0.810616  0.191240  1
  Tm  Tm6  1  0.810214  0.191510  0.810206  1
  Tm  Tm7  1  0.191240  0.191240  0.810611  1
  Tm  Tm8  1  0.810213  0.810206  0.191511  1
  Tm  Tm9  1  0.939576  0.562818  0.562820  1
  Tm  Tm10  1  0.562979  0.936937  0.936936  1
  Tm  Tm11  1  0.562818  0.939576  0.562820  1
  Tm  Tm12  1  0.936936  0.562979  0.936936  1
  Tm  Tm13  1  0.562819  0.562820  0.939576  1
  Tm  Tm14  1  0.936935  0.936936  0.562979  1
  Pa  Pa15  1  0.339938  0.339938  0.339941  1
  Zn  Zn16  1  0.575937  0.575936  0.575937  1
  Zn  Zn17  1  0.576112  0.576112  0.264329  1
  Zn  Zn18  1  0.576111  0.264328  0.576111  1
  Zn  Zn19  1  0.264329  0.576112  0.576112  1
  Co  Co20  1  0.142893  0.142892  0.142892  1
  Co  Co21  1  0.152169  0.152169  0.565533  1
  Co  Co22  1  0.152170  0.565532  0.152170  1
  Co  Co23  1  0.565533  0.152170  0.152170  1
