# generated using pymatgen
data_CeY2AlIn2Ir3
_symmetry_space_group_name_H-M   'P 1'
_cell_length_a   7.45955352
_cell_length_b   7.53889134
_cell_length_c   3.91729100
_cell_angle_alpha   90.00000000
_cell_angle_beta   90.00000000
_cell_angle_gamma   120.35244679
_symmetry_Int_Tables_number   1
_chemical_formula_structural   CeY2AlIn2Ir3
_chemical_formula_sum   'Ce1 Y2 Al1 In2 Ir3'
_cell_volume   190.10056654
_cell_formula_units_Z   1
loop_
 _symmetry_equiv_pos_site_id
 _symmetry_equiv_pos_as_xyz
  1  'x, y, z'
loop_
 _atom_site_type_symbol
 _atom_site_label
 _atom_site_symmetry_multiplicity
 _atom_site_fract_x
 _atom_site_fract_y
 _atom_site_fract_z
 _atom_site_occupancy
  Ce  Ce0  1  0.000000  0.567438  0.000000  1
  Y  Y1  1  0.401515  0.408851  0.000000  1
  Y  Y2  1  0.598485  0.007335  0.000000  1
  Al  Al3  1  0.000000  0.241333  0.500000  1
  In  In4  1  0.744191  0.747907  0.500000  1
  In  In5  1  0.255809  0.003716  0.500000  1
  Ir  Ir6  1  0.000000  0.027637  0.000000  1
  Ir  Ir7  1  0.306677  0.651231  0.500000  1
  Ir  Ir8  1  0.693323  0.344553  0.500000  1
