# generated using pymatgen
data_SmY5Cd23Si
_symmetry_space_group_name_H-M   'P 1'
_cell_length_a   9.99858645
_cell_length_b   9.96884650
_cell_length_c   9.96884650
_cell_angle_alpha   60.19748048
_cell_angle_beta   59.90126051
_cell_angle_gamma   59.90126376
_symmetry_Int_Tables_number   1
_chemical_formula_structural   SmY5Cd23Si
_chemical_formula_sum   'Sm1 Y5 Cd23 Si1'
_cell_volume   702.59602305
_cell_formula_units_Z   1
loop_
 _symmetry_equiv_pos_site_id
 _symmetry_equiv_pos_as_xyz
  1  'x, y, z'
loop_
 _atom_site_type_symbol
 _atom_site_label
 _atom_site_symmetry_multiplicity
 _atom_site_fract_x
 _atom_site_fract_y
 _atom_site_fract_z
 _atom_site_occupancy
  Sm  Sm0  1  0.204228  0.795772  0.795772  1
  Y  Y1  1  0.798643  0.798942  0.201357  1
  Y  Y2  1  0.201058  0.798942  0.201357  1
  Y  Y3  1  0.796736  0.203264  0.203264  1
  Y  Y4  1  0.201058  0.201357  0.798942  1
  Y  Y5  1  0.798643  0.201357  0.798942  1
  Cd  Cd6  1  0.837326  0.838761  0.486586  1
  Cd  Cd7  1  0.837326  0.486586  0.838761  1
  Cd  Cd8  1  0.489111  0.837098  0.837098  1
  Cd  Cd9  1  0.836693  0.837098  0.837098  1
  Cd  Cd10  1  0.162902  0.163307  0.510889  1
  Cd  Cd11  1  0.162902  0.510889  0.163307  1
  Cd  Cd12  1  0.513414  0.162674  0.162674  1
  Cd  Cd13  1  0.161239  0.162674  0.162674  1
  Cd  Cd14  1  0.621469  0.622074  0.134989  1
  Cd  Cd15  1  0.621469  0.134989  0.622074  1
  Cd  Cd16  1  0.133560  0.621024  0.621024  1
  Cd  Cd17  1  0.624393  0.621024  0.621024  1
  Cd  Cd18  1  0.378976  0.375607  0.866440  1
  Cd  Cd19  1  0.378976  0.866440  0.375607  1
  Cd  Cd20  1  0.865011  0.378531  0.378531  1
  Cd  Cd21  1  0.377926  0.378531  0.378531  1
  Cd  Cd22  1  0.999879  0.000121  0.500156  1
  Cd  Cd23  1  0.499844  0.000121  0.500156  1
  Cd  Cd24  1  0.999573  0.500427  0.500427  1
  Cd  Cd25  1  0.499844  0.500156  0.000121  1
  Cd  Cd26  1  0.999879  0.500156  0.000121  1
  Cd  Cd27  1  0.499573  0.000427  0.000427  1
  Cd  Cd28  1  0.499248  0.500752  0.500752  1
  Si  Si29  1  0.999102  0.000898  0.000898  1
