# generated using pymatgen
data_Tb7Lu7Th2(CdNi)4
_symmetry_space_group_name_H-M   'P 1'
_cell_length_a   9.52482583
_cell_length_b   9.52482623
_cell_length_c   9.52420300
_cell_angle_alpha   60.00215405
_cell_angle_beta   60.00215266
_cell_angle_gamma   60.15143009
_symmetry_Int_Tables_number   1
_chemical_formula_structural   Tb7Lu7Th2(CdNi)4
_chemical_formula_sum   'Tb7 Lu7 Th2 Cd4 Ni4'
_cell_volume   611.69717404
_cell_formula_units_Z   1
loop_
 _symmetry_equiv_pos_site_id
 _symmetry_equiv_pos_as_xyz
  1  'x, y, z'
loop_
 _atom_site_type_symbol
 _atom_site_label
 _atom_site_symmetry_multiplicity
 _atom_site_fract_x
 _atom_site_fract_y
 _atom_site_fract_z
 _atom_site_occupancy
  Tb  Tb0  1  0.814552  0.814552  0.185448  1
  Tb  Tb1  1  0.938241  0.562657  0.565773  1
  Tb  Tb2  1  0.562657  0.938241  0.933329  1
  Tb  Tb3  1  0.562657  0.938241  0.565773  1
  Tb  Tb4  1  0.938241  0.562657  0.933329  1
  Tb  Tb5  1  0.563240  0.563240  0.936760  1
  Tb  Tb6  1  0.937744  0.937744  0.562256  1
  Lu  Lu7  1  0.346719  0.951461  0.350910  1
  Lu  Lu8  1  0.951461  0.346719  0.350910  1
  Lu  Lu9  1  0.814064  0.189826  0.184827  1
  Lu  Lu10  1  0.189826  0.814064  0.811285  1
  Lu  Lu11  1  0.189826  0.814064  0.184827  1
  Lu  Lu12  1  0.814064  0.189826  0.811285  1
  Lu  Lu13  1  0.184877  0.184877  0.815123  1
  Th  Th14  1  0.342691  0.342691  0.352617  1
  Th  Th15  1  0.342691  0.342691  0.962000  1
  Cd  Cd16  1  0.583025  0.583025  0.578471  1
  Cd  Cd17  1  0.583025  0.583025  0.255477  1
  Cd  Cd18  1  0.584846  0.257199  0.578976  1
  Cd  Cd19  1  0.257199  0.584846  0.578976  1
  Ni  Ni20  1  0.141023  0.141023  0.143929  1
  Ni  Ni21  1  0.141023  0.141023  0.574026  1
  Ni  Ni22  1  0.145474  0.570836  0.141845  1
  Ni  Ni23  1  0.570836  0.145474  0.141845  1
