# generated using pymatgen
data_Y3Ho5(ErGa5)4
_symmetry_space_group_name_H-M   'P 1'
_cell_length_a   6.08696603
_cell_length_b   9.63530500
_cell_length_c   11.49906606
_cell_angle_alpha   89.99859575
_cell_angle_beta   89.98795175
_cell_angle_gamma   89.99975863
_symmetry_Int_Tables_number   1
_chemical_formula_structural   Y3Ho5(ErGa5)4
_chemical_formula_sum   'Y3 Ho5 Er4 Ga20'
_cell_volume   674.41761380
_cell_formula_units_Z   1
loop_
 _symmetry_equiv_pos_site_id
 _symmetry_equiv_pos_as_xyz
  1  'x, y, z'
loop_
 _atom_site_type_symbol
 _atom_site_label
 _atom_site_symmetry_multiplicity
 _atom_site_fract_x
 _atom_site_fract_y
 _atom_site_fract_z
 _atom_site_occupancy
  Y  Y0  1  0.890495  0.509759  0.351665  1
  Y  Y1  1  0.609496  0.990208  0.851826  1
  Y  Y2  1  0.109513  0.009763  0.648202  1
  Ho  Ho3  1  0.390572  0.490253  0.148228  1
  Ho  Ho4  1  0.109452  0.490215  0.648500  1
  Ho  Ho5  1  0.390527  0.009771  0.148507  1
  Ho  Ho6  1  0.890527  0.990215  0.351501  1
  Ho  Ho7  1  0.609373  0.509767  0.851672  1
  Er  Er8  1  0.848612  0.749925  0.074379  1
  Er  Er9  1  0.651258  0.749969  0.574261  1
  Er  Er10  1  0.151298  0.250097  0.925790  1
  Er  Er11  1  0.348784  0.250044  0.425603  1
  Ga  Ga12  1  0.874900  0.052911  0.090628  1
  Ga  Ga13  1  0.625076  0.447090  0.590631  1
  Ga  Ga14  1  0.125174  0.552867  0.909518  1
  Ga  Ga15  1  0.374941  0.947092  0.409363  1
  Ga  Ga16  1  0.124944  0.946969  0.909872  1
  Ga  Ga17  1  0.375085  0.552958  0.409587  1
  Ga  Ga18  1  0.874829  0.447057  0.090221  1
  Ga  Ga19  1  0.624927  0.053038  0.590112  1
  Ga  Ga20  1  0.173344  0.750226  0.251419  1
  Ga  Ga21  1  0.326867  0.749494  0.751591  1
  Ga  Ga22  1  0.826896  0.250511  0.748432  1
  Ga  Ga23  1  0.672871  0.249737  0.248317  1
  Ga  Ga24  1  0.372783  0.749858  0.005231  1
  Ga  Ga25  1  0.127236  0.749797  0.504975  1
  Ga  Ga26  1  0.627050  0.250307  0.995110  1
  Ga  Ga27  1  0.872771  0.249827  0.495017  1
  Ga  Ga28  1  0.602996  0.750356  0.299207  1
  Ga  Ga29  1  0.896940  0.749542  0.799266  1
  Ga  Ga30  1  0.396918  0.250456  0.700731  1
  Ga  Ga31  1  0.103542  0.249918  0.200639  1
