# generated using pymatgen
data_Dy9Er(SnBi2)2
_symmetry_space_group_name_H-M   'P 1'
_cell_length_a   9.10567198
_cell_length_b   9.07574098
_cell_length_c   6.45284908
_cell_angle_alpha   89.98132057
_cell_angle_beta   90.00930992
_cell_angle_gamma   119.89132701
_symmetry_Int_Tables_number   1
_chemical_formula_structural   Dy9Er(SnBi2)2
_chemical_formula_sum   'Dy9 Er1 Sn2 Bi4'
_cell_volume   462.32858824
_cell_formula_units_Z   1
loop_
 _symmetry_equiv_pos_site_id
 _symmetry_equiv_pos_as_xyz
  1  'x, y, z'
loop_
 _atom_site_type_symbol
 _atom_site_label
 _atom_site_symmetry_multiplicity
 _atom_site_fract_x
 _atom_site_fract_y
 _atom_site_fract_z
 _atom_site_occupancy
  Dy  Dy0  1  0.994426  0.758405  0.749852  1
  Dy  Dy1  1  0.994426  0.236020  0.250148  1
  Dy  Dy2  1  0.756673  0.761960  0.250144  1
  Dy  Dy3  1  0.756673  0.994713  0.749856  1
  Dy  Dy4  1  0.245084  0.244844  0.750009  1
  Dy  Dy5  1  0.245084  0.000240  0.249991  1
  Dy  Dy6  1  0.664855  0.332427  0.000000  1
  Dy  Dy7  1  0.665061  0.332530  0.500000  1
  Dy  Dy8  1  0.340072  0.670036  0.000000  1
  Er  Er9  1  0.340570  0.670286  0.500000  1
  Sn  Sn10  1  0.608345  0.606906  0.749364  1
  Sn  Sn11  1  0.608345  0.001440  0.250636  1
  Bi  Bi12  1  0.388691  0.998291  0.749407  1
  Bi  Bi13  1  0.388691  0.390401  0.250593  1
  Bi  Bi14  1  0.001502  0.609690  0.250610  1
  Bi  Bi15  1  0.001502  0.391811  0.749390  1
