# generated using pymatgen
data_KRb2YBi2
_symmetry_space_group_name_H-M   'P 1'
_cell_length_a   10.42887766
_cell_length_b   10.42887787
_cell_length_c   10.42887800
_cell_angle_alpha   129.88799238
_cell_angle_beta   68.45649532
_cell_angle_gamma   136.54532691
_symmetry_Int_Tables_number   1
_chemical_formula_structural   KRb2YBi2
_chemical_formula_sum   'K2 Rb4 Y2 Bi4'
_cell_volume   588.10803427
_cell_formula_units_Z   2
loop_
 _symmetry_equiv_pos_site_id
 _symmetry_equiv_pos_as_xyz
  1  'x, y, z'
loop_
 _atom_site_type_symbol
 _atom_site_label
 _atom_site_symmetry_multiplicity
 _atom_site_fract_x
 _atom_site_fract_y
 _atom_site_fract_z
 _atom_site_occupancy
  K  K0  1  0.749999  0.249999  0.500000  1
  K  K1  1  0.249999  0.749999  0.500000  1
  Rb  Rb2  1  0.317496  0.711660  0.029157  1
  Rb  Rb3  1  0.182505  0.211660  0.394165  1
  Rb  Rb4  1  0.817495  0.788340  0.605835  1
  Rb  Rb5  1  0.682505  0.288340  0.970844  1
  Y  Y6  1  0.249999  0.249999  0.000000  1
  Y  Y7  1  0.750000  0.750000  0.000000  1
  Bi  Bi8  1  0.900834  0.201964  0.102798  1
  Bi  Bi9  1  0.599166  0.701964  0.301129  1
  Bi  Bi10  1  0.400834  0.298036  0.698871  1
  Bi  Bi11  1  0.099166  0.798036  0.897201  1
