# generated using pymatgen
data_Tb2NdZn4Rh5
_symmetry_space_group_name_H-M   'P 1'
_cell_length_a   5.63563800
_cell_length_b   5.43909920
_cell_length_c   16.32663900
_cell_angle_alpha   90.00000000
_cell_angle_beta   90.00000000
_cell_angle_gamma   121.20270578
_symmetry_Int_Tables_number   1
_chemical_formula_structural   Tb2NdZn4Rh5
_chemical_formula_sum   'Tb4 Nd2 Zn8 Rh10'
_cell_volume   428.06087742
_cell_formula_units_Z   2
loop_
 _symmetry_equiv_pos_site_id
 _symmetry_equiv_pos_as_xyz
  1  'x, y, z'
loop_
 _atom_site_type_symbol
 _atom_site_label
 _atom_site_symmetry_multiplicity
 _atom_site_fract_x
 _atom_site_fract_y
 _atom_site_fract_z
 _atom_site_occupancy
  Tb  Tb0  1  0.331929  0.663859  0.537997  1
  Tb  Tb1  1  0.668071  0.336141  0.037997  1
  Tb  Tb2  1  0.663114  0.326227  0.456885  1
  Tb  Tb3  1  0.336886  0.673773  0.956885  1
  Nd  Nd4  1  0.331281  0.662563  0.752995  1
  Nd  Nd5  1  0.668719  0.337437  0.252995  1
  Zn  Zn6  1  0.167973  0.335945  0.125078  1
  Zn  Zn7  1  0.832027  0.664055  0.625078  1
  Zn  Zn8  1  0.998062  0.996124  0.251462  1
  Zn  Zn9  1  0.001938  0.003876  0.751462  1
  Zn  Zn10  1  0.337171  0.674343  0.250757  1
  Zn  Zn11  1  0.662829  0.325657  0.750757  1
  Zn  Zn12  1  0.997949  0.995898  0.999076  1
  Zn  Zn13  1  0.002051  0.004102  0.499076  1
  Rh  Rh14  1  0.661782  0.830233  0.123887  1
  Rh  Rh15  1  0.168452  0.830233  0.123887  1
  Rh  Rh16  1  0.831548  0.169767  0.623887  1
  Rh  Rh17  1  0.338218  0.169767  0.623887  1
  Rh  Rh18  1  0.831073  0.662147  0.875387  1
  Rh  Rh19  1  0.832642  0.169754  0.876295  1
  Rh  Rh20  1  0.337111  0.169754  0.876295  1
  Rh  Rh21  1  0.662889  0.830246  0.376295  1
  Rh  Rh22  1  0.167358  0.830246  0.376295  1
  Rh  Rh23  1  0.168927  0.337853  0.375387  1
