# generated using pymatgen
data_Lu2AlZnIr2
_symmetry_space_group_name_H-M   'P 1'
_cell_length_a   4.07475200
_cell_length_b   6.82919091
_cell_length_c   7.98890630
_cell_angle_alpha   89.80601383
_cell_angle_beta   90.00000000
_cell_angle_gamma   90.00000000
_symmetry_Int_Tables_number   1
_chemical_formula_structural   Lu2AlZnIr2
_chemical_formula_sum   'Lu4 Al2 Zn2 Ir4'
_cell_volume   222.30809306
_cell_formula_units_Z   2
loop_
 _symmetry_equiv_pos_site_id
 _symmetry_equiv_pos_as_xyz
  1  'x, y, z'
loop_
 _atom_site_type_symbol
 _atom_site_label
 _atom_site_symmetry_multiplicity
 _atom_site_fract_x
 _atom_site_fract_y
 _atom_site_fract_z
 _atom_site_occupancy
  Lu  Lu0  1  0.250000  0.534576  0.176397  1
  Lu  Lu1  1  0.750000  0.465424  0.823603  1
  Lu  Lu2  1  0.750000  0.963870  0.683018  1
  Lu  Lu3  1  0.250000  0.036130  0.316982  1
  Al  Al4  1  0.250000  0.639545  0.561398  1
  Al  Al5  1  0.750000  0.360455  0.438602  1
  Zn  Zn6  1  0.750000  0.858911  0.064424  1
  Zn  Zn7  1  0.250000  0.141089  0.935576  1
  Ir  Ir8  1  0.250000  0.755167  0.869026  1
  Ir  Ir9  1  0.750000  0.244833  0.130974  1
  Ir  Ir10  1  0.750000  0.735098  0.385557  1
  Ir  Ir11  1  0.250000  0.264902  0.614443  1
