# generated using pymatgen
data_Tm2NpO6
_symmetry_space_group_name_H-M   'P 1'
_cell_length_a   5.46096700
_cell_length_b   7.75549799
_cell_length_c   11.73303151
_cell_angle_alpha   73.54705009
_cell_angle_beta   90.00000000
_cell_angle_gamma   90.00000000
_symmetry_Int_Tables_number   1
_chemical_formula_structural   Tm2NpO6
_chemical_formula_sum   'Tm8 Np4 O24'
_cell_volume   476.57573166
_cell_formula_units_Z   4
loop_
 _symmetry_equiv_pos_site_id
 _symmetry_equiv_pos_as_xyz
  1  'x, y, z'
loop_
 _atom_site_type_symbol
 _atom_site_label
 _atom_site_symmetry_multiplicity
 _atom_site_fract_x
 _atom_site_fract_y
 _atom_site_fract_z
 _atom_site_occupancy
  Tm  Tm0  1  0.745218  0.000000  0.750000  1
  Tm  Tm1  1  0.254782  0.000000  0.250000  1
  Tm  Tm2  1  0.186776  0.794908  0.580289  1
  Tm  Tm3  1  0.813224  0.794908  0.080289  1
  Tm  Tm4  1  0.701568  0.500000  0.750000  1
  Tm  Tm5  1  0.298432  0.500000  0.250000  1
  Tm  Tm6  1  0.186776  0.205092  0.919711  1
  Tm  Tm7  1  0.813224  0.205092  0.419711  1
  Np  Np8  1  0.256505  0.719370  0.887447  1
  Np  Np9  1  0.743495  0.719370  0.387447  1
  Np  Np10  1  0.256505  0.280630  0.612553  1
  Np  Np11  1  0.743495  0.280630  0.112553  1
  O  O12  1  0.044641  0.944868  0.896885  1
  O  O13  1  0.558055  0.849795  0.931404  1
  O  O14  1  0.955359  0.944868  0.396885  1
  O  O15  1  0.450297  0.803076  0.725451  1
  O  O16  1  0.441945  0.849795  0.431404  1
  O  O17  1  0.961490  0.715237  0.765142  1
  O  O18  1  0.549703  0.803076  0.225451  1
  O  O19  1  0.878454  0.624470  0.557099  1
  O  O20  1  0.391993  0.478015  0.882826  1
  O  O21  1  0.038510  0.715237  0.265142  1
  O  O22  1  0.391993  0.521985  0.617174  1
  O  O23  1  0.878454  0.375530  0.942901  1
  O  O24  1  0.121546  0.624470  0.057099  1
  O  O25  1  0.608007  0.478015  0.382826  1
  O  O26  1  0.961490  0.284763  0.734858  1
  O  O27  1  0.608007  0.521985  0.117174  1
  O  O28  1  0.121546  0.375530  0.442901  1
  O  O29  1  0.450297  0.196924  0.774549  1
  O  O30  1  0.038510  0.284763  0.234858  1
  O  O31  1  0.558055  0.150205  0.568596  1
  O  O32  1  0.549703  0.196924  0.274549  1
  O  O33  1  0.044641  0.055132  0.603115  1
  O  O34  1  0.441945  0.150205  0.068596  1
  O  O35  1  0.955359  0.055132  0.103115  1
