# generated using pymatgen
data_Cs6Gd(AsBr6)3
_symmetry_space_group_name_H-M   'P 1'
_cell_length_a   7.90939600
_cell_length_b   7.90939662
_cell_length_c   19.90755200
_cell_angle_alpha   90.00000000
_cell_angle_beta   90.00000000
_cell_angle_gamma   120.00000578
_symmetry_Int_Tables_number   1
_chemical_formula_structural   Cs6Gd(AsBr6)3
_chemical_formula_sum   'Cs6 Gd1 As3 Br18'
_cell_volume   1078.53722463
_cell_formula_units_Z   1
loop_
 _symmetry_equiv_pos_site_id
 _symmetry_equiv_pos_as_xyz
  1  'x, y, z'
loop_
 _atom_site_type_symbol
 _atom_site_label
 _atom_site_symmetry_multiplicity
 _atom_site_fract_x
 _atom_site_fract_y
 _atom_site_fract_z
 _atom_site_occupancy
  Cs  Cs0  1  0.333333  0.666667  0.077519  1
  Cs  Cs1  1  0.666667  0.333333  0.924971  1
  Cs  Cs2  1  0.666667  0.333333  0.576412  1
  Cs  Cs3  1  0.333333  0.666667  0.410162  1
  Cs  Cs4  1  0.000000  0.000000  0.250857  1
  Cs  Cs5  1  0.000000  0.000000  0.760087  1
  Gd  Gd6  1  0.333333  0.666667  0.840703  1
  As  As7  1  0.333333  0.666667  0.649983  1
  As  As8  1  0.666667  0.333333  0.342662  1
  As  As9  1  0.666667  0.333333  0.157724  1
  Br  Br10  1  0.177011  0.354021  0.584115  1
  Br  Br11  1  0.823475  0.646948  0.412467  1
  Br  Br12  1  0.645979  0.822989  0.584115  1
  Br  Br13  1  0.822381  0.644762  0.089443  1
  Br  Br14  1  0.353052  0.176525  0.412467  1
  Br  Br15  1  0.166358  0.332718  0.918092  1
  Br  Br16  1  0.177011  0.822989  0.584115  1
  Br  Br17  1  0.355238  0.177619  0.089443  1
  Br  Br18  1  0.823475  0.176525  0.412467  1
  Br  Br19  1  0.667282  0.833642  0.918092  1
  Br  Br20  1  0.822381  0.177619  0.089443  1
  Br  Br21  1  0.166358  0.833642  0.918092  1
  Br  Br22  1  0.505682  0.011367  0.252111  1
  Br  Br23  1  0.496544  0.993089  0.746747  1
  Br  Br24  1  0.988633  0.494318  0.252111  1
  Br  Br25  1  0.006911  0.503456  0.746747  1
  Br  Br26  1  0.505682  0.494318  0.252111  1
  Br  Br27  1  0.496544  0.503456  0.746747  1
