# generated using pymatgen
data_Yb2HoHf(Al8Pt3)3
_symmetry_space_group_name_H-M   'P 1'
_cell_length_a   7.51090223
_cell_length_b   7.52793529
_cell_length_c   13.15370270
_cell_angle_alpha   84.59261942
_cell_angle_beta   79.10211560
_cell_angle_gamma   59.94055826
_symmetry_Int_Tables_number   1
_chemical_formula_structural   Yb2HoHf(Al8Pt3)3
_chemical_formula_sum   'Yb2 Ho1 Hf1 Al24 Pt9'
_cell_volume   632.09513499
_cell_formula_units_Z   1
loop_
 _symmetry_equiv_pos_site_id
 _symmetry_equiv_pos_as_xyz
  1  'x, y, z'
loop_
 _atom_site_type_symbol
 _atom_site_label
 _atom_site_symmetry_multiplicity
 _atom_site_fract_x
 _atom_site_fract_y
 _atom_site_fract_z
 _atom_site_occupancy
  Yb  Yb0  1  0.606704  0.830845  0.191539  1
  Yb  Yb1  1  0.733959  0.499011  0.807744  1
  Ho  Ho2  1  0.266740  0.501719  0.191386  1
  Hf  Hf3  1  0.394654  0.167822  0.807829  1
  Al  Al4  1  0.681421  0.836235  0.942040  1
  Al  Al5  1  0.316647  0.166135  0.052768  1
  Al  Al6  1  0.146428  0.832247  0.562865  1
  Al  Al7  1  0.852592  0.167728  0.439426  1
  Al  Al8  1  0.479597  0.166149  0.560610  1
  Al  Al9  1  0.520047  0.833319  0.441274  1
  Al  Al10  1  0.217552  0.164473  0.330096  1
  Al  Al11  1  0.779138  0.835163  0.674661  1
  Al  Al12  1  0.437182  0.504782  0.674837  1
  Al  Al13  1  0.562608  0.494788  0.329697  1
  Al  Al14  1  0.109083  0.161362  0.673509  1
  Al  Al15  1  0.889325  0.839690  0.331209  1
  Al  Al16  1  0.355694  0.495110  0.940543  1
  Al  Al17  1  0.649239  0.499651  0.052956  1
  Al  Al18  1  0.019778  0.169402  0.948758  1
  Al  Al19  1  0.985054  0.832898  0.044138  1
  Al  Al20  1  0.186363  0.499738  0.441733  1
  Al  Al21  1  0.812802  0.500745  0.560554  1
  Al  Al22  1  0.732452  0.167609  0.183123  1
  Al  Al23  1  0.264705  0.843977  0.816707  1
  Al  Al24  1  0.068795  0.624473  0.815486  1
  Al  Al25  1  0.941839  0.366983  0.183878  1
  Al  Al26  1  0.847553  0.040779  0.815888  1
  Al  Al27  1  0.142587  0.957570  0.183322  1
  Pt  Pt28  1  0.121317  0.490205  0.639445  1
  Pt  Pt29  1  0.880126  0.507548  0.362200  1
  Pt  Pt30  1  0.657917  0.171261  0.998801  1
  Pt  Pt31  1  0.343164  0.828161  0.999206  1
  Pt  Pt32  1  0.537222  0.167363  0.362108  1
  Pt  Pt33  1  0.462106  0.834322  0.639242  1
  Pt  Pt34  1  0.777364  0.175200  0.638013  1
  Pt  Pt35  1  0.220010  0.825244  0.363603  1
  Pt  Pt36  1  0.000238  0.500300  0.998808  1
