# generated using pymatgen
data_Ba6Sc2Te2IrO18
_symmetry_space_group_name_H-M   'P 1'
_cell_length_a   10.21454408
_cell_length_b   10.21454383
_cell_length_c   10.21454358
_cell_angle_alpha   146.55906844
_cell_angle_beta   132.07636115
_cell_angle_gamma   59.69686553
_symmetry_Int_Tables_number   1
_chemical_formula_structural   Ba6Sc2Te2IrO18
_chemical_formula_sum   'Ba6 Sc2 Te2 Ir1 O18'
_cell_volume   432.03144852
_cell_formula_units_Z   1
loop_
 _symmetry_equiv_pos_site_id
 _symmetry_equiv_pos_as_xyz
  1  'x, y, z'
loop_
 _atom_site_type_symbol
 _atom_site_label
 _atom_site_symmetry_multiplicity
 _atom_site_fract_x
 _atom_site_fract_y
 _atom_site_fract_z
 _atom_site_occupancy
  Ba  Ba0  1  0.771708  0.500278  0.271429  1
  Ba  Ba1  1  0.397738  0.160055  0.237683  1
  Ba  Ba2  1  0.081367  0.839840  0.241528  1
  Ba  Ba3  1  0.228849  0.500278  0.728571  1
  Ba  Ba4  1  0.922372  0.160055  0.762317  1
  Ba  Ba5  1  0.598312  0.839840  0.758472  1
  Sc  Sc6  1  0.664710  0.664710  0.000000  1
  Sc  Sc7  1  0.333732  0.333732  0.000000  1
  Te  Te8  1  0.500151  0.000151  0.500000  1
  Te  Te9  1  0.827464  0.327464  0.500000  1
  Ir  Ir10  1  0.172600  0.672600  0.500000  1
  O  O11  1  0.728302  0.000591  0.727711  1
  O  O12  1  0.413279  0.671392  0.741886  1
  O  O13  1  0.069191  0.327436  0.741755  1
  O  O14  1  0.580424  0.837060  0.256635  1
  O  O15  1  0.252026  0.510932  0.258906  1
  O  O16  1  0.903475  0.173052  0.269576  1
  O  O17  1  0.420499  0.677240  0.256741  1
  O  O18  1  0.096472  0.369308  0.272836  1
  O  O19  1  0.748184  0.012647  0.264462  1
  O  O20  1  0.272880  0.000591  0.272289  1
  O  O21  1  0.929505  0.671392  0.258114  1
  O  O22  1  0.585680  0.327436  0.258245  1
  O  O23  1  0.420499  0.163756  0.743259  1
  O  O24  1  0.096472  0.823635  0.727164  1
  O  O25  1  0.748184  0.483723  0.735538  1
  O  O26  1  0.580424  0.323789  0.743365  1
  O  O27  1  0.252026  0.993120  0.741094  1
  O  O28  1  0.903475  0.633899  0.730424  1
