# generated using pymatgen
data_Ti8Tc3Ru4Rh
_symmetry_space_group_name_H-M   'P 1'
_cell_length_a   6.19269700
_cell_length_b   6.19274900
_cell_length_c   6.18790100
_cell_angle_alpha   90.00000000
_cell_angle_beta   90.00007405
_cell_angle_gamma   90.00000000
_symmetry_Int_Tables_number   1
_chemical_formula_structural   Ti8Tc3Ru4Rh
_chemical_formula_sum   'Ti8 Tc3 Ru4 Rh1'
_cell_volume   237.30487811
_cell_formula_units_Z   1
loop_
 _symmetry_equiv_pos_site_id
 _symmetry_equiv_pos_as_xyz
  1  'x, y, z'
loop_
 _atom_site_type_symbol
 _atom_site_label
 _atom_site_symmetry_multiplicity
 _atom_site_fract_x
 _atom_site_fract_y
 _atom_site_fract_z
 _atom_site_occupancy
  Ti  Ti0  1  0.498035  0.998036  0.252131  1
  Ti  Ti1  1  0.498035  0.501961  0.252131  1
  Ti  Ti2  1  0.001962  0.998037  0.252132  1
  Ti  Ti3  1  0.001962  0.501967  0.252132  1
  Ti  Ti4  1  0.001963  0.998036  0.747870  1
  Ti  Ti5  1  0.001963  0.501961  0.747870  1
  Ti  Ti6  1  0.498043  0.998037  0.747870  1
  Ti  Ti7  1  0.498043  0.501967  0.747870  1
  Tc  Tc8  1  0.249998  0.750001  0.000004  1
  Tc  Tc9  1  0.749998  0.250000  0.499996  1
  Tc  Tc10  1  0.250000  0.750001  0.500005  1
  Ru  Ru11  1  0.250002  0.250000  0.000004  1
  Ru  Ru12  1  0.749999  0.750001  0.999999  1
  Ru  Ru13  1  0.750001  0.750001  0.499994  1
  Ru  Ru14  1  0.249999  0.250000  0.500010  1
  Rh  Rh15  1  0.749996  0.250000  0.999985  1
