# generated using pymatgen
data_RbCaFe2F9
_symmetry_space_group_name_H-M   'P 1'
_cell_length_a   7.58612700
_cell_length_b   7.58612718
_cell_length_c   23.93561900
_cell_angle_alpha   90.00000000
_cell_angle_beta   90.00000000
_cell_angle_gamma   119.82004060
_symmetry_Int_Tables_number   1
_chemical_formula_structural   RbCaFe2F9
_chemical_formula_sum   'Rb6 Ca6 Fe12 F54'
_cell_volume   1195.08890832
_cell_formula_units_Z   6
loop_
 _symmetry_equiv_pos_site_id
 _symmetry_equiv_pos_as_xyz
  1  'x, y, z'
loop_
 _atom_site_type_symbol
 _atom_site_label
 _atom_site_symmetry_multiplicity
 _atom_site_fract_x
 _atom_site_fract_y
 _atom_site_fract_z
 _atom_site_occupancy
  Rb  Rb0  1  0.490848  0.509152  0.750000  1
  Rb  Rb1  1  0.509152  0.490848  0.250000  1
  Rb  Rb2  1  0.531256  0.492871  0.583531  1
  Rb  Rb3  1  0.468744  0.507129  0.083531  1
  Rb  Rb4  1  0.507129  0.468744  0.916469  1
  Rb  Rb5  1  0.492871  0.531256  0.416469  1
  Ca  Ca6  1  0.011589  0.011589  0.500000  1
  Ca  Ca7  1  0.988411  0.988411  0.000000  1
  Ca  Ca8  1  0.999159  0.487928  0.833180  1
  Ca  Ca9  1  0.000841  0.512072  0.333180  1
  Ca  Ca10  1  0.512072  0.000841  0.666820  1
  Ca  Ca11  1  0.487928  0.999159  0.166820  1
  Fe  Fe12  1  0.017563  0.517303  0.502021  1
  Fe  Fe13  1  0.982437  0.482697  0.002021  1
  Fe  Fe14  1  0.482697  0.982437  0.997979  1
  Fe  Fe15  1  0.517303  0.017563  0.497979  1
  Fe  Fe16  1  0.011090  0.496794  0.664624  1
  Fe  Fe17  1  0.988910  0.503206  0.164624  1
  Fe  Fe18  1  0.503206  0.988910  0.835376  1
  Fe  Fe19  1  0.496794  0.011090  0.335376  1
  Fe  Fe20  1  0.991376  0.005679  0.168633  1
  Fe  Fe21  1  0.008624  0.994321  0.668633  1
  Fe  Fe22  1  0.994321  0.008624  0.331367  1
  Fe  Fe23  1  0.005679  0.991376  0.831367  1
  F  F24  1  0.148782  0.357247  0.516902  1
  F  F25  1  0.851218  0.642753  0.016902  1
  F  F26  1  0.642753  0.851218  0.983098  1
  F  F27  1  0.357247  0.148782  0.483098  1
  F  F28  1  0.721356  0.346296  0.678529  1
  F  F29  1  0.278644  0.653704  0.178529  1
  F  F30  1  0.653704  0.278644  0.821471  1
  F  F31  1  0.346296  0.721356  0.321471  1
  F  F32  1  0.010344  0.245101  0.647528  1
  F  F33  1  0.989656  0.754899  0.147528  1
  F  F34  1  0.754899  0.989656  0.852472  1
  F  F35  1  0.245101  0.010344  0.352472  1
  F  F36  1  0.074351  0.475633  0.741888  1
  F  F37  1  0.925649  0.524367  0.241888  1
  F  F38  1  0.524367  0.925649  0.758112  1
  F  F39  1  0.475633  0.074351  0.258112  1
  F  F40  1  0.038222  0.954262  0.590670  1
  F  F41  1  0.961778  0.045738  0.090670  1
  F  F42  1  0.045738  0.961778  0.909330  1
  F  F43  1  0.954262  0.038222  0.409330  1
  F  F44  1  0.267002  0.769450  0.517648  1
  F  F45  1  0.732998  0.230550  0.017648  1
  F  F46  1  0.230550  0.732998  0.982352  1
  F  F47  1  0.769450  0.267002  0.482352  1
  F  F48  1  0.972719  0.027281  0.750000  1
  F  F49  1  0.027281  0.972719  0.250000  1
  F  F50  1  0.903741  0.458176  0.924162  1
  F  F51  1  0.096259  0.541824  0.424162  1
  F  F52  1  0.541824  0.096259  0.575838  1
  F  F53  1  0.458176  0.903741  0.075838  1
  F  F54  1  0.150972  0.285842  0.838784  1
  F  F55  1  0.849028  0.714158  0.338784  1
  F  F56  1  0.714158  0.849028  0.661216  1
  F  F57  1  0.285842  0.150972  0.161216  1
  F  F58  1  0.127267  0.335607  0.989169  1
  F  F59  1  0.872733  0.664393  0.489169  1
  F  F60  1  0.664393  0.872733  0.510831  1
  F  F61  1  0.335607  0.127267  0.010831  1
  F  F62  1  0.857477  0.697769  0.822288  1
  F  F63  1  0.142523  0.302231  0.322288  1
  F  F64  1  0.302231  0.142523  0.677712  1
  F  F65  1  0.697769  0.857477  0.177712  1
  F  F66  1  0.006561  0.743005  0.687143  1
  F  F67  1  0.993439  0.256995  0.187143  1
  F  F68  1  0.256995  0.993439  0.812857  1
  F  F69  1  0.743005  0.006561  0.312857  1
  F  F70  1  0.298260  0.660005  0.648247  1
  F  F71  1  0.701740  0.339995  0.148247  1
  F  F72  1  0.339995  0.701740  0.851753  1
  F  F73  1  0.660005  0.298260  0.351753  1
  F  F74  1  0.944710  0.507675  0.583476  1
  F  F75  1  0.055290  0.492325  0.083476  1
  F  F76  1  0.492325  0.055290  0.916524  1
  F  F77  1  0.507675  0.944710  0.416524  1
