# generated using pymatgen
data_Pr8Zn4Si11Ge
_symmetry_space_group_name_H-M   'P 1'
_cell_length_a   8.24129933
_cell_length_b   8.24130731
_cell_length_c   8.63942800
_cell_angle_alpha   90.00090704
_cell_angle_beta   89.99909721
_cell_angle_gamma   119.96760523
_symmetry_Int_Tables_number   1
_chemical_formula_structural   Pr8Zn4Si11Ge
_chemical_formula_sum   'Pr8 Zn4 Si11 Ge1'
_cell_volume   508.33392324
_cell_formula_units_Z   1
loop_
 _symmetry_equiv_pos_site_id
 _symmetry_equiv_pos_as_xyz
  1  'x, y, z'
loop_
 _atom_site_type_symbol
 _atom_site_label
 _atom_site_symmetry_multiplicity
 _atom_site_fract_x
 _atom_site_fract_y
 _atom_site_fract_z
 _atom_site_occupancy
  Pr  Pr0  1  0.499870  0.500130  0.749812  1
  Pr  Pr1  1  0.500039  0.499961  0.250182  1
  Pr  Pr2  1  0.000819  0.501305  0.749084  1
  Pr  Pr3  1  0.000515  0.501142  0.250913  1
  Pr  Pr4  1  0.498695  0.999181  0.749084  1
  Pr  Pr5  1  0.498858  0.999485  0.250913  1
  Pr  Pr6  1  0.000542  0.999458  0.749141  1
  Pr  Pr7  1  0.000541  0.999459  0.250848  1
  Zn  Zn8  1  0.663852  0.336148  0.998965  1
  Zn  Zn9  1  0.332973  0.667027  0.001072  1
  Zn  Zn10  1  0.333400  0.666600  0.498926  1
  Zn  Zn11  1  0.666690  0.333310  0.501091  1
  Si  Si12  1  0.165772  0.834228  0.000025  1
  Si  Si13  1  0.331549  0.165051  0.999972  1
  Si  Si14  1  0.165811  0.834189  0.499970  1
  Si  Si15  1  0.665364  0.828133  0.000023  1
  Si  Si16  1  0.834174  0.165826  0.500017  1
  Si  Si17  1  0.834949  0.668451  0.999972  1
  Si  Si18  1  0.668416  0.834390  0.499972  1
  Si  Si19  1  0.171867  0.334636  0.000023  1
  Si  Si20  1  0.331489  0.165494  0.500021  1
  Si  Si21  1  0.165610  0.331584  0.499972  1
  Si  Si22  1  0.834506  0.668511  0.500021  1
  Ge  Ge23  1  0.833700  0.166300  0.999981  1
