# generated using pymatgen
data_Nd4Zr4Ir3Rh
_symmetry_space_group_name_H-M   'P 1'
_cell_length_a   4.69622400
_cell_length_b   7.30657975
_cell_length_c   8.31834743
_cell_angle_alpha   90.44411917
_cell_angle_beta   90.00000000
_cell_angle_gamma   90.00000000
_symmetry_Int_Tables_number   1
_chemical_formula_structural   Nd4Zr4Ir3Rh
_chemical_formula_sum   'Nd4 Zr4 Ir3 Rh1'
_cell_volume   285.42166865
_cell_formula_units_Z   1
loop_
 _symmetry_equiv_pos_site_id
 _symmetry_equiv_pos_as_xyz
  1  'x, y, z'
loop_
 _atom_site_type_symbol
 _atom_site_label
 _atom_site_symmetry_multiplicity
 _atom_site_fract_x
 _atom_site_fract_y
 _atom_site_fract_z
 _atom_site_occupancy
  Nd  Nd0  1  0.250000  0.520271  0.177375  1
  Nd  Nd1  1  0.750000  0.481707  0.822295  1
  Nd  Nd2  1  0.750000  0.978921  0.678472  1
  Nd  Nd3  1  0.250000  0.019430  0.324421  1
  Zr  Zr4  1  0.250000  0.638840  0.576751  1
  Zr  Zr5  1  0.750000  0.360018  0.420182  1
  Zr  Zr6  1  0.750000  0.861674  0.078000  1
  Zr  Zr7  1  0.250000  0.139246  0.924751  1
  Ir  Ir8  1  0.250000  0.778485  0.913531  1
  Ir  Ir9  1  0.750000  0.222470  0.086293  1
  Ir  Ir10  1  0.750000  0.719899  0.414342  1
  Rh  Rh11  1  0.250000  0.279039  0.583585  1
