# generated using pymatgen
data_Sm8Ge(Pd11Pt)2
_symmetry_space_group_name_H-M   'P 1'
_cell_length_a   8.44874300
_cell_length_b   8.44021100
_cell_length_c   8.44021100
_cell_angle_alpha   90.00000000
_cell_angle_beta   90.00000000
_cell_angle_gamma   90.00000000
_symmetry_Int_Tables_number   1
_chemical_formula_structural   Sm8Ge(Pd11Pt)2
_chemical_formula_sum   'Sm8 Ge1 Pd22 Pt2'
_cell_volume   601.86447146
_cell_formula_units_Z   1
loop_
 _symmetry_equiv_pos_site_id
 _symmetry_equiv_pos_as_xyz
  1  'x, y, z'
loop_
 _atom_site_type_symbol
 _atom_site_label
 _atom_site_symmetry_multiplicity
 _atom_site_fract_x
 _atom_site_fract_y
 _atom_site_fract_z
 _atom_site_occupancy
  Sm  Sm0  1  0.253133  0.253434  0.253434  1
  Sm  Sm1  1  0.746867  0.746566  0.746566  1
  Sm  Sm2  1  0.746867  0.746566  0.253434  1
  Sm  Sm3  1  0.746867  0.253434  0.746566  1
  Sm  Sm4  1  0.253133  0.253434  0.746566  1
  Sm  Sm5  1  0.253133  0.746566  0.253434  1
  Sm  Sm6  1  0.253133  0.746566  0.746566  1
  Sm  Sm7  1  0.746867  0.253434  0.253434  1
  Ge  Ge8  1  0.000000  0.000000  0.000000  1
  Pd  Pd9  1  0.259866  0.500000  0.000000  1
  Pd  Pd10  1  0.740134  0.500000  0.000000  1
  Pd  Pd11  1  0.000000  0.259918  0.500000  1
  Pd  Pd12  1  0.500000  0.259793  0.000000  1
  Pd  Pd13  1  0.000000  0.740082  0.500000  1
  Pd  Pd14  1  0.500000  0.740207  0.000000  1
  Pd  Pd15  1  0.500000  0.000000  0.259793  1
  Pd  Pd16  1  0.259866  0.000000  0.500000  1
  Pd  Pd17  1  0.500000  0.000000  0.740207  1
  Pd  Pd18  1  0.740134  0.000000  0.500000  1
  Pd  Pd19  1  0.000000  0.500000  0.259918  1
  Pd  Pd20  1  0.000000  0.500000  0.740082  1
  Pd  Pd21  1  0.500000  0.253363  0.500000  1
  Pd  Pd22  1  0.500000  0.746637  0.500000  1
  Pd  Pd23  1  0.500000  0.500000  0.253363  1
  Pd  Pd24  1  0.500000  0.500000  0.746637  1
  Pd  Pd25  1  0.290135  0.000000  0.000000  1
  Pd  Pd26  1  0.709865  0.000000  0.000000  1
  Pd  Pd27  1  0.000000  0.289979  0.000000  1
  Pd  Pd28  1  0.000000  0.710021  0.000000  1
  Pd  Pd29  1  0.000000  0.000000  0.289979  1
  Pd  Pd30  1  0.000000  0.000000  0.710021  1
  Pt  Pt31  1  0.253091  0.500000  0.500000  1
  Pt  Pt32  1  0.746909  0.500000  0.500000  1
