# generated using pymatgen
data_LuTiGa4Mo
_symmetry_space_group_name_H-M   'P 1'
_cell_length_a   5.42851117
_cell_length_b   5.42851101
_cell_length_c   5.42851142
_cell_angle_alpha   104.26462658
_cell_angle_beta   104.26463173
_cell_angle_gamma   120.47740017
_symmetry_Int_Tables_number   1
_chemical_formula_structural   LuTiGa4Mo
_chemical_formula_sum   'Lu1 Ti1 Ga4 Mo1'
_cell_volume   119.68333824
_cell_formula_units_Z   1
loop_
 _symmetry_equiv_pos_site_id
 _symmetry_equiv_pos_as_xyz
  1  'x, y, z'
loop_
 _atom_site_type_symbol
 _atom_site_label
 _atom_site_symmetry_multiplicity
 _atom_site_fract_x
 _atom_site_fract_y
 _atom_site_fract_z
 _atom_site_occupancy
  Lu  Lu0  1  0.000000  0.000000  0.000000  1
  Ti  Ti1  1  0.750000  0.250000  0.500000  1
  Ga  Ga2  1  0.303382  0.303382  0.606765  1
  Ga  Ga3  1  0.696618  0.696618  0.393235  1
  Ga  Ga4  1  0.696618  0.303382  0.000000  1
  Ga  Ga5  1  0.303382  0.696618  0.000000  1
  Mo  Mo6  1  0.250000  0.750000  0.500000  1
