# generated using pymatgen
data_Y2Fe(BIr)4
_symmetry_space_group_name_H-M   'P 1'
_cell_length_a   7.43333878
_cell_length_b   6.25377863
_cell_length_c   5.55719823
_cell_angle_alpha   77.75855824
_cell_angle_beta   55.30419450
_cell_angle_gamma   46.93722916
_symmetry_Int_Tables_number   1
_chemical_formula_structural   Y2Fe(BIr)4
_chemical_formula_sum   'Y2 Fe1 B4 Ir4'
_cell_volume   148.31968353
_cell_formula_units_Z   1
loop_
 _symmetry_equiv_pos_site_id
 _symmetry_equiv_pos_as_xyz
  1  'x, y, z'
loop_
 _atom_site_type_symbol
 _atom_site_label
 _atom_site_symmetry_multiplicity
 _atom_site_fract_x
 _atom_site_fract_y
 _atom_site_fract_z
 _atom_site_occupancy
  Y  Y0  1  0.857401  0.857401  0.142600  1
  Y  Y1  1  0.142599  0.142599  0.857402  1
  Fe  Fe2  1  0.749999  0.750000  0.750001  1
  B  B3  1  0.495830  0.778532  0.188252  1
  B  B4  1  0.188252  0.537386  0.495830  1
  B  B5  1  0.778533  0.495829  0.537387  1
  B  B6  1  0.537387  0.188251  0.778533  1
  Ir  Ir7  1  0.502318  0.502318  0.997682  1
  Ir  Ir8  1  0.249999  0.250000  0.250000  1
  Ir  Ir9  1  0.997682  0.997682  0.502318  1
  Ir  Ir10  1  0.500000  0.500000  0.500001  1
