# generated using pymatgen
data_Eu4Dy2TaNbO12
_symmetry_space_group_name_H-M   'P 1'
_cell_length_a   5.77351873
_cell_length_b   5.97015277
_cell_length_c   10.08661165
_cell_angle_alpha   90.09816204
_cell_angle_beta   124.73615663
_cell_angle_gamma   90.06046697
_symmetry_Int_Tables_number   1
_chemical_formula_structural   Eu4Dy2TaNbO12
_chemical_formula_sum   'Eu4 Dy2 Ta1 Nb1 O12'
_cell_volume   285.71127191
_cell_formula_units_Z   1
loop_
 _symmetry_equiv_pos_site_id
 _symmetry_equiv_pos_as_xyz
  1  'x, y, z'
loop_
 _atom_site_type_symbol
 _atom_site_label
 _atom_site_symmetry_multiplicity
 _atom_site_fract_x
 _atom_site_fract_y
 _atom_site_fract_z
 _atom_site_occupancy
  Eu  Eu0  1  0.234012  0.447586  0.748822  1
  Eu  Eu1  1  0.239876  0.048782  0.254254  1
  Eu  Eu2  1  0.765988  0.552414  0.251178  1
  Eu  Eu3  1  0.760124  0.951218  0.745746  1
  Dy  Dy4  1  0.500000  0.500000  0.500000  1
  Dy  Dy5  1  0.500000  0.000000  0.000000  1
  Ta  Ta6  1  0.000000  0.500000  0.000000  1
  Nb  Nb7  1  0.000000  0.000000  0.500000  1
  O  O8  1  0.338049  0.036128  0.737260  1
  O  O9  1  0.331859  0.465552  0.233208  1
  O  O10  1  0.661951  0.963872  0.262740  1
  O  O11  1  0.668141  0.534448  0.766792  1
  O  O12  1  0.764282  0.193532  0.549761  1
  O  O13  1  0.768579  0.308697  0.048871  1
  O  O14  1  0.235718  0.806468  0.450239  1
  O  O15  1  0.231421  0.691303  0.951129  1
  O  O16  1  0.131284  0.222075  0.943341  1
  O  O17  1  0.132020  0.282419  0.442792  1
  O  O18  1  0.868716  0.777925  0.056659  1
  O  O19  1  0.867980  0.717581  0.557208  1
