# generated using pymatgen
data_Tb4Tc5Ru3
_symmetry_space_group_name_H-M   'P 1'
_cell_length_a   5.30403165
_cell_length_b   5.30403077
_cell_length_c   9.26048800
_cell_angle_alpha   90.00000000
_cell_angle_beta   90.00000000
_cell_angle_gamma   121.99770238
_symmetry_Int_Tables_number   1
_chemical_formula_structural   Tb4Tc5Ru3
_chemical_formula_sum   'Tb4 Tc5 Ru3'
_cell_volume   220.94154203
_cell_formula_units_Z   1
loop_
 _symmetry_equiv_pos_site_id
 _symmetry_equiv_pos_as_xyz
  1  'x, y, z'
loop_
 _atom_site_type_symbol
 _atom_site_label
 _atom_site_symmetry_multiplicity
 _atom_site_fract_x
 _atom_site_fract_y
 _atom_site_fract_z
 _atom_site_occupancy
  Tb  Tb0  1  0.335516  0.664484  0.435010  1
  Tb  Tb1  1  0.665177  0.334823  0.563648  1
  Tb  Tb2  1  0.665177  0.334823  0.936352  1
  Tb  Tb3  1  0.335516  0.664484  0.064990  1
  Tc  Tc4  1  0.170699  0.341834  0.750000  1
  Tc  Tc5  1  0.170258  0.829742  0.750000  1
  Tc  Tc6  1  0.336888  0.172613  0.250000  1
  Tc  Tc7  1  0.827387  0.663112  0.250000  1
  Tc  Tc8  1  0.658166  0.829301  0.750000  1
  Ru  Ru9  1  0.004873  0.995127  0.001188  1
  Ru  Ru10  1  0.825468  0.174532  0.250000  1
  Ru  Ru11  1  0.004873  0.995127  0.498812  1
