# generated using pymatgen
data_PrHo3Zr4F28
_symmetry_space_group_name_H-M   'P 1'
_cell_length_a   5.77056492
_cell_length_b   9.13470435
_cell_length_c   12.27581800
_cell_angle_alpha   62.38412566
_cell_angle_beta   89.95320475
_cell_angle_gamma   90.00150976
_symmetry_Int_Tables_number   1
_chemical_formula_structural   PrHo3Zr4F28
_chemical_formula_sum   'Pr1 Ho3 Zr4 F28'
_cell_volume   573.36826550
_cell_formula_units_Z   1
loop_
 _symmetry_equiv_pos_site_id
 _symmetry_equiv_pos_as_xyz
  1  'x, y, z'
loop_
 _atom_site_type_symbol
 _atom_site_label
 _atom_site_symmetry_multiplicity
 _atom_site_fract_x
 _atom_site_fract_y
 _atom_site_fract_z
 _atom_site_occupancy
  Pr  Pr0  1  0.756812  0.816794  0.766756  1
  Ho  Ho1  1  0.743960  0.817913  0.266298  1
  Ho  Ho2  1  0.243696  0.184729  0.233777  1
  Ho  Ho3  1  0.257285  0.190012  0.733007  1
  Zr  Zr4  1  0.743532  0.278596  0.452160  1
  Zr  Zr5  1  0.244813  0.725398  0.050536  1
  Zr  Zr6  1  0.254812  0.725647  0.539484  1
  Zr  Zr7  1  0.755260  0.268946  0.957524  1
  F  F8  1  0.460188  0.707891  0.926388  1
  F  F9  1  0.966791  0.289100  0.576892  1
  F  F10  1  0.530845  0.286495  0.079025  1
  F  F11  1  0.029895  0.710462  0.417844  1
  F  F12  1  0.454810  0.281589  0.549281  1
  F  F13  1  0.955459  0.714935  0.958865  1
  F  F14  1  0.548474  0.719504  0.447167  1
  F  F15  1  0.044632  0.277606  0.052436  1
  F  F16  1  0.770314  0.518057  0.860531  1
  F  F17  1  0.267763  0.474213  0.639422  1
  F  F18  1  0.235177  0.473296  0.144313  1
  F  F19  1  0.732840  0.528688  0.355997  1
  F  F20  1  0.759163  0.019040  0.060159  1
  F  F21  1  0.258716  0.976219  0.439450  1
  F  F22  1  0.240382  0.974693  0.943087  1
  F  F23  1  0.739525  0.028336  0.552367  1
  F  F24  1  0.985180  0.730610  0.643749  1
  F  F25  1  0.485205  0.265940  0.851085  1
  F  F26  1  0.011121  0.265170  0.347714  1
  F  F27  1  0.514425  0.735464  0.154086  1
  F  F28  1  0.031314  0.747416  0.175972  1
  F  F29  1  0.529177  0.254341  0.327003  1
  F  F30  1  0.968096  0.250423  0.829314  1
  F  F31  1  0.457121  0.742608  0.669587  1
  F  F32  1  0.434361  0.976567  0.236112  1
  F  F33  1  0.935327  0.024909  0.264061  1
  F  F34  1  0.566922  0.038683  0.765561  1
  F  F35  1  0.086611  0.979705  0.732987  1
