# generated using pymatgen
data_Pr4HoEr3(ReB6)4
_symmetry_space_group_name_H-M   'P 1'
_cell_length_a   3.73031500
_cell_length_b   9.24797300
_cell_length_c   11.72746300
_cell_angle_alpha   90.00314682
_cell_angle_beta   90.00000000
_cell_angle_gamma   90.00000000
_symmetry_Int_Tables_number   1
_chemical_formula_structural   Pr4HoEr3(ReB6)4
_chemical_formula_sum   'Pr4 Ho1 Er3 Re4 B24'
_cell_volume   404.57228731
_cell_formula_units_Z   1
loop_
 _symmetry_equiv_pos_site_id
 _symmetry_equiv_pos_as_xyz
  1  'x, y, z'
loop_
 _atom_site_type_symbol
 _atom_site_label
 _atom_site_symmetry_multiplicity
 _atom_site_fract_x
 _atom_site_fract_y
 _atom_site_fract_z
 _atom_site_occupancy
  Pr  Pr0  1  0.000000  0.322641  0.414369  1
  Pr  Pr1  1  0.000000  0.677352  0.585657  1
  Pr  Pr2  1  0.000000  0.822580  0.085584  1
  Pr  Pr3  1  0.000000  0.177406  0.914356  1
  Ho  Ho4  1  0.000000  0.943006  0.369268  1
  Er  Er5  1  0.000000  0.057069  0.630952  1
  Er  Er6  1  0.000000  0.442976  0.130807  1
  Er  Er7  1  0.000000  0.557023  0.869174  1
  Re  Re8  1  0.000000  0.639534  0.318805  1
  Re  Re9  1  0.000000  0.360239  0.681189  1
  Re  Re10  1  0.000000  0.139949  0.180994  1
  Re  Re11  1  0.000000  0.860217  0.818863  1
  B  B12  1  0.500000  0.555640  0.429785  1
  B  B13  1  0.500000  0.444303  0.570239  1
  B  B14  1  0.500000  0.055693  0.070190  1
  B  B15  1  0.500000  0.944310  0.929763  1
  B  B16  1  0.500000  0.750277  0.415326  1
  B  B17  1  0.500000  0.249435  0.584652  1
  B  B18  1  0.500000  0.250585  0.084633  1
  B  B19  1  0.500000  0.749439  0.915346  1
  B  B20  1  0.500000  0.791427  0.266199  1
  B  B21  1  0.500000  0.208345  0.733749  1
  B  B22  1  0.500000  0.291728  0.233737  1
  B  B23  1  0.500000  0.708332  0.766254  1
  B  B24  1  0.500000  0.629302  0.186454  1
  B  B25  1  0.500000  0.370661  0.813504  1
  B  B26  1  0.500000  0.129544  0.313358  1
  B  B27  1  0.500000  0.870660  0.686495  1
  B  B28  1  0.500000  0.984388  0.213410  1
  B  B29  1  0.500000  0.015749  0.786437  1
  B  B30  1  0.500000  0.484206  0.286425  1
  B  B31  1  0.500000  0.515762  0.713565  1
  B  B32  1  0.500000  0.595140  0.026194  1
  B  B33  1  0.500000  0.404860  0.973802  1
  B  B34  1  0.500000  0.095369  0.474013  1
  B  B35  1  0.500000  0.904852  0.526456  1
