# generated using pymatgen
data_Gd5Ho(MoO6)2
_symmetry_space_group_name_H-M   'P 1'
_cell_length_a   6.71088529
_cell_length_b   6.70252104
_cell_length_c   6.70982952
_cell_angle_alpha   92.12863667
_cell_angle_beta   92.13402081
_cell_angle_gamma   92.18082783
_symmetry_Int_Tables_number   1
_chemical_formula_structural   Gd5Ho(MoO6)2
_chemical_formula_sum   'Gd5 Ho1 Mo2 O12'
_cell_volume   301.15458433
_cell_formula_units_Z   1
loop_
 _symmetry_equiv_pos_site_id
 _symmetry_equiv_pos_as_xyz
  1  'x, y, z'
loop_
 _atom_site_type_symbol
 _atom_site_label
 _atom_site_symmetry_multiplicity
 _atom_site_fract_x
 _atom_site_fract_y
 _atom_site_fract_z
 _atom_site_occupancy
  Gd  Gd0  1  0.746964  0.932869  0.438886  1
  Gd  Gd1  1  0.930783  0.439811  0.747430  1
  Gd  Gd2  1  0.441050  0.746674  0.932536  1
  Gd  Gd3  1  0.254084  0.068572  0.560689  1
  Gd  Gd4  1  0.068199  0.558881  0.253296  1
  Ho  Ho5  1  0.560052  0.253060  0.068518  1
  Mo  Mo6  1  0.500427  0.498687  0.499574  1
  Mo  Mo7  1  0.000302  0.001568  0.000681  1
  O  O8  1  0.593458  0.460970  0.809470  1
  O  O9  1  0.465760  0.807853  0.595003  1
  O  O10  1  0.808418  0.595090  0.465518  1
  O  O11  1  0.407069  0.529896  0.190169  1
  O  O12  1  0.534502  0.191804  0.399714  1
  O  O13  1  0.191681  0.405057  0.534630  1
  O  O14  1  0.068417  0.911192  0.307537  1
  O  O15  1  0.905688  0.307816  0.069601  1
  O  O16  1  0.691859  0.935875  0.087828  1
  O  O17  1  0.089066  0.693538  0.931935  1
  O  O18  1  0.932285  0.088528  0.692564  1
  O  O19  1  0.309936  0.072257  0.914420  1
