# generated using pymatgen
data_Sc12AlNi4Rh
_symmetry_space_group_name_H-M   'P 1'
_cell_length_a   7.74521907
_cell_length_b   7.74521875
_cell_length_c   7.74521843
_cell_angle_alpha   110.90616779
_cell_angle_beta   110.79637813
_cell_angle_gamma   106.74504778
_symmetry_Int_Tables_number   1
_chemical_formula_structural   Sc12AlNi4Rh
_chemical_formula_sum   'Sc12 Al1 Ni4 Rh1'
_cell_volume   357.06327192
_cell_formula_units_Z   1
loop_
 _symmetry_equiv_pos_site_id
 _symmetry_equiv_pos_as_xyz
  1  'x, y, z'
loop_
 _atom_site_type_symbol
 _atom_site_label
 _atom_site_symmetry_multiplicity
 _atom_site_fract_x
 _atom_site_fract_y
 _atom_site_fract_z
 _atom_site_occupancy
  Sc  Sc0  1  0.421401  0.227526  0.193874  1
  Sc  Sc1  1  0.578599  0.772474  0.806126  1
  Sc  Sc2  1  0.033651  0.227526  0.806126  1
  Sc  Sc3  1  0.966349  0.772474  0.193874  1
  Sc  Sc4  1  0.323449  0.621571  0.298121  1
  Sc  Sc5  1  0.676551  0.378429  0.701879  1
  Sc  Sc6  1  0.323449  0.025327  0.701879  1
  Sc  Sc7  1  0.676551  0.974673  0.298121  1
  Sc  Sc8  1  0.184593  0.284893  0.469487  1
  Sc  Sc9  1  0.815407  0.715106  0.530513  1
  Sc  Sc10  1  0.184593  0.715106  0.899699  1
  Sc  Sc11  1  0.815407  0.284893  0.100301  1
  Al  Al12  1  0.500000  0.500000  0.000000  1
  Ni  Ni13  1  0.353599  0.000000  0.353599  1
  Ni  Ni14  1  0.646401  0.000000  0.646401  1
  Ni  Ni15  1  0.128049  0.628049  0.500000  1
  Ni  Ni16  1  0.871951  0.371951  0.500000  1
  Rh  Rh17  1  0.000000  0.000000  0.000000  1
