# generated using pymatgen
data_Hf4Fe2Cu2Si3P
_symmetry_space_group_name_H-M   'P 1'
_cell_length_a   3.82020000
_cell_length_b   6.41005787
_cell_length_c   7.26501929
_cell_angle_alpha   89.26868670
_cell_angle_beta   90.00000000
_cell_angle_gamma   90.00000000
_symmetry_Int_Tables_number   1
_chemical_formula_structural   Hf4Fe2Cu2Si3P
_chemical_formula_sum   'Hf4 Fe2 Cu2 Si3 P1'
_cell_volume   177.88914386
_cell_formula_units_Z   1
loop_
 _symmetry_equiv_pos_site_id
 _symmetry_equiv_pos_as_xyz
  1  'x, y, z'
loop_
 _atom_site_type_symbol
 _atom_site_label
 _atom_site_symmetry_multiplicity
 _atom_site_fract_x
 _atom_site_fract_y
 _atom_site_fract_z
 _atom_site_occupancy
  Hf  Hf0  1  0.250000  0.017189  0.323918  1
  Hf  Hf1  1  0.250000  0.514112  0.194160  1
  Hf  Hf2  1  0.750000  0.988089  0.678419  1
  Hf  Hf3  1  0.750000  0.486533  0.801523  1
  Fe  Fe4  1  0.250000  0.638437  0.564718  1
  Fe  Fe5  1  0.750000  0.354066  0.439236  1
  Cu  Cu6  1  0.250000  0.154093  0.934246  1
  Cu  Cu7  1  0.750000  0.845614  0.067398  1
  Si  Si8  1  0.250000  0.769840  0.876987  1
  Si  Si9  1  0.750000  0.719347  0.400311  1
  Si  Si10  1  0.750000  0.231325  0.122333  1
  P  P11  1  0.250000  0.281353  0.596752  1
