# generated using pymatgen
data_Ca2Pd5Au2
_symmetry_space_group_name_H-M   'P 1'
_cell_length_a   5.27517800
_cell_length_b   5.27517819
_cell_length_c   13.50258100
_cell_angle_alpha   90.00000000
_cell_angle_beta   90.00000000
_cell_angle_gamma   119.38473195
_symmetry_Int_Tables_number   1
_chemical_formula_structural   Ca2Pd5Au2
_chemical_formula_sum   'Ca4 Pd10 Au4'
_cell_volume   327.40174161
_cell_formula_units_Z   2
loop_
 _symmetry_equiv_pos_site_id
 _symmetry_equiv_pos_as_xyz
  1  'x, y, z'
loop_
 _atom_site_type_symbol
 _atom_site_label
 _atom_site_symmetry_multiplicity
 _atom_site_fract_x
 _atom_site_fract_y
 _atom_site_fract_z
 _atom_site_occupancy
  Ca  Ca0  1  0.317710  0.321624  0.118362  1
  Ca  Ca1  1  0.682290  0.678376  0.618362  1
  Ca  Ca2  1  0.321624  0.317710  0.381638  1
  Ca  Ca3  1  0.678376  0.682290  0.881638  1
  Pd  Pd4  1  0.827861  0.827861  0.250000  1
  Pd  Pd5  1  0.172139  0.172139  0.750000  1
  Pd  Pd6  1  0.821682  0.325559  0.250832  1
  Pd  Pd7  1  0.178318  0.674441  0.750832  1
  Pd  Pd8  1  0.325559  0.821682  0.249168  1
  Pd  Pd9  1  0.674441  0.178318  0.749168  1
  Pd  Pd10  1  0.006609  0.337832  0.922121  1
  Pd  Pd11  1  0.993391  0.662168  0.422121  1
  Pd  Pd12  1  0.337832  0.006609  0.577879  1
  Pd  Pd13  1  0.662168  0.993391  0.077879  1
  Au  Au14  1  0.982110  0.654233  0.076391  1
  Au  Au15  1  0.017890  0.345767  0.576391  1
  Au  Au16  1  0.654233  0.982110  0.423609  1
  Au  Au17  1  0.345767  0.017890  0.923609  1
