# generated using pymatgen
data_Sr3Pr5(CrN3)4
_symmetry_space_group_name_H-M   'P 1'
_cell_length_a   6.14909875
_cell_length_b   6.14909940
_cell_length_c   12.17673406
_cell_angle_alpha   90.23472396
_cell_angle_beta   89.76527427
_cell_angle_gamma   126.47337327
_symmetry_Int_Tables_number   1
_chemical_formula_structural   Sr3Pr5(CrN3)4
_chemical_formula_sum   'Sr3 Pr5 Cr4 N12'
_cell_volume   370.23478869
_cell_formula_units_Z   1
loop_
 _symmetry_equiv_pos_site_id
 _symmetry_equiv_pos_as_xyz
  1  'x, y, z'
loop_
 _atom_site_type_symbol
 _atom_site_label
 _atom_site_symmetry_multiplicity
 _atom_site_fract_x
 _atom_site_fract_y
 _atom_site_fract_z
 _atom_site_occupancy
  Sr  Sr0  1  0.550740  0.449260  0.646384  1
  Sr  Sr1  1  0.446054  0.553946  0.355991  1
  Sr  Sr2  1  0.947909  0.052091  0.145269  1
  Pr  Pr3  1  0.061900  0.938100  0.863682  1
  Pr  Pr4  1  0.854829  0.145171  0.578407  1
  Pr  Pr5  1  0.142896  0.857104  0.421266  1
  Pr  Pr6  1  0.645035  0.354965  0.074310  1
  Pr  Pr7  1  0.360007  0.639993  0.926682  1
  Cr  Cr8  1  0.740745  0.259255  0.839257  1
  Cr  Cr9  1  0.263388  0.736612  0.160782  1
  Cr  Cr10  1  0.761608  0.238392  0.339349  1
  Cr  Cr11  1  0.234184  0.765816  0.659568  1
  N  N12  1  0.849202  0.150798  0.955392  1
  N  N13  1  0.160138  0.839862  0.038190  1
  N  N14  1  0.662011  0.337989  0.457724  1
  N  N15  1  0.335063  0.664937  0.540548  1
  N  N16  1  0.575656  0.424344  0.873700  1
  N  N17  1  0.424768  0.575232  0.127403  1
  N  N18  1  0.923391  0.076609  0.375281  1
  N  N19  1  0.071188  0.928812  0.626737  1
  N  N20  1  0.512985  0.983445  0.748087  1
  N  N21  1  0.979860  0.520108  0.248952  1
  N  N22  1  0.479892  0.020140  0.248952  1
  N  N23  1  0.016555  0.487015  0.748087  1
