# generated using pymatgen
data_Tm20CuIr7Os4
_symmetry_space_group_name_H-M   'P 1'
_cell_length_a   10.69960016
_cell_length_b   10.69960016
_cell_length_c   6.35677835
_cell_angle_alpha   90.02677148
_cell_angle_beta   90.02677148
_cell_angle_gamma   89.77912667
_symmetry_Int_Tables_number   1
_chemical_formula_structural   Tm20CuIr7Os4
_chemical_formula_sum   'Tm20 Cu1 Ir7 Os4'
_cell_volume   727.72759690
_cell_formula_units_Z   1
loop_
 _symmetry_equiv_pos_site_id
 _symmetry_equiv_pos_as_xyz
  1  'x, y, z'
loop_
 _atom_site_type_symbol
 _atom_site_label
 _atom_site_symmetry_multiplicity
 _atom_site_fract_x
 _atom_site_fract_y
 _atom_site_fract_z
 _atom_site_occupancy
  Tm  Tm0  1  0.292737  0.085472  0.376380  1
  Tm  Tm1  1  0.293956  0.914397  0.875744  1
  Tm  Tm2  1  0.703854  0.084001  0.869706  1
  Tm  Tm3  1  0.704681  0.908899  0.378867  1
  Tm  Tm4  1  0.585945  0.793389  0.876814  1
  Tm  Tm5  1  0.580916  0.207009  0.376673  1
  Tm  Tm6  1  0.413375  0.793251  0.376870  1
  Tm  Tm7  1  0.413839  0.206434  0.876758  1
  Tm  Tm8  1  0.206611  0.414055  0.623186  1
  Tm  Tm9  1  0.206749  0.586625  0.123130  1
  Tm  Tm10  1  0.792991  0.419084  0.123327  1
  Tm  Tm11  1  0.793566  0.586161  0.623242  1
  Tm  Tm12  1  0.914528  0.707263  0.123620  1
  Tm  Tm13  1  0.915999  0.296146  0.630294  1
  Tm  Tm14  1  0.085603  0.706044  0.624256  1
  Tm  Tm15  1  0.091101  0.295319  0.121133  1
  Tm  Tm16  1  0.001097  0.997877  0.501107  1
  Tm  Tm17  1  0.002123  0.998903  0.998893  1
  Tm  Tm18  1  0.499778  0.500145  0.999392  1
  Tm  Tm19  1  0.499855  0.500222  0.500608  1
  Cu  Cu20  1  0.846669  0.153331  0.250000  1
  Ir  Ir21  1  0.848666  0.849822  0.750665  1
  Ir  Ir22  1  0.150178  0.151334  0.749335  1
  Ir  Ir23  1  0.152081  0.847919  0.250000  1
  Ir  Ir24  1  0.653928  0.346072  0.750000  1
  Ir  Ir25  1  0.651950  0.652094  0.250438  1
  Ir  Ir26  1  0.347906  0.348050  0.249562  1
  Ir  Ir27  1  0.347582  0.652418  0.750000  1
  Os  Os28  1  0.501269  0.000179  0.125834  1
  Os  Os29  1  0.500735  0.000087  0.623518  1
  Os  Os30  1  0.999913  0.499265  0.876482  1
  Os  Os31  1  0.999821  0.498731  0.374166  1
