# generated using pymatgen
data_Tb3Al3Ga2Au
_symmetry_space_group_name_H-M   'P 1'
_cell_length_a   7.04716500
_cell_length_b   7.04716396
_cell_length_c   4.34012200
_cell_angle_alpha   90.00000000
_cell_angle_beta   90.00000000
_cell_angle_gamma   120.00000020
_symmetry_Int_Tables_number   1
_chemical_formula_structural   Tb3Al3Ga2Au
_chemical_formula_sum   'Tb3 Al3 Ga2 Au1'
_cell_volume   186.66435085
_cell_formula_units_Z   1
loop_
 _symmetry_equiv_pos_site_id
 _symmetry_equiv_pos_as_xyz
  1  'x, y, z'
loop_
 _atom_site_type_symbol
 _atom_site_label
 _atom_site_symmetry_multiplicity
 _atom_site_fract_x
 _atom_site_fract_y
 _atom_site_fract_z
 _atom_site_occupancy
  Tb  Tb0  1  0.000000  0.579644  0.500000  1
  Tb  Tb1  1  0.420356  0.420356  0.500000  1
  Tb  Tb2  1  0.579644  0.000000  0.500000  1
  Al  Al3  1  0.758810  0.758810  0.000000  1
  Al  Al4  1  0.241190  0.000000  0.000000  1
  Al  Al5  1  0.000000  0.241190  0.000000  1
  Ga  Ga6  1  0.333333  0.666667  0.000000  1
  Ga  Ga7  1  0.666667  0.333333  0.000000  1
  Au  Au8  1  0.000000  0.000000  0.500000  1
