# generated using pymatgen
data_Y8Sc12Si7Ge9
_symmetry_space_group_name_H-M   'P 1'
_cell_length_a   7.18758085
_cell_length_b   7.43167508
_cell_length_c   14.07333900
_cell_angle_alpha   90.00000000
_cell_angle_beta   90.00000000
_cell_angle_gamma   90.19349312
_symmetry_Int_Tables_number   1
_chemical_formula_structural   Y8Sc12Si7Ge9
_chemical_formula_sum   'Y8 Sc12 Si7 Ge9'
_cell_volume   751.73388823
_cell_formula_units_Z   1
loop_
 _symmetry_equiv_pos_site_id
 _symmetry_equiv_pos_as_xyz
  1  'x, y, z'
loop_
 _atom_site_type_symbol
 _atom_site_label
 _atom_site_symmetry_multiplicity
 _atom_site_fract_x
 _atom_site_fract_y
 _atom_site_fract_z
 _atom_site_occupancy
  Y  Y0  1  0.003687  0.177304  0.098559  1
  Y  Y1  1  0.997105  0.821027  0.901875  1
  Y  Y2  1  0.497023  0.676569  0.901981  1
  Y  Y3  1  0.997105  0.821027  0.598125  1
  Y  Y4  1  0.503091  0.322910  0.098705  1
  Y  Y5  1  0.003687  0.177304  0.401441  1
  Y  Y6  1  0.503091  0.322910  0.401295  1
  Y  Y7  1  0.497023  0.676569  0.598019  1
  Sc  Sc8  1  0.171930  0.502497  0.750000  1
  Sc  Sc9  1  0.828580  0.499639  0.250000  1
  Sc  Sc10  1  0.328814  0.000310  0.250000  1
  Sc  Sc11  1  0.668774  0.998661  0.750000  1
  Sc  Sc12  1  0.342783  0.172587  0.626582  1
  Sc  Sc13  1  0.658888  0.827468  0.373068  1
  Sc  Sc14  1  0.159123  0.672177  0.373456  1
  Sc  Sc15  1  0.658888  0.827468  0.126932  1
  Sc  Sc16  1  0.838079  0.330357  0.624891  1
  Sc  Sc17  1  0.342783  0.172587  0.873418  1
  Sc  Sc18  1  0.838079  0.330357  0.875109  1
  Sc  Sc19  1  0.159123  0.672177  0.126544  1
  Si  Si20  1  0.957672  0.882739  0.250000  1
  Si  Si21  1  0.456661  0.617470  0.250000  1
  Si  Si22  1  0.543331  0.382057  0.750000  1
  Si  Si23  1  0.298172  0.868378  0.750000  1
  Si  Si24  1  0.705320  0.128054  0.250000  1
  Si  Si25  1  0.205017  0.372199  0.250000  1
  Si  Si26  1  0.795266  0.628026  0.750000  1
  Ge  Ge27  1  0.038978  0.120917  0.750000  1
  Ge  Ge28  1  0.175261  0.459113  0.540749  1
  Ge  Ge29  1  0.824973  0.540429  0.458329  1
  Ge  Ge30  1  0.325953  0.959989  0.459373  1
  Ge  Ge31  1  0.824973  0.540429  0.041671  1
  Ge  Ge32  1  0.674776  0.039596  0.540305  1
  Ge  Ge33  1  0.175261  0.459113  0.959251  1
  Ge  Ge34  1  0.674776  0.039596  0.959695  1
  Ge  Ge35  1  0.325953  0.959989  0.040627  1
