# generated using pymatgen
data_Y2Tm5Lu(WO6)4
_symmetry_space_group_name_H-M   'P 1'
_cell_length_a   5.35113609
_cell_length_b   7.64568394
_cell_length_c   11.38083886
_cell_angle_alpha   75.30508244
_cell_angle_beta   90.00665898
_cell_angle_gamma   90.02047828
_symmetry_Int_Tables_number   1
_chemical_formula_structural   Y2Tm5Lu(WO6)4
_chemical_formula_sum   'Y2 Tm5 Lu1 W4 O24'
_cell_volume   450.39483073
_cell_formula_units_Z   1
loop_
 _symmetry_equiv_pos_site_id
 _symmetry_equiv_pos_as_xyz
  1  'x, y, z'
loop_
 _atom_site_type_symbol
 _atom_site_label
 _atom_site_symmetry_multiplicity
 _atom_site_fract_x
 _atom_site_fract_y
 _atom_site_fract_z
 _atom_site_occupancy
  Y  Y0  1  0.315587  0.500362  0.749699  1
  Y  Y1  1  0.684549  0.500108  0.250050  1
  Tm  Tm2  1  0.184914  0.795912  0.078232  1
  Tm  Tm3  1  0.259027  0.999749  0.749627  1
  Tm  Tm4  1  0.741023  0.999808  0.250294  1
  Tm  Tm5  1  0.184746  0.203731  0.421969  1
  Tm  Tm6  1  0.815015  0.204050  0.921868  1
  Lu  Lu7  1  0.814997  0.795544  0.578560  1
  W  W8  1  0.745121  0.725106  0.884965  1
  W  W9  1  0.255307  0.725245  0.385641  1
  W  W10  1  0.744918  0.275142  0.614734  1
  W  W11  1  0.255136  0.274985  0.114766  1
  O  O12  1  0.852883  0.363466  0.451032  1
  O  O13  1  0.463171  0.847785  0.930301  1
  O  O14  1  0.852763  0.636490  0.048890  1
  O  O15  1  0.019509  0.285591  0.729828  1
  O  O16  1  0.980610  0.285908  0.230085  1
  O  O17  1  0.147244  0.363656  0.950917  1
  O  O18  1  0.642269  0.488811  0.886491  1
  O  O19  1  0.536806  0.152008  0.069311  1
  O  O20  1  0.145118  0.637367  0.549186  1
  O  O21  1  0.018965  0.714280  0.769264  1
  O  O22  1  0.458504  0.206020  0.274221  1
  O  O23  1  0.041199  0.941610  0.395907  1
  O  O24  1  0.462753  0.152490  0.569307  1
  O  O25  1  0.980970  0.714100  0.269991  1
  O  O26  1  0.957015  0.056677  0.604344  1
  O  O27  1  0.541359  0.206316  0.774079  1
  O  O28  1  0.542878  0.794246  0.724900  1
  O  O29  1  0.041344  0.058080  0.104487  1
  O  O30  1  0.643574  0.512018  0.613392  1
  O  O31  1  0.357669  0.511307  0.113495  1
  O  O32  1  0.458606  0.794127  0.226106  1
  O  O33  1  0.357329  0.489014  0.386773  1
  O  O34  1  0.538322  0.847051  0.431788  1
  O  O35  1  0.958800  0.941838  0.895502  1
