# generated using pymatgen
data_Tb3Ho2Er3In3Co
_symmetry_space_group_name_H-M   'P 1'
_cell_length_a   10.34923300
_cell_length_b   10.34923352
_cell_length_c   7.00050700
_cell_angle_alpha   90.00000000
_cell_angle_beta   90.00000000
_cell_angle_gamma   120.00000153
_symmetry_Int_Tables_number   1
_chemical_formula_structural   Tb3Ho2Er3In3Co
_chemical_formula_sum   'Tb6 Ho4 Er6 In6 Co2'
_cell_volume   649.34644965
_cell_formula_units_Z   2
loop_
 _symmetry_equiv_pos_site_id
 _symmetry_equiv_pos_as_xyz
  1  'x, y, z'
loop_
 _atom_site_type_symbol
 _atom_site_label
 _atom_site_symmetry_multiplicity
 _atom_site_fract_x
 _atom_site_fract_y
 _atom_site_fract_z
 _atom_site_occupancy
  Tb  Tb0  1  0.534725  0.069451  0.504328  1
  Tb  Tb1  1  0.930549  0.465275  0.504328  1
  Tb  Tb2  1  0.534725  0.465275  0.504328  1
  Tb  Tb3  1  0.465275  0.930549  0.004328  1
  Tb  Tb4  1  0.069451  0.534725  0.004328  1
  Tb  Tb5  1  0.465275  0.534725  0.004328  1
  Ho  Ho6  1  0.666667  0.333333  0.896744  1
  Ho  Ho7  1  0.333333  0.666667  0.396744  1
  Ho  Ho8  1  0.000000  0.000000  0.494127  1
  Ho  Ho9  1  0.000000  0.000000  0.994127  1
  Er  Er10  1  0.178138  0.356276  0.712423  1
  Er  Er11  1  0.643724  0.821862  0.712423  1
  Er  Er12  1  0.178138  0.821862  0.712423  1
  Er  Er13  1  0.821862  0.643724  0.212423  1
  Er  Er14  1  0.356276  0.178138  0.212423  1
  Er  Er15  1  0.821862  0.178138  0.212423  1
  In  In16  1  0.837491  0.674983  0.752306  1
  In  In17  1  0.325017  0.162509  0.752306  1
  In  In18  1  0.837491  0.162509  0.752306  1
  In  In19  1  0.162509  0.325017  0.252306  1
  In  In20  1  0.674983  0.837491  0.252306  1
  In  In21  1  0.162509  0.837491  0.252306  1
  Co  Co22  1  0.666667  0.333333  0.280982  1
  Co  Co23  1  0.333333  0.666667  0.780982  1
