# generated using pymatgen
data_Ca3Ga(SiRh3)2
_symmetry_space_group_name_H-M   'P 1'
_cell_length_a   5.65367600
_cell_length_b   5.65367460
_cell_length_c   15.10439200
_cell_angle_alpha   90.00000000
_cell_angle_beta   90.00000000
_cell_angle_gamma   119.99999650
_symmetry_Int_Tables_number   1
_chemical_formula_structural   Ca3Ga(SiRh3)2
_chemical_formula_sum   'Ca6 Ga2 Si4 Rh12'
_cell_volume   418.11487686
_cell_formula_units_Z   2
loop_
 _symmetry_equiv_pos_site_id
 _symmetry_equiv_pos_as_xyz
  1  'x, y, z'
loop_
 _atom_site_type_symbol
 _atom_site_label
 _atom_site_symmetry_multiplicity
 _atom_site_fract_x
 _atom_site_fract_y
 _atom_site_fract_z
 _atom_site_occupancy
  Ca  Ca0  1  0.333355  0.666731  0.040607  1
  Ca  Ca1  1  0.333336  0.666679  0.249910  1
  Ca  Ca2  1  0.333346  0.666741  0.459388  1
  Ca  Ca3  1  0.666659  0.333283  0.540587  1
  Ca  Ca4  1  0.666666  0.333324  0.750065  1
  Ca  Ca5  1  0.666639  0.333241  0.959418  1
  Ga  Ga6  1  0.999976  0.999936  0.000226  1
  Ga  Ga7  1  0.999995  0.000119  0.499837  1
  Si  Si8  1  0.000009  0.000020  0.250014  1
  Si  Si9  1  0.666656  0.333276  0.249963  1
  Si  Si10  1  0.000001  0.999973  0.749964  1
  Si  Si11  1  0.333340  0.666724  0.749958  1
  Rh  Rh12  1  0.333064  0.166644  0.135662  1
  Rh  Rh13  1  0.833554  0.166616  0.135679  1
  Rh  Rh14  1  0.833440  0.666931  0.135691  1
  Rh  Rh15  1  0.333170  0.166696  0.364230  1
  Rh  Rh16  1  0.833498  0.166658  0.364233  1
  Rh  Rh17  1  0.833364  0.666799  0.364236  1
  Rh  Rh18  1  0.166619  0.333156  0.635875  1
  Rh  Rh19  1  0.166510  0.833344  0.635836  1
  Rh  Rh20  1  0.666834  0.833298  0.635862  1
  Rh  Rh21  1  0.166624  0.333158  0.864246  1
  Rh  Rh22  1  0.166479  0.833351  0.864253  1
  Rh  Rh23  1  0.666866  0.833308  0.864262  1
