# generated using pymatgen
data_Ho3Al3GeAu2
_symmetry_space_group_name_H-M   'P 1'
_cell_length_a   7.02919700
_cell_length_b   7.02919747
_cell_length_c   4.30482900
_cell_angle_alpha   90.00000000
_cell_angle_beta   90.00000000
_cell_angle_gamma   119.99999309
_symmetry_Int_Tables_number   1
_chemical_formula_structural   Ho3Al3GeAu2
_chemical_formula_sum   'Ho3 Al3 Ge1 Au2'
_cell_volume   184.20356268
_cell_formula_units_Z   1
loop_
 _symmetry_equiv_pos_site_id
 _symmetry_equiv_pos_as_xyz
  1  'x, y, z'
loop_
 _atom_site_type_symbol
 _atom_site_label
 _atom_site_symmetry_multiplicity
 _atom_site_fract_x
 _atom_site_fract_y
 _atom_site_fract_z
 _atom_site_occupancy
  Ho  Ho0  1  0.421748  0.421509  0.500000  1
  Ho  Ho1  1  0.578491  0.000239  0.500000  1
  Ho  Ho2  1  0.999761  0.578252  0.500000  1
  Al  Al3  1  0.751848  0.762982  0.000000  1
  Al  Al4  1  0.237018  0.988867  0.000000  1
  Al  Al5  1  0.011133  0.248152  0.000000  1
  Ge  Ge6  1  0.666667  0.333333  0.000000  1
  Au  Au7  1  0.333333  0.666667  0.000000  1
  Au  Au8  1  0.000000  0.000000  0.500000  1
