# generated using pymatgen
data_Ho16In2Hg2PtRh3
_symmetry_space_group_name_H-M   'P 1'
_cell_length_a   9.60078370
_cell_length_b   9.60126542
_cell_length_c   9.59514700
_cell_angle_alpha   60.02108131
_cell_angle_beta   60.01942293
_cell_angle_gamma   59.86045454
_symmetry_Int_Tables_number   1
_chemical_formula_structural   Ho16In2Hg2PtRh3
_chemical_formula_sum   'Ho16 In2 Hg2 Pt1 Rh3'
_cell_volume   624.94857669
_cell_formula_units_Z   1
loop_
 _symmetry_equiv_pos_site_id
 _symmetry_equiv_pos_as_xyz
  1  'x, y, z'
loop_
 _atom_site_type_symbol
 _atom_site_label
 _atom_site_symmetry_multiplicity
 _atom_site_fract_x
 _atom_site_fract_y
 _atom_site_fract_z
 _atom_site_occupancy
  Ho  Ho0  1  0.187425  0.186611  0.812982  1
  Ho  Ho1  1  0.602164  0.598593  0.198899  1
  Ho  Ho2  1  0.438471  0.063013  0.441468  1
  Ho  Ho3  1  0.439632  0.439680  0.060344  1
  Ho  Ho4  1  0.813118  0.183979  0.814216  1
  Ho  Ho5  1  0.185194  0.811174  0.188751  1
  Ho  Ho6  1  0.438471  0.063013  0.057048  1
  Ho  Ho7  1  0.185194  0.811174  0.814881  1
  Ho  Ho8  1  0.060418  0.437824  0.060907  1
  Ho  Ho9  1  0.814703  0.812494  0.186402  1
  Ho  Ho10  1  0.191911  0.602539  0.602775  1
  Ho  Ho11  1  0.060418  0.437824  0.440852  1
  Ho  Ho12  1  0.058114  0.064698  0.438594  1
  Ho  Ho13  1  0.813118  0.183979  0.188686  1
  Ho  Ho14  1  0.603118  0.195582  0.600650  1
  Ho  Ho15  1  0.602164  0.598593  0.600344  1
  In  In16  1  0.505639  0.831453  0.831454  1
  In  In17  1  0.831294  0.503851  0.832428  1
  Hg  Hg18  1  0.835992  0.835857  0.837684  1
  Hg  Hg19  1  0.835992  0.835857  0.490468  1
  Pt  Pt20  1  0.391644  0.821968  0.393195  1
  Rh  Rh21  1  0.391853  0.393966  0.394165  1
  Rh  Rh22  1  0.822100  0.392315  0.392793  1
  Rh  Rh23  1  0.391853  0.393966  0.820016  1
