# generated using pymatgen
data_Dy7HoTi9Si16Tc3
_symmetry_space_group_name_H-M   'P 1'
_cell_length_a   6.97938922
_cell_length_b   6.97915200
_cell_length_c   12.81979929
_cell_angle_alpha   90.08381393
_cell_angle_beta   89.92944067
_cell_angle_gamma   90.01565094
_symmetry_Int_Tables_number   1
_chemical_formula_structural   Dy7HoTi9Si16Tc3
_chemical_formula_sum   'Dy7 Ho1 Ti9 Si16 Tc3'
_cell_volume   624.45405637
_cell_formula_units_Z   1
loop_
 _symmetry_equiv_pos_site_id
 _symmetry_equiv_pos_as_xyz
  1  'x, y, z'
loop_
 _atom_site_type_symbol
 _atom_site_label
 _atom_site_symmetry_multiplicity
 _atom_site_fract_x
 _atom_site_fract_y
 _atom_site_fract_z
 _atom_site_occupancy
  Dy  Dy0  1  0.340520  0.001641  0.467270  1
  Dy  Dy1  1  0.498619  0.841657  0.719366  1
  Dy  Dy2  1  0.500317  0.158776  0.217757  1
  Dy  Dy3  1  0.841682  0.498617  0.280620  1
  Dy  Dy4  1  0.158736  0.500342  0.782245  1
  Dy  Dy5  1  0.658956  0.999369  0.968431  1
  Dy  Dy6  1  0.001637  0.340512  0.532735  1
  Ho  Ho7  1  0.999660  0.658763  0.031618  1
  Ti  Ti8  1  0.673951  0.673961  0.499993  1
  Ti  Ti9  1  0.152044  0.005725  0.877251  1
  Ti  Ti10  1  0.494307  0.653592  0.124624  1
  Ti  Ti11  1  0.505183  0.347763  0.627763  1
  Ti  Ti12  1  0.653664  0.494379  0.875402  1
  Ti  Ti13  1  0.347729  0.505184  0.372221  1
  Ti  Ti14  1  0.847165  0.992146  0.375934  1
  Ti  Ti15  1  0.005765  0.152042  0.122776  1
  Ti  Ti16  1  0.992206  0.847154  0.624073  1
  Si  Si17  1  0.199899  0.129167  0.684200  1
  Si  Si18  1  0.370353  0.700311  0.933407  1
  Si  Si19  1  0.631194  0.297133  0.434615  1
  Si  Si20  1  0.700619  0.370850  0.066654  1
  Si  Si21  1  0.297127  0.631202  0.565342  1
  Si  Si22  1  0.799434  0.870087  0.183671  1
  Si  Si23  1  0.129125  0.199923  0.315823  1
  Si  Si24  1  0.870349  0.799075  0.816303  1
  Si  Si25  1  0.290151  0.951796  0.066695  1
  Si  Si26  1  0.547279  0.790103  0.315810  1
  Si  Si27  1  0.452086  0.210819  0.816860  1
  Si  Si28  1  0.790139  0.547217  0.684223  1
  Si  Si29  1  0.210592  0.452298  0.183045  1
  Si  Si30  1  0.708216  0.049254  0.567497  1
  Si  Si31  1  0.952076  0.290689  0.933388  1
  Si  Si32  1  0.049261  0.708222  0.432471  1
  Tc  Tc33  1  0.327857  0.328137  0.000025  1
  Tc  Tc34  1  0.173898  0.828108  0.248479  1
  Tc  Tc35  1  0.828205  0.173985  0.751413  1
