# generated using pymatgen
data_NaTb6PtBr12
_symmetry_space_group_name_H-M   'P 1'
_cell_length_a   9.27712751
_cell_length_b   9.27712745
_cell_length_c   9.27712835
_cell_angle_alpha   106.47288950
_cell_angle_beta   106.47289249
_cell_angle_gamma   106.47289659
_symmetry_Int_Tables_number   1
_chemical_formula_structural   NaTb6PtBr12
_chemical_formula_sum   'Na1 Tb6 Pt1 Br12'
_cell_volume   674.27867866
_cell_formula_units_Z   1
loop_
 _symmetry_equiv_pos_site_id
 _symmetry_equiv_pos_as_xyz
  1  'x, y, z'
loop_
 _atom_site_type_symbol
 _atom_site_label
 _atom_site_symmetry_multiplicity
 _atom_site_fract_x
 _atom_site_fract_y
 _atom_site_fract_z
 _atom_site_occupancy
  Na  Na0  1  0.500000  0.500000  0.500000  1
  Tb  Tb1  1  0.320655  0.111489  0.031724  1
  Tb  Tb2  1  0.031724  0.320655  0.111489  1
  Tb  Tb3  1  0.111489  0.031724  0.320655  1
  Tb  Tb4  1  0.679345  0.888511  0.968276  1
  Tb  Tb5  1  0.968276  0.679345  0.888511  1
  Tb  Tb6  1  0.888511  0.968276  0.679345  1
  Pt  Pt7  1  0.000000  0.000000  0.000000  1
  Br  Br8  1  0.680460  0.216133  0.072987  1
  Br  Br9  1  0.072987  0.680460  0.216133  1
  Br  Br10  1  0.216133  0.072987  0.680460  1
  Br  Br11  1  0.319540  0.783867  0.927013  1
  Br  Br12  1  0.927013  0.319540  0.783867  1
  Br  Br13  1  0.783867  0.927013  0.319540  1
  Br  Br14  1  0.450587  0.147442  0.368773  1
  Br  Br15  1  0.368773  0.450587  0.147442  1
  Br  Br16  1  0.147442  0.368773  0.450587  1
  Br  Br17  1  0.549413  0.852558  0.631227  1
  Br  Br18  1  0.631227  0.549413  0.852558  1
  Br  Br19  1  0.852558  0.631227  0.549413  1
