# generated using pymatgen
data_Er3Al3Hg2Pt
_symmetry_space_group_name_H-M   'P 1'
_cell_length_a   7.13649000
_cell_length_b   7.13648982
_cell_length_c   4.34374800
_cell_angle_alpha   90.00000000
_cell_angle_beta   90.00000000
_cell_angle_gamma   119.99999158
_symmetry_Int_Tables_number   1
_chemical_formula_structural   Er3Al3Hg2Pt
_chemical_formula_sum   'Er3 Al3 Hg2 Pt1'
_cell_volume   191.58636720
_cell_formula_units_Z   1
loop_
 _symmetry_equiv_pos_site_id
 _symmetry_equiv_pos_as_xyz
  1  'x, y, z'
loop_
 _atom_site_type_symbol
 _atom_site_label
 _atom_site_symmetry_multiplicity
 _atom_site_fract_x
 _atom_site_fract_y
 _atom_site_fract_z
 _atom_site_occupancy
  Er  Er0  1  0.406767  0.000000  0.500000  1
  Er  Er1  1  0.000000  0.406767  0.500000  1
  Er  Er2  1  0.593233  0.593233  0.500000  1
  Al  Al3  1  0.773364  0.000000  0.000000  1
  Al  Al4  1  0.000000  0.773364  0.000000  1
  Al  Al5  1  0.226636  0.226636  0.000000  1
  Hg  Hg6  1  0.333333  0.666667  0.000000  1
  Hg  Hg7  1  0.666667  0.333333  0.000000  1
  Pt  Pt8  1  0.000000  0.000000  0.500000  1
