# generated using pymatgen
data_Cs6DyYI12
_symmetry_space_group_name_H-M   'P 1'
_cell_length_a   10.69063751
_cell_length_b   10.69881406
_cell_length_c   8.85649400
_cell_angle_alpha   90.00000000
_cell_angle_beta   90.00000000
_cell_angle_gamma   89.86261460
_symmetry_Int_Tables_number   1
_chemical_formula_structural   Cs6DyYI12
_chemical_formula_sum   'Cs6 Dy1 Y1 I12'
_cell_volume   1012.97756730
_cell_formula_units_Z   1
loop_
 _symmetry_equiv_pos_site_id
 _symmetry_equiv_pos_as_xyz
  1  'x, y, z'
loop_
 _atom_site_type_symbol
 _atom_site_label
 _atom_site_symmetry_multiplicity
 _atom_site_fract_x
 _atom_site_fract_y
 _atom_site_fract_z
 _atom_site_occupancy
  Cs  Cs0  1  0.000000  0.000000  0.500000  1
  Cs  Cs1  1  0.000000  0.000000  0.000000  1
  Cs  Cs2  1  0.233763  0.586334  0.500000  1
  Cs  Cs3  1  0.766237  0.413666  0.500000  1
  Cs  Cs4  1  0.412892  0.232471  0.000000  1
  Cs  Cs5  1  0.587108  0.767529  0.000000  1
  Dy  Dy6  1  0.000000  0.500000  0.000000  1
  Y  Y7  1  0.500000  0.000000  0.500000  1
  I  I8  1  0.694425  0.058522  0.743806  1
  I  I9  1  0.305575  0.941478  0.743806  1
  I  I10  1  0.941401  0.693744  0.242900  1
  I  I11  1  0.058599  0.306256  0.242900  1
  I  I12  1  0.305575  0.941478  0.256194  1
  I  I13  1  0.694425  0.058522  0.256194  1
  I  I14  1  0.058599  0.306256  0.757100  1
  I  I15  1  0.941401  0.693744  0.757100  1
  I  I16  1  0.570939  0.725241  0.500000  1
  I  I17  1  0.429061  0.274759  0.500000  1
  I  I18  1  0.274284  0.569676  0.000000  1
  I  I19  1  0.725716  0.430324  0.000000  1
