# generated using pymatgen
data_Y2Si7(Ir5Rh)2
_symmetry_space_group_name_H-M   'P 1'
_cell_length_a   9.76867000
_cell_length_b   9.73930281
_cell_length_c   3.88956501
_cell_angle_alpha   90.00564086
_cell_angle_beta   90.00245835
_cell_angle_gamma   120.09788424
_symmetry_Int_Tables_number   1
_chemical_formula_structural   Y2Si7(Ir5Rh)2
_chemical_formula_sum   'Y2 Si7 Ir10 Rh2'
_cell_volume   320.15903260
_cell_formula_units_Z   1
loop_
 _symmetry_equiv_pos_site_id
 _symmetry_equiv_pos_as_xyz
  1  'x, y, z'
loop_
 _atom_site_type_symbol
 _atom_site_label
 _atom_site_symmetry_multiplicity
 _atom_site_fract_x
 _atom_site_fract_y
 _atom_site_fract_z
 _atom_site_occupancy
  Y  Y0  1  0.333057  0.666679  0.738338  1
  Y  Y1  1  0.667049  0.334465  0.238988  1
  Si  Si2  1  0.999738  0.999388  0.724664  1
  Si  Si3  1  0.404680  0.290159  0.738473  1
  Si  Si4  1  0.708804  0.115179  0.738770  1
  Si  Si5  1  0.884801  0.594636  0.739159  1
  Si  Si6  1  0.596989  0.710057  0.238785  1
  Si  Si7  1  0.291122  0.887722  0.238656  1
  Si  Si8  1  0.113421  0.402787  0.238248  1
  Ir  Ir9  1  0.441759  0.065546  0.739120  1
  Ir  Ir10  1  0.933750  0.376748  0.738950  1
  Ir  Ir11  1  0.623354  0.557722  0.738734  1
  Ir  Ir12  1  0.558253  0.941897  0.238789  1
  Ir  Ir13  1  0.060238  0.616214  0.238703  1
  Ir  Ir14  1  0.384651  0.442268  0.238412  1
  Ir  Ir15  1  0.151966  0.274060  0.737946  1
  Ir  Ir16  1  0.726867  0.878685  0.738826  1
  Ir  Ir17  1  0.121341  0.848050  0.738385  1
  Ir  Ir18  1  0.863591  0.754173  0.239379  1
  Rh  Rh19  1  0.243271  0.107638  0.239152  1
  Rh  Rh20  1  0.891298  0.135925  0.239522  1
