# generated using pymatgen
data_Ac4C2Cl5
_symmetry_space_group_name_H-M   'P 1'
_cell_length_a   10.11450296
_cell_length_b   4.08106331
_cell_length_c   8.18812600
_cell_angle_alpha   90.00000000
_cell_angle_beta   113.87681183
_cell_angle_gamma   101.63890815
_symmetry_Int_Tables_number   1
_chemical_formula_structural   Ac4C2Cl5
_chemical_formula_sum   'Ac4 C2 Cl5'
_cell_volume   301.44736571
_cell_formula_units_Z   1
loop_
 _symmetry_equiv_pos_site_id
 _symmetry_equiv_pos_as_xyz
  1  'x, y, z'
loop_
 _atom_site_type_symbol
 _atom_site_label
 _atom_site_symmetry_multiplicity
 _atom_site_fract_x
 _atom_site_fract_y
 _atom_site_fract_z
 _atom_site_occupancy
  Ac  Ac0  1  0.000000  0.000000  0.285246  1
  Ac  Ac1  1  0.652343  0.326172  0.326172  1
  Ac  Ac2  1  0.347657  0.673829  0.673828  1
  Ac  Ac3  1  0.000000  0.000000  0.714755  1
  C  C4  1  0.920376  0.460189  0.460189  1
  C  C5  1  0.079625  0.539812  0.539811  1
  Cl  Cl6  1  0.000000  0.500000  0.000000  1
  Cl  Cl7  1  0.663657  0.831829  0.057056  1
  Cl  Cl8  1  0.336342  0.168171  0.393399  1
  Cl  Cl9  1  0.663657  0.831829  0.606601  1
  Cl  Cl10  1  0.336342  0.168171  0.942943  1
