# generated using pymatgen
data_LaAl3PtAu2
_symmetry_space_group_name_H-M   'P 1'
_cell_length_a   4.41010700
_cell_length_b   7.05069300
_cell_length_c   8.71682100
_cell_angle_alpha   90.00000000
_cell_angle_beta   90.00000000
_cell_angle_gamma   90.00000000
_symmetry_Int_Tables_number   1
_chemical_formula_structural   LaAl3PtAu2
_chemical_formula_sum   'La2 Al6 Pt2 Au4'
_cell_volume   271.04353922
_cell_formula_units_Z   2
loop_
 _symmetry_equiv_pos_site_id
 _symmetry_equiv_pos_as_xyz
  1  'x, y, z'
loop_
 _atom_site_type_symbol
 _atom_site_label
 _atom_site_symmetry_multiplicity
 _atom_site_fract_x
 _atom_site_fract_y
 _atom_site_fract_z
 _atom_site_occupancy
  La  La0  1  0.500000  0.000000  0.747366  1
  La  La1  1  0.000000  0.500000  0.252634  1
  Al  Al2  1  0.000000  0.306188  0.898888  1
  Al  Al3  1  0.500000  0.193812  0.101112  1
  Al  Al4  1  0.000000  0.693812  0.898888  1
  Al  Al5  1  0.000000  0.000000  0.349488  1
  Al  Al6  1  0.500000  0.806188  0.101112  1
  Al  Al7  1  0.500000  0.500000  0.650512  1
  Pt  Pt8  1  0.500000  0.500000  0.944986  1
  Pt  Pt9  1  0.000000  0.000000  0.055014  1
  Au  Au10  1  0.000000  0.725106  0.600816  1
  Au  Au11  1  0.500000  0.774894  0.399184  1
  Au  Au12  1  0.500000  0.225106  0.399184  1
  Au  Au13  1  0.000000  0.274894  0.600816  1
