# generated using pymatgen
data_Sr4Ce(MnAs)10
_symmetry_space_group_name_H-M   'P 1'
_cell_length_a   8.63412500
_cell_length_b   8.76876295
_cell_length_c   8.63412500
_cell_angle_alpha   60.50663231
_cell_angle_beta   90.00000000
_cell_angle_gamma   60.50663231
_symmetry_Int_Tables_number   1
_chemical_formula_structural   Sr4Ce(MnAs)10
_chemical_formula_sum   'Sr4 Ce1 Mn10 As10'
_cell_volume   469.22193520
_cell_formula_units_Z   1
loop_
 _symmetry_equiv_pos_site_id
 _symmetry_equiv_pos_as_xyz
  1  'x, y, z'
loop_
 _atom_site_type_symbol
 _atom_site_label
 _atom_site_symmetry_multiplicity
 _atom_site_fract_x
 _atom_site_fract_y
 _atom_site_fract_z
 _atom_site_occupancy
  Sr  Sr0  1  0.200623  0.000000  0.600431  1
  Sr  Sr1  1  0.399569  0.000000  0.200623  1
  Sr  Sr2  1  0.600431  0.000000  0.799377  1
  Sr  Sr3  1  0.799377  0.000000  0.399569  1
  Ce  Ce4  1  0.000000  0.000000  0.000000  1
  Mn  Mn5  1  0.949711  0.501953  0.849544  1
  Mn  Mn6  1  0.150456  0.498047  0.451664  1
  Mn  Mn7  1  0.351497  0.498047  0.050289  1
  Mn  Mn8  1  0.548336  0.501953  0.648503  1
  Mn  Mn9  1  0.750000  0.500000  0.250000  1
  Mn  Mn10  1  0.849544  0.501953  0.548336  1
  Mn  Mn11  1  0.050289  0.498047  0.150456  1
  Mn  Mn12  1  0.250000  0.500000  0.750000  1
  Mn  Mn13  1  0.451664  0.498047  0.351497  1
  Mn  Mn14  1  0.648503  0.501953  0.949711  1
  As  As15  1  0.160277  0.269789  0.766238  1
  As  As16  1  0.364014  0.271971  0.364014  1
  As  As17  1  0.569932  0.269789  0.963970  1
  As  As18  1  0.766238  0.269789  0.569932  1
  As  As19  1  0.963970  0.269789  0.160277  1
  As  As20  1  0.635986  0.728029  0.635986  1
  As  As21  1  0.839723  0.730211  0.233762  1
  As  As22  1  0.036029  0.730211  0.839723  1
  As  As23  1  0.233762  0.730211  0.430068  1
  As  As24  1  0.430068  0.730211  0.036029  1
