# generated using pymatgen
data_Ac2EuSe4
_symmetry_space_group_name_H-M   'P 1'
_cell_length_a   8.09685752
_cell_length_b   8.09685754
_cell_length_c   8.09685837
_cell_angle_alpha   109.49358502
_cell_angle_beta   109.49358444
_cell_angle_gamma   109.42649988
_symmetry_Int_Tables_number   1
_chemical_formula_structural   Ac2EuSe4
_chemical_formula_sum   'Ac4 Eu2 Se8'
_cell_volume   408.62737582
_cell_formula_units_Z   2
loop_
 _symmetry_equiv_pos_site_id
 _symmetry_equiv_pos_as_xyz
  1  'x, y, z'
loop_
 _atom_site_type_symbol
 _atom_site_label
 _atom_site_symmetry_multiplicity
 _atom_site_fract_x
 _atom_site_fract_y
 _atom_site_fract_z
 _atom_site_occupancy
  Ac  Ac0  1  0.503850  0.125000  0.878850  1
  Ac  Ac1  1  0.875000  0.753850  0.378850  1
  Ac  Ac2  1  0.246150  0.625000  0.121150  1
  Ac  Ac3  1  0.375000  0.496150  0.621150  1
  Eu  Eu4  1  0.750000  0.250000  0.500000  1
  Eu  Eu5  1  0.000000  0.000000  0.000000  1
  Se  Se6  1  0.975029  0.372428  0.248494  1
  Se  Se7  1  0.476535  0.373933  0.251506  1
  Se  Se8  1  0.774971  0.523465  0.897398  1
  Se  Se9  1  0.627572  0.876067  0.602602  1
  Se  Se10  1  0.122428  0.225029  0.748494  1
  Se  Se11  1  0.626067  0.877572  0.102602  1
  Se  Se12  1  0.273465  0.024971  0.397398  1
  Se  Se13  1  0.123933  0.726535  0.751506  1
