# generated using pymatgen
data_Er4Zn4Si3Ge
_symmetry_space_group_name_H-M   'P 1'
_cell_length_a   4.17710200
_cell_length_b   4.17710198
_cell_length_c   15.33788200
_cell_angle_alpha   90.00000000
_cell_angle_beta   90.00000000
_cell_angle_gamma   119.99998432
_symmetry_Int_Tables_number   1
_chemical_formula_structural   Er4Zn4Si3Ge
_chemical_formula_sum   'Er4 Zn4 Si3 Ge1'
_cell_volume   231.76414593
_cell_formula_units_Z   1
loop_
 _symmetry_equiv_pos_site_id
 _symmetry_equiv_pos_as_xyz
  1  'x, y, z'
loop_
 _atom_site_type_symbol
 _atom_site_label
 _atom_site_symmetry_multiplicity
 _atom_site_fract_x
 _atom_site_fract_y
 _atom_site_fract_z
 _atom_site_occupancy
  Er  Er0  1  0.000000  0.000000  0.250308  1
  Er  Er1  1  0.000000  0.000000  0.748110  1
  Er  Er2  1  0.000000  0.000000  0.001903  1
  Er  Er3  1  0.000000  0.000000  0.499568  1
  Zn  Zn4  1  0.333333  0.666667  0.142876  1
  Zn  Zn5  1  0.666667  0.333333  0.853306  1
  Zn  Zn6  1  0.666667  0.333333  0.641474  1
  Zn  Zn7  1  0.333333  0.666667  0.357775  1
  Si  Si8  1  0.333333  0.666667  0.617032  1
  Si  Si9  1  0.666667  0.333333  0.382838  1
  Si  Si10  1  0.666667  0.333333  0.117877  1
  Ge  Ge11  1  0.333333  0.666667  0.886934  1
