# generated using pymatgen
data_EuV2(P2O7)2
_symmetry_space_group_name_H-M   'P 1'
_cell_length_a   7.43054033
_cell_length_b   7.43054043
_cell_length_c   9.62453400
_cell_angle_alpha   99.13416729
_cell_angle_beta   80.86583259
_cell_angle_gamma   91.39271882
_symmetry_Int_Tables_number   1
_chemical_formula_structural   EuV2(P2O7)2
_chemical_formula_sum   'Eu2 V4 P8 O28'
_cell_volume   518.00695719
_cell_formula_units_Z   2
loop_
 _symmetry_equiv_pos_site_id
 _symmetry_equiv_pos_as_xyz
  1  'x, y, z'
loop_
 _atom_site_type_symbol
 _atom_site_label
 _atom_site_symmetry_multiplicity
 _atom_site_fract_x
 _atom_site_fract_y
 _atom_site_fract_z
 _atom_site_occupancy
  Eu  Eu0  1  0.500214  0.000139  0.999905  1
  Eu  Eu1  1  0.000007  0.500034  0.499997  1
  V  V2  1  0.000095  0.999945  0.000007  1
  V  V3  1  0.555724  0.554920  0.250344  1
  V  V4  1  0.999921  0.000009  0.500039  1
  V  V5  1  0.444206  0.445061  0.749654  1
  P  P6  1  0.259922  0.358846  0.059907  1
  P  P7  1  0.176514  0.727810  0.200588  1
  P  P8  1  0.727199  0.174536  0.300234  1
  P  P9  1  0.357641  0.259404  0.439309  1
  P  P10  1  0.642318  0.740532  0.560640  1
  P  P11  1  0.272776  0.825469  0.699765  1
  P  P12  1  0.823518  0.272200  0.799475  1
  P  P13  1  0.740038  0.641160  0.940087  1
  O  O14  1  0.133388  0.818027  0.079605  1
  O  O15  1  0.742919  0.608394  0.091704  1
  O  O16  1  0.174800  0.177396  0.090201  1
  O  O17  1  0.451969  0.360995  0.102597  1
  O  O18  1  0.134753  0.510111  0.167502  1
  O  O19  1  0.775328  0.047589  0.158768  1
  O  O20  1  0.381150  0.747588  0.207180  1
  O  O21  1  0.748791  0.379568  0.296004  1
  O  O22  1  0.046843  0.776163  0.341153  1
  O  O23  1  0.508698  0.134228  0.331940  1
  O  O24  1  0.360090  0.451224  0.396419  1
  O  O25  1  0.175979  0.174054  0.408461  1
  O  O26  1  0.610525  0.742444  0.408858  1
  O  O27  1  0.813359  0.127044  0.422247  1
  O  O28  1  0.186476  0.873073  0.577887  1
  O  O29  1  0.389532  0.257543  0.591089  1
  O  O30  1  0.823946  0.825832  0.591576  1
  O  O31  1  0.639788  0.548716  0.603511  1
  O  O32  1  0.491270  0.865779  0.667945  1
  O  O33  1  0.953137  0.223906  0.658893  1
  O  O34  1  0.251165  0.620439  0.703908  1
  O  O35  1  0.618872  0.252419  0.792947  1
  O  O36  1  0.224869  0.952337  0.841280  1
  O  O37  1  0.865265  0.489890  0.832569  1
  O  O38  1  0.548066  0.639068  0.897306  1
  O  O39  1  0.825254  0.822599  0.909828  1
  O  O40  1  0.256966  0.391632  0.908286  1
  O  O41  1  0.866711  0.181875  0.920388  1
