# generated using pymatgen
data_YbTm3(Ga2Cu)4
_symmetry_space_group_name_H-M   'P 1'
_cell_length_a   4.31828500
_cell_length_b   6.48516123
_cell_length_c   9.99196615
_cell_angle_alpha   90.13825480
_cell_angle_beta   90.00000000
_cell_angle_gamma   90.00000000
_symmetry_Int_Tables_number   1
_chemical_formula_structural   YbTm3(Ga2Cu)4
_chemical_formula_sum   'Yb1 Tm3 Ga8 Cu4'
_cell_volume   279.82194397
_cell_formula_units_Z   1
loop_
 _symmetry_equiv_pos_site_id
 _symmetry_equiv_pos_as_xyz
  1  'x, y, z'
loop_
 _atom_site_type_symbol
 _atom_site_label
 _atom_site_symmetry_multiplicity
 _atom_site_fract_x
 _atom_site_fract_y
 _atom_site_fract_z
 _atom_site_occupancy
  Yb  Yb0  1  0.250000  0.257078  0.659336  1
  Tm  Tm1  1  0.250000  0.762507  0.840128  1
  Tm  Tm2  1  0.750000  0.239221  0.160771  1
  Tm  Tm3  1  0.750000  0.739263  0.340457  1
  Ga  Ga4  1  0.250000  0.733729  0.543157  1
  Ga  Ga5  1  0.750000  0.270003  0.457198  1
  Ga  Ga6  1  0.750000  0.765796  0.045429  1
  Ga  Ga7  1  0.250000  0.228579  0.957273  1
  Ga  Ga8  1  0.250000  0.928881  0.157649  1
  Ga  Ga9  1  0.750000  0.071162  0.845103  1
  Ga  Ga10  1  0.750000  0.569195  0.653883  1
  Ga  Ga11  1  0.250000  0.431152  0.342035  1
  Cu  Cu12  1  0.250000  0.546597  0.100673  1
  Cu  Cu13  1  0.750000  0.453294  0.897705  1
  Cu  Cu14  1  0.750000  0.953908  0.601706  1
  Cu  Cu15  1  0.250000  0.049634  0.397501  1
