# generated using pymatgen
data_HoThF36
_symmetry_space_group_name_H-M   'P 1'
_cell_length_a   5.93726333
_cell_length_b   10.92649122
_cell_length_c   11.04550745
_cell_angle_alpha   91.49976273
_cell_angle_beta   98.41317914
_cell_angle_gamma   75.57753577
_symmetry_Int_Tables_number   1
_chemical_formula_structural   HoThF36
_chemical_formula_sum   'Ho1 Th1 F36'
_cell_volume   686.47071920
_cell_formula_units_Z   1
loop_
 _symmetry_equiv_pos_site_id
 _symmetry_equiv_pos_as_xyz
  1  'x, y, z'
loop_
 _atom_site_type_symbol
 _atom_site_label
 _atom_site_symmetry_multiplicity
 _atom_site_fract_x
 _atom_site_fract_y
 _atom_site_fract_z
 _atom_site_occupancy
  Ho  Ho0  1  0.217059  0.192442  0.158128  1
  Th  Th1  1  0.738146  0.836851  0.878822  1
  F  F2  1  0.296165  0.394140  0.857132  1
  F  F3  1  0.638024  0.623070  0.122232  1
  F  F4  1  0.331180  0.280967  0.593399  1
  F  F5  1  0.669314  0.747934  0.430947  1
  F  F6  1  0.863230  0.219637  0.812574  1
  F  F7  1  0.174878  0.766817  0.189916  1
  F  F8  1  0.682640  0.837601  0.062998  1
  F  F9  1  0.331895  0.107535  0.990886  1
  F  F10  1  0.767994  0.617350  0.866963  1
  F  F11  1  0.211336  0.375580  0.090223  1
  F  F12  1  0.460123  0.469200  0.851771  1
  F  F13  1  0.603541  0.501436  0.146359  1
  F  F14  1  0.732203  0.706815  0.706882  1
  F  F15  1  0.259020  0.354218  0.273904  1
  F  F16  1  0.753354  0.972511  0.551452  1
  F  F17  1  0.234827  0.010847  0.448685  1
  F  F18  1  0.288332  0.173668  0.648634  1
  F  F19  1  0.687200  0.807442  0.320430  1
  F  F20  1  0.809310  0.090136  0.582049  1
  F  F21  1  0.168222  0.925221  0.357830  1
  F  F22  1  0.810849  0.010962  0.845480  1
  F  F23  1  0.181664  0.004330  0.088388  1
  F  F24  1  0.908584  0.340909  0.796647  1
  F  F25  1  0.129064  0.649489  0.218208  1
  F  F26  1  0.154143  0.751510  0.911449  1
  F  F27  1  0.827585  0.237687  0.123170  1
  F  F28  1  0.383249  0.944320  0.746685  1
  F  F29  1  0.525771  0.081752  0.285022  1
  F  F30  1  0.121376  0.754188  0.579080  1
  F  F31  1  0.981558  0.230264  0.394593  1
  F  F32  1  0.216219  0.639002  0.646808  1
  F  F33  1  0.828914  0.353953  0.371611  1
  F  F34  1  0.271504  0.848715  0.827504  1
  F  F35  1  0.677920  0.156071  0.203372  1
  F  F36  1  0.547567  0.445969  0.556247  1
  F  F37  1  0.516040  0.539462  0.463526  1
