# generated using pymatgen
data_Ba6TbHo(NiO6)2
_symmetry_space_group_name_H-M   'P 1'
_cell_length_a   7.15000377
_cell_length_b   7.15000468
_cell_length_c   7.15000428
_cell_angle_alpha   93.53020242
_cell_angle_beta   93.53020987
_cell_angle_gamma   93.53020367
_symmetry_Int_Tables_number   1
_chemical_formula_structural   Ba6TbHo(NiO6)2
_chemical_formula_sum   'Ba6 Tb1 Ho1 Ni2 O12'
_cell_volume   363.35593403
_cell_formula_units_Z   1
loop_
 _symmetry_equiv_pos_site_id
 _symmetry_equiv_pos_as_xyz
  1  'x, y, z'
loop_
 _atom_site_type_symbol
 _atom_site_label
 _atom_site_symmetry_multiplicity
 _atom_site_fract_x
 _atom_site_fract_y
 _atom_site_fract_z
 _atom_site_occupancy
  Ba  Ba0  1  0.380468  0.119531  0.750000  1
  Ba  Ba1  1  0.750000  0.380469  0.119532  1
  Ba  Ba2  1  0.249999  0.619764  0.880237  1
  Ba  Ba3  1  0.619763  0.880236  0.250001  1
  Ba  Ba4  1  0.119532  0.750000  0.380469  1
  Ba  Ba5  1  0.880236  0.250000  0.619764  1
  Tb  Tb6  1  0.250001  0.250000  0.250000  1
  Ho  Ho7  1  0.750000  0.750001  0.750000  1
  Ni  Ni8  1  0.500606  0.500606  0.500606  1
  Ni  Ni9  1  0.999394  0.999394  0.999394  1
  O  O10  1  0.782367  0.593605  0.466879  1
  O  O11  1  0.593606  0.466878  0.782367  1
  O  O12  1  0.466878  0.782367  0.593606  1
  O  O13  1  0.033121  0.906395  0.717634  1
  O  O14  1  0.906394  0.717633  0.033121  1
  O  O15  1  0.717634  0.033121  0.906394  1
  O  O16  1  0.217765  0.407778  0.535378  1
  O  O17  1  0.407778  0.535377  0.217765  1
  O  O18  1  0.535377  0.217765  0.407777  1
  O  O19  1  0.964623  0.092222  0.282236  1
  O  O20  1  0.282236  0.964622  0.092221  1
  O  O21  1  0.092221  0.282235  0.964622  1
