# generated using pymatgen
data_Lu9Si4AgB16
_symmetry_space_group_name_H-M   'P 1'
_cell_length_a   7.09057200
_cell_length_b   7.09057200
_cell_length_c   7.71211000
_cell_angle_alpha   90.00000000
_cell_angle_beta   90.00000000
_cell_angle_gamma   90.00000000
_symmetry_Int_Tables_number   1
_chemical_formula_structural   Lu9Si4AgB16
_chemical_formula_sum   'Lu9 Si4 Ag1 B16'
_cell_volume   387.73567183
_cell_formula_units_Z   1
loop_
 _symmetry_equiv_pos_site_id
 _symmetry_equiv_pos_as_xyz
  1  'x, y, z'
loop_
 _atom_site_type_symbol
 _atom_site_label
 _atom_site_symmetry_multiplicity
 _atom_site_fract_x
 _atom_site_fract_y
 _atom_site_fract_z
 _atom_site_occupancy
  Lu  Lu0  1  0.681048  0.180709  0.229661  1
  Lu  Lu1  1  0.318952  0.819291  0.770339  1
  Lu  Lu2  1  0.318952  0.819291  0.229661  1
  Lu  Lu3  1  0.819291  0.681048  0.229661  1
  Lu  Lu4  1  0.819291  0.681048  0.770339  1
  Lu  Lu5  1  0.681048  0.180709  0.770339  1
  Lu  Lu6  1  0.180709  0.318952  0.770339  1
  Lu  Lu7  1  0.180709  0.318952  0.229661  1
  Lu  Lu8  1  0.500000  0.500000  0.500000  1
  Si  Si9  1  0.118306  0.614996  0.500000  1
  Si  Si10  1  0.881694  0.385004  0.500000  1
  Si  Si11  1  0.385004  0.118306  0.500000  1
  Si  Si12  1  0.614996  0.881694  0.500000  1
  Ag  Ag13  1  0.000000  0.000000  0.500000  1
  B  B14  1  0.175039  0.038497  0.000000  1
  B  B15  1  0.824961  0.961503  0.000000  1
  B  B16  1  0.961503  0.175039  0.000000  1
  B  B17  1  0.326961  0.540280  0.000000  1
  B  B18  1  0.038497  0.824961  0.000000  1
  B  B19  1  0.673039  0.459720  0.000000  1
  B  B20  1  0.540280  0.673039  0.000000  1
  B  B21  1  0.459720  0.326961  0.000000  1
  B  B22  1  0.089115  0.588447  0.000000  1
  B  B23  1  0.910885  0.411553  0.000000  1
  B  B24  1  0.411553  0.089115  0.000000  1
  B  B25  1  0.588447  0.910885  0.000000  1
  B  B26  1  0.000000  0.000000  0.164744  1
  B  B27  1  0.000000  0.000000  0.835256  1
  B  B28  1  0.500000  0.500000  0.830740  1
  B  B29  1  0.500000  0.500000  0.169260  1
