# generated using pymatgen
data_Lu4MnRu7
_symmetry_space_group_name_H-M   'P 1'
_cell_length_a   5.32080400
_cell_length_b   5.20148546
_cell_length_c   8.77867200
_cell_angle_alpha   90.00000000
_cell_angle_beta   90.00000000
_cell_angle_gamma   120.76175993
_symmetry_Int_Tables_number   1
_chemical_formula_structural   Lu4MnRu7
_chemical_formula_sum   'Lu4 Mn1 Ru7'
_cell_volume   208.77525251
_cell_formula_units_Z   1
loop_
 _symmetry_equiv_pos_site_id
 _symmetry_equiv_pos_as_xyz
  1  'x, y, z'
loop_
 _atom_site_type_symbol
 _atom_site_label
 _atom_site_symmetry_multiplicity
 _atom_site_fract_x
 _atom_site_fract_y
 _atom_site_fract_z
 _atom_site_occupancy
  Lu  Lu0  1  0.330553  0.661108  0.432688  1
  Lu  Lu1  1  0.668892  0.337783  0.564624  1
  Lu  Lu2  1  0.668892  0.337783  0.935376  1
  Lu  Lu3  1  0.330553  0.661108  0.067312  1
  Mn  Mn4  1  0.165699  0.331399  0.750000  1
  Ru  Ru5  1  0.178995  0.829239  0.750000  1
  Ru  Ru6  1  0.348929  0.173156  0.250000  1
  Ru  Ru7  1  0.834770  0.669540  0.250000  1
  Ru  Ru8  1  0.650243  0.829239  0.750000  1
  Ru  Ru9  1  0.999123  0.998246  0.997702  1
  Ru  Ru10  1  0.824228  0.173156  0.250000  1
  Ru  Ru11  1  0.999123  0.998246  0.502298  1
