# generated using pymatgen
data_Zn22Co3Pt
_symmetry_space_group_name_H-M   'P 1'
_cell_length_a   7.81297677
_cell_length_b   7.82388325
_cell_length_c   7.82388295
_cell_angle_alpha   109.49943652
_cell_angle_beta   109.44299291
_cell_angle_gamma   109.44298832
_symmetry_Int_Tables_number   1
_chemical_formula_structural   Zn22Co3Pt
_chemical_formula_sum   'Zn22 Co3 Pt1'
_cell_volume   368.29051409
_cell_formula_units_Z   1
loop_
 _symmetry_equiv_pos_site_id
 _symmetry_equiv_pos_as_xyz
  1  'x, y, z'
loop_
 _atom_site_type_symbol
 _atom_site_label
 _atom_site_symmetry_multiplicity
 _atom_site_fract_x
 _atom_site_fract_y
 _atom_site_fract_z
 _atom_site_occupancy
  Zn  Zn0  1  0.353451  0.357686  0.000000  1
  Zn  Zn1  1  0.995765  0.642314  0.642314  1
  Zn  Zn2  1  0.353451  0.000000  0.357686  1
  Zn  Zn3  1  0.998041  0.355043  0.355043  1
  Zn  Zn4  1  0.642999  0.000000  0.644957  1
  Zn  Zn5  1  0.642999  0.644957  0.000000  1
  Zn  Zn6  1  0.201983  0.209530  0.209530  1
  Zn  Zn7  1  0.992453  0.000000  0.790470  1
  Zn  Zn8  1  0.992453  0.790470  0.000000  1
  Zn  Zn9  1  0.789574  0.000000  0.000000  1
  Zn  Zn10  1  0.386628  0.728212  0.728212  1
  Zn  Zn11  1  0.658416  0.000000  0.271788  1
  Zn  Zn12  1  0.658416  0.271788  0.000000  1
  Zn  Zn13  1  0.003656  0.649071  0.259041  1
  Zn  Zn14  1  0.744615  0.390030  0.740959  1
  Zn  Zn15  1  0.252133  0.640924  0.000000  1
  Zn  Zn16  1  0.003656  0.259041  0.649071  1
  Zn  Zn17  1  0.252133  0.000000  0.640924  1
  Zn  Zn18  1  0.744615  0.740959  0.390030  1
  Zn  Zn19  1  0.611209  0.359076  0.359076  1
  Zn  Zn20  1  0.354585  0.609970  0.350929  1
  Zn  Zn21  1  0.354585  0.350929  0.609970  1
  Co  Co22  1  0.001359  0.343905  0.000000  1
  Co  Co23  1  0.001359  0.000000  0.343905  1
  Co  Co24  1  0.657454  0.656095  0.656095  1
  Pt  Pt25  1  0.352016  0.000000  0.000000  1
