# generated using pymatgen
data_Lu8Sc3Si16W9
_symmetry_space_group_name_H-M   'P 1'
_cell_length_a   6.72537708
_cell_length_b   6.93106642
_cell_length_c   13.11254051
_cell_angle_alpha   89.79561285
_cell_angle_beta   89.66550903
_cell_angle_gamma   90.11638889
_symmetry_Int_Tables_number   1
_chemical_formula_structural   Lu8Sc3Si16W9
_chemical_formula_sum   'Lu8 Sc3 Si16 W9'
_cell_volume   611.21283394
_cell_formula_units_Z   1
loop_
 _symmetry_equiv_pos_site_id
 _symmetry_equiv_pos_as_xyz
  1  'x, y, z'
loop_
 _atom_site_type_symbol
 _atom_site_label
 _atom_site_symmetry_multiplicity
 _atom_site_fract_x
 _atom_site_fract_y
 _atom_site_fract_z
 _atom_site_occupancy
  Lu  Lu0  1  0.501757  0.330132  0.095452  1
  Lu  Lu1  1  0.000887  0.170725  0.407071  1
  Lu  Lu2  1  0.500153  0.671692  0.594298  1
  Lu  Lu3  1  0.996128  0.829574  0.905600  1
  Lu  Lu4  1  0.493731  0.674048  0.902763  1
  Lu  Lu5  1  0.999439  0.826067  0.592653  1
  Lu  Lu6  1  0.498279  0.328992  0.405732  1
  Lu  Lu7  1  0.004664  0.172810  0.098229  1
  Sc  Sc8  1  0.668275  0.830386  0.124608  1
  Sc  Sc9  1  0.833088  0.330484  0.877361  1
  Sc  Sc10  1  0.333369  0.169824  0.621179  1
  Si  Si11  1  0.672983  0.038905  0.540020  1
  Si  Si12  1  0.170461  0.461226  0.962130  1
  Si  Si13  1  0.328840  0.961594  0.039897  1
  Si  Si14  1  0.834900  0.539387  0.457756  1
  Si  Si15  1  0.337569  0.954869  0.451964  1
  Si  Si16  1  0.850024  0.532342  0.049681  1
  Si  Si17  1  0.649122  0.034288  0.952094  1
  Si  Si18  1  0.160640  0.464967  0.540999  1
  Si  Si19  1  0.532645  0.381216  0.749980  1
  Si  Si20  1  0.031089  0.119223  0.747748  1
  Si  Si21  1  0.466207  0.620866  0.253536  1
  Si  Si22  1  0.970571  0.876483  0.251773  1
  Si  Si23  1  0.796127  0.636905  0.749355  1
  Si  Si24  1  0.293607  0.866218  0.748344  1
  Si  Si25  1  0.202587  0.366061  0.250885  1
  Si  Si26  1  0.705179  0.135615  0.251673  1
  W  W27  1  0.830782  0.332130  0.624589  1
  W  W28  1  0.323138  0.173641  0.873137  1
  W  W29  1  0.178162  0.669609  0.127173  1
  W  W30  1  0.671943  0.832887  0.375631  1
  W  W31  1  0.163242  0.663583  0.372978  1
  W  W32  1  0.659323  0.005646  0.748388  1
  W  W33  1  0.161025  0.498585  0.749478  1
  W  W34  1  0.340813  0.993618  0.251650  1
  W  W35  1  0.839253  0.505401  0.254200  1
