# generated using pymatgen
data_LiYb2AlGe2
_symmetry_space_group_name_H-M   'P 1'
_cell_length_a   4.33074900
_cell_length_b   7.27412900
_cell_length_c   8.02523500
_cell_angle_alpha   90.00000000
_cell_angle_beta   90.00000000
_cell_angle_gamma   90.00000000
_symmetry_Int_Tables_number   1
_chemical_formula_structural   LiYb2AlGe2
_chemical_formula_sum   'Li2 Yb4 Al2 Ge4'
_cell_volume   252.81437888
_cell_formula_units_Z   2
loop_
 _symmetry_equiv_pos_site_id
 _symmetry_equiv_pos_as_xyz
  1  'x, y, z'
loop_
 _atom_site_type_symbol
 _atom_site_label
 _atom_site_symmetry_multiplicity
 _atom_site_fract_x
 _atom_site_fract_y
 _atom_site_fract_z
 _atom_site_occupancy
  Li  Li0  1  0.250000  0.643876  0.556599  1
  Li  Li1  1  0.250000  0.143876  0.943401  1
  Yb  Yb2  1  0.750000  0.485161  0.817859  1
  Yb  Yb3  1  0.250000  0.015217  0.313881  1
  Yb  Yb4  1  0.750000  0.985161  0.682141  1
  Yb  Yb5  1  0.250000  0.515217  0.186119  1
  Al  Al6  1  0.750000  0.358881  0.431426  1
  Al  Al7  1  0.750000  0.858881  0.068574  1
  Ge  Ge8  1  0.250000  0.772506  0.893582  1
  Ge  Ge9  1  0.250000  0.272506  0.606418  1
  Ge  Ge10  1  0.750000  0.724359  0.379374  1
  Ge  Ge11  1  0.750000  0.224359  0.120626  1
