# generated using pymatgen
data_Dy4Cd3Ag10
_symmetry_space_group_name_H-M   'P 1'
_cell_length_a   8.58733476
_cell_length_b   8.58733588
_cell_length_c   10.33090400
_cell_angle_alpha   90.00000000
_cell_angle_beta   90.00000000
_cell_angle_gamma   107.55188477
_symmetry_Int_Tables_number   1
_chemical_formula_structural   Dy4Cd3Ag10
_chemical_formula_sum   'Dy8 Cd6 Ag20'
_cell_volume   726.35758218
_cell_formula_units_Z   2
loop_
 _symmetry_equiv_pos_site_id
 _symmetry_equiv_pos_as_xyz
  1  'x, y, z'
loop_
 _atom_site_type_symbol
 _atom_site_label
 _atom_site_symmetry_multiplicity
 _atom_site_fract_x
 _atom_site_fract_y
 _atom_site_fract_z
 _atom_site_occupancy
  Dy  Dy0  1  0.698953  0.301047  0.000000  1
  Dy  Dy1  1  0.301047  0.698953  0.000000  1
  Dy  Dy2  1  0.801047  0.198953  0.500000  1
  Dy  Dy3  1  0.198953  0.801047  0.500000  1
  Dy  Dy4  1  0.306287  0.306287  0.203770  1
  Dy  Dy5  1  0.693713  0.693713  0.796230  1
  Dy  Dy6  1  0.193713  0.193713  0.703770  1
  Dy  Dy7  1  0.806287  0.806287  0.296230  1
  Cd  Cd8  1  0.030806  0.530806  0.250000  1
  Cd  Cd9  1  0.969194  0.469194  0.750000  1
  Cd  Cd10  1  0.469194  0.969194  0.750000  1
  Cd  Cd11  1  0.530806  0.030806  0.250000  1
  Cd  Cd12  1  0.000000  0.000000  0.000000  1
  Cd  Cd13  1  0.500000  0.500000  0.500000  1
  Ag  Ag14  1  0.098270  0.098270  0.404921  1
  Ag  Ag15  1  0.901730  0.901730  0.595079  1
  Ag  Ag16  1  0.401730  0.401730  0.904921  1
  Ag  Ag17  1  0.598270  0.598270  0.095079  1
  Ag  Ag18  1  0.893466  0.175490  0.208813  1
  Ag  Ag19  1  0.106534  0.824510  0.791187  1
  Ag  Ag20  1  0.606534  0.324510  0.708813  1
  Ag  Ag21  1  0.675490  0.393466  0.291187  1
  Ag  Ag22  1  0.393466  0.675490  0.291187  1
  Ag  Ag23  1  0.324510  0.606534  0.708813  1
  Ag  Ag24  1  0.824510  0.106534  0.791187  1
  Ag  Ag25  1  0.175490  0.893466  0.208813  1
  Ag  Ag26  1  0.929594  0.650541  0.017746  1
  Ag  Ag27  1  0.070406  0.349459  0.982254  1
  Ag  Ag28  1  0.570406  0.849459  0.517746  1
  Ag  Ag29  1  0.150541  0.429594  0.482254  1
  Ag  Ag30  1  0.429594  0.150541  0.482254  1
  Ag  Ag31  1  0.849459  0.570406  0.517746  1
  Ag  Ag32  1  0.349459  0.070406  0.982254  1
  Ag  Ag33  1  0.650541  0.929594  0.017746  1
