# generated using pymatgen
data_Hf18TiRe7B2
_symmetry_space_group_name_H-M   'P 1'
_cell_length_a   8.46447400
_cell_length_b   8.46447442
_cell_length_c   8.54259400
_cell_angle_alpha   90.00000000
_cell_angle_beta   90.00000000
_cell_angle_gamma   119.99999835
_symmetry_Int_Tables_number   1
_chemical_formula_structural   Hf18TiRe7B2
_chemical_formula_sum   'Hf18 Ti1 Re7 B2'
_cell_volume   530.05431888
_cell_formula_units_Z   1
loop_
 _symmetry_equiv_pos_site_id
 _symmetry_equiv_pos_as_xyz
  1  'x, y, z'
loop_
 _atom_site_type_symbol
 _atom_site_label
 _atom_site_symmetry_multiplicity
 _atom_site_fract_x
 _atom_site_fract_y
 _atom_site_fract_z
 _atom_site_occupancy
  Hf  Hf0  1  0.201422  0.798578  0.444927  1
  Hf  Hf1  1  0.201422  0.402845  0.444927  1
  Hf  Hf2  1  0.597155  0.798578  0.444927  1
  Hf  Hf3  1  0.798578  0.201422  0.555073  1
  Hf  Hf4  1  0.798578  0.597155  0.555073  1
  Hf  Hf5  1  0.402845  0.201422  0.555073  1
  Hf  Hf6  1  0.798988  0.201012  0.944375  1
  Hf  Hf7  1  0.798988  0.597977  0.944375  1
  Hf  Hf8  1  0.402023  0.201012  0.944375  1
  Hf  Hf9  1  0.201012  0.798988  0.055625  1
  Hf  Hf10  1  0.201012  0.402023  0.055625  1
  Hf  Hf11  1  0.597977  0.798988  0.055625  1
  Hf  Hf12  1  0.540351  0.459649  0.249577  1
  Hf  Hf13  1  0.540351  0.080702  0.249577  1
  Hf  Hf14  1  0.919298  0.459649  0.249577  1
  Hf  Hf15  1  0.459649  0.540351  0.750423  1
  Hf  Hf16  1  0.459649  0.919298  0.750423  1
  Hf  Hf17  1  0.080702  0.540351  0.750423  1
  Ti  Ti18  1  0.000000  0.000000  0.500000  1
  Re  Re19  1  0.888702  0.111298  0.251143  1
  Re  Re20  1  0.888702  0.777405  0.251143  1
  Re  Re21  1  0.222595  0.111298  0.251143  1
  Re  Re22  1  0.111298  0.888702  0.748857  1
  Re  Re23  1  0.111298  0.222595  0.748857  1
  Re  Re24  1  0.777405  0.888702  0.748857  1
  Re  Re25  1  0.000000  0.000000  0.000000  1
  B  B26  1  0.333333  0.666667  0.249281  1
  B  B27  1  0.666667  0.333333  0.750719  1
