# generated using pymatgen
data_Ti3Nb3Co16Si7
_symmetry_space_group_name_H-M   'P 1'
_cell_length_a   7.88447243
_cell_length_b   7.87921821
_cell_length_c   7.87990512
_cell_angle_alpha   60.01676590
_cell_angle_beta   59.97120543
_cell_angle_gamma   59.97335647
_symmetry_Int_Tables_number   1
_chemical_formula_structural   Ti3Nb3Co16Si7
_chemical_formula_sum   'Ti3 Nb3 Co16 Si7'
_cell_volume   346.04663054
_cell_formula_units_Z   1
loop_
 _symmetry_equiv_pos_site_id
 _symmetry_equiv_pos_as_xyz
  1  'x, y, z'
loop_
 _atom_site_type_symbol
 _atom_site_label
 _atom_site_symmetry_multiplicity
 _atom_site_fract_x
 _atom_site_fract_y
 _atom_site_fract_z
 _atom_site_occupancy
  Ti  Ti0  1  0.203916  0.203803  0.796152  1
  Ti  Ti1  1  0.796409  0.204727  0.795246  1
  Ti  Ti2  1  0.204761  0.796473  0.203529  1
  Nb  Nb3  1  0.201408  0.799819  0.798610  1
  Nb  Nb4  1  0.799144  0.799135  0.200842  1
  Nb  Nb5  1  0.799784  0.201449  0.200204  1
  Co  Co6  1  0.618751  0.619129  0.143023  1
  Co  Co7  1  0.166597  0.499845  0.167219  1
  Co  Co8  1  0.857021  0.380571  0.381619  1
  Co  Co9  1  0.498207  0.833696  0.834774  1
  Co  Co10  1  0.499779  0.166622  0.166413  1
  Co  Co11  1  0.834103  0.832775  0.500232  1
  Co  Co12  1  0.165721  0.166535  0.501962  1
  Co  Co13  1  0.142174  0.618649  0.619482  1
  Co  Co14  1  0.166540  0.165704  0.165852  1
  Co  Co15  1  0.380878  0.380253  0.857831  1
  Co  Co16  1  0.619160  0.618655  0.619130  1
  Co  Co17  1  0.380573  0.856927  0.380832  1
  Co  Co18  1  0.380217  0.380929  0.381019  1
  Co  Co19  1  0.832673  0.834167  0.832940  1
  Co  Co20  1  0.618696  0.142187  0.619693  1
  Co  Co21  1  0.833656  0.498095  0.833468  1
  Si  Si22  1  0.498772  0.001619  0.501465  1
  Si  Si23  1  0.499752  0.499805  0.000205  1
  Si  Si24  1  0.499401  0.499290  0.500643  1
  Si  Si25  1  0.999987  0.000091  0.499959  1
  Si  Si26  1  0.001568  0.498807  0.998122  1
  Si  Si27  1  0.001554  0.498711  0.501144  1
  Si  Si28  1  0.498799  0.001533  0.998391  1
