# generated using pymatgen
data_Tm12Fe2TcSn2
_symmetry_space_group_name_H-M   'P 1'
_cell_length_a   8.26483116
_cell_length_b   8.26483106
_cell_length_c   8.26483127
_cell_angle_alpha   108.78582713
_cell_angle_beta   108.78583760
_cell_angle_gamma   110.85088017
_symmetry_Int_Tables_number   1
_chemical_formula_structural   Tm12Fe2TcSn2
_chemical_formula_sum   'Tm12 Fe2 Tc1 Sn2'
_cell_volume   434.40077290
_cell_formula_units_Z   1
loop_
 _symmetry_equiv_pos_site_id
 _symmetry_equiv_pos_as_xyz
  1  'x, y, z'
loop_
 _atom_site_type_symbol
 _atom_site_label
 _atom_site_symmetry_multiplicity
 _atom_site_fract_x
 _atom_site_fract_y
 _atom_site_fract_z
 _atom_site_occupancy
  Tm  Tm0  1  0.194391  0.431772  0.237381  1
  Tm  Tm1  1  0.805609  0.568228  0.762619  1
  Tm  Tm2  1  0.194391  0.957010  0.762619  1
  Tm  Tm3  1  0.957010  0.194391  0.762619  1
  Tm  Tm4  1  0.805609  0.042990  0.237381  1
  Tm  Tm5  1  0.042990  0.805609  0.237381  1
  Tm  Tm6  1  0.431772  0.194391  0.237381  1
  Tm  Tm7  1  0.568228  0.805609  0.762619  1
  Tm  Tm8  1  0.306962  0.306962  0.613925  1
  Tm  Tm9  1  0.693038  0.693038  0.386075  1
  Tm  Tm10  1  0.693038  0.306962  0.000000  1
  Tm  Tm11  1  0.306962  0.693038  0.000000  1
  Fe  Fe12  1  0.386026  0.386026  0.000000  1
  Fe  Fe13  1  0.613974  0.613974  0.000000  1
  Tc  Tc14  1  0.000000  0.000000  0.000000  1
  Sn  Sn15  1  0.000000  0.500000  0.500000  1
  Sn  Sn16  1  0.500000  0.000000  0.500000  1
