# generated using pymatgen
data_Ta12Al8CrPt2RhC4
_symmetry_space_group_name_H-M   'P 1'
_cell_length_a   8.32113635
_cell_length_b   8.32104725
_cell_length_c   8.32101400
_cell_angle_alpha   59.71843822
_cell_angle_beta   59.71898780
_cell_angle_gamma   59.71904337
_symmetry_Int_Tables_number   1
_chemical_formula_structural   Ta12Al8CrPt2RhC4
_chemical_formula_sum   'Ta12 Al8 Cr1 Pt2 Rh1 C4'
_cell_volume   404.79907592
_cell_formula_units_Z   1
loop_
 _symmetry_equiv_pos_site_id
 _symmetry_equiv_pos_as_xyz
  1  'x, y, z'
loop_
 _atom_site_type_symbol
 _atom_site_label
 _atom_site_symmetry_multiplicity
 _atom_site_fract_x
 _atom_site_fract_y
 _atom_site_fract_z
 _atom_site_occupancy
  Ta  Ta0  1  0.564939  0.935171  0.567053  1
  Ta  Ta1  1  0.314831  0.685060  0.682945  1
  Ta  Ta2  1  0.699560  0.309754  0.309661  1
  Ta  Ta3  1  0.309753  0.699562  0.309661  1
  Ta  Ta4  1  0.683007  0.683009  0.315629  1
  Ta  Ta5  1  0.308948  0.308949  0.699270  1
  Ta  Ta6  1  0.566993  0.566991  0.934371  1
  Ta  Ta7  1  0.935169  0.564940  0.567055  1
  Ta  Ta8  1  0.550440  0.940246  0.940339  1
  Ta  Ta9  1  0.941052  0.941051  0.550730  1
  Ta  Ta10  1  0.685061  0.314829  0.682947  1
  Ta  Ta11  1  0.940247  0.550438  0.940339  1
  Al  Al12  1  0.915756  0.915756  0.910424  1
  Al  Al13  1  0.001975  0.329853  0.334474  1
  Al  Al14  1  0.329851  0.001978  0.334473  1
  Al  Al15  1  0.331626  0.331626  0.000651  1
  Al  Al16  1  0.920149  0.248022  0.915527  1
  Al  Al17  1  0.918374  0.918374  0.249349  1
  Al  Al18  1  0.248025  0.920147  0.915526  1
  Al  Al19  1  0.334244  0.334244  0.339576  1
  Cr  Cr20  1  0.125000  0.125000  0.125000  1
  Pt  Pt21  1  0.625000  0.125000  0.125000  1
  Pt  Pt22  1  0.125000  0.625000  0.125000  1
  Rh  Rh23  1  0.125000  0.125000  0.625000  1
  C  C24  1  0.625000  0.625000  0.625000  1
  C  C25  1  0.125000  0.625000  0.625000  1
  C  C26  1  0.625000  0.125000  0.625000  1
  C  C27  1  0.625000  0.625000  0.125000  1
