# generated using pymatgen
data_Tb6YBeI12
_symmetry_space_group_name_H-M   'P 1'
_cell_length_a   9.71812506
_cell_length_b   9.71812451
_cell_length_c   9.71812455
_cell_angle_alpha   107.64132048
_cell_angle_beta   107.64132323
_cell_angle_gamma   107.64131115
_symmetry_Int_Tables_number   1
_chemical_formula_structural   Tb6YBeI12
_chemical_formula_sum   'Tb6 Y1 Be1 I12'
_cell_volume   750.57818624
_cell_formula_units_Z   1
loop_
 _symmetry_equiv_pos_site_id
 _symmetry_equiv_pos_as_xyz
  1  'x, y, z'
loop_
 _atom_site_type_symbol
 _atom_site_label
 _atom_site_symmetry_multiplicity
 _atom_site_fract_x
 _atom_site_fract_y
 _atom_site_fract_z
 _atom_site_occupancy
  Tb  Tb0  1  0.699652  0.971497  0.901566  1
  Tb  Tb1  1  0.971497  0.901566  0.699652  1
  Tb  Tb2  1  0.098434  0.300348  0.028503  1
  Tb  Tb3  1  0.300348  0.028503  0.098434  1
  Tb  Tb4  1  0.901566  0.699652  0.971497  1
  Tb  Tb5  1  0.028503  0.098434  0.300348  1
  Y  Y6  1  0.500000  0.500000  0.500000  1
  Be  Be7  1  0.000000  0.000000  0.000000  1
  I  I8  1  0.074390  0.228477  0.681354  1
  I  I9  1  0.387565  0.155428  0.467754  1
  I  I10  1  0.612435  0.844572  0.532246  1
  I  I11  1  0.228477  0.681354  0.074390  1
  I  I12  1  0.771523  0.318646  0.925610  1
  I  I13  1  0.681354  0.074390  0.228477  1
  I  I14  1  0.532246  0.612435  0.844572  1
  I  I15  1  0.844572  0.532246  0.612435  1
  I  I16  1  0.925610  0.771523  0.318646  1
  I  I17  1  0.318646  0.925610  0.771523  1
  I  I18  1  0.467754  0.387565  0.155428  1
  I  I19  1  0.155428  0.467754  0.387565  1
