# generated using pymatgen
data_Y2Er18Cd6FeNi
_symmetry_space_group_name_H-M   'P 1'
_cell_length_a   9.51097707
_cell_length_b   9.50894034
_cell_length_c   9.70261700
_cell_angle_alpha   90.00000000
_cell_angle_beta   90.00000000
_cell_angle_gamma   119.99291438
_symmetry_Int_Tables_number   1
_chemical_formula_structural   Y2Er18Cd6FeNi
_chemical_formula_sum   'Y2 Er18 Cd6 Fe1 Ni1'
_cell_volume   759.98983161
_cell_formula_units_Z   1
loop_
 _symmetry_equiv_pos_site_id
 _symmetry_equiv_pos_as_xyz
  1  'x, y, z'
loop_
 _atom_site_type_symbol
 _atom_site_label
 _atom_site_symmetry_multiplicity
 _atom_site_fract_x
 _atom_site_fract_y
 _atom_site_fract_z
 _atom_site_occupancy
  Y  Y0  1  0.916706  0.458353  0.250000  1
  Y  Y1  1  0.087049  0.543524  0.750000  1
  Er  Er2  1  0.999984  0.999992  0.499885  1
  Er  Er3  1  0.999984  0.999992  0.000115  1
  Er  Er4  1  0.541261  0.458466  0.250000  1
  Er  Er5  1  0.541261  0.082796  0.250000  1
  Er  Er6  1  0.456973  0.543387  0.750000  1
  Er  Er7  1  0.456973  0.913586  0.750000  1
  Er  Er8  1  0.212531  0.788727  0.436243  1
  Er  Er9  1  0.212531  0.423806  0.436243  1
  Er  Er10  1  0.576134  0.788068  0.436304  1
  Er  Er11  1  0.788526  0.210164  0.562323  1
  Er  Er12  1  0.788526  0.578361  0.562323  1
  Er  Er13  1  0.421718  0.210858  0.562226  1
  Er  Er14  1  0.788526  0.210164  0.937677  1
  Er  Er15  1  0.788526  0.578361  0.937677  1
  Er  Er16  1  0.421718  0.210858  0.937774  1
  Er  Er17  1  0.212531  0.788727  0.063757  1
  Er  Er18  1  0.212531  0.423806  0.063757  1
  Er  Er19  1  0.576134  0.788068  0.063696  1
  Cd  Cd20  1  0.884872  0.114360  0.250000  1
  Cd  Cd21  1  0.884872  0.770512  0.250000  1
  Cd  Cd22  1  0.229939  0.114970  0.250000  1
  Cd  Cd23  1  0.115143  0.885548  0.750000  1
  Cd  Cd24  1  0.115143  0.229595  0.750000  1
  Cd  Cd25  1  0.769918  0.884959  0.750000  1
  Fe  Fe26  1  0.333384  0.666693  0.250000  1
  Ni  Ni27  1  0.666603  0.333301  0.750000  1
