# generated using pymatgen
data_Tb3Y3TiAl23Os8
_symmetry_space_group_name_H-M   'P 1'
_cell_length_a   8.85979808
_cell_length_b   8.85785750
_cell_length_c   9.56898801
_cell_angle_alpha   90.00132077
_cell_angle_beta   90.00315846
_cell_angle_gamma   120.02195027
_symmetry_Int_Tables_number   1
_chemical_formula_structural   Tb3Y3TiAl23Os8
_chemical_formula_sum   'Tb3 Y3 Ti1 Al23 Os8'
_cell_volume   650.20911270
_cell_formula_units_Z   1
loop_
 _symmetry_equiv_pos_site_id
 _symmetry_equiv_pos_as_xyz
  1  'x, y, z'
loop_
 _atom_site_type_symbol
 _atom_site_label
 _atom_site_symmetry_multiplicity
 _atom_site_fract_x
 _atom_site_fract_y
 _atom_site_fract_z
 _atom_site_occupancy
  Tb  Tb0  1  0.193454  0.386839  0.250770  1
  Tb  Tb1  1  0.807317  0.614600  0.748241  1
  Tb  Tb2  1  0.613088  0.806522  0.250779  1
  Y  Y3  1  0.385617  0.192805  0.748282  1
  Y  Y4  1  0.193519  0.806508  0.250899  1
  Y  Y5  1  0.807186  0.192846  0.748296  1
  Ti  Ti6  1  0.333326  0.666637  0.991224  1
  Al  Al7  1  0.666650  0.333287  0.982104  1
  Al  Al8  1  0.666631  0.333245  0.516244  1
  Al  Al9  1  0.333300  0.666724  0.482550  1
  Al  Al10  1  0.162484  0.324986  0.574962  1
  Al  Al11  1  0.837128  0.674173  0.424819  1
  Al  Al12  1  0.675028  0.837595  0.574987  1
  Al  Al13  1  0.836899  0.673723  0.076223  1
  Al  Al14  1  0.325827  0.162844  0.424880  1
  Al  Al15  1  0.159694  0.319421  0.926423  1
  Al  Al16  1  0.162554  0.837588  0.574975  1
  Al  Al17  1  0.326282  0.163092  0.076199  1
  Al  Al18  1  0.837060  0.162881  0.424852  1
  Al  Al19  1  0.680568  0.840329  0.926385  1
  Al  Al20  1  0.836848  0.163126  0.076235  1
  Al  Al21  1  0.159753  0.840309  0.926435  1
  Al  Al22  1  0.561542  0.123176  0.252938  1
  Al  Al23  1  0.441069  0.882173  0.749967  1
  Al  Al24  1  0.876818  0.438444  0.252926  1
  Al  Al25  1  0.118007  0.558971  0.749981  1
  Al  Al26  1  0.561657  0.438317  0.252923  1
  Al  Al27  1  0.440953  0.558942  0.749991  1
  Al  Al28  1  0.999954  0.999999  0.249932  1
  Al  Al29  1  0.999973  0.999975  0.749246  1
  Os  Os30  1  0.499004  0.998069  0.002585  1
  Os  Os31  1  0.001919  0.500933  0.002621  1
  Os  Os32  1  0.499514  0.999110  0.502640  1
  Os  Os33  1  0.498955  0.500938  0.002670  1
  Os  Os34  1  0.000864  0.500441  0.502655  1
  Os  Os35  1  0.499515  0.500420  0.502629  1
  Os  Os36  1  0.000017  0.000016  0.000091  1
  Os  Os37  1  0.000029  0.999996  0.499441  1
