# generated using pymatgen
data_Tm4MnZn3Ru4
_symmetry_space_group_name_H-M   'P 1'
_cell_length_a   5.28258923
_cell_length_b   5.20221448
_cell_length_c   9.00225600
_cell_angle_alpha   90.00000000
_cell_angle_beta   90.00000000
_cell_angle_gamma   120.45199957
_symmetry_Int_Tables_number   1
_chemical_formula_structural   Tm4MnZn3Ru4
_chemical_formula_sum   'Tm4 Mn1 Zn3 Ru4'
_cell_volume   213.26567149
_cell_formula_units_Z   1
loop_
 _symmetry_equiv_pos_site_id
 _symmetry_equiv_pos_as_xyz
  1  'x, y, z'
loop_
 _atom_site_type_symbol
 _atom_site_label
 _atom_site_symmetry_multiplicity
 _atom_site_fract_x
 _atom_site_fract_y
 _atom_site_fract_z
 _atom_site_occupancy
  Tm  Tm0  1  0.667385  0.334274  0.568398  1
  Tm  Tm1  1  0.331393  0.663074  0.447196  1
  Tm  Tm2  1  0.331393  0.663074  0.052804  1
  Tm  Tm3  1  0.667385  0.334274  0.931602  1
  Mn  Mn4  1  0.165632  0.330448  0.750000  1
  Zn  Zn5  1  0.836363  0.672872  0.250000  1
  Zn  Zn6  1  0.837987  0.169117  0.250000  1
  Zn  Zn7  1  0.330991  0.169011  0.250000  1
  Ru  Ru8  1  0.002609  0.005739  0.504989  1
  Ru  Ru9  1  0.002609  0.005739  0.995011  1
  Ru  Ru10  1  0.170995  0.826211  0.750000  1
  Ru  Ru11  1  0.655261  0.826167  0.750000  1
