# generated using pymatgen
data_Ba5TaRu4O15
_symmetry_space_group_name_H-M   'P 1'
_cell_length_a   10.12934889
_cell_length_b   11.79973496
_cell_length_c   13.16982300
_cell_angle_alpha   103.65576618
_cell_angle_beta   97.36368730
_cell_angle_gamma   106.62420947
_symmetry_Int_Tables_number   1
_chemical_formula_structural   Ba5TaRu4O15
_chemical_formula_sum   'Ba20 Ta4 Ru16 O60'
_cell_volume   1432.93083283
_cell_formula_units_Z   4
loop_
 _symmetry_equiv_pos_site_id
 _symmetry_equiv_pos_as_xyz
  1  'x, y, z'
loop_
 _atom_site_type_symbol
 _atom_site_label
 _atom_site_symmetry_multiplicity
 _atom_site_fract_x
 _atom_site_fract_y
 _atom_site_fract_z
 _atom_site_occupancy
  Ba  Ba0  1  0.514420  0.315928  0.455943  1
  Ba  Ba1  1  0.311136  0.917374  0.055059  1
  Ba  Ba2  1  0.114716  0.515854  0.656194  1
  Ba  Ba3  1  0.915717  0.114579  0.252623  1
  Ba  Ba4  1  0.718049  0.719559  0.857893  1
  Ba  Ba5  1  0.885284  0.484146  0.343806  1
  Ba  Ba6  1  0.688864  0.082626  0.944941  1
  Ba  Ba7  1  0.485580  0.684072  0.544057  1
  Ba  Ba8  1  0.281951  0.280441  0.142107  1
  Ba  Ba9  1  0.084283  0.885421  0.747377  1
  Ba  Ba10  1  0.451081  0.030706  0.646858  1
  Ba  Ba11  1  0.250474  0.630912  0.245580  1
  Ba  Ba12  1  0.050073  0.225435  0.849743  1
  Ba  Ba13  1  0.852173  0.831244  0.445608  1
  Ba  Ba14  1  0.651580  0.431269  0.046185  1
  Ba  Ba15  1  0.949927  0.774565  0.150257  1
  Ba  Ba16  1  0.749526  0.369088  0.754420  1
  Ba  Ba17  1  0.548919  0.969294  0.353142  1
  Ba  Ba18  1  0.348420  0.568731  0.953815  1
  Ba  Ba19  1  0.147827  0.168756  0.554392  1
  Ta  Ta20  1  0.599833  0.199952  0.199817  1
  Ta  Ta21  1  0.199881  0.399858  0.400023  1
  Ta  Ta22  1  0.800119  0.600142  0.599977  1
  Ta  Ta23  1  0.400167  0.800048  0.800183  1
  Ru  Ru24  1  0.164923  0.741749  0.506080  1
  Ru  Ru25  1  0.964865  0.340717  0.105317  1
  Ru  Ru26  1  0.765488  0.941879  0.706400  1
  Ru  Ru27  1  0.564259  0.541308  0.305505  1
  Ru  Ru28  1  0.364024  0.141242  0.905813  1
  Ru  Ru29  1  0.234512  0.058121  0.293600  1
  Ru  Ru30  1  0.035135  0.659283  0.894683  1
  Ru  Ru31  1  0.835077  0.258251  0.493920  1
  Ru  Ru32  1  0.635976  0.858758  0.094187  1
  Ru  Ru33  1  0.435741  0.458692  0.694495  1
  Ru  Ru34  1  0.199920  0.900118  0.399635  1
  Ru  Ru35  1  0.000000  0.500000  0.000000  1
  Ru  Ru36  1  0.800080  0.099882  0.600365  1
  Ru  Ru37  1  0.600246  0.700161  0.199775  1
  Ru  Ru38  1  0.399754  0.299839  0.800225  1
  Ru  Ru39  1  0.000000  0.000000  0.000000  1
  O  O40  1  0.337996  0.820836  0.453190  1
  O  O41  1  0.138340  0.420518  0.052602  1
  O  O42  1  0.938904  0.020608  0.652871  1
  O  O43  1  0.737391  0.620121  0.253245  1
  O  O44  1  0.537224  0.219231  0.853748  1
  O  O45  1  0.058461  0.726775  0.360206  1
  O  O46  1  0.857639  0.326752  0.959133  1
  O  O47  1  0.657901  0.925874  0.560647  1
  O  O48  1  0.457643  0.527210  0.159618  1
  O  O49  1  0.257465  0.126354  0.758891  1
  O  O50  1  0.151376  0.914242  0.546240  1
  O  O51  1  0.950948  0.511999  0.147235  1
  O  O52  1  0.750550  0.114744  0.746807  1
  O  O53  1  0.551034  0.714044  0.346141  1
  O  O54  1  0.351563  0.314872  0.947054  1
  O  O55  1  0.061096  0.979392  0.347129  1
  O  O56  1  0.861660  0.579482  0.947398  1
  O  O57  1  0.662004  0.179164  0.546810  1
  O  O58  1  0.462776  0.780769  0.146252  1
  O  O59  1  0.262609  0.379879  0.746755  1
  O  O60  1  0.342099  0.074126  0.439353  1
  O  O61  1  0.142361  0.673248  0.040867  1
  O  O62  1  0.941539  0.273225  0.639794  1
  O  O63  1  0.742535  0.873646  0.241109  1
  O  O64  1  0.542357  0.472790  0.840382  1
  O  O65  1  0.249450  0.885256  0.253193  1
  O  O66  1  0.049052  0.488001  0.852765  1
  O  O67  1  0.848624  0.085758  0.453760  1
  O  O68  1  0.648437  0.685128  0.052946  1
  O  O69  1  0.448966  0.285956  0.653859  1
  O  O70  1  0.421201  0.129538  0.247256  1
  O  O71  1  0.221260  0.729421  0.846978  1
  O  O72  1  0.021048  0.329501  0.447097  1
  O  O73  1  0.819634  0.928360  0.047712  1
  O  O74  1  0.620671  0.529431  0.646998  1
  O  O75  1  0.115680  0.026909  0.146378  1
  O  O76  1  0.914583  0.626887  0.744944  1
  O  O77  1  0.714975  0.227359  0.345159  1
  O  O78  1  0.514822  0.827202  0.944990  1
  O  O79  1  0.315088  0.427539  0.545070  1
  O  O80  1  0.216965  0.231577  0.349369  1
  O  O81  1  0.016882  0.829384  0.948781  1
  O  O82  1  0.816834  0.431416  0.549028  1
  O  O83  1  0.616776  0.031463  0.149385  1
  O  O84  1  0.416904  0.631407  0.748919  1
  O  O85  1  0.978952  0.670499  0.552903  1
  O  O86  1  0.778740  0.270579  0.153022  1
  O  O87  1  0.578799  0.870462  0.752744  1
  O  O88  1  0.379329  0.470569  0.353002  1
  O  O89  1  0.180366  0.071640  0.952288  1
  O  O90  1  0.285025  0.772641  0.654841  1
  O  O91  1  0.085417  0.373113  0.255056  1
  O  O92  1  0.884320  0.973091  0.853622  1
  O  O93  1  0.684912  0.572461  0.454930  1
  O  O94  1  0.485178  0.172798  0.055010  1
  O  O95  1  0.183166  0.568584  0.450972  1
  O  O96  1  0.983118  0.170616  0.051219  1
  O  O97  1  0.783035  0.768423  0.650631  1
  O  O98  1  0.583096  0.368593  0.251081  1
  O  O99  1  0.383224  0.968537  0.850615  1
