# generated using pymatgen
data_TiNb4Co16Si7Tc
_symmetry_space_group_name_H-M   'P 1'
_cell_length_a   7.88411109
_cell_length_b   7.88443995
_cell_length_c   7.89288287
_cell_angle_alpha   59.96182283
_cell_angle_beta   59.96595233
_cell_angle_gamma   60.04451004
_symmetry_Int_Tables_number   1
_chemical_formula_structural   TiNb4Co16Si7Tc
_chemical_formula_sum   'Ti1 Nb4 Co16 Si7 Tc1'
_cell_volume   346.85877857
_cell_formula_units_Z   1
loop_
 _symmetry_equiv_pos_site_id
 _symmetry_equiv_pos_as_xyz
  1  'x, y, z'
loop_
 _atom_site_type_symbol
 _atom_site_label
 _atom_site_symmetry_multiplicity
 _atom_site_fract_x
 _atom_site_fract_y
 _atom_site_fract_z
 _atom_site_occupancy
  Ti  Ti0  1  0.205776  0.794224  0.200915  1
  Nb  Nb1  1  0.801983  0.795570  0.199536  1
  Nb  Nb2  1  0.794525  0.205475  0.206593  1
  Nb  Nb3  1  0.204430  0.198017  0.797088  1
  Nb  Nb4  1  0.800602  0.199398  0.795988  1
  Co  Co5  1  0.618766  0.618731  0.142976  1
  Co  Co6  1  0.165940  0.498150  0.170748  1
  Co  Co7  1  0.856630  0.381067  0.380680  1
  Co  Co8  1  0.501850  0.834060  0.834838  1
  Co  Co9  1  0.502922  0.166957  0.166452  1
  Co  Co10  1  0.834393  0.836938  0.495022  1
  Co  Co11  1  0.166270  0.171093  0.496094  1
  Co  Co12  1  0.145300  0.619636  0.618760  1
  Co  Co13  1  0.163062  0.165607  0.166351  1
  Co  Co14  1  0.380695  0.384338  0.854211  1
  Co  Co15  1  0.615662  0.619305  0.619244  1
  Co  Co16  1  0.380364  0.854700  0.383696  1
  Co  Co17  1  0.381269  0.381234  0.380472  1
  Co  Co18  1  0.828907  0.833730  0.833456  1
  Co  Co19  1  0.618933  0.143370  0.618376  1
  Co  Co20  1  0.833043  0.497078  0.836334  1
  Si  Si21  1  0.495906  0.993890  0.504252  1
  Si  Si22  1  0.494137  0.505863  0.995564  1
  Si  Si23  1  0.501626  0.498374  0.497704  1
  Si  Si24  1  0.006849  0.993151  0.502964  1
  Si  Si25  1  0.006110  0.504094  0.994048  1
  Si  Si26  1  0.999400  0.503402  0.500781  1
  Si  Si27  1  0.496598  0.000600  0.003583  1
  Tc  Tc28  1  0.198058  0.801942  0.803271  1
