# generated using pymatgen
data_Tm3Al12IrRuRh2
_symmetry_space_group_name_H-M   'P 1'
_cell_length_a   8.78627244
_cell_length_b   8.78627247
_cell_length_c   9.48646713
_cell_angle_alpha   89.95131298
_cell_angle_beta   90.04868772
_cell_angle_gamma   119.93001616
_symmetry_Int_Tables_number   1
_chemical_formula_structural   Tm3Al12IrRuRh2
_chemical_formula_sum   'Tm6 Al24 Ir2 Ru2 Rh4'
_cell_volume   634.67310564
_cell_formula_units_Z   2
loop_
 _symmetry_equiv_pos_site_id
 _symmetry_equiv_pos_as_xyz
  1  'x, y, z'
loop_
 _atom_site_type_symbol
 _atom_site_label
 _atom_site_symmetry_multiplicity
 _atom_site_fract_x
 _atom_site_fract_y
 _atom_site_fract_z
 _atom_site_occupancy
  Tm  Tm0  1  0.806755  0.193245  0.751286  1
  Tm  Tm1  1  0.193245  0.806755  0.248714  1
  Tm  Tm2  1  0.385780  0.192220  0.750929  1
  Tm  Tm3  1  0.614220  0.807780  0.249071  1
  Tm  Tm4  1  0.807780  0.614220  0.750929  1
  Tm  Tm5  1  0.192220  0.385780  0.249071  1
  Al  Al6  1  0.666294  0.333706  0.970335  1
  Al  Al7  1  0.333706  0.666294  0.029665  1
  Al  Al8  1  0.333386  0.666614  0.469984  1
  Al  Al9  1  0.666614  0.333386  0.530016  1
  Al  Al10  1  0.836876  0.163124  0.421830  1
  Al  Al11  1  0.163124  0.836876  0.578170  1
  Al  Al12  1  0.326235  0.163342  0.422003  1
  Al  Al13  1  0.163346  0.836654  0.922531  1
  Al  Al14  1  0.673765  0.836658  0.577997  1
  Al  Al15  1  0.836654  0.163346  0.077469  1
  Al  Al16  1  0.836658  0.673765  0.422003  1
  Al  Al17  1  0.673550  0.836707  0.922111  1
  Al  Al18  1  0.163342  0.326235  0.577997  1
  Al  Al19  1  0.326450  0.163293  0.077889  1
  Al  Al20  1  0.163293  0.326450  0.922111  1
  Al  Al21  1  0.836707  0.673550  0.077889  1
  Al  Al22  1  0.438319  0.561681  0.750185  1
  Al  Al23  1  0.561681  0.438319  0.249815  1
  Al  Al24  1  0.124406  0.562273  0.749485  1
  Al  Al25  1  0.875594  0.437727  0.250515  1
  Al  Al26  1  0.437727  0.875594  0.749485  1
  Al  Al27  1  0.562273  0.124406  0.250515  1
  Al  Al28  1  0.000030  0.999970  0.750205  1
  Al  Al29  1  0.999970  0.000030  0.249795  1
  Ir  Ir30  1  0.000000  0.500000  0.000000  1
  Ir  Ir31  1  0.500000  0.000000  0.000000  1
  Ru  Ru32  1  0.000000  0.000000  0.000000  1
  Ru  Ru33  1  0.000000  0.000000  0.500000  1
  Rh  Rh34  1  0.500000  0.500000  0.000000  1
  Rh  Rh35  1  0.500000  0.500000  0.500000  1
  Rh  Rh36  1  0.000000  0.500000  0.500000  1
  Rh  Rh37  1  0.500000  0.000000  0.500000  1
