# generated using pymatgen
data_Ho2LuSc3CoBi2
_symmetry_space_group_name_H-M   'P 1'
_cell_length_a   7.99558001
_cell_length_b   7.95228007
_cell_length_c   4.09098700
_cell_angle_alpha   90.00000000
_cell_angle_beta   90.00000000
_cell_angle_gamma   119.82103143
_symmetry_Int_Tables_number   1
_chemical_formula_structural   Ho2LuSc3CoBi2
_chemical_formula_sum   'Ho2 Lu1 Sc3 Co1 Bi2'
_cell_volume   225.67360123
_cell_formula_units_Z   1
loop_
 _symmetry_equiv_pos_site_id
 _symmetry_equiv_pos_as_xyz
  1  'x, y, z'
loop_
 _atom_site_type_symbol
 _atom_site_label
 _atom_site_symmetry_multiplicity
 _atom_site_fract_x
 _atom_site_fract_y
 _atom_site_fract_z
 _atom_site_occupancy
  Ho  Ho0  1  0.385012  0.385230  0.500000  1
  Ho  Ho1  1  0.614988  0.000217  0.500000  1
  Lu  Lu2  1  0.000000  0.620331  0.500000  1
  Sc  Sc3  1  0.223472  0.000854  0.000000  1
  Sc  Sc4  1  0.776528  0.777382  0.000000  1
  Sc  Sc5  1  0.000000  0.223850  0.000000  1
  Co  Co6  1  0.000000  0.988899  0.500000  1
  Bi  Bi7  1  0.330705  0.666971  0.000000  1
  Bi  Bi8  1  0.669295  0.336265  0.000000  1
