# generated using pymatgen
data_Zr6Al16Cu4Ru2Pt
_symmetry_space_group_name_H-M   'P 1'
_cell_length_a   8.71666630
_cell_length_b   8.66512058
_cell_length_c   8.71666647
_cell_angle_alpha   60.19542040
_cell_angle_beta   59.58119791
_cell_angle_gamma   60.19542423
_symmetry_Int_Tables_number   1
_chemical_formula_structural   Zr6Al16Cu4Ru2Pt
_chemical_formula_sum   'Zr6 Al16 Cu4 Ru2 Pt1'
_cell_volume   465.40981467
_cell_formula_units_Z   1
loop_
 _symmetry_equiv_pos_site_id
 _symmetry_equiv_pos_as_xyz
  1  'x, y, z'
loop_
 _atom_site_type_symbol
 _atom_site_label
 _atom_site_symmetry_multiplicity
 _atom_site_fract_x
 _atom_site_fract_y
 _atom_site_fract_z
 _atom_site_occupancy
  Zr  Zr0  1  0.190348  0.812189  0.809652  1
  Zr  Zr1  1  0.809652  0.187811  0.190348  1
  Zr  Zr2  1  0.801211  0.198789  0.801211  1
  Zr  Zr3  1  0.809652  0.812189  0.190348  1
  Zr  Zr4  1  0.198789  0.801211  0.198789  1
  Zr  Zr5  1  0.190348  0.187811  0.809652  1
  Al  Al6  1  0.831249  0.838758  0.831249  1
  Al  Al7  1  0.834171  0.832951  0.499927  1
  Al  Al8  1  0.499927  0.832951  0.834171  1
  Al  Al9  1  0.831249  0.498744  0.831249  1
  Al  Al10  1  0.168751  0.161242  0.168751  1
  Al  Al11  1  0.165829  0.167049  0.500073  1
  Al  Al12  1  0.168751  0.501256  0.168751  1
  Al  Al13  1  0.500073  0.167049  0.165829  1
  Al  Al14  1  0.614103  0.627437  0.614103  1
  Al  Al15  1  0.618932  0.617754  0.145559  1
  Al  Al16  1  0.145559  0.617754  0.618932  1
  Al  Al17  1  0.614103  0.144356  0.614103  1
  Al  Al18  1  0.385897  0.372563  0.385897  1
  Al  Al19  1  0.381068  0.382246  0.854441  1
  Al  Al20  1  0.385897  0.855644  0.385897  1
  Al  Al21  1  0.854441  0.382246  0.381068  1
  Cu  Cu22  1  0.000000  0.500000  0.500000  1
  Cu  Cu23  1  0.500000  0.000000  0.000000  1
  Cu  Cu24  1  0.500000  0.500000  0.000000  1
  Cu  Cu25  1  0.000000  0.000000  0.500000  1
  Ru  Ru26  1  0.500000  0.000000  0.500000  1
  Ru  Ru27  1  0.500000  0.500000  0.500000  1
  Pt  Pt28  1  0.000000  0.500000  0.000000  1
