# generated using pymatgen
data_La3ZnCd3HgPd
_symmetry_space_group_name_H-M   'P 1'
_cell_length_a   7.96362400
_cell_length_b   7.96362340
_cell_length_c   4.20742700
_cell_angle_alpha   90.00000000
_cell_angle_beta   90.00000000
_cell_angle_gamma   120.00000248
_symmetry_Int_Tables_number   1
_chemical_formula_structural   La3ZnCd3HgPd
_chemical_formula_sum   'La3 Zn1 Cd3 Hg1 Pd1'
_cell_volume   231.08335877
_cell_formula_units_Z   1
loop_
 _symmetry_equiv_pos_site_id
 _symmetry_equiv_pos_as_xyz
  1  'x, y, z'
loop_
 _atom_site_type_symbol
 _atom_site_label
 _atom_site_symmetry_multiplicity
 _atom_site_fract_x
 _atom_site_fract_y
 _atom_site_fract_z
 _atom_site_occupancy
  La  La0  1  0.400866  0.419051  0.500000  1
  La  La1  1  0.580949  0.981816  0.500000  1
  La  La2  1  0.018184  0.599134  0.500000  1
  Zn  Zn3  1  0.000000  0.000000  0.500000  1
  Cd  Cd4  1  0.753620  0.757015  0.000000  1
  Cd  Cd5  1  0.242985  0.996606  0.000000  1
  Cd  Cd6  1  0.003394  0.246380  0.000000  1
  Hg  Hg7  1  0.666667  0.333333  0.000000  1
  Pd  Pd8  1  0.333333  0.666667  0.000000  1
