# generated using pymatgen
data_SrNd2VRuC6
_symmetry_space_group_name_H-M   'P 1'
_cell_length_a   8.49087032
_cell_length_b   8.47823617
_cell_length_c   5.21848800
_cell_angle_alpha   90.00000000
_cell_angle_beta   90.00000000
_cell_angle_gamma   120.20429148
_symmetry_Int_Tables_number   1
_chemical_formula_structural   SrNd2VRuC6
_chemical_formula_sum   'Sr2 Nd4 V2 Ru2 C12'
_cell_volume   324.66488909
_cell_formula_units_Z   2
loop_
 _symmetry_equiv_pos_site_id
 _symmetry_equiv_pos_as_xyz
  1  'x, y, z'
loop_
 _atom_site_type_symbol
 _atom_site_label
 _atom_site_symmetry_multiplicity
 _atom_site_fract_x
 _atom_site_fract_y
 _atom_site_fract_z
 _atom_site_occupancy
  Sr  Sr0  1  0.602188  0.681934  0.750000  1
  Sr  Sr1  1  0.918219  0.603114  0.250000  1
  Nd  Nd2  1  0.687602  0.070527  0.250000  1
  Nd  Nd3  1  0.308565  0.929096  0.750000  1
  Nd  Nd4  1  0.069609  0.383929  0.750000  1
  Nd  Nd5  1  0.381145  0.311875  0.250000  1
  V  V6  1  0.000117  0.999773  0.500235  1
  V  V7  1  0.000117  0.999773  0.999765  1
  Ru  Ru8  1  0.667503  0.329261  0.750000  1
  Ru  Ru9  1  0.336204  0.669497  0.250000  1
  C  C10  1  0.950626  0.767864  0.750000  1
  C  C11  1  0.185279  0.954818  0.250000  1
  C  C12  1  0.772590  0.824391  0.250000  1
  C  C13  1  0.232499  0.187997  0.750000  1
  C  C14  1  0.824606  0.049835  0.750000  1
  C  C15  1  0.046972  0.231674  0.250000  1
  C  C16  1  0.863170  0.584736  0.750000  1
  C  C17  1  0.282389  0.867740  0.250000  1
  C  C18  1  0.589667  0.725634  0.250000  1
  C  C19  1  0.417983  0.277962  0.750000  1
  C  C20  1  0.140742  0.417404  0.250000  1
  C  C21  1  0.722213  0.131168  0.750000  1
