# generated using pymatgen
data_Dy2Sc3Co16(MoP4)3
_symmetry_space_group_name_H-M   'P 1'
_cell_length_a   11.97650300
_cell_length_b   11.97650325
_cell_length_c   3.66280400
_cell_angle_alpha   90.00000000
_cell_angle_beta   90.00000000
_cell_angle_gamma   119.99999103
_symmetry_Int_Tables_number   1
_chemical_formula_structural   Dy2Sc3Co16(MoP4)3
_chemical_formula_sum   'Dy2 Sc3 Co16 Mo3 P12'
_cell_volume   454.99268555
_cell_formula_units_Z   1
loop_
 _symmetry_equiv_pos_site_id
 _symmetry_equiv_pos_as_xyz
  1  'x, y, z'
loop_
 _atom_site_type_symbol
 _atom_site_label
 _atom_site_symmetry_multiplicity
 _atom_site_fract_x
 _atom_site_fract_y
 _atom_site_fract_z
 _atom_site_occupancy
  Dy  Dy0  1  0.666667  0.333333  0.000000  1
  Dy  Dy1  1  0.333333  0.666667  0.000000  1
  Sc  Sc2  1  0.184561  0.184561  0.500000  1
  Sc  Sc3  1  0.815439  0.000000  0.500000  1
  Sc  Sc4  1  0.000000  0.815439  0.500000  1
  Co  Co5  1  0.823645  0.194815  0.000000  1
  Co  Co6  1  0.805185  0.628830  0.000000  1
  Co  Co7  1  0.371170  0.176355  0.000000  1
  Co  Co8  1  0.194815  0.823645  0.000000  1
  Co  Co9  1  0.628830  0.805185  0.000000  1
  Co  Co10  1  0.176355  0.371170  0.000000  1
  Co  Co11  1  0.646190  0.126552  0.500000  1
  Co  Co12  1  0.873448  0.519639  0.500000  1
  Co  Co13  1  0.480361  0.353810  0.500000  1
  Co  Co14  1  0.126552  0.646190  0.500000  1
  Co  Co15  1  0.519639  0.873448  0.500000  1
  Co  Co16  1  0.353810  0.480361  0.500000  1
  Co  Co17  1  0.722849  0.722849  0.500000  1
  Co  Co18  1  0.277151  0.000000  0.500000  1
  Co  Co19  1  0.000000  0.277151  0.500000  1
  Co  Co20  1  0.000000  0.000000  0.000000  1
  Mo  Mo21  1  0.552590  0.552590  0.000000  1
  Mo  Mo22  1  0.447410  0.000000  0.000000  1
  Mo  Mo23  1  0.000000  0.447410  0.000000  1
  P  P24  1  0.356616  0.356616  0.000000  1
  P  P25  1  0.643384  0.000000  0.000000  1
  P  P26  1  0.000000  0.643384  0.000000  1
  P  P27  1  0.835275  0.313736  0.500000  1
  P  P28  1  0.686264  0.521539  0.500000  1
  P  P29  1  0.478461  0.164725  0.500000  1
  P  P30  1  0.313736  0.835275  0.500000  1
  P  P31  1  0.521539  0.686264  0.500000  1
  P  P32  1  0.164725  0.478461  0.500000  1
  P  P33  1  0.825308  0.825308  0.000000  1
  P  P34  1  0.174692  0.000000  0.000000  1
  P  P35  1  0.000000  0.174692  0.000000  1
