# generated using pymatgen
data_Th4AlZn3Ir4
_symmetry_space_group_name_H-M   'P 1'
_cell_length_a   7.02344320
_cell_length_b   4.23527700
_cell_length_c   8.32911886
_cell_angle_alpha   90.00000000
_cell_angle_beta   89.45792740
_cell_angle_gamma   90.00000000
_symmetry_Int_Tables_number   1
_chemical_formula_structural   Th4AlZn3Ir4
_chemical_formula_sum   'Th4 Al1 Zn3 Ir4'
_cell_volume   247.74877557
_cell_formula_units_Z   1
loop_
 _symmetry_equiv_pos_site_id
 _symmetry_equiv_pos_as_xyz
  1  'x, y, z'
loop_
 _atom_site_type_symbol
 _atom_site_label
 _atom_site_symmetry_multiplicity
 _atom_site_fract_x
 _atom_site_fract_y
 _atom_site_fract_z
 _atom_site_occupancy
  Th  Th0  1  0.963423  0.250000  0.189554  1
  Th  Th1  1  0.457640  0.250000  0.315120  1
  Th  Th2  1  0.040007  0.750000  0.813216  1
  Th  Th3  1  0.540297  0.750000  0.684081  1
  Al  Al4  1  0.630634  0.750000  0.057622  1
  Zn  Zn5  1  0.866583  0.250000  0.562316  1
  Zn  Zn6  1  0.367280  0.250000  0.937267  1
  Zn  Zn7  1  0.129506  0.750000  0.439882  1
  Ir  Ir8  1  0.751317  0.250000  0.888550  1
  Ir  Ir9  1  0.253084  0.250000  0.622855  1
  Ir  Ir10  1  0.255657  0.750000  0.120721  1
  Ir  Ir11  1  0.744572  0.750000  0.368818  1
