# generated using pymatgen
data_TbHo4VMoO12
_symmetry_space_group_name_H-M   'P 1'
_cell_length_a   6.79780597
_cell_length_b   6.79807137
_cell_length_c   7.30253074
_cell_angle_alpha   74.40160083
_cell_angle_beta   74.40017884
_cell_angle_gamma   51.74745705
_symmetry_Int_Tables_number   1
_chemical_formula_structural   TbHo4VMoO12
_chemical_formula_sum   'Tb1 Ho4 V1 Mo1 O12'
_cell_volume   252.89525421
_cell_formula_units_Z   1
loop_
 _symmetry_equiv_pos_site_id
 _symmetry_equiv_pos_as_xyz
  1  'x, y, z'
loop_
 _atom_site_type_symbol
 _atom_site_label
 _atom_site_symmetry_multiplicity
 _atom_site_fract_x
 _atom_site_fract_y
 _atom_site_fract_z
 _atom_site_occupancy
  Tb  Tb0  1  0.312912  0.293910  0.361348  1
  Ho  Ho1  1  0.705853  0.686790  0.639393  1
  Ho  Ho2  1  0.313285  0.307482  0.826205  1
  Ho  Ho3  1  0.692614  0.686834  0.174277  1
  Ho  Ho4  1  0.002923  0.996243  0.500512  1
  V  V5  1  0.744725  0.255749  0.999410  1
  Mo  Mo6  1  0.231541  0.768913  0.999532  1
  O  O7  1  0.897435  0.425951  0.917967  1
  O  O8  1  0.429043  0.899231  0.916747  1
  O  O9  1  0.100342  0.571794  0.081754  1
  O  O10  1  0.575187  0.101977  0.080094  1
  O  O11  1  0.102459  0.592491  0.576060  1
  O  O12  1  0.601254  0.088703  0.578387  1
  O  O13  1  0.907598  0.400879  0.424064  1
  O  O14  1  0.409402  0.894030  0.426166  1
  O  O15  1  0.990564  0.011149  0.813158  1
  O  O16  1  0.989258  0.009918  0.186290  1
  O  O17  1  0.496001  0.503201  0.810701  1
  O  O18  1  0.497602  0.504756  0.187933  1
