# generated using pymatgen
data_Yb2Zn2AgRh
_symmetry_space_group_name_H-M   'P 1'
_cell_length_a   4.15535300
_cell_length_b   7.18619395
_cell_length_c   8.10574628
_cell_angle_alpha   89.44984570
_cell_angle_beta   90.00000000
_cell_angle_gamma   90.00000000
_symmetry_Int_Tables_number   1
_chemical_formula_structural   Yb2Zn2AgRh
_chemical_formula_sum   'Yb4 Zn4 Ag2 Rh2'
_cell_volume   242.03593022
_cell_formula_units_Z   2
loop_
 _symmetry_equiv_pos_site_id
 _symmetry_equiv_pos_as_xyz
  1  'x, y, z'
loop_
 _atom_site_type_symbol
 _atom_site_label
 _atom_site_symmetry_multiplicity
 _atom_site_fract_x
 _atom_site_fract_y
 _atom_site_fract_z
 _atom_site_occupancy
  Yb  Yb0  1  0.250000  0.537174  0.199482  1
  Yb  Yb1  1  0.750000  0.462826  0.800518  1
  Yb  Yb2  1  0.750000  0.984760  0.670290  1
  Yb  Yb3  1  0.250000  0.015240  0.329710  1
  Zn  Zn4  1  0.250000  0.639063  0.557604  1
  Zn  Zn5  1  0.750000  0.360937  0.442396  1
  Zn  Zn6  1  0.750000  0.842933  0.077451  1
  Zn  Zn7  1  0.250000  0.157067  0.922549  1
  Ag  Ag8  1  0.250000  0.773598  0.875314  1
  Ag  Ag9  1  0.750000  0.226402  0.124686  1
  Rh  Rh10  1  0.750000  0.728425  0.378260  1
  Rh  Rh11  1  0.250000  0.271575  0.621740  1
