# generated using pymatgen
data_YbCeNiAs2
_symmetry_space_group_name_H-M   'P 1'
_cell_length_a   4.15991200
_cell_length_b   4.15991209
_cell_length_c   14.44273600
_cell_angle_alpha   90.00000000
_cell_angle_beta   90.00000000
_cell_angle_gamma   120.00001516
_symmetry_Int_Tables_number   1
_chemical_formula_structural   YbCeNiAs2
_chemical_formula_sum   'Yb2 Ce2 Ni2 As4'
_cell_volume   216.44538732
_cell_formula_units_Z   2
loop_
 _symmetry_equiv_pos_site_id
 _symmetry_equiv_pos_as_xyz
  1  'x, y, z'
loop_
 _atom_site_type_symbol
 _atom_site_label
 _atom_site_symmetry_multiplicity
 _atom_site_fract_x
 _atom_site_fract_y
 _atom_site_fract_z
 _atom_site_occupancy
  Yb  Yb0  1  0.666667  0.333333  0.355803  1
  Yb  Yb1  1  0.333333  0.666667  0.855803  1
  Ce  Ce2  1  0.666667  0.333333  0.617964  1
  Ce  Ce3  1  0.333333  0.666667  0.117964  1
  Ni  Ni4  1  0.000000  0.000000  0.983521  1
  Ni  Ni5  1  0.000000  0.000000  0.483521  1
  As  As6  1  0.666667  0.333333  0.992638  1
  As  As7  1  0.333333  0.666667  0.492638  1
  As  As8  1  0.000000  0.000000  0.734405  1
  As  As9  1  0.000000  0.000000  0.234405  1
