# generated using pymatgen
data_Sr4YbHo(PtO6)2
_symmetry_space_group_name_H-M   'P 1'
_cell_length_a   5.80483829
_cell_length_b   5.89214649
_cell_length_c   8.24818070
_cell_angle_alpha   90.14593425
_cell_angle_beta   90.39157038
_cell_angle_gamma   89.98633699
_symmetry_Int_Tables_number   1
_chemical_formula_structural   Sr4YbHo(PtO6)2
_chemical_formula_sum   'Sr4 Yb1 Ho1 Pt2 O12'
_cell_volume   282.10466417
_cell_formula_units_Z   1
loop_
 _symmetry_equiv_pos_site_id
 _symmetry_equiv_pos_as_xyz
  1  'x, y, z'
loop_
 _atom_site_type_symbol
 _atom_site_label
 _atom_site_symmetry_multiplicity
 _atom_site_fract_x
 _atom_site_fract_y
 _atom_site_fract_z
 _atom_site_occupancy
  Sr  Sr0  1  0.009741  0.043882  0.253762  1
  Sr  Sr1  1  0.490550  0.540168  0.254522  1
  Sr  Sr2  1  0.509450  0.459832  0.745478  1
  Sr  Sr3  1  0.990259  0.956118  0.746238  1
  Yb  Yb4  1  0.999999  0.500001  0.500000  1
  Ho  Ho5  1  0.500000  0.000000  0.999999  1
  Pt  Pt6  1  0.000000  0.500001  0.000000  1
  Pt  Pt7  1  0.499999  0.000000  0.500001  1
  O  O8  1  0.275762  0.299933  0.040405  1
  O  O9  1  0.196204  0.776371  0.042335  1
  O  O10  1  0.924185  0.480051  0.232518  1
  O  O11  1  0.576678  0.979947  0.262647  1
  O  O12  1  0.307583  0.272934  0.459105  1
  O  O13  1  0.227138  0.803373  0.461089  1
  O  O14  1  0.772863  0.196626  0.538910  1
  O  O15  1  0.692418  0.727066  0.540897  1
  O  O16  1  0.423320  0.020053  0.737353  1
  O  O17  1  0.075816  0.519949  0.767482  1
  O  O18  1  0.803797  0.223629  0.957665  1
  O  O19  1  0.724237  0.700066  0.959595  1
