# generated using pymatgen
data_Dy13Th7Sn15Bi
_symmetry_space_group_name_H-M   'P 1'
_cell_length_a   8.13211392
_cell_length_b   8.23280209
_cell_length_c   15.55191344
_cell_angle_alpha   90.11045622
_cell_angle_beta   90.36354644
_cell_angle_gamma   89.89606402
_symmetry_Int_Tables_number   1
_chemical_formula_structural   Dy13Th7Sn15Bi
_chemical_formula_sum   'Dy13 Th7 Sn15 Bi1'
_cell_volume   1041.17733361
_cell_formula_units_Z   1
loop_
 _symmetry_equiv_pos_site_id
 _symmetry_equiv_pos_as_xyz
  1  'x, y, z'
loop_
 _atom_site_type_symbol
 _atom_site_label
 _atom_site_symmetry_multiplicity
 _atom_site_fract_x
 _atom_site_fract_y
 _atom_site_fract_z
 _atom_site_occupancy
  Dy  Dy0  1  0.364707  0.833621  0.875036  1
  Dy  Dy1  1  0.861308  0.662827  0.623754  1
  Dy  Dy2  1  0.637430  0.163434  0.376396  1
  Dy  Dy3  1  0.131570  0.340795  0.123832  1
  Dy  Dy4  1  0.639462  0.164119  0.123163  1
  Dy  Dy5  1  0.138297  0.336544  0.376364  1
  Dy  Dy6  1  0.362252  0.838141  0.624749  1
  Dy  Dy7  1  0.866187  0.662950  0.876361  1
  Dy  Dy8  1  0.527573  0.326919  0.899195  1
  Dy  Dy9  1  0.192229  0.498109  0.750138  1
  Dy  Dy10  1  0.692634  0.001836  0.750419  1
  Dy  Dy11  1  0.807280  0.502671  0.250499  1
  Dy  Dy12  1  0.307837  0.996743  0.252727  1
  Th  Th13  1  0.019951  0.179365  0.597537  1
  Th  Th14  1  0.481825  0.679543  0.403648  1
  Th  Th15  1  0.972852  0.817902  0.097827  1
  Th  Th16  1  0.481327  0.676086  0.097545  1
  Th  Th17  1  0.981754  0.820564  0.404204  1
  Th  Th18  1  0.517103  0.320236  0.595490  1
  Th  Th19  1  0.015298  0.180403  0.902010  1
  Sn  Sn20  1  0.798323  0.460498  0.457904  1
  Sn  Sn21  1  0.702050  0.961431  0.542341  1
  Sn  Sn22  1  0.209225  0.533573  0.957224  1
  Sn  Sn23  1  0.703353  0.961578  0.956743  1
  Sn  Sn24  1  0.201205  0.540837  0.541940  1
  Sn  Sn25  1  0.297989  0.039027  0.458670  1
  Sn  Sn26  1  0.794225  0.459890  0.040813  1
  Sn  Sn27  1  0.559358  0.620817  0.749044  1
  Sn  Sn28  1  0.058768  0.879013  0.750457  1
  Sn  Sn29  1  0.440483  0.377188  0.249075  1
  Sn  Sn30  1  0.941804  0.121277  0.249440  1
  Sn  Sn31  1  0.328962  0.145669  0.752634  1
  Sn  Sn32  1  0.824220  0.358123  0.749341  1
  Sn  Sn33  1  0.673707  0.857790  0.250328  1
  Sn  Sn34  1  0.173217  0.643019  0.250173  1
  Bi  Bi35  1  0.294232  0.037461  0.042981  1
