# generated using pymatgen
data_Tb10(PdRu)3
_symmetry_space_group_name_H-M   'P 1'
_cell_length_a   11.02185826
_cell_length_b   11.01004100
_cell_length_c   6.45688513
_cell_angle_alpha   90.00044562
_cell_angle_beta   89.95184212
_cell_angle_gamma   90.00010417
_symmetry_Int_Tables_number   1
_chemical_formula_structural   Tb10(PdRu)3
_chemical_formula_sum   'Tb20 Pd6 Ru6'
_cell_volume   783.54990956
_cell_formula_units_Z   2
loop_
 _symmetry_equiv_pos_site_id
 _symmetry_equiv_pos_as_xyz
  1  'x, y, z'
loop_
 _atom_site_type_symbol
 _atom_site_label
 _atom_site_symmetry_multiplicity
 _atom_site_fract_x
 _atom_site_fract_y
 _atom_site_fract_z
 _atom_site_occupancy
  Tb  Tb0  1  0.298091  0.085852  0.374217  1
  Tb  Tb1  1  0.298091  0.914149  0.874218  1
  Tb  Tb2  1  0.709613  0.083726  0.877786  1
  Tb  Tb3  1  0.709611  0.916279  0.377771  1
  Tb  Tb4  1  0.593178  0.797772  0.871744  1
  Tb  Tb5  1  0.593184  0.202224  0.371739  1
  Tb  Tb6  1  0.416563  0.797883  0.372171  1
  Tb  Tb7  1  0.416562  0.202117  0.872171  1
  Tb  Tb8  1  0.201311  0.415668  0.628720  1
  Tb  Tb9  1  0.201311  0.584331  0.128718  1
  Tb  Tb10  1  0.796617  0.408683  0.127626  1
  Tb  Tb11  1  0.796613  0.591309  0.627622  1
  Tb  Tb12  1  0.911066  0.704915  0.119969  1
  Tb  Tb13  1  0.911065  0.295082  0.619957  1
  Tb  Tb14  1  0.079546  0.707692  0.628049  1
  Tb  Tb15  1  0.079541  0.292306  0.128050  1
  Tb  Tb16  1  0.994489  0.001838  0.499840  1
  Tb  Tb17  1  0.994491  0.998173  0.999856  1
  Tb  Tb18  1  0.499892  0.500885  0.000083  1
  Tb  Tb19  1  0.499892  0.499115  0.500083  1
  Pd  Pd20  1  0.155223  0.153966  0.749992  1
  Pd  Pd21  1  0.155222  0.846034  0.249992  1
  Pd  Pd22  1  0.652040  0.347153  0.750439  1
  Pd  Pd23  1  0.652040  0.652846  0.250439  1
  Pd  Pd24  1  0.345799  0.346475  0.249586  1
  Pd  Pd25  1  0.345800  0.653525  0.749586  1
  Ru  Ru26  1  0.847713  0.154482  0.249378  1
  Ru  Ru27  1  0.847713  0.845520  0.749378  1
  Ru  Ru28  1  0.498244  0.000136  0.123788  1
  Ru  Ru29  1  0.498247  0.999864  0.623787  1
  Ru  Ru30  1  0.000616  0.499880  0.876623  1
  Ru  Ru31  1  0.000616  0.500121  0.376622  1
