# generated using pymatgen
data_Ho8Hf11Si16Au
_symmetry_space_group_name_H-M   'P 1'
_cell_length_a   7.27763963
_cell_length_b   7.27763933
_cell_length_c   13.23288463
_cell_angle_alpha   89.78667753
_cell_angle_beta   90.21332398
_cell_angle_gamma   89.89549669
_symmetry_Int_Tables_number   1
_chemical_formula_structural   Ho8Hf11Si16Au
_chemical_formula_sum   'Ho8 Hf11 Si16 Au1'
_cell_volume   700.85608405
_cell_formula_units_Z   1
loop_
 _symmetry_equiv_pos_site_id
 _symmetry_equiv_pos_as_xyz
  1  'x, y, z'
loop_
 _atom_site_type_symbol
 _atom_site_label
 _atom_site_symmetry_multiplicity
 _atom_site_fract_x
 _atom_site_fract_y
 _atom_site_fract_z
 _atom_site_occupancy
  Ho  Ho0  1  0.997873  0.346117  0.210608  1
  Ho  Ho1  1  0.004980  0.654717  0.716589  1
  Ho  Ho2  1  0.154771  0.495654  0.464733  1
  Ho  Ho3  1  0.498207  0.848455  0.032736  1
  Ho  Ho4  1  0.848455  0.498207  0.967264  1
  Ho  Ho5  1  0.495654  0.154771  0.535267  1
  Ho  Ho6  1  0.346117  0.997873  0.789392  1
  Ho  Ho7  1  0.654717  0.004980  0.283411  1
  Hf  Hf8  1  0.824788  0.824788  0.500000  1
  Hf  Hf9  1  0.322925  0.677083  0.249015  1
  Hf  Hf10  1  0.677083  0.322925  0.750985  1
  Hf  Hf11  1  0.145243  0.996940  0.373912  1
  Hf  Hf12  1  0.857287  0.003068  0.879010  1
  Hf  Hf13  1  0.504152  0.646494  0.626472  1
  Hf  Hf14  1  0.355649  0.491995  0.877637  1
  Hf  Hf15  1  0.491995  0.355649  0.122363  1
  Hf  Hf16  1  0.646494  0.504152  0.373528  1
  Hf  Hf17  1  0.996940  0.145243  0.626088  1
  Hf  Hf18  1  0.003068  0.857287  0.120990  1
  Si  Si19  1  0.358939  0.296118  0.316692  1
  Si  Si20  1  0.640948  0.704288  0.820189  1
  Si  Si21  1  0.207094  0.860470  0.569006  1
  Si  Si22  1  0.131960  0.774653  0.926552  1
  Si  Si23  1  0.774653  0.131960  0.073448  1
  Si  Si24  1  0.860470  0.207094  0.430994  1
  Si  Si25  1  0.296118  0.358939  0.683308  1
  Si  Si26  1  0.704288  0.640948  0.179811  1
  Si  Si27  1  0.295715  0.052392  0.188647  1
  Si  Si28  1  0.704374  0.950351  0.686859  1
  Si  Si29  1  0.450044  0.796287  0.435547  1
  Si  Si30  1  0.209503  0.565965  0.064161  1
  Si  Si31  1  0.565965  0.209503  0.935839  1
  Si  Si32  1  0.796287  0.450044  0.564453  1
  Si  Si33  1  0.052392  0.295715  0.811353  1
  Si  Si34  1  0.950351  0.704374  0.313141  1
  Au  Au35  1  0.174497  0.174497  0.000000  1
