# generated using pymatgen
data_SrNd6FeCl12
_symmetry_space_group_name_H-M   'P 1'
_cell_length_a   9.29540698
_cell_length_b   9.13084829
_cell_length_c   9.11980792
_cell_angle_alpha   105.59043530
_cell_angle_beta   106.01998784
_cell_angle_gamma   106.12033754
_symmetry_Int_Tables_number   1
_chemical_formula_structural   SrNd6FeCl12
_chemical_formula_sum   'Sr1 Nd6 Fe1 Cl12'
_cell_volume   662.84838648
_cell_formula_units_Z   1
loop_
 _symmetry_equiv_pos_site_id
 _symmetry_equiv_pos_as_xyz
  1  'x, y, z'
loop_
 _atom_site_type_symbol
 _atom_site_label
 _atom_site_symmetry_multiplicity
 _atom_site_fract_x
 _atom_site_fract_y
 _atom_site_fract_z
 _atom_site_occupancy
  Sr  Sr0  1  0.500000  0.500000  0.500000  1
  Nd  Nd1  1  0.318600  0.111435  0.013944  1
  Nd  Nd2  1  0.015367  0.305746  0.104629  1
  Nd  Nd3  1  0.104616  0.014764  0.306259  1
  Nd  Nd4  1  0.895383  0.985236  0.693741  1
  Nd  Nd5  1  0.984633  0.694254  0.895370  1
  Nd  Nd6  1  0.681400  0.888565  0.986055  1
  Fe  Fe7  1  0.000000  0.000000  0.000000  1
  Cl  Cl8  1  0.681503  0.210410  0.072347  1
  Cl  Cl9  1  0.356426  0.444724  0.152220  1
  Cl  Cl10  1  0.071224  0.678705  0.211813  1
  Cl  Cl11  1  0.790757  0.928978  0.322117  1
  Cl  Cl12  1  0.441321  0.152284  0.356428  1
  Cl  Cl13  1  0.156323  0.358343  0.444148  1
  Cl  Cl14  1  0.843678  0.641657  0.555853  1
  Cl  Cl15  1  0.558679  0.847717  0.643572  1
  Cl  Cl16  1  0.209242  0.071022  0.677883  1
  Cl  Cl17  1  0.928776  0.321295  0.788186  1
  Cl  Cl18  1  0.643575  0.555277  0.847780  1
  Cl  Cl19  1  0.318497  0.789589  0.927653  1
