# generated using pymatgen
data_Ta3Bi2Sb3O16
_symmetry_space_group_name_H-M   'P 1'
_cell_length_a   5.00528509
_cell_length_b   5.66610600
_cell_length_c   11.90047611
_cell_angle_alpha   90.00000000
_cell_angle_beta   89.83653749
_cell_angle_gamma   90.00000000
_symmetry_Int_Tables_number   1
_chemical_formula_structural   Ta3Bi2Sb3O16
_chemical_formula_sum   'Ta3 Bi2 Sb3 O16'
_cell_volume   337.50179225
_cell_formula_units_Z   1
loop_
 _symmetry_equiv_pos_site_id
 _symmetry_equiv_pos_as_xyz
  1  'x, y, z'
loop_
 _atom_site_type_symbol
 _atom_site_label
 _atom_site_symmetry_multiplicity
 _atom_site_fract_x
 _atom_site_fract_y
 _atom_site_fract_z
 _atom_site_occupancy
  Ta  Ta0  1  0.750000  0.123293  0.250000  1
  Ta  Ta1  1  0.250000  0.873827  0.750000  1
  Ta  Ta2  1  0.750000  0.370964  0.750000  1
  Bi  Bi3  1  0.733427  0.749599  0.498396  1
  Bi  Bi4  1  0.766573  0.749599  0.001604  1
  Sb  Sb5  1  0.306002  0.245950  0.501579  1
  Sb  Sb6  1  0.193998  0.245950  0.998421  1
  Sb  Sb7  1  0.250000  0.616969  0.250000  1
  O  O8  1  0.408585  0.576712  0.405465  1
  O  O9  1  0.507381  0.649540  0.805472  1
  O  O10  1  0.005696  0.147964  0.698015  1
  O  O11  1  0.913370  0.087758  0.096850  1
  O  O12  1  0.002801  0.356815  0.302023  1
  O  O13  1  0.586630  0.087758  0.403150  1
  O  O14  1  0.091415  0.576712  0.094535  1
  O  O15  1  0.506756  0.855175  0.190663  1
  O  O16  1  0.415167  0.926487  0.596976  1
  O  O17  1  0.993244  0.855175  0.309337  1
  O  O18  1  0.497199  0.356815  0.197977  1
  O  O19  1  0.084833  0.926487  0.903024  1
  O  O20  1  0.914498  0.411474  0.904098  1
  O  O21  1  0.494304  0.147964  0.801985  1
  O  O22  1  0.992619  0.649540  0.694528  1
  O  O23  1  0.585502  0.411474  0.595902  1
