# generated using pymatgen
data_Hf8FeCoIr2
_symmetry_space_group_name_H-M   'P 1'
_cell_length_a   8.59559632
_cell_length_b   8.59559624
_cell_length_c   8.59492200
_cell_angle_alpha   60.00260245
_cell_angle_beta   60.00260275
_cell_angle_gamma   60.09290739
_symmetry_Int_Tables_number   1
_chemical_formula_structural   Hf8FeCoIr2
_chemical_formula_sum   'Hf16 Fe2 Co2 Ir4'
_cell_volume   449.36586480
_cell_formula_units_Z   2
loop_
 _symmetry_equiv_pos_site_id
 _symmetry_equiv_pos_as_xyz
  1  'x, y, z'
loop_
 _atom_site_type_symbol
 _atom_site_label
 _atom_site_symmetry_multiplicity
 _atom_site_fract_x
 _atom_site_fract_y
 _atom_site_fract_z
 _atom_site_occupancy
  Hf  Hf0  1  0.687331  0.104474  0.104097  1
  Hf  Hf1  1  0.104474  0.687331  0.104097  1
  Hf  Hf2  1  0.103991  0.103991  0.688134  1
  Hf  Hf3  1  0.103991  0.103991  0.103886  1
  Hf  Hf4  1  0.311597  0.311597  0.688403  1
  Hf  Hf5  1  0.687080  0.687080  0.312920  1
  Hf  Hf6  1  0.313080  0.687601  0.311744  1
  Hf  Hf7  1  0.687601  0.313080  0.687575  1
  Hf  Hf8  1  0.687601  0.313080  0.311744  1
  Hf  Hf9  1  0.313080  0.687601  0.687575  1
  Hf  Hf10  1  0.948244  0.948244  0.551756  1
  Hf  Hf11  1  0.554303  0.554303  0.945697  1
  Hf  Hf12  1  0.946836  0.551905  0.946516  1
  Hf  Hf13  1  0.551905  0.946836  0.554745  1
  Hf  Hf14  1  0.551905  0.946836  0.946516  1
  Hf  Hf15  1  0.946836  0.551905  0.554745  1
  Fe  Fe16  1  0.325034  0.891838  0.891564  1
  Fe  Fe17  1  0.891838  0.325034  0.891564  1
  Co  Co18  1  0.891345  0.891345  0.325644  1
  Co  Co19  1  0.891345  0.891345  0.891667  1
  Ir  Ir20  1  0.996888  0.334279  0.334417  1
  Ir  Ir21  1  0.334279  0.996888  0.334417  1
  Ir  Ir22  1  0.334713  0.334713  0.996511  1
  Ir  Ir23  1  0.334713  0.334713  0.334064  1
