# generated using pymatgen
data_Tc2NiO8
_symmetry_space_group_name_H-M   'P 1'
_cell_length_a   5.65817000
_cell_length_b   5.65820599
_cell_length_c   6.46081000
_cell_angle_alpha   89.99755960
_cell_angle_beta   89.99778236
_cell_angle_gamma   119.99994149
_symmetry_Int_Tables_number   1
_chemical_formula_structural   Tc2NiO8
_chemical_formula_sum   'Tc2 Ni1 O8'
_cell_volume   179.13176358
_cell_formula_units_Z   1
loop_
 _symmetry_equiv_pos_site_id
 _symmetry_equiv_pos_as_xyz
  1  'x, y, z'
loop_
 _atom_site_type_symbol
 _atom_site_label
 _atom_site_symmetry_multiplicity
 _atom_site_fract_x
 _atom_site_fract_y
 _atom_site_fract_z
 _atom_site_occupancy
  Tc  Tc0  1  0.333267  0.666636  0.277698  1
  Tc  Tc1  1  0.666678  0.333387  0.722284  1
  Ni  Ni2  1  0.000081  0.999901  0.000091  1
  O  O3  1  0.166879  0.834864  0.186960  1
  O  O4  1  0.165022  0.332011  0.187000  1
  O  O5  1  0.333292  0.666658  0.543870  1
  O  O6  1  0.332069  0.167010  0.813059  1
  O  O7  1  0.667875  0.833006  0.186923  1
  O  O8  1  0.666654  0.333359  0.456108  1
  O  O9  1  0.834920  0.668012  0.812986  1
  O  O10  1  0.833065  0.165156  0.813023  1
