# generated using pymatgen
data_RbOsCl6
_symmetry_space_group_name_H-M   'P 1'
_cell_length_a   6.93729195
_cell_length_b   6.93729190
_cell_length_c   12.45004199
_cell_angle_alpha   79.19170636
_cell_angle_beta   79.19170833
_cell_angle_gamma   55.74306608
_symmetry_Int_Tables_number   1
_chemical_formula_structural   RbOsCl6
_chemical_formula_sum   'Rb2 Os2 Cl12'
_cell_volume   483.95697823
_cell_formula_units_Z   2
loop_
 _symmetry_equiv_pos_site_id
 _symmetry_equiv_pos_as_xyz
  1  'x, y, z'
loop_
 _atom_site_type_symbol
 _atom_site_label
 _atom_site_symmetry_multiplicity
 _atom_site_fract_x
 _atom_site_fract_y
 _atom_site_fract_z
 _atom_site_occupancy
  Rb  Rb0  1  0.885357  0.114643  0.750000  1
  Rb  Rb1  1  0.114643  0.885357  0.250000  1
  Os  Os2  1  0.500000  0.000000  0.500000  1
  Os  Os3  1  0.000000  0.500000  0.000000  1
  Cl  Cl4  1  0.461742  0.705131  0.603065  1
  Cl  Cl5  1  0.538258  0.294869  0.396935  1
  Cl  Cl6  1  0.294869  0.538258  0.896935  1
  Cl  Cl7  1  0.705131  0.461742  0.103065  1
  Cl  Cl8  1  0.373907  0.195451  0.656194  1
  Cl  Cl9  1  0.626093  0.804549  0.343806  1
  Cl  Cl10  1  0.804549  0.626093  0.843806  1
  Cl  Cl11  1  0.195451  0.373907  0.156194  1
  Cl  Cl12  1  0.802415  0.885348  0.038634  1
  Cl  Cl13  1  0.197585  0.114652  0.961366  1
  Cl  Cl14  1  0.114652  0.197585  0.461366  1
  Cl  Cl15  1  0.885348  0.802415  0.538634  1
