# generated using pymatgen
data_Tb4Y6Tm2Co5Bi
_symmetry_space_group_name_H-M   'P 1'
_cell_length_a   8.33433744
_cell_length_b   8.35577986
_cell_length_c   8.33433787
_cell_angle_alpha   110.80395240
_cell_angle_beta   110.54444456
_cell_angle_gamma   106.99145553
_symmetry_Int_Tables_number   1
_chemical_formula_structural   Tb4Y6Tm2Co5Bi
_chemical_formula_sum   'Tb4 Y6 Tm2 Co5 Bi1'
_cell_volume   446.74131285
_cell_formula_units_Z   1
loop_
 _symmetry_equiv_pos_site_id
 _symmetry_equiv_pos_as_xyz
  1  'x, y, z'
loop_
 _atom_site_type_symbol
 _atom_site_label
 _atom_site_symmetry_multiplicity
 _atom_site_fract_x
 _atom_site_fract_y
 _atom_site_fract_z
 _atom_site_occupancy
  Tb  Tb0  1  0.601274  0.797022  0.806661  1
  Tb  Tb1  1  0.398726  0.202978  0.193339  1
  Tb  Tb2  1  0.990361  0.797022  0.195746  1
  Tb  Tb3  1  0.009639  0.202978  0.804254  1
  Y  Y4  1  0.816243  0.709180  0.523906  1
  Y  Y5  1  0.183757  0.290820  0.476094  1
  Y  Y6  1  0.185274  0.709180  0.892937  1
  Y  Y7  1  0.814726  0.290820  0.107063  1
  Y  Y8  1  0.688189  0.379453  0.691264  1
  Y  Y9  1  0.311811  0.620547  0.308736  1
  Tm  Tm10  1  0.688001  0.999538  0.311538  1
  Tm  Tm11  1  0.311999  0.000462  0.688462  1
  Co  Co12  1  0.621673  0.000000  0.621673  1
  Co  Co13  1  0.378327  0.000000  0.378327  1
  Co  Co14  1  0.111015  0.612259  0.501244  1
  Co  Co15  1  0.888985  0.387741  0.498756  1
  Co  Co16  1  0.000000  0.000000  0.000000  1
  Bi  Bi17  1  0.500000  0.500000  0.000000  1
