# generated using pymatgen
data_Ho10In8PdPtRh2
_symmetry_space_group_name_H-M   'P 1'
_cell_length_a   3.60299100
_cell_length_b   8.11459165
_cell_length_c   18.23421817
_cell_angle_alpha   90.04568698
_cell_angle_beta   90.00000000
_cell_angle_gamma   90.00000000
_symmetry_Int_Tables_number   1
_chemical_formula_structural   Ho10In8PdPtRh2
_chemical_formula_sum   'Ho10 In8 Pd1 Pt1 Rh2'
_cell_volume   533.11003301
_cell_formula_units_Z   1
loop_
 _symmetry_equiv_pos_site_id
 _symmetry_equiv_pos_as_xyz
  1  'x, y, z'
loop_
 _atom_site_type_symbol
 _atom_site_label
 _atom_site_symmetry_multiplicity
 _atom_site_fract_x
 _atom_site_fract_y
 _atom_site_fract_z
 _atom_site_occupancy
  Ho  Ho0  1  0.000000  0.115770  0.412204  1
  Ho  Ho1  1  0.000000  0.884351  0.587662  1
  Ho  Ho2  1  0.000000  0.382193  0.915066  1
  Ho  Ho3  1  0.000000  0.617102  0.085858  1
  Ho  Ho4  1  0.000000  0.238642  0.221365  1
  Ho  Ho5  1  0.000000  0.764593  0.778480  1
  Ho  Ho6  1  0.000000  0.247247  0.719416  1
  Ho  Ho7  1  0.000000  0.749372  0.279656  1
  Ho  Ho8  1  0.000000  0.000140  0.000226  1
  Ho  Ho9  1  0.000000  0.500109  0.499836  1
  In  In10  1  0.500000  0.423352  0.351075  1
  In  In11  1  0.500000  0.576313  0.649376  1
  In  In12  1  0.500000  0.074637  0.850141  1
  In  In13  1  0.500000  0.926345  0.149838  1
  In  In14  1  0.500000  0.292182  0.066387  1
  In  In15  1  0.500000  0.707386  0.933077  1
  In  In16  1  0.500000  0.206537  0.567735  1
  In  In17  1  0.500000  0.793609  0.432423  1
  Pd  Pd18  1  0.500000  0.476971  0.803396  1
  Pt  Pt19  1  0.500000  0.523068  0.196698  1
  Rh  Rh20  1  0.500000  0.022638  0.304419  1
  Rh  Rh21  1  0.500000  0.977442  0.695665  1
