# generated using pymatgen
data_YTm3Ga7Ag5
_symmetry_space_group_name_H-M   'P 1'
_cell_length_a   4.32838800
_cell_length_b   6.98890901
_cell_length_c   10.29832666
_cell_angle_alpha   90.03832650
_cell_angle_beta   90.00000000
_cell_angle_gamma   90.00000000
_symmetry_Int_Tables_number   1
_chemical_formula_structural   YTm3Ga7Ag5
_chemical_formula_sum   'Y1 Tm3 Ga7 Ag5'
_cell_volume   311.53162250
_cell_formula_units_Z   1
loop_
 _symmetry_equiv_pos_site_id
 _symmetry_equiv_pos_as_xyz
  1  'x, y, z'
loop_
 _atom_site_type_symbol
 _atom_site_label
 _atom_site_symmetry_multiplicity
 _atom_site_fract_x
 _atom_site_fract_y
 _atom_site_fract_z
 _atom_site_occupancy
  Y  Y0  1  0.000000  0.217086  0.828024  1
  Tm  Tm1  1  0.500000  0.780298  0.174101  1
  Tm  Tm2  1  0.500000  0.275814  0.327104  1
  Tm  Tm3  1  0.000000  0.724763  0.670214  1
  Ga  Ga4  1  0.500000  0.922735  0.845684  1
  Ga  Ga5  1  0.500000  0.428873  0.655777  1
  Ga  Ga6  1  0.000000  0.075277  0.153873  1
  Ga  Ga7  1  0.000000  0.573054  0.343542  1
  Ga  Ga8  1  0.500000  0.201705  0.036659  1
  Ga  Ga9  1  0.000000  0.301819  0.534040  1
  Ga  Ga10  1  0.000000  0.795033  0.964642  1
  Ag  Ag11  1  0.500000  0.543070  0.904800  1
  Ag  Ag12  1  0.500000  0.047587  0.599784  1
  Ag  Ag13  1  0.000000  0.457058  0.097758  1
  Ag  Ag14  1  0.000000  0.960615  0.401273  1
  Ag  Ag15  1  0.500000  0.695216  0.462727  1
