# generated using pymatgen
data_Cs3Lu2I9
_symmetry_space_group_name_H-M   'P 1'
_cell_length_a   8.60071467
_cell_length_b   8.60071517
_cell_length_c   21.46459942
_cell_angle_alpha   89.36356105
_cell_angle_beta   89.36356178
_cell_angle_gamma   119.90459094
_symmetry_Int_Tables_number   1
_chemical_formula_structural   Cs3Lu2I9
_chemical_formula_sum   'Cs6 Lu4 I18'
_cell_volume   1376.04415404
_cell_formula_units_Z   2
loop_
 _symmetry_equiv_pos_site_id
 _symmetry_equiv_pos_as_xyz
  1  'x, y, z'
loop_
 _atom_site_type_symbol
 _atom_site_label
 _atom_site_symmetry_multiplicity
 _atom_site_fract_x
 _atom_site_fract_y
 _atom_site_fract_z
 _atom_site_occupancy
  Cs  Cs0  1  0.996845  0.003155  0.750000  1
  Cs  Cs1  1  0.665959  0.329675  0.075507  1
  Cs  Cs2  1  0.003155  0.996845  0.250000  1
  Cs  Cs3  1  0.329675  0.665959  0.575507  1
  Cs  Cs4  1  0.334041  0.670325  0.924493  1
  Cs  Cs5  1  0.670325  0.334041  0.424493  1
  Lu  Lu6  1  0.654347  0.324063  0.655304  1
  Lu  Lu7  1  0.345653  0.675937  0.344696  1
  Lu  Lu8  1  0.324063  0.654347  0.155304  1
  Lu  Lu9  1  0.675937  0.345653  0.844696  1
  I  I10  1  0.646476  0.813667  0.078476  1
  I  I11  1  0.353524  0.186333  0.921524  1
  I  I12  1  0.506958  0.019664  0.756584  1
  I  I13  1  0.188920  0.852249  0.413858  1
  I  I14  1  0.852249  0.188920  0.913858  1
  I  I15  1  0.813667  0.646476  0.578476  1
  I  I16  1  0.811080  0.147751  0.586142  1
  I  I17  1  0.314317  0.151473  0.592622  1
  I  I18  1  0.493042  0.980336  0.243416  1
  I  I19  1  0.980336  0.493042  0.743416  1
  I  I20  1  0.147751  0.811080  0.086142  1
  I  I21  1  0.019664  0.506958  0.256584  1
  I  I22  1  0.507061  0.492939  0.750000  1
  I  I23  1  0.848527  0.685683  0.907378  1
  I  I24  1  0.151473  0.314317  0.092622  1
  I  I25  1  0.685683  0.848527  0.407378  1
  I  I26  1  0.492939  0.507061  0.250000  1
  I  I27  1  0.186333  0.353524  0.421524  1
