# generated using pymatgen
data_TaBe6P5Ru12
_symmetry_space_group_name_H-M   'P 1'
_cell_length_a   4.08148700
_cell_length_b   5.75736100
_cell_length_c   12.13887600
_cell_angle_alpha   90.00000000
_cell_angle_beta   89.99964287
_cell_angle_gamma   90.00000000
_symmetry_Int_Tables_number   1
_chemical_formula_structural   TaBe6P5Ru12
_chemical_formula_sum   'Ta1 Be6 P5 Ru12'
_cell_volume   285.24651966
_cell_formula_units_Z   1
loop_
 _symmetry_equiv_pos_site_id
 _symmetry_equiv_pos_as_xyz
  1  'x, y, z'
loop_
 _atom_site_type_symbol
 _atom_site_label
 _atom_site_symmetry_multiplicity
 _atom_site_fract_x
 _atom_site_fract_y
 _atom_site_fract_z
 _atom_site_occupancy
  Ta  Ta0  1  0.500155  0.000000  0.833321  1
  Be  Be1  1  0.000064  0.000000  0.991079  1
  Be  Be2  1  0.499733  0.499999  0.173759  1
  Be  Be3  1  0.999744  0.000000  0.333345  1
  Be  Be4  1  0.499992  0.499999  0.492915  1
  Be  Be5  1  0.000217  0.000000  0.675565  1
  Be  Be6  1  0.500191  0.499999  0.833334  1
  P  P7  1  0.000014  0.499999  0.006259  1
  P  P8  1  0.499827  0.000000  0.169173  1
  P  P9  1  0.999775  0.499999  0.333331  1
  P  P10  1  0.499998  0.000000  0.497498  1
  P  P11  1  0.000144  0.499999  0.660406  1
  Ru  Ru12  1  0.500018  0.257798  0.010257  1
  Ru  Ru13  1  0.500018  0.742201  0.010257  1
  Ru  Ru14  1  0.999910  0.249436  0.170785  1
  Ru  Ru15  1  0.999910  0.750562  0.170785  1
  Ru  Ru16  1  0.499904  0.249237  0.333335  1
  Ru  Ru17  1  0.499904  0.750763  0.333335  1
  Ru  Ru18  1  0.000005  0.249444  0.495890  1
  Ru  Ru19  1  0.000005  0.750556  0.495890  1
  Ru  Ru20  1  0.500102  0.257800  0.656409  1
  Ru  Ru21  1  0.500102  0.742200  0.656409  1
  Ru  Ru22  1  0.000138  0.269933  0.833330  1
  Ru  Ru23  1  0.000138  0.730065  0.833330  1
