# generated using pymatgen
data_Er2Si7(Ir3Rh)3
_symmetry_space_group_name_H-M   'P 1'
_cell_length_a   9.74240500
_cell_length_b   9.74240359
_cell_length_c   3.87800100
_cell_angle_alpha   90.00000000
_cell_angle_beta   90.00000000
_cell_angle_gamma   120.00000005
_symmetry_Int_Tables_number   1
_chemical_formula_structural   Er2Si7(Ir3Rh)3
_chemical_formula_sum   'Er2 Si7 Ir9 Rh3'
_cell_volume   318.76515728
_cell_formula_units_Z   1
loop_
 _symmetry_equiv_pos_site_id
 _symmetry_equiv_pos_as_xyz
  1  'x, y, z'
loop_
 _atom_site_type_symbol
 _atom_site_label
 _atom_site_symmetry_multiplicity
 _atom_site_fract_x
 _atom_site_fract_y
 _atom_site_fract_z
 _atom_site_occupancy
  Er  Er0  1  0.333333  0.666667  0.741650  1
  Er  Er1  1  0.666667  0.333333  0.240451  1
  Si  Si2  1  0.000000  0.000000  0.692935  1
  Si  Si3  1  0.406117  0.290291  0.740987  1
  Si  Si4  1  0.709709  0.115826  0.740987  1
  Si  Si5  1  0.884174  0.593883  0.740987  1
  Si  Si6  1  0.596613  0.710568  0.239774  1
  Si  Si7  1  0.289432  0.886045  0.239774  1
  Si  Si8  1  0.113955  0.403387  0.239774  1
  Ir  Ir9  1  0.442945  0.065985  0.740317  1
  Ir  Ir10  1  0.934015  0.376960  0.740317  1
  Ir  Ir11  1  0.623040  0.557055  0.740317  1
  Ir  Ir12  1  0.556206  0.940517  0.239708  1
  Ir  Ir13  1  0.059483  0.615689  0.239708  1
  Ir  Ir14  1  0.384311  0.443794  0.239708  1
  Ir  Ir15  1  0.152461  0.273169  0.738814  1
  Ir  Ir16  1  0.726831  0.879293  0.738814  1
  Ir  Ir17  1  0.120707  0.847539  0.738814  1
  Rh  Rh18  1  0.863138  0.754157  0.242055  1
  Rh  Rh19  1  0.245843  0.108980  0.242055  1
  Rh  Rh20  1  0.891020  0.136862  0.242055  1
