# generated using pymatgen
data_Np4MnSi2Ni5
_symmetry_space_group_name_H-M   'P 1'
_cell_length_a   5.09604200
_cell_length_b   5.24439368
_cell_length_c   7.68609000
_cell_angle_alpha   90.00000000
_cell_angle_beta   90.00000000
_cell_angle_gamma   119.06856876
_symmetry_Int_Tables_number   1
_chemical_formula_structural   Np4MnSi2Ni5
_chemical_formula_sum   'Np4 Mn1 Si2 Ni5'
_cell_volume   179.54135704
_cell_formula_units_Z   1
loop_
 _symmetry_equiv_pos_site_id
 _symmetry_equiv_pos_as_xyz
  1  'x, y, z'
loop_
 _atom_site_type_symbol
 _atom_site_label
 _atom_site_symmetry_multiplicity
 _atom_site_fract_x
 _atom_site_fract_y
 _atom_site_fract_z
 _atom_site_occupancy
  Np  Np0  1  0.672496  0.344990  0.423599  1
  Np  Np1  1  0.324845  0.649691  0.568685  1
  Np  Np2  1  0.324845  0.649691  0.931315  1
  Np  Np3  1  0.672496  0.344990  0.076401  1
  Mn  Mn4  1  0.172954  0.345909  0.250000  1
  Si  Si5  1  0.999621  0.999244  0.998072  1
  Si  Si6  1  0.999621  0.999244  0.501928  1
  Ni  Ni7  1  0.822920  0.156810  0.750000  1
  Ni  Ni8  1  0.174796  0.846568  0.250000  1
  Ni  Ni9  1  0.333891  0.156810  0.750000  1
  Ni  Ni10  1  0.671771  0.846568  0.250000  1
  Ni  Ni11  1  0.829742  0.659484  0.750000  1
