# generated using pymatgen
data_TbDy4Th7Ni12
_symmetry_space_group_name_H-M   'P 1'
_cell_length_a   4.33418400
_cell_length_b   5.56137571
_cell_length_c   20.89656101
_cell_angle_alpha   83.95171792
_cell_angle_beta   90.00000000
_cell_angle_gamma   90.00000000
_symmetry_Int_Tables_number   1
_chemical_formula_structural   TbDy4Th7Ni12
_chemical_formula_sum   'Tb1 Dy4 Th7 Ni12'
_cell_volume   500.88742316
_cell_formula_units_Z   1
loop_
 _symmetry_equiv_pos_site_id
 _symmetry_equiv_pos_as_xyz
  1  'x, y, z'
loop_
 _atom_site_type_symbol
 _atom_site_label
 _atom_site_symmetry_multiplicity
 _atom_site_fract_x
 _atom_site_fract_y
 _atom_site_fract_z
 _atom_site_occupancy
  Tb  Tb0  1  0.250000  0.823829  0.106668  1
  Dy  Dy1  1  0.250000  0.667848  0.438553  1
  Dy  Dy2  1  0.750000  0.022394  0.728447  1
  Dy  Dy3  1  0.250000  0.975747  0.272148  1
  Dy  Dy4  1  0.750000  0.175699  0.893594  1
  Th  Th5  1  0.750000  0.321937  0.061472  1
  Th  Th6  1  0.250000  0.678191  0.938738  1
  Th  Th7  1  0.750000  0.496523  0.227826  1
  Th  Th8  1  0.250000  0.500682  0.772991  1
  Th  Th9  1  0.750000  0.183503  0.393664  1
  Th  Th10  1  0.250000  0.817827  0.606897  1
  Th  Th11  1  0.750000  0.338508  0.559886  1
  Ni  Ni12  1  0.750000  0.847404  0.013993  1
  Ni  Ni13  1  0.250000  0.152638  0.986160  1
  Ni  Ni14  1  0.750000  0.021744  0.180359  1
  Ni  Ni15  1  0.250000  0.977632  0.820040  1
  Ni  Ni16  1  0.750000  0.705428  0.345530  1
  Ni  Ni17  1  0.250000  0.289431  0.653027  1
  Ni  Ni18  1  0.750000  0.860205  0.513537  1
  Ni  Ni19  1  0.250000  0.145044  0.485850  1
  Ni  Ni20  1  0.750000  0.543861  0.681186  1
  Ni  Ni21  1  0.250000  0.455374  0.319342  1
  Ni  Ni22  1  0.750000  0.692280  0.846864  1
  Ni  Ni23  1  0.250000  0.306273  0.153231  1
