# generated using pymatgen
data_Sm5FePtO12
_symmetry_space_group_name_H-M   'P 1'
_cell_length_a   6.96463711
_cell_length_b   6.96463613
_cell_length_c   7.47038800
_cell_angle_alpha   74.45924852
_cell_angle_beta   74.45925074
_cell_angle_gamma   50.99858301
_symmetry_Int_Tables_number   1
_chemical_formula_structural   Sm5FePtO12
_chemical_formula_sum   'Sm5 Fe1 Pt1 O12'
_cell_volume   268.90845962
_cell_formula_units_Z   1
loop_
 _symmetry_equiv_pos_site_id
 _symmetry_equiv_pos_as_xyz
  1  'x, y, z'
loop_
 _atom_site_type_symbol
 _atom_site_label
 _atom_site_symmetry_multiplicity
 _atom_site_fract_x
 _atom_site_fract_y
 _atom_site_fract_z
 _atom_site_occupancy
  Sm  Sm0  1  0.306311  0.302705  0.359082  1
  Sm  Sm1  1  0.697295  0.693689  0.640918  1
  Sm  Sm2  1  0.691378  0.693996  0.167942  1
  Sm  Sm3  1  0.306004  0.308622  0.832058  1
  Sm  Sm4  1  0.002734  0.997266  0.500000  1
  Fe  Fe5  1  0.756027  0.243973  0.000000  1
  Pt  Pt6  1  0.244017  0.755983  0.000000  1
  O  O7  1  0.096357  0.593868  0.577420  1
  O  O8  1  0.000103  0.998109  0.181535  1
  O  O9  1  0.406132  0.903643  0.422580  1
  O  O10  1  0.494391  0.505816  0.182075  1
  O  O11  1  0.096316  0.573658  0.080897  1
  O  O12  1  0.904372  0.401589  0.423894  1
  O  O13  1  0.001891  0.999897  0.818465  1
  O  O14  1  0.598411  0.095627  0.576106  1
  O  O15  1  0.494184  0.505609  0.817925  1
  O  O16  1  0.582095  0.104359  0.077832  1
  O  O17  1  0.426342  0.903684  0.919103  1
  O  O18  1  0.895641  0.417905  0.922168  1
