# generated using pymatgen
data_Y2Lu4FeTe2
_symmetry_space_group_name_H-M   'P 1'
_cell_length_a   8.13300100
_cell_length_b   8.29488446
_cell_length_c   3.89045100
_cell_angle_alpha   90.00000000
_cell_angle_beta   90.00000000
_cell_angle_gamma   119.35649079
_symmetry_Int_Tables_number   1
_chemical_formula_structural   Y2Lu4FeTe2
_chemical_formula_sum   'Y2 Lu4 Fe1 Te2'
_cell_volume   228.75549356
_cell_formula_units_Z   1
loop_
 _symmetry_equiv_pos_site_id
 _symmetry_equiv_pos_as_xyz
  1  'x, y, z'
loop_
 _atom_site_type_symbol
 _atom_site_label
 _atom_site_symmetry_multiplicity
 _atom_site_fract_x
 _atom_site_fract_y
 _atom_site_fract_z
 _atom_site_occupancy
  Y  Y0  1  0.000117  0.600995  0.500000  1
  Y  Y1  1  0.399121  0.399005  0.500000  1
  Lu  Lu2  1  0.228450  0.000000  0.000000  1
  Lu  Lu3  1  0.004644  0.236294  0.000000  1
  Lu  Lu4  1  0.768350  0.763706  0.000000  1
  Lu  Lu5  1  0.617456  0.000000  0.500000  1
  Fe  Fe6  1  0.977184  0.000000  0.500000  1
  Te  Te7  1  0.337699  0.670724  0.000000  1
  Te  Te8  1  0.666978  0.329276  0.000000  1
