# generated using pymatgen
data_EuBRuF
_symmetry_space_group_name_H-M   'P 1'
_cell_length_a   4.04846400
_cell_length_b   4.04846400
_cell_length_c   7.84087200
_cell_angle_alpha   90.00000000
_cell_angle_beta   90.00000000
_cell_angle_gamma   90.00000000
_symmetry_Int_Tables_number   1
_chemical_formula_structural   EuBRuF
_chemical_formula_sum   'Eu2 B2 Ru2 F2'
_cell_volume   128.51236849
_cell_formula_units_Z   2
loop_
 _symmetry_equiv_pos_site_id
 _symmetry_equiv_pos_as_xyz
  1  'x, y, z'
loop_
 _atom_site_type_symbol
 _atom_site_label
 _atom_site_symmetry_multiplicity
 _atom_site_fract_x
 _atom_site_fract_y
 _atom_site_fract_z
 _atom_site_occupancy
  Eu  Eu0  1  0.250002  0.250002  0.187220  1
  Eu  Eu1  1  0.750001  0.750001  0.812782  1
  B  B2  1  0.750001  0.750001  0.425373  1
  B  B3  1  0.250002  0.250002  0.574627  1
  Ru  Ru4  1  0.750001  0.250002  0.500000  1
  Ru  Ru5  1  0.250002  0.750001  0.500000  1
  F  F6  1  0.750001  0.250002  0.000000  1
  F  F7  1  0.250002  0.750001  0.000000  1
