# generated using pymatgen
data_CeDy15Cd2(HgRu2)2
_symmetry_space_group_name_H-M   'P 1'
_cell_length_a   9.64783570
_cell_length_b   9.64641996
_cell_length_c   9.64642005
_cell_angle_alpha   59.42108684
_cell_angle_beta   59.41512836
_cell_angle_gamma   59.41512478
_symmetry_Int_Tables_number   1
_chemical_formula_structural   CeDy15Cd2(HgRu2)2
_chemical_formula_sum   'Ce1 Dy15 Cd2 Hg2 Ru4'
_cell_volume   626.39548997
_cell_formula_units_Z   1
loop_
 _symmetry_equiv_pos_site_id
 _symmetry_equiv_pos_as_xyz
  1  'x, y, z'
loop_
 _atom_site_type_symbol
 _atom_site_label
 _atom_site_symmetry_multiplicity
 _atom_site_fract_x
 _atom_site_fract_y
 _atom_site_fract_z
 _atom_site_occupancy
  Ce  Ce0  1  0.343045  0.342945  0.342945  1
  Dy  Dy1  1  0.562093  0.562298  0.939449  1
  Dy  Dy2  1  0.937827  0.561194  0.939397  1
  Dy  Dy3  1  0.561249  0.938634  0.938634  1
  Dy  Dy4  1  0.937827  0.939397  0.561194  1
  Dy  Dy5  1  0.562093  0.939449  0.562298  1
  Dy  Dy6  1  0.937781  0.562430  0.562430  1
  Dy  Dy7  1  0.189401  0.189682  0.811963  1
  Dy  Dy8  1  0.810668  0.188794  0.810900  1
  Dy  Dy9  1  0.188032  0.811179  0.811178  1
  Dy  Dy10  1  0.810668  0.810901  0.188794  1
  Dy  Dy11  1  0.189400  0.811963  0.189681  1
  Dy  Dy12  1  0.810965  0.190369  0.190369  1
  Dy  Dy13  1  0.347104  0.346728  0.955935  1
  Dy  Dy14  1  0.347104  0.955935  0.346728  1
  Dy  Dy15  1  0.954262  0.347358  0.347358  1
  Cd  Cd16  1  0.259163  0.579459  0.579459  1
  Cd  Cd17  1  0.579168  0.579719  0.579719  1
  Hg  Hg18  1  0.582665  0.584415  0.248523  1
  Hg  Hg19  1  0.582665  0.248523  0.584415  1
  Ru  Ru20  1  0.146351  0.146663  0.575442  1
  Ru  Ru21  1  0.146351  0.575442  0.146663  1
  Ru  Ru22  1  0.575048  0.146815  0.146815  1
  Ru  Ru23  1  0.139062  0.139710  0.139710  1
