# generated using pymatgen
data_Yb4Al12CoSi6Ir5
_symmetry_space_group_name_H-M   'P 1'
_cell_length_a   7.43287950
_cell_length_b   7.40544248
_cell_length_c   9.37688613
_cell_angle_alpha   89.80749014
_cell_angle_beta   89.89614452
_cell_angle_gamma   120.15077118
_symmetry_Int_Tables_number   1
_chemical_formula_structural   Yb4Al12CoSi6Ir5
_chemical_formula_sum   'Yb4 Al12 Co1 Si6 Ir5'
_cell_volume   446.30273905
_cell_formula_units_Z   1
loop_
 _symmetry_equiv_pos_site_id
 _symmetry_equiv_pos_as_xyz
  1  'x, y, z'
loop_
 _atom_site_type_symbol
 _atom_site_label
 _atom_site_symmetry_multiplicity
 _atom_site_fract_x
 _atom_site_fract_y
 _atom_site_fract_z
 _atom_site_occupancy
  Yb  Yb0  1  0.999119  0.657567  0.253943  1
  Yb  Yb1  1  0.000881  0.342433  0.746057  1
  Yb  Yb2  1  0.669545  0.007826  0.256895  1
  Yb  Yb3  1  0.330455  0.992174  0.743105  1
  Al  Al4  1  0.119813  0.119931  0.254995  1
  Al  Al5  1  0.880187  0.880069  0.745005  1
  Al  Al6  1  0.663570  0.996925  0.929084  1
  Al  Al7  1  0.336430  0.003075  0.070916  1
  Al  Al8  1  0.328845  0.326967  0.559405  1
  Al  Al9  1  0.671155  0.673033  0.440595  1
  Al  Al10  1  0.664380  0.668444  0.062315  1
  Al  Al11  1  0.335620  0.331556  0.937685  1
  Al  Al12  1  0.337344  0.545549  0.250971  1
  Al  Al13  1  0.662656  0.454451  0.749029  1
  Al  Al14  1  0.543623  0.342029  0.251914  1
  Al  Al15  1  0.456377  0.657971  0.748086  1
  Co  Co16  1  0.000000  0.000000  0.500000  1
  Si  Si17  1  0.000882  0.326361  0.066066  1
  Si  Si18  1  0.999118  0.673639  0.933934  1
  Si  Si19  1  0.992735  0.675970  0.570582  1
  Si  Si20  1  0.325071  0.005501  0.423290  1
  Si  Si21  1  0.007265  0.324030  0.429418  1
  Si  Si22  1  0.674929  0.994499  0.576710  1
  Ir  Ir23  1  0.686850  0.337765  0.002353  1
  Ir  Ir24  1  0.313150  0.662235  0.997647  1
  Ir  Ir25  1  0.319872  0.679393  0.499966  1
  Ir  Ir26  1  0.680128  0.320607  0.500034  1
  Ir  Ir27  1  0.000000  0.000000  0.000000  1
