# generated using pymatgen
data_Tb10GaSnBi4
_symmetry_space_group_name_H-M   'P 1'
_cell_length_a   9.08733899
_cell_length_b   9.08733875
_cell_length_c   6.47283900
_cell_angle_alpha   90.00000000
_cell_angle_beta   90.00000000
_cell_angle_gamma   119.82700155
_symmetry_Int_Tables_number   1
_chemical_formula_structural   Tb10GaSnBi4
_chemical_formula_sum   'Tb10 Ga1 Sn1 Bi4'
_cell_volume   463.71733292
_cell_formula_units_Z   1
loop_
 _symmetry_equiv_pos_site_id
 _symmetry_equiv_pos_as_xyz
  1  'x, y, z'
loop_
 _atom_site_type_symbol
 _atom_site_label
 _atom_site_symmetry_multiplicity
 _atom_site_fract_x
 _atom_site_fract_y
 _atom_site_fract_z
 _atom_site_occupancy
  Tb  Tb0  1  0.656565  0.338665  0.997966  1
  Tb  Tb1  1  0.338665  0.656565  0.997966  1
  Tb  Tb2  1  0.338665  0.656565  0.502034  1
  Tb  Tb3  1  0.656565  0.338665  0.502034  1
  Tb  Tb4  1  0.749172  0.749172  0.750000  1
  Tb  Tb5  1  0.244358  0.014835  0.750000  1
  Tb  Tb6  1  0.014835  0.244358  0.750000  1
  Tb  Tb7  1  0.243987  0.243987  0.250000  1
  Tb  Tb8  1  0.758516  0.995998  0.250000  1
  Tb  Tb9  1  0.995998  0.758516  0.250000  1
  Ga  Ga10  1  0.394547  0.394547  0.750000  1
  Sn  Sn11  1  0.607444  0.607444  0.250000  1
  Bi  Bi12  1  0.611215  0.003955  0.750000  1
  Bi  Bi13  1  0.003955  0.611215  0.750000  1
  Bi  Bi14  1  0.390879  0.994635  0.250000  1
  Bi  Bi15  1  0.994635  0.390879  0.250000  1
