# generated using pymatgen
data_SmTa11(BOs)12
_symmetry_space_group_name_H-M   'P 1'
_cell_length_a   3.12918600
_cell_length_b   9.13746633
_cell_length_c   15.95263238
_cell_angle_alpha   90.28013994
_cell_angle_beta   90.00000000
_cell_angle_gamma   90.00000000
_symmetry_Int_Tables_number   1
_chemical_formula_structural   SmTa11(BOs)12
_chemical_formula_sum   'Sm1 Ta11 B12 Os12'
_cell_volume   456.12548066
_cell_formula_units_Z   1
loop_
 _symmetry_equiv_pos_site_id
 _symmetry_equiv_pos_as_xyz
  1  'x, y, z'
loop_
 _atom_site_type_symbol
 _atom_site_label
 _atom_site_symmetry_multiplicity
 _atom_site_fract_x
 _atom_site_fract_y
 _atom_site_fract_z
 _atom_site_occupancy
  Sm  Sm0  1  0.000000  0.816684  0.708230  1
  Ta  Ta1  1  0.000000  0.801293  0.491014  1
  Ta  Ta2  1  0.000000  0.200579  0.503368  1
  Ta  Ta3  1  0.000000  0.296680  0.006559  1
  Ta  Ta4  1  0.000000  0.698826  0.999086  1
  Ta  Ta5  1  0.000000  0.518201  0.591886  1
  Ta  Ta6  1  0.000000  0.483194  0.405143  1
  Ta  Ta7  1  0.000000  0.014234  0.907045  1
  Ta  Ta8  1  0.000000  0.984148  0.094432  1
  Ta  Ta9  1  0.000000  0.687318  0.202721  1
  Ta  Ta10  1  0.000000  0.315833  0.798813  1
  Ta  Ta11  1  0.000000  0.188036  0.296470  1
  B  B12  1  0.500000  0.605296  0.492561  1
  B  B13  1  0.500000  0.395427  0.502034  1
  B  B14  1  0.500000  0.103601  0.004304  1
  B  B15  1  0.500000  0.894655  0.998750  1
  B  B16  1  0.000000  0.604128  0.835025  1
  B  B17  1  0.000000  0.390579  0.167696  1
  B  B18  1  0.000000  0.114003  0.664517  1
  B  B19  1  0.000000  0.890578  0.331427  1
  B  B20  1  0.500000  0.714807  0.584803  1
  B  B21  1  0.500000  0.284420  0.400096  1
  B  B22  1  0.500000  0.214332  0.903997  1
  B  B23  1  0.500000  0.786156  0.100725  1
  Os  Os24  1  0.500000  0.718561  0.352787  1
  Os  Os25  1  0.500000  0.284066  0.641328  1
  Os  Os26  1  0.500000  0.218405  0.144750  1
  Os  Os27  1  0.500000  0.773624  0.865409  1
  Os  Os28  1  0.500000  0.515112  0.095849  1
  Os  Os29  1  0.500000  0.479385  0.911270  1
  Os  Os30  1  0.500000  0.017678  0.402574  1
  Os  Os31  1  0.500000  0.992201  0.588447  1
  Os  Os32  1  0.500000  0.546131  0.740801  1
  Os  Os33  1  0.500000  0.436852  0.265647  1
  Os  Os34  1  0.500000  0.076800  0.767308  1
  Os  Os35  1  0.500000  0.938180  0.233128  1
