# generated using pymatgen
data_La7PaAl8IrRh7
_symmetry_space_group_name_H-M   'P 1'
_cell_length_a   4.27133500
_cell_length_b   7.28502296
_cell_length_c   16.25539127
_cell_angle_alpha   89.32721602
_cell_angle_beta   90.00000000
_cell_angle_gamma   90.00000000
_symmetry_Int_Tables_number   1
_chemical_formula_structural   La7PaAl8IrRh7
_chemical_formula_sum   'La7 Pa1 Al8 Ir1 Rh7'
_cell_volume   505.78045802
_cell_formula_units_Z   1
loop_
 _symmetry_equiv_pos_site_id
 _symmetry_equiv_pos_as_xyz
  1  'x, y, z'
loop_
 _atom_site_type_symbol
 _atom_site_label
 _atom_site_symmetry_multiplicity
 _atom_site_fract_x
 _atom_site_fract_y
 _atom_site_fract_z
 _atom_site_occupancy
  La  La0  1  0.750000  0.477406  0.219206  1
  La  La1  1  0.750000  0.976323  0.280443  1
  La  La2  1  0.250000  0.026470  0.721523  1
  La  La3  1  0.250000  0.652329  0.560971  1
  La  La4  1  0.750000  0.338110  0.440425  1
  La  La5  1  0.750000  0.846869  0.058667  1
  La  La6  1  0.250000  0.165087  0.937519  1
  Pa  Pa7  1  0.250000  0.526740  0.780159  1
  Al  Al8  1  0.250000  0.649930  0.352587  1
  Al  Al9  1  0.750000  0.346916  0.649326  1
  Al  Al10  1  0.750000  0.841302  0.850101  1
  Al  Al11  1  0.250000  0.149220  0.146295  1
  Al  Al12  1  0.250000  0.506824  0.059781  1
  Al  Al13  1  0.750000  0.498850  0.939754  1
  Al  Al14  1  0.750000  0.990338  0.562329  1
  Al  Al15  1  0.250000  0.999671  0.439850  1
  Ir  Ir16  1  0.750000  0.278001  0.813577  1
  Rh  Rh17  1  0.250000  0.768853  0.178525  1
  Rh  Rh18  1  0.750000  0.706407  0.693606  1
  Rh  Rh19  1  0.250000  0.270642  0.321259  1
  Rh  Rh20  1  0.250000  0.709753  0.919956  1
  Rh  Rh21  1  0.750000  0.282974  0.072442  1
  Rh  Rh22  1  0.750000  0.781922  0.429233  1
  Rh  Rh23  1  0.250000  0.209060  0.572466  1
