# generated using pymatgen
data_Ca3Ho(Ga2Ag)4
_symmetry_space_group_name_H-M   'P 1'
_cell_length_a   4.35419500
_cell_length_b   7.03235510
_cell_length_c   10.52635603
_cell_angle_alpha   90.77498839
_cell_angle_beta   90.00000000
_cell_angle_gamma   90.00000000
_symmetry_Int_Tables_number   1
_chemical_formula_structural   Ca3Ho(Ga2Ag)4
_chemical_formula_sum   'Ca3 Ho1 Ga8 Ag4'
_cell_volume   322.29012028
_cell_formula_units_Z   1
loop_
 _symmetry_equiv_pos_site_id
 _symmetry_equiv_pos_as_xyz
  1  'x, y, z'
loop_
 _atom_site_type_symbol
 _atom_site_label
 _atom_site_symmetry_multiplicity
 _atom_site_fract_x
 _atom_site_fract_y
 _atom_site_fract_z
 _atom_site_occupancy
  Ca  Ca0  1  0.750000  0.225443  0.173547  1
  Ca  Ca1  1  0.750000  0.726298  0.324820  1
  Ca  Ca2  1  0.250000  0.274401  0.674316  1
  Ho  Ho3  1  0.250000  0.779310  0.829245  1
  Ga  Ga4  1  0.250000  0.704453  0.536143  1
  Ga  Ga5  1  0.750000  0.299558  0.467874  1
  Ga  Ga6  1  0.750000  0.795168  0.031960  1
  Ga  Ga7  1  0.250000  0.200165  0.965024  1
  Ga  Ga8  1  0.250000  0.923760  0.146330  1
  Ga  Ga9  1  0.750000  0.071305  0.849089  1
  Ga  Ga10  1  0.750000  0.574709  0.653553  1
  Ga  Ga11  1  0.250000  0.427934  0.349952  1
  Ag  Ag12  1  0.250000  0.540204  0.098323  1
  Ag  Ag13  1  0.750000  0.457838  0.899441  1
  Ag  Ag14  1  0.750000  0.956682  0.599918  1
  Ag  Ag15  1  0.250000  0.042772  0.400466  1
