# generated using pymatgen
data_Pr2BeRuI
_symmetry_space_group_name_H-M   'P 1'
_cell_length_a   4.09563300
_cell_length_b   4.09563256
_cell_length_c   17.90058300
_cell_angle_alpha   90.00000000
_cell_angle_beta   90.00000000
_cell_angle_gamma   119.99999550
_symmetry_Int_Tables_number   1
_chemical_formula_structural   Pr2BeRuI
_chemical_formula_sum   'Pr4 Be2 Ru2 I2'
_cell_volume   260.03981435
_cell_formula_units_Z   2
loop_
 _symmetry_equiv_pos_site_id
 _symmetry_equiv_pos_as_xyz
  1  'x, y, z'
loop_
 _atom_site_type_symbol
 _atom_site_label
 _atom_site_symmetry_multiplicity
 _atom_site_fract_x
 _atom_site_fract_y
 _atom_site_fract_z
 _atom_site_occupancy
  Pr  Pr0  1  0.000000  0.000000  0.606052  1
  Pr  Pr1  1  0.000000  0.000000  0.394649  1
  Pr  Pr2  1  0.000000  0.000000  0.106052  1
  Pr  Pr3  1  0.000000  0.000000  0.894649  1
  Be  Be4  1  0.666667  0.333333  0.500679  1
  Be  Be5  1  0.333333  0.666667  0.000679  1
  Ru  Ru6  1  0.666667  0.333333  0.999055  1
  Ru  Ru7  1  0.333333  0.666667  0.499055  1
  I  I8  1  0.666667  0.333333  0.249565  1
  I  I9  1  0.333333  0.666667  0.749565  1
