# generated using pymatgen
data_TmH5Ru
_symmetry_space_group_name_H-M   'P 1'
_cell_length_a   4.37401600
_cell_length_b   4.61695000
_cell_length_c   11.54497900
_cell_angle_alpha   90.00000000
_cell_angle_beta   90.00000000
_cell_angle_gamma   90.00000000
_symmetry_Int_Tables_number   1
_chemical_formula_structural   TmH5Ru
_chemical_formula_sum   'Tm4 H20 Ru4'
_cell_volume   233.14638497
_cell_formula_units_Z   4
loop_
 _symmetry_equiv_pos_site_id
 _symmetry_equiv_pos_as_xyz
  1  'x, y, z'
loop_
 _atom_site_type_symbol
 _atom_site_label
 _atom_site_symmetry_multiplicity
 _atom_site_fract_x
 _atom_site_fract_y
 _atom_site_fract_z
 _atom_site_occupancy
  Tm  Tm0  1  0.719309  0.347708  0.144894  1
  Tm  Tm1  1  0.219309  0.152292  0.855106  1
  Tm  Tm2  1  0.280691  0.847708  0.355106  1
  Tm  Tm3  1  0.780691  0.652292  0.644894  1
  H  H4  1  0.881915  0.347768  0.968115  1
  H  H5  1  0.427862  0.988204  0.690590  1
  H  H6  1  0.954360  0.905856  0.006292  1
  H  H7  1  0.700973  0.977206  0.837567  1
  H  H8  1  0.414013  0.351645  0.317014  1
  H  H9  1  0.799027  0.022794  0.337567  1
  H  H10  1  0.454360  0.594144  0.993708  1
  H  H11  1  0.299027  0.477206  0.662433  1
  H  H12  1  0.927862  0.511796  0.309410  1
  H  H13  1  0.618085  0.652232  0.468115  1
  H  H14  1  0.045640  0.405856  0.493708  1
  H  H15  1  0.118085  0.847768  0.531885  1
  H  H16  1  0.585987  0.851645  0.182986  1
  H  H17  1  0.914013  0.148355  0.682986  1
  H  H18  1  0.085987  0.648355  0.817014  1
  H  H19  1  0.072138  0.011796  0.190590  1
  H  H20  1  0.381915  0.152232  0.031885  1
  H  H21  1  0.572138  0.488204  0.809410  1
  H  H22  1  0.545640  0.094144  0.506292  1
  H  H23  1  0.200973  0.522794  0.162433  1
  Ru  Ru24  1  0.213559  0.161853  0.593754  1
  Ru  Ru25  1  0.286441  0.838147  0.093754  1
  Ru  Ru26  1  0.786441  0.661853  0.906246  1
  Ru  Ru27  1  0.713559  0.338147  0.406246  1
