# generated using pymatgen
data_V9FeSe16
_symmetry_space_group_name_H-M   'P 1'
_cell_length_a   6.64459500
_cell_length_b   6.64459656
_cell_length_c   12.39014000
_cell_angle_alpha   90.00000000
_cell_angle_beta   90.00000000
_cell_angle_gamma   120.00000718
_symmetry_Int_Tables_number   1
_chemical_formula_structural   V9FeSe16
_chemical_formula_sum   'V9 Fe1 Se16'
_cell_volume   473.74424342
_cell_formula_units_Z   1
loop_
 _symmetry_equiv_pos_site_id
 _symmetry_equiv_pos_as_xyz
  1  'x, y, z'
loop_
 _atom_site_type_symbol
 _atom_site_label
 _atom_site_symmetry_multiplicity
 _atom_site_fract_x
 _atom_site_fract_y
 _atom_site_fract_z
 _atom_site_occupancy
  V  V0  1  0.000000  0.000000  0.247749  1
  V  V1  1  0.000000  0.000000  0.752251  1
  V  V2  1  0.508528  0.017058  0.245285  1
  V  V3  1  0.491472  0.982942  0.754715  1
  V  V4  1  0.982942  0.491472  0.245285  1
  V  V5  1  0.017058  0.508528  0.754715  1
  V  V6  1  0.508528  0.491472  0.245285  1
  V  V7  1  0.491472  0.508528  0.754715  1
  V  V8  1  0.000000  0.000000  0.500000  1
  Fe  Fe9  1  0.000000  0.000000  0.000000  1
  Se  Se10  1  0.333333  0.666667  0.621701  1
  Se  Se11  1  0.666667  0.333333  0.378299  1
  Se  Se12  1  0.666667  0.333333  0.113484  1
  Se  Se13  1  0.333333  0.666667  0.886516  1
  Se  Se14  1  0.165931  0.331862  0.119694  1
  Se  Se15  1  0.834069  0.668138  0.880306  1
  Se  Se16  1  0.668138  0.834069  0.119694  1
  Se  Se17  1  0.831123  0.662247  0.627915  1
  Se  Se18  1  0.331862  0.165931  0.880306  1
  Se  Se19  1  0.168877  0.337753  0.372085  1
  Se  Se20  1  0.165931  0.834069  0.119694  1
  Se  Se21  1  0.337753  0.168877  0.627915  1
  Se  Se22  1  0.834069  0.165931  0.880306  1
  Se  Se23  1  0.662247  0.831123  0.372085  1
  Se  Se24  1  0.831123  0.168877  0.627915  1
  Se  Se25  1  0.168877  0.831123  0.372085  1
