# generated using pymatgen
data_Tb7Dy3Si16Ge
_symmetry_space_group_name_H-M   'P 1'
_cell_length_a   11.06245411
_cell_length_b   11.04927426
_cell_length_c   11.06166409
_cell_angle_alpha   144.75340396
_cell_angle_beta   135.68756003
_cell_angle_gamma   57.86618811
_symmetry_Int_Tables_number   1
_chemical_formula_structural   Tb7Dy3Si16Ge
_chemical_formula_sum   'Tb7 Dy3 Si16 Ge1'
_cell_volume   540.44956534
_cell_formula_units_Z   1
loop_
 _symmetry_equiv_pos_site_id
 _symmetry_equiv_pos_as_xyz
  1  'x, y, z'
loop_
 _atom_site_type_symbol
 _atom_site_label
 _atom_site_symmetry_multiplicity
 _atom_site_fract_x
 _atom_site_fract_y
 _atom_site_fract_z
 _atom_site_occupancy
  Tb  Tb0  1  0.755444  0.759706  0.515638  1
  Tb  Tb1  1  0.448749  0.963860  0.013343  1
  Tb  Tb2  1  0.848340  0.367587  0.016187  1
  Tb  Tb3  1  0.950477  0.963833  0.515079  1
  Tb  Tb4  1  0.151550  0.166833  0.519363  1
  Tb  Tb5  1  0.351437  0.367594  0.519262  1
  Tb  Tb6  1  0.244069  0.759699  0.004252  1
  Dy  Dy7  1  0.548624  0.561877  0.509036  1
  Dy  Dy8  1  0.052830  0.561888  0.013253  1
  Dy  Dy9  1  0.647492  0.166823  0.015314  1
  Si  Si10  1  0.199573  0.577940  0.378370  1
  Si  Si11  1  0.000058  0.081812  0.081556  1
  Si  Si12  1  0.698978  0.290352  0.591322  1
  Si  Si13  1  0.800510  0.180765  0.379837  1
  Si  Si14  1  0.895501  0.504545  0.608835  1
  Si  Si15  1  0.417753  0.872369  0.454963  1
  Si  Si16  1  0.104344  0.713074  0.608702  1
  Si  Si17  1  0.300923  0.896267  0.595567  1
  Si  Si18  1  0.581518  0.037689  0.456214  1
  Si  Si19  1  0.999698  0.430758  0.430844  1
  Si  Si20  1  0.880424  0.842733  0.961946  1
  Si  Si21  1  0.399925  0.500458  0.100820  1
  Si  Si22  1  0.120156  0.084298  0.964133  1
  Si  Si23  1  0.285811  0.241368  0.955713  1
  Si  Si24  1  0.499737  0.388000  0.888638  1
  Si  Si25  1  0.598680  0.701744  0.103091  1
  Ge  Ge26  1  0.717398  0.677626  0.960221  1
