# generated using pymatgen
data_Ho6Ti(Al3Pt8)2
_symmetry_space_group_name_H-M   'P 1'
_cell_length_a   8.98122638
_cell_length_b   8.98122430
_cell_length_c   8.98121600
_cell_angle_alpha   59.99997900
_cell_angle_beta   59.99997193
_cell_angle_gamma   60.00001289
_symmetry_Int_Tables_number   1
_chemical_formula_structural   Ho6Ti(Al3Pt8)2
_chemical_formula_sum   'Ho6 Ti1 Al6 Pt16'
_cell_volume   512.26090282
_cell_formula_units_Z   1
loop_
 _symmetry_equiv_pos_site_id
 _symmetry_equiv_pos_as_xyz
  1  'x, y, z'
loop_
 _atom_site_type_symbol
 _atom_site_label
 _atom_site_symmetry_multiplicity
 _atom_site_fract_x
 _atom_site_fract_y
 _atom_site_fract_z
 _atom_site_occupancy
  Ho  Ho0  1  0.713947  0.286053  0.286052  1
  Ho  Ho1  1  0.713949  0.286052  0.713948  1
  Ho  Ho2  1  0.713949  0.713948  0.286051  1
  Ho  Ho3  1  0.286053  0.713947  0.713948  1
  Ho  Ho4  1  0.286051  0.713948  0.286052  1
  Ho  Ho5  1  0.286051  0.286052  0.713949  1
  Ti  Ti6  1  0.000000  0.000000  0.000000  1
  Al  Al7  1  0.500000  0.000000  0.000000  1
  Al  Al8  1  0.500000  0.000000  0.500000  1
  Al  Al9  1  0.500000  0.500000  0.000000  1
  Al  Al10  1  0.000000  0.500000  0.500000  1
  Al  Al11  1  0.000000  0.500000  0.000000  1
  Al  Al12  1  0.000000  0.000000  0.500000  1
  Pt  Pt13  1  0.641230  0.119589  0.119591  1
  Pt  Pt14  1  0.119589  0.641230  0.119590  1
  Pt  Pt15  1  0.119590  0.119590  0.641229  1
  Pt  Pt16  1  0.119589  0.119590  0.119591  1
  Pt  Pt17  1  0.358770  0.880411  0.880409  1
  Pt  Pt18  1  0.880411  0.358770  0.880410  1
  Pt  Pt19  1  0.880410  0.880410  0.358771  1
  Pt  Pt20  1  0.880411  0.880410  0.880409  1
  Pt  Pt21  1  0.984625  0.338459  0.338459  1
  Pt  Pt22  1  0.338458  0.984624  0.338459  1
  Pt  Pt23  1  0.338457  0.338458  0.984627  1
  Pt  Pt24  1  0.338457  0.338458  0.338459  1
  Pt  Pt25  1  0.015375  0.661541  0.661541  1
  Pt  Pt26  1  0.661542  0.015376  0.661541  1
  Pt  Pt27  1  0.661543  0.661542  0.015373  1
  Pt  Pt28  1  0.661543  0.661542  0.661541  1
