# generated using pymatgen
data_TbPa(ZnCo)2
_symmetry_space_group_name_H-M   'P 1'
_cell_length_a   3.62670000
_cell_length_b   6.95088038
_cell_length_c   8.33598348
_cell_angle_alpha   92.51530061
_cell_angle_beta   90.00000000
_cell_angle_gamma   90.00000000
_symmetry_Int_Tables_number   1
_chemical_formula_structural   TbPa(ZnCo)2
_chemical_formula_sum   'Tb2 Pa2 Zn4 Co4'
_cell_volume   209.93732727
_cell_formula_units_Z   2
loop_
 _symmetry_equiv_pos_site_id
 _symmetry_equiv_pos_as_xyz
  1  'x, y, z'
loop_
 _atom_site_type_symbol
 _atom_site_label
 _atom_site_symmetry_multiplicity
 _atom_site_fract_x
 _atom_site_fract_y
 _atom_site_fract_z
 _atom_site_occupancy
  Tb  Tb0  1  0.250000  0.047856  0.314911  1
  Tb  Tb1  1  0.750000  0.952144  0.685089  1
  Pa  Pa2  1  0.250000  0.539392  0.190144  1
  Pa  Pa3  1  0.750000  0.460608  0.809856  1
  Zn  Zn4  1  0.250000  0.129689  0.945754  1
  Zn  Zn5  1  0.750000  0.870311  0.054246  1
  Zn  Zn6  1  0.250000  0.636202  0.550593  1
  Zn  Zn7  1  0.750000  0.363798  0.449407  1
  Co  Co8  1  0.750000  0.733675  0.339439  1
  Co  Co9  1  0.250000  0.266325  0.660561  1
  Co  Co10  1  0.750000  0.286374  0.134722  1
  Co  Co11  1  0.250000  0.713626  0.865278  1
