# generated using pymatgen
data_Nd4BeSi5
_symmetry_space_group_name_H-M   'P 1'
_cell_length_a   3.94151800
_cell_length_b   4.37921209
_cell_length_c   12.58982274
_cell_angle_alpha   100.01573454
_cell_angle_beta   90.00000000
_cell_angle_gamma   90.00000000
_symmetry_Int_Tables_number   1
_chemical_formula_structural   Nd4BeSi5
_chemical_formula_sum   'Nd4 Be1 Si5'
_cell_volume   213.99790451
_cell_formula_units_Z   1
loop_
 _symmetry_equiv_pos_site_id
 _symmetry_equiv_pos_as_xyz
  1  'x, y, z'
loop_
 _atom_site_type_symbol
 _atom_site_label
 _atom_site_symmetry_multiplicity
 _atom_site_fract_x
 _atom_site_fract_y
 _atom_site_fract_z
 _atom_site_occupancy
  Nd  Nd0  1  0.750000  0.431429  0.862856  1
  Nd  Nd1  1  0.250000  0.569366  0.138732  1
  Nd  Nd2  1  0.750000  0.702262  0.404526  1
  Nd  Nd3  1  0.250000  0.297983  0.595965  1
  Be  Be4  1  0.750000  0.022033  0.044067  1
  Si  Si5  1  0.250000  0.981083  0.962165  1
  Si  Si6  1  0.750000  0.111671  0.223344  1
  Si  Si7  1  0.250000  0.885606  0.771212  1
  Si  Si8  1  0.750000  0.828267  0.656534  1
  Si  Si9  1  0.250000  0.170300  0.340599  1
