# generated using pymatgen
data_Ca(Tb3Ir2)3
_symmetry_space_group_name_H-M   'P 1'
_cell_length_a   10.93523245
_cell_length_b   10.96621300
_cell_length_c   6.41047494
_cell_angle_alpha   90.00000000
_cell_angle_beta   90.38969519
_cell_angle_gamma   90.00000000
_symmetry_Int_Tables_number   1
_chemical_formula_structural   Ca(Tb3Ir2)3
_chemical_formula_sum   'Ca2 Tb18 Ir12'
_cell_volume   768.71411908
_cell_formula_units_Z   2
loop_
 _symmetry_equiv_pos_site_id
 _symmetry_equiv_pos_as_xyz
  1  'x, y, z'
loop_
 _atom_site_type_symbol
 _atom_site_label
 _atom_site_symmetry_multiplicity
 _atom_site_fract_x
 _atom_site_fract_y
 _atom_site_fract_z
 _atom_site_occupancy
  Ca  Ca0  1  0.289319  0.088166  0.376095  1
  Ca  Ca1  1  0.289319  0.911834  0.876095  1
  Tb  Tb2  1  0.708958  0.087289  0.879781  1
  Tb  Tb3  1  0.708958  0.912711  0.379781  1
  Tb  Tb4  1  0.586881  0.792591  0.878622  1
  Tb  Tb5  1  0.586881  0.207409  0.378622  1
  Tb  Tb6  1  0.411753  0.793547  0.380185  1
  Tb  Tb7  1  0.411753  0.206453  0.880185  1
  Tb  Tb8  1  0.209466  0.412475  0.621834  1
  Tb  Tb9  1  0.209466  0.587525  0.121834  1
  Tb  Tb10  1  0.791315  0.411678  0.119743  1
  Tb  Tb11  1  0.791315  0.588322  0.619743  1
  Tb  Tb12  1  0.911519  0.708868  0.121754  1
  Tb  Tb13  1  0.911519  0.291132  0.621754  1
  Tb  Tb14  1  0.088404  0.708012  0.621288  1
  Tb  Tb15  1  0.088404  0.291988  0.121288  1
  Tb  Tb16  1  0.000817  0.000148  0.498969  1
  Tb  Tb17  1  0.000817  0.999852  0.998969  1
  Tb  Tb18  1  0.500073  0.500087  0.997309  1
  Tb  Tb19  1  0.500073  0.499913  0.497309  1
  Ir  Ir20  1  0.848577  0.153419  0.250079  1
  Ir  Ir21  1  0.848577  0.846581  0.750079  1
  Ir  Ir22  1  0.146372  0.160581  0.755762  1
  Ir  Ir23  1  0.146372  0.839419  0.255762  1
  Ir  Ir24  1  0.652157  0.346081  0.750542  1
  Ir  Ir25  1  0.652157  0.653919  0.250542  1
  Ir  Ir26  1  0.347369  0.352405  0.245449  1
  Ir  Ir27  1  0.347369  0.647595  0.745449  1
  Ir  Ir28  1  0.506846  0.000670  0.123094  1
  Ir  Ir29  1  0.506846  0.999330  0.623094  1
  Ir  Ir30  1  0.000173  0.500309  0.879492  1
  Ir  Ir31  1  0.000173  0.499691  0.379492  1
