# generated using pymatgen
data_Nb3AlPt2C
_symmetry_space_group_name_H-M   'P 1'
_cell_length_a   8.43235383
_cell_length_b   8.43235517
_cell_length_c   8.43235300
_cell_angle_alpha   59.99999673
_cell_angle_beta   59.99999147
_cell_angle_gamma   59.99999731
_symmetry_Int_Tables_number   1
_chemical_formula_structural   Nb3AlPt2C
_chemical_formula_sum   'Nb12 Al4 Pt8 C4'
_cell_volume   423.96640596
_cell_formula_units_Z   4
loop_
 _symmetry_equiv_pos_site_id
 _symmetry_equiv_pos_as_xyz
  1  'x, y, z'
loop_
 _atom_site_type_symbol
 _atom_site_label
 _atom_site_symmetry_multiplicity
 _atom_site_fract_x
 _atom_site_fract_y
 _atom_site_fract_z
 _atom_site_occupancy
  Nb  Nb0  1  0.817792  0.182208  0.817792  1
  Nb  Nb1  1  0.067792  0.432208  0.432208  1
  Nb  Nb2  1  0.432208  0.067792  0.067792  1
  Nb  Nb3  1  0.067792  0.432208  0.067792  1
  Nb  Nb4  1  0.432208  0.432208  0.067792  1
  Nb  Nb5  1  0.067792  0.067792  0.432208  1
  Nb  Nb6  1  0.817792  0.817792  0.182208  1
  Nb  Nb7  1  0.182208  0.817792  0.817792  1
  Nb  Nb8  1  0.817792  0.182208  0.182208  1
  Nb  Nb9  1  0.182208  0.182208  0.817792  1
  Nb  Nb10  1  0.432208  0.067792  0.432208  1
  Nb  Nb11  1  0.182208  0.817792  0.182208  1
  Al  Al12  1  0.625000  0.625000  0.625000  1
  Al  Al13  1  0.125000  0.625000  0.625000  1
  Al  Al14  1  0.625000  0.125000  0.625000  1
  Al  Al15  1  0.625000  0.625000  0.125000  1
  Pt  Pt16  1  0.413160  0.413160  0.413160  1
  Pt  Pt17  1  0.489482  0.836840  0.836840  1
  Pt  Pt18  1  0.836840  0.489482  0.836840  1
  Pt  Pt19  1  0.836840  0.836840  0.489482  1
  Pt  Pt20  1  0.413160  0.760518  0.413160  1
  Pt  Pt21  1  0.413160  0.413160  0.760518  1
  Pt  Pt22  1  0.760518  0.413160  0.413160  1
  Pt  Pt23  1  0.836840  0.836840  0.836840  1
  C  C24  1  0.125000  0.125000  0.125000  1
  C  C25  1  0.625000  0.125000  0.125000  1
  C  C26  1  0.125000  0.625000  0.125000  1
  C  C27  1  0.125000  0.125000  0.625000  1
