# generated using pymatgen
data_Y8Lu2Ir5Rh
_symmetry_space_group_name_H-M   'P 1'
_cell_length_a   10.89918300
_cell_length_b   10.89918300
_cell_length_c   6.36992000
_cell_angle_alpha   90.00000000
_cell_angle_beta   90.00000000
_cell_angle_gamma   90.00000000
_symmetry_Int_Tables_number   1
_chemical_formula_structural   Y8Lu2Ir5Rh
_chemical_formula_sum   'Y16 Lu4 Ir10 Rh2'
_cell_volume   756.69674735
_cell_formula_units_Z   2
loop_
 _symmetry_equiv_pos_site_id
 _symmetry_equiv_pos_as_xyz
  1  'x, y, z'
loop_
 _atom_site_type_symbol
 _atom_site_label
 _atom_site_symmetry_multiplicity
 _atom_site_fract_x
 _atom_site_fract_y
 _atom_site_fract_z
 _atom_site_occupancy
  Y  Y0  1  0.289048  0.088279  0.379159  1
  Y  Y1  1  0.289048  0.911721  0.879159  1
  Y  Y2  1  0.710952  0.088279  0.879159  1
  Y  Y3  1  0.710952  0.911721  0.379159  1
  Y  Y4  1  0.588279  0.789048  0.879159  1
  Y  Y5  1  0.588279  0.210952  0.379159  1
  Y  Y6  1  0.411721  0.789048  0.379159  1
  Y  Y7  1  0.411721  0.210952  0.879159  1
  Y  Y8  1  0.209832  0.412001  0.621124  1
  Y  Y9  1  0.209832  0.587999  0.121124  1
  Y  Y10  1  0.790168  0.412001  0.121124  1
  Y  Y11  1  0.790168  0.587999  0.621124  1
  Y  Y12  1  0.912001  0.709832  0.121124  1
  Y  Y13  1  0.912001  0.290168  0.621124  1
  Y  Y14  1  0.087999  0.709832  0.621124  1
  Y  Y15  1  0.087999  0.290168  0.121124  1
  Lu  Lu16  1  0.000000  0.000000  0.500311  1
  Lu  Lu17  1  0.000000  0.000000  0.000311  1
  Lu  Lu18  1  0.500000  0.500000  0.000311  1
  Lu  Lu19  1  0.500000  0.500000  0.500311  1
  Ir  Ir20  1  0.848813  0.149944  0.249601  1
  Ir  Ir21  1  0.848813  0.850056  0.749601  1
  Ir  Ir22  1  0.151187  0.149944  0.749601  1
  Ir  Ir23  1  0.151187  0.850056  0.249601  1
  Ir  Ir24  1  0.649944  0.348813  0.749601  1
  Ir  Ir25  1  0.649944  0.651187  0.249601  1
  Ir  Ir26  1  0.350056  0.348813  0.249601  1
  Ir  Ir27  1  0.350056  0.651187  0.749601  1
  Ir  Ir28  1  0.000000  0.500000  0.875293  1
  Ir  Ir29  1  0.000000  0.500000  0.375293  1
  Rh  Rh30  1  0.500000  0.000000  0.124547  1
  Rh  Rh31  1  0.500000  0.000000  0.624547  1
