# generated using pymatgen
data_Ho7ErTi3Si16Mo9
_symmetry_space_group_name_H-M   'P 1'
_cell_length_a   6.90015317
_cell_length_b   6.90008868
_cell_length_c   12.77880103
_cell_angle_alpha   90.00292308
_cell_angle_beta   90.00265750
_cell_angle_gamma   89.79534820
_symmetry_Int_Tables_number   1
_chemical_formula_structural   Ho7ErTi3Si16Mo9
_chemical_formula_sum   'Ho7 Er1 Ti3 Si16 Mo9'
_cell_volume   608.41615932
_cell_formula_units_Z   1
loop_
 _symmetry_equiv_pos_site_id
 _symmetry_equiv_pos_as_xyz
  1  'x, y, z'
loop_
 _atom_site_type_symbol
 _atom_site_label
 _atom_site_symmetry_multiplicity
 _atom_site_fract_x
 _atom_site_fract_y
 _atom_site_fract_z
 _atom_site_occupancy
  Ho  Ho0  1  0.339385  0.001740  0.468494  1
  Ho  Ho1  1  0.497209  0.838994  0.719285  1
  Ho  Ho2  1  0.499198  0.161714  0.217457  1
  Ho  Ho3  1  0.839081  0.497314  0.280670  1
  Ho  Ho4  1  0.161718  0.499292  0.782589  1
  Ho  Ho5  1  0.659730  0.999859  0.968841  1
  Ho  Ho6  1  0.001746  0.339416  0.531485  1
  Er  Er7  1  0.000399  0.659295  0.031091  1
  Ti  Ti8  1  0.169918  0.831481  0.248554  1
  Ti  Ti9  1  0.831508  0.169974  0.751407  1
  Ti  Ti10  1  0.668830  0.668872  0.499994  1
  Si  Si11  1  0.200897  0.129091  0.683526  1
  Si  Si12  1  0.373442  0.697262  0.934114  1
  Si  Si13  1  0.628758  0.299047  0.433526  1
  Si  Si14  1  0.697479  0.373966  0.065961  1
  Si  Si15  1  0.299032  0.628773  0.566480  1
  Si  Si16  1  0.797007  0.871570  0.183880  1
  Si  Si17  1  0.129073  0.200878  0.316469  1
  Si  Si18  1  0.871877  0.796670  0.816069  1
  Si  Si19  1  0.287521  0.963462  0.061620  1
  Si  Si20  1  0.539338  0.791174  0.313461  1
  Si  Si21  1  0.458273  0.210967  0.815043  1
  Si  Si22  1  0.791158  0.539397  0.686535  1
  Si  Si23  1  0.210718  0.458545  0.184826  1
  Si  Si24  1  0.709940  0.041032  0.563805  1
  Si  Si25  1  0.963716  0.288068  0.938484  1
  Si  Si26  1  0.041048  0.709969  0.436175  1
  Mo  Mo27  1  0.331339  0.331593  0.000021  1
  Mo  Mo28  1  0.155610  0.001907  0.873235  1
  Mo  Mo29  1  0.496062  0.666430  0.124448  1
  Mo  Mo30  1  0.505987  0.340488  0.624545  1
  Mo  Mo31  1  0.666630  0.496255  0.875678  1
  Mo  Mo32  1  0.340430  0.506052  0.375401  1
  Mo  Mo33  1  0.840680  0.993179  0.374162  1
  Mo  Mo34  1  0.002014  0.155625  0.126881  1
  Mo  Mo35  1  0.993250  0.840652  0.625789  1
