# generated using pymatgen
data_YbCd(CoO2)6
_symmetry_space_group_name_H-M   'P 1'
_cell_length_a   4.90685132
_cell_length_b   5.64219874
_cell_length_c   8.49038300
_cell_angle_alpha   89.99972767
_cell_angle_beta   90.00038910
_cell_angle_gamma   73.10390982
_symmetry_Int_Tables_number   1
_chemical_formula_structural   YbCd(CoO2)6
_chemical_formula_sum   'Yb1 Cd1 Co6 O12'
_cell_volume   224.91317452
_cell_formula_units_Z   1
loop_
 _symmetry_equiv_pos_site_id
 _symmetry_equiv_pos_as_xyz
  1  'x, y, z'
loop_
 _atom_site_type_symbol
 _atom_site_label
 _atom_site_symmetry_multiplicity
 _atom_site_fract_x
 _atom_site_fract_y
 _atom_site_fract_z
 _atom_site_occupancy
  Yb  Yb0  1  0.499999  0.500000  0.666305  1
  Cd  Cd1  1  0.000001  0.500000  0.167109  1
  Co  Co2  1  0.500001  0.000000  0.166629  1
  Co  Co3  1  0.500001  0.000000  0.833279  1
  Co  Co4  1  0.499999  0.000000  0.500152  1
  Co  Co5  1  0.999999  0.000000  0.666621  1
  Co  Co6  1  0.999999  0.000000  0.334845  1
  Co  Co7  1  0.000001  0.000000  0.998522  1
  O  O8  1  0.774096  0.182162  0.166684  1
  O  O9  1  0.272304  0.184388  0.666702  1
  O  O10  1  0.225906  0.817838  0.166690  1
  O  O11  1  0.727695  0.815612  0.666705  1
  O  O12  1  0.270448  0.184015  0.004183  1
  O  O13  1  0.770971  0.184472  0.504186  1
  O  O14  1  0.270481  0.183932  0.329204  1
  O  O15  1  0.770892  0.184273  0.828968  1
  O  O16  1  0.729515  0.816070  0.329206  1
  O  O17  1  0.229107  0.815727  0.828970  1
  O  O18  1  0.729559  0.815983  0.004185  1
  O  O19  1  0.229027  0.815530  0.504188  1
