# generated using pymatgen
data_In2SnPt3
_symmetry_space_group_name_H-M   'P 1'
_cell_length_a   7.21723794
_cell_length_b   7.21723745
_cell_length_c   5.57749900
_cell_angle_alpha   90.00000000
_cell_angle_beta   90.00000000
_cell_angle_gamma   60.06428246
_symmetry_Int_Tables_number   1
_chemical_formula_structural   In2SnPt3
_chemical_formula_sum   'In4 Sn2 Pt6'
_cell_volume   251.76369338
_cell_formula_units_Z   2
loop_
 _symmetry_equiv_pos_site_id
 _symmetry_equiv_pos_as_xyz
  1  'x, y, z'
loop_
 _atom_site_type_symbol
 _atom_site_label
 _atom_site_symmetry_multiplicity
 _atom_site_fract_x
 _atom_site_fract_y
 _atom_site_fract_z
 _atom_site_occupancy
  In  In0  1  0.493562  0.165645  0.250000  1
  In  In1  1  0.834355  0.506437  0.250000  1
  In  In2  1  0.165645  0.493562  0.750000  1
  In  In3  1  0.506437  0.834355  0.750000  1
  Sn  Sn4  1  0.173666  0.826334  0.250000  1
  Sn  Sn5  1  0.826334  0.173666  0.750000  1
  Pt  Pt6  1  0.160183  0.160183  0.000000  1
  Pt  Pt7  1  0.500000  0.500000  0.000000  1
  Pt  Pt8  1  0.839817  0.839817  0.000000  1
  Pt  Pt9  1  0.160183  0.160183  0.500000  1
  Pt  Pt10  1  0.500000  0.500000  0.500000  1
  Pt  Pt11  1  0.839817  0.839817  0.500000  1
