# generated using pymatgen
data_FeBi2Sb4(SO8)2
_symmetry_space_group_name_H-M   'P 1'
_cell_length_a   5.74102216
_cell_length_b   7.90619473
_cell_length_c   9.56079099
_cell_angle_alpha   97.27623192
_cell_angle_beta   94.85685313
_cell_angle_gamma   108.58861689
_symmetry_Int_Tables_number   1
_chemical_formula_structural   FeBi2Sb4(SO8)2
_chemical_formula_sum   'Fe1 Bi2 Sb4 S2 O16'
_cell_volume   404.38516965
_cell_formula_units_Z   1
loop_
 _symmetry_equiv_pos_site_id
 _symmetry_equiv_pos_as_xyz
  1  'x, y, z'
loop_
 _atom_site_type_symbol
 _atom_site_label
 _atom_site_symmetry_multiplicity
 _atom_site_fract_x
 _atom_site_fract_y
 _atom_site_fract_z
 _atom_site_occupancy
  Fe  Fe0  1  0.000000  0.500000  0.500000  1
  Bi  Bi1  1  0.707039  0.517421  0.793350  1
  Bi  Bi2  1  0.292961  0.482579  0.206650  1
  Sb  Sb3  1  0.637043  0.830084  0.521684  1
  Sb  Sb4  1  0.362957  0.169916  0.478316  1
  Sb  Sb5  1  0.342028  0.858931  0.797584  1
  Sb  Sb6  1  0.657972  0.141069  0.202416  1
  S  S7  1  0.145265  0.236502  0.857125  1
  S  S8  1  0.854735  0.763498  0.142875  1
  O  O9  1  0.039738  0.665551  0.692414  1
  O  O10  1  0.960262  0.334449  0.307586  1
  O  O11  1  0.552145  0.712359  0.708533  1
  O  O12  1  0.447855  0.287641  0.291467  1
  O  O13  1  0.054415  0.040954  0.793493  1
  O  O14  1  0.945585  0.959046  0.206507  1
  O  O15  1  0.674415  0.366538  0.575791  1
  O  O16  1  0.325585  0.633462  0.424209  1
  O  O17  1  0.344635  0.272858  0.979798  1
  O  O18  1  0.655365  0.727142  0.020202  1
  O  O19  1  0.442027  0.974848  0.623515  1
  O  O20  1  0.557973  0.025152  0.376485  1
  O  O21  1  0.258744  0.345150  0.745349  1
  O  O22  1  0.741256  0.654850  0.254651  1
  O  O23  1  0.938377  0.293852  0.904534  1
  O  O24  1  0.061623  0.706148  0.095466  1
