# generated using pymatgen
data_Gd2MgZnRh2
_symmetry_space_group_name_H-M   'P 1'
_cell_length_a   4.11019700
_cell_length_b   7.03740458
_cell_length_c   8.41332500
_cell_angle_alpha   91.14963128
_cell_angle_beta   90.00000000
_cell_angle_gamma   90.00000000
_symmetry_Int_Tables_number   1
_chemical_formula_structural   Gd2MgZnRh2
_chemical_formula_sum   'Gd4 Mg2 Zn2 Rh4'
_cell_volume   243.30744249
_cell_formula_units_Z   2
loop_
 _symmetry_equiv_pos_site_id
 _symmetry_equiv_pos_as_xyz
  1  'x, y, z'
loop_
 _atom_site_type_symbol
 _atom_site_label
 _atom_site_symmetry_multiplicity
 _atom_site_fract_x
 _atom_site_fract_y
 _atom_site_fract_z
 _atom_site_occupancy
  Gd  Gd0  1  0.250000  0.541895  0.173937  1
  Gd  Gd1  1  0.750000  0.458105  0.826063  1
  Gd  Gd2  1  0.750000  0.963168  0.689522  1
  Gd  Gd3  1  0.250000  0.036832  0.310478  1
  Mg  Mg4  1  0.250000  0.639553  0.563552  1
  Mg  Mg5  1  0.750000  0.360447  0.436448  1
  Zn  Zn6  1  0.750000  0.863675  0.059890  1
  Zn  Zn7  1  0.250000  0.136325  0.940110  1
  Rh  Rh8  1  0.250000  0.759589  0.886637  1
  Rh  Rh9  1  0.750000  0.240411  0.113363  1
  Rh  Rh10  1  0.750000  0.759778  0.357129  1
  Rh  Rh11  1  0.250000  0.240222  0.642871  1
