# generated using pymatgen
data_Li4Pr8Si11P
_symmetry_space_group_name_H-M   'P 1'
_cell_length_a   11.06769227
_cell_length_b   9.36062810
_cell_length_c   8.32624307
_cell_angle_alpha   77.20041407
_cell_angle_beta   55.55191395
_cell_angle_gamma   47.22265221
_symmetry_Int_Tables_number   1
_chemical_formula_structural   Li4Pr8Si11P
_chemical_formula_sum   'Li4 Pr8 Si11 P1'
_cell_volume   502.92143337
_cell_formula_units_Z   1
loop_
 _symmetry_equiv_pos_site_id
 _symmetry_equiv_pos_as_xyz
  1  'x, y, z'
loop_
 _atom_site_type_symbol
 _atom_site_label
 _atom_site_symmetry_multiplicity
 _atom_site_fract_x
 _atom_site_fract_y
 _atom_site_fract_z
 _atom_site_occupancy
  Li  Li0  1  0.079572  0.420528  0.089077  1
  Li  Li1  1  0.833392  0.167518  0.831777  1
  Li  Li2  1  0.168335  0.833795  0.166436  1
  Li  Li3  1  0.418263  0.082113  0.415515  1
  Pr  Pr4  1  0.123895  0.122925  0.876109  1
  Pr  Pr5  1  0.875901  0.875735  0.124565  1
  Pr  Pr6  1  0.126698  0.126809  0.373327  1
  Pr  Pr7  1  0.372184  0.374427  0.127866  1
  Pr  Pr8  1  0.623036  0.623006  0.377144  1
  Pr  Pr9  1  0.377138  0.377013  0.622547  1
  Pr  Pr10  1  0.628231  0.626984  0.870818  1
  Pr  Pr11  1  0.873384  0.871480  0.625908  1
  Si  Si12  1  0.081407  0.411436  0.587731  1
  Si  Si13  1  0.415032  0.078170  0.918190  1
  Si  Si14  1  0.588714  0.918211  0.077471  1
  Si  Si15  1  0.330703  0.661334  0.836519  1
  Si  Si16  1  0.661796  0.331419  0.171120  1
  Si  Si17  1  0.835633  0.171674  0.330930  1
  Si  Si18  1  0.171132  0.835068  0.661425  1
  Si  Si19  1  0.916370  0.583303  0.916279  1
  Si  Si20  1  0.583320  0.917141  0.581439  1
  Si  Si21  1  0.333563  0.666839  0.332835  1
  Si  Si22  1  0.665692  0.333047  0.667364  1
  P  P23  1  0.916615  0.590030  0.417605  1
