# generated using pymatgen
data_La16In4Os3Ru
_symmetry_space_group_name_H-M   'P 1'
_cell_length_a   10.08240084
_cell_length_b   10.11767618
_cell_length_c   10.11767600
_cell_angle_alpha   59.99999405
_cell_angle_beta   59.88419016
_cell_angle_gamma   59.88419522
_symmetry_Int_Tables_number   1
_chemical_formula_structural   La16In4Os3Ru
_chemical_formula_sum   'La16 In4 Os3 Ru1'
_cell_volume   728.53104435
_cell_formula_units_Z   1
loop_
 _symmetry_equiv_pos_site_id
 _symmetry_equiv_pos_as_xyz
  1  'x, y, z'
loop_
 _atom_site_type_symbol
 _atom_site_label
 _atom_site_symmetry_multiplicity
 _atom_site_fract_x
 _atom_site_fract_y
 _atom_site_fract_z
 _atom_site_occupancy
  La  La0  1  0.904701  0.904486  0.904486  1
  La  La1  1  0.441290  0.439541  0.059585  1
  La  La2  1  0.060318  0.059071  0.440306  1
  La  La3  1  0.441290  0.059585  0.059585  1
  La  La4  1  0.306484  0.693836  0.305842  1
  La  La5  1  0.693821  0.691360  0.307409  1
  La  La6  1  0.693821  0.307409  0.307409  1
  La  La7  1  0.286347  0.904552  0.904552  1
  La  La8  1  0.904701  0.286327  0.904486  1
  La  La9  1  0.306484  0.693836  0.693836  1
  La  La10  1  0.904701  0.904486  0.286327  1
  La  La11  1  0.060318  0.440306  0.059071  1
  La  La12  1  0.306484  0.305842  0.693836  1
  La  La13  1  0.060318  0.440306  0.440306  1
  La  La14  1  0.441290  0.059585  0.439541  1
  La  La15  1  0.693821  0.307409  0.691360  1
  In  In16  1  0.670345  0.670098  0.989457  1
  In  In17  1  0.989534  0.670155  0.670155  1
  In  In18  1  0.670345  0.989457  0.670098  1
  In  In19  1  0.670345  0.670098  0.670098  1
  Os  Os20  1  0.111244  0.111933  0.664890  1
  Os  Os21  1  0.111244  0.111933  0.111933  1
  Os  Os22  1  0.111244  0.664890  0.111933  1
  Ru  Ru23  1  0.659508  0.113497  0.113497  1
