# generated using pymatgen
data_TbSi5P(Pd10Pb)2
_symmetry_space_group_name_H-M   'P 1'
_cell_length_a   8.74540010
_cell_length_b   8.74539996
_cell_length_c   8.72610300
_cell_angle_alpha   60.07296830
_cell_angle_beta   60.07296881
_cell_angle_gamma   59.85406918
_symmetry_Int_Tables_number   1
_chemical_formula_structural   TbSi5P(Pd10Pb)2
_chemical_formula_sum   'Tb1 Si5 P1 Pd20 Pb2'
_cell_volume   471.91143082
_cell_formula_units_Z   1
loop_
 _symmetry_equiv_pos_site_id
 _symmetry_equiv_pos_as_xyz
  1  'x, y, z'
loop_
 _atom_site_type_symbol
 _atom_site_label
 _atom_site_symmetry_multiplicity
 _atom_site_fract_x
 _atom_site_fract_y
 _atom_site_fract_z
 _atom_site_occupancy
  Tb  Tb0  1  0.000638  0.000638  0.999362  1
  Si  Si1  1  0.730350  0.268413  0.269650  1
  Si  Si2  1  0.268413  0.730350  0.731587  1
  Si  Si3  1  0.268413  0.730350  0.269650  1
  Si  Si4  1  0.730350  0.268413  0.731587  1
  Si  Si5  1  0.269240  0.269240  0.730760  1
  P  P6  1  0.732704  0.732704  0.267296  1
  Pd  Pd7  1  0.383750  0.383750  0.383401  1
  Pd  Pd8  1  0.616123  0.616123  0.614648  1
  Pd  Pd9  1  0.383750  0.383750  0.849098  1
  Pd  Pd10  1  0.385352  0.846894  0.383877  1
  Pd  Pd11  1  0.616123  0.616123  0.153106  1
  Pd  Pd12  1  0.616599  0.150902  0.616250  1
  Pd  Pd13  1  0.846894  0.385352  0.383877  1
  Pd  Pd14  1  0.150902  0.616599  0.616250  1
  Pd  Pd15  1  0.343189  0.999553  0.000447  1
  Pd  Pd16  1  0.656658  0.999431  0.000569  1
  Pd  Pd17  1  0.999553  0.343189  0.656811  1
  Pd  Pd18  1  0.999431  0.656658  0.343342  1
  Pd  Pd19  1  0.999553  0.343189  0.000447  1
  Pd  Pd20  1  0.656658  0.999431  0.343342  1
  Pd  Pd21  1  0.999431  0.656658  0.000569  1
  Pd  Pd22  1  0.343189  0.999553  0.656811  1
  Pd  Pd23  1  0.000910  0.000910  0.342885  1
  Pd  Pd24  1  0.000910  0.000910  0.655294  1
  Pd  Pd25  1  0.657115  0.344706  0.999090  1
  Pd  Pd26  1  0.344706  0.657115  0.999090  1
  Pb  Pb27  1  0.249547  0.249547  0.250453  1
  Pb  Pb28  1  0.749547  0.749547  0.750453  1
