# generated using pymatgen
data_Tm4Ti5ReSi8
_symmetry_space_group_name_H-M   'P 1'
_cell_length_a   6.96142028
_cell_length_b   6.95236900
_cell_length_c   12.78267351
_cell_angle_alpha   90.00000000
_cell_angle_beta   89.96764675
_cell_angle_gamma   90.00000000
_symmetry_Int_Tables_number   1
_chemical_formula_structural   Tm4Ti5ReSi8
_chemical_formula_sum   'Tm8 Ti10 Re2 Si16'
_cell_volume   618.66036802
_cell_formula_units_Z   2
loop_
 _symmetry_equiv_pos_site_id
 _symmetry_equiv_pos_as_xyz
  1  'x, y, z'
loop_
 _atom_site_type_symbol
 _atom_site_label
 _atom_site_symmetry_multiplicity
 _atom_site_fract_x
 _atom_site_fract_y
 _atom_site_fract_z
 _atom_site_occupancy
  Tm  Tm0  1  0.340281  0.000851  0.465925  1
  Tm  Tm1  1  0.497437  0.840432  0.718179  1
  Tm  Tm2  1  0.499598  0.159095  0.216867  1
  Tm  Tm3  1  0.841668  0.499042  0.281274  1
  Tm  Tm4  1  0.159719  0.500851  0.784075  1
  Tm  Tm5  1  0.658332  0.999042  0.968726  1
  Tm  Tm6  1  0.002563  0.340432  0.531821  1
  Tm  Tm7  1  0.000402  0.659095  0.033133  1
  Ti  Ti8  1  0.827809  0.172994  0.751179  1
  Ti  Ti9  1  0.672191  0.672994  0.498821  1
  Ti  Ti10  1  0.152119  0.005799  0.877491  1
  Ti  Ti11  1  0.493521  0.652473  0.125231  1
  Ti  Ti12  1  0.505798  0.349242  0.626603  1
  Ti  Ti13  1  0.652866  0.493005  0.875798  1
  Ti  Ti14  1  0.347881  0.505799  0.372509  1
  Ti  Ti15  1  0.847134  0.993005  0.374202  1
  Ti  Ti16  1  0.006479  0.152473  0.124769  1
  Ti  Ti17  1  0.994202  0.849242  0.623397  1
  Re  Re18  1  0.326399  0.328719  0.001447  1
  Re  Re19  1  0.173601  0.828719  0.248553  1
  Si  Si20  1  0.203727  0.131872  0.683561  1
  Si  Si21  1  0.369352  0.700577  0.933052  1
  Si  Si22  1  0.632139  0.296507  0.433229  1
  Si  Si23  1  0.701304  0.369393  0.067021  1
  Si  Si24  1  0.296273  0.631872  0.566439  1
  Si  Si25  1  0.798696  0.869393  0.182979  1
  Si  Si26  1  0.130648  0.200577  0.316948  1
  Si  Si27  1  0.867861  0.796507  0.816771  1
  Si  Si28  1  0.291530  0.953439  0.065859  1
  Si  Si29  1  0.545358  0.791971  0.315371  1
  Si  Si30  1  0.451625  0.207499  0.817385  1
  Si  Si31  1  0.793537  0.547090  0.684390  1
  Si  Si32  1  0.208470  0.453439  0.184141  1
  Si  Si33  1  0.706463  0.047090  0.565610  1
  Si  Si34  1  0.954642  0.291971  0.934629  1
  Si  Si35  1  0.048375  0.707499  0.432615  1
