# generated using pymatgen
data_Ho2U(GaCo)3
_symmetry_space_group_name_H-M   'P 1'
_cell_length_a   7.05841395
_cell_length_b   7.05841369
_cell_length_c   3.54649300
_cell_angle_alpha   90.00000000
_cell_angle_beta   90.00000000
_cell_angle_gamma   118.86222713
_symmetry_Int_Tables_number   1
_chemical_formula_structural   Ho2U(GaCo)3
_chemical_formula_sum   'Ho2 U1 Ga3 Co3'
_cell_volume   154.74257660
_cell_formula_units_Z   1
loop_
 _symmetry_equiv_pos_site_id
 _symmetry_equiv_pos_as_xyz
  1  'x, y, z'
loop_
 _atom_site_type_symbol
 _atom_site_label
 _atom_site_symmetry_multiplicity
 _atom_site_fract_x
 _atom_site_fract_y
 _atom_site_fract_z
 _atom_site_occupancy
  Ho  Ho0  1  0.411355  0.002443  0.500000  1
  Ho  Ho1  1  0.002443  0.411355  0.500000  1
  U  U2  1  0.580342  0.580342  0.500000  1
  Ga  Ga3  1  0.749205  0.004596  0.000000  1
  Ga  Ga4  1  0.004596  0.749205  0.000000  1
  Ga  Ga5  1  0.235173  0.235173  0.000000  1
  Co  Co6  1  0.376059  0.658219  0.000000  1
  Co  Co7  1  0.658219  0.376059  0.000000  1
  Co  Co8  1  0.982610  0.982610  0.500000  1
