# generated using pymatgen
data_Pr2Al20RuRh3
_symmetry_space_group_name_H-M   'P 1'
_cell_length_a   6.89111975
_cell_length_b   6.89616089
_cell_length_c   9.22338906
_cell_angle_alpha   89.93491463
_cell_angle_beta   89.90784984
_cell_angle_gamma   97.37247842
_symmetry_Int_Tables_number   1
_chemical_formula_structural   Pr2Al20RuRh3
_chemical_formula_sum   'Pr2 Al20 Ru1 Rh3'
_cell_volume   434.69183022
_cell_formula_units_Z   1
loop_
 _symmetry_equiv_pos_site_id
 _symmetry_equiv_pos_as_xyz
  1  'x, y, z'
loop_
 _atom_site_type_symbol
 _atom_site_label
 _atom_site_symmetry_multiplicity
 _atom_site_fract_x
 _atom_site_fract_y
 _atom_site_fract_z
 _atom_site_occupancy
  Pr  Pr0  1  0.874430  0.127405  0.750268  1
  Pr  Pr1  1  0.125570  0.872595  0.249732  1
  Al  Al2  1  0.407163  0.141817  0.749399  1
  Al  Al3  1  0.141113  0.407701  0.251018  1
  Al  Al4  1  0.592837  0.858183  0.250601  1
  Al  Al5  1  0.858887  0.592299  0.748982  1
  Al  Al6  1  0.517948  0.773657  0.749929  1
  Al  Al7  1  0.775220  0.517508  0.252769  1
  Al  Al8  1  0.482052  0.226343  0.250071  1
  Al  Al9  1  0.224780  0.482492  0.747231  1
  Al  Al10  1  0.842231  0.159503  0.396627  1
  Al  Al11  1  0.157769  0.840497  0.603373  1
  Al  Al12  1  0.840924  0.158788  0.104549  1
  Al  Al13  1  0.159076  0.841212  0.895451  1
  Al  Al14  1  0.623508  0.379668  0.548724  1
  Al  Al15  1  0.376492  0.620332  0.451276  1
  Al  Al16  1  0.621675  0.378967  0.949959  1
  Al  Al17  1  0.378325  0.621033  0.050041  1
  Al  Al18  1  0.775591  0.775135  0.999988  1
  Al  Al19  1  0.777377  0.775561  0.499330  1
  Al  Al20  1  0.224409  0.224865  0.000012  1
  Al  Al21  1  0.222623  0.224439  0.500670  1
  Ru  Ru22  1  0.000000  0.500000  0.500000  1
  Rh  Rh23  1  0.500000  0.000000  0.000000  1
  Rh  Rh24  1  0.000000  0.500000  0.000000  1
  Rh  Rh25  1  0.500000  0.000000  0.500000  1
