# generated using pymatgen
data_K2Yb3Cl8
_symmetry_space_group_name_H-M   'P 1'
_cell_length_a   8.63096169
_cell_length_b   8.63096200
_cell_length_c   8.63096218
_cell_angle_alpha   56.44439941
_cell_angle_beta   56.44439924
_cell_angle_gamma   56.44439895
_symmetry_Int_Tables_number   1
_chemical_formula_structural   K2Yb3Cl8
_chemical_formula_sum   'K2 Yb3 Cl8'
_cell_volume   417.26185297
_cell_formula_units_Z   1
loop_
 _symmetry_equiv_pos_site_id
 _symmetry_equiv_pos_as_xyz
  1  'x, y, z'
loop_
 _atom_site_type_symbol
 _atom_site_label
 _atom_site_symmetry_multiplicity
 _atom_site_fract_x
 _atom_site_fract_y
 _atom_site_fract_z
 _atom_site_occupancy
  K  K0  1  0.155680  0.155680  0.155680  1
  K  K1  1  0.844320  0.844320  0.844320  1
  Yb  Yb2  1  0.500000  0.500000  0.000000  1
  Yb  Yb3  1  0.500000  0.000000  0.500000  1
  Yb  Yb4  1  0.000000  0.500000  0.500000  1
  Cl  Cl5  1  0.572524  0.109614  0.109614  1
  Cl  Cl6  1  0.109614  0.572524  0.109614  1
  Cl  Cl7  1  0.399365  0.399365  0.399365  1
  Cl  Cl8  1  0.890386  0.890386  0.427476  1
  Cl  Cl9  1  0.109614  0.109614  0.572524  1
  Cl  Cl10  1  0.600635  0.600635  0.600635  1
  Cl  Cl11  1  0.890386  0.427476  0.890386  1
  Cl  Cl12  1  0.427476  0.890386  0.890386  1
