# generated using pymatgen
data_Tm4Tc2MoRu5
_symmetry_space_group_name_H-M   'P 1'
_cell_length_a   5.45153523
_cell_length_b   5.12303939
_cell_length_c   8.99835200
_cell_angle_alpha   90.00000000
_cell_angle_beta   90.00000000
_cell_angle_gamma   120.88030288
_symmetry_Int_Tables_number   1
_chemical_formula_structural   Tm4Tc2MoRu5
_chemical_formula_sum   'Tm4 Tc2 Mo1 Ru5'
_cell_volume   215.68451009
_cell_formula_units_Z   1
loop_
 _symmetry_equiv_pos_site_id
 _symmetry_equiv_pos_as_xyz
  1  'x, y, z'
loop_
 _atom_site_type_symbol
 _atom_site_label
 _atom_site_symmetry_multiplicity
 _atom_site_fract_x
 _atom_site_fract_y
 _atom_site_fract_z
 _atom_site_occupancy
  Tm  Tm0  1  0.674077  0.344820  0.565317  1
  Tm  Tm1  1  0.328139  0.664471  0.433936  1
  Tm  Tm2  1  0.328139  0.664471  0.066064  1
  Tm  Tm3  1  0.674077  0.344820  0.934683  1
  Tc  Tc4  1  0.831557  0.650719  0.250000  1
  Tc  Tc5  1  0.832348  0.169629  0.250000  1
  Mo  Mo6  1  0.167169  0.326994  0.750000  1
  Ru  Ru7  1  0.995991  0.009650  0.499142  1
  Ru  Ru8  1  0.995991  0.009650  0.000858  1
  Ru  Ru9  1  0.173678  0.820285  0.750000  1
  Ru  Ru10  1  0.654996  0.823781  0.750000  1
  Ru  Ru11  1  0.343839  0.170707  0.250000  1
