# generated using pymatgen
data_LaCuPN
_symmetry_space_group_name_H-M   'P 1'
_cell_length_a   3.86198900
_cell_length_b   3.86198900
_cell_length_c   8.19905200
_cell_angle_alpha   90.00000000
_cell_angle_beta   90.00000000
_cell_angle_gamma   90.00000000
_symmetry_Int_Tables_number   1
_chemical_formula_structural   LaCuPN
_chemical_formula_sum   'La2 Cu2 P2 N2'
_cell_volume   122.28852472
_cell_formula_units_Z   2
loop_
 _symmetry_equiv_pos_site_id
 _symmetry_equiv_pos_as_xyz
  1  'x, y, z'
loop_
 _atom_site_type_symbol
 _atom_site_label
 _atom_site_symmetry_multiplicity
 _atom_site_fract_x
 _atom_site_fract_y
 _atom_site_fract_z
 _atom_site_occupancy
  La  La0  1  0.000000  0.500000  0.336364  1
  La  La1  1  0.500000  0.000000  0.663636  1
  Cu  Cu2  1  0.000000  0.000000  0.000000  1
  Cu  Cu3  1  0.500000  0.500000  0.000000  1
  P  P4  1  0.000000  0.500000  0.840759  1
  P  P5  1  0.500000  0.000000  0.159241  1
  N  N6  1  0.000000  0.500000  0.631646  1
  N  N7  1  0.500000  0.000000  0.368354  1
