# generated using pymatgen
data_La4V3SbF28
_symmetry_space_group_name_H-M   'P 1'
_cell_length_a   5.77566010
_cell_length_b   9.27449597
_cell_length_c   12.39733542
_cell_angle_alpha   62.34643347
_cell_angle_beta   90.16561324
_cell_angle_gamma   89.90701389
_symmetry_Int_Tables_number   1
_chemical_formula_structural   La4V3SbF28
_chemical_formula_sum   'La4 V3 Sb1 F28'
_cell_volume   588.21628117
_cell_formula_units_Z   1
loop_
 _symmetry_equiv_pos_site_id
 _symmetry_equiv_pos_as_xyz
  1  'x, y, z'
loop_
 _atom_site_type_symbol
 _atom_site_label
 _atom_site_symmetry_multiplicity
 _atom_site_fract_x
 _atom_site_fract_y
 _atom_site_fract_z
 _atom_site_occupancy
  La  La0  1  0.761766  0.806075  0.254547  1
  La  La1  1  0.260300  0.200450  0.230038  1
  La  La2  1  0.246998  0.191154  0.727565  1
  La  La3  1  0.743271  0.821159  0.768870  1
  V  V4  1  0.747482  0.279108  0.951432  1
  V  V5  1  0.756208  0.273896  0.456538  1
  V  V6  1  0.256845  0.729322  0.038645  1
  Sb  Sb7  1  0.243831  0.726478  0.544729  1
  F  F8  1  0.962121  0.713295  0.467116  1
  F  F9  1  0.482914  0.287248  0.041357  1
  F  F10  1  0.030039  0.286515  0.549212  1
  F  F11  1  0.531393  0.717298  0.957404  1
  F  F12  1  0.064727  0.712617  0.920796  1
  F  F13  1  0.547821  0.286560  0.579153  1
  F  F14  1  0.945723  0.292182  0.068951  1
  F  F15  1  0.427267  0.700033  0.427322  1
  F  F16  1  0.740337  0.504438  0.861371  1
  F  F17  1  0.235214  0.495757  0.641611  1
  F  F18  1  0.264447  0.506822  0.128628  1
  F  F19  1  0.763673  0.518537  0.362848  1
  F  F20  1  0.742863  0.054395  0.041129  1
  F  F21  1  0.243186  0.957669  0.460981  1
  F  F22  1  0.264100  0.951210  0.952137  1
  F  F23  1  0.765469  0.031243  0.562489  1
  F  F24  1  0.061350  0.735636  0.670919  1
  F  F25  1  0.546190  0.259194  0.836245  1
  F  F26  1  0.962269  0.251863  0.336267  1
  F  F27  1  0.443017  0.747412  0.159869  1
  F  F28  1  0.006749  0.273060  0.860378  1
  F  F29  1  0.520597  0.725356  0.631470  1
  F  F30  1  0.988612  0.737944  0.123723  1
  F  F31  1  0.491083  0.264759  0.358518  1
  F  F32  1  0.084704  0.963021  0.241550  1
  F  F33  1  0.570527  0.012022  0.272255  1
  F  F34  1  0.905989  0.031581  0.782206  1
  F  F35  1  0.390917  0.954692  0.731731  1
