# generated using pymatgen
data_Ba3SrZrSe6
_symmetry_space_group_name_H-M   'P 1'
_cell_length_a   8.88401831
_cell_length_b   8.88401882
_cell_length_c   8.88401984
_cell_angle_alpha   91.00068861
_cell_angle_beta   91.00068989
_cell_angle_gamma   91.00069346
_symmetry_Int_Tables_number   1
_chemical_formula_structural   Ba3SrZrSe6
_chemical_formula_sum   'Ba6 Sr2 Zr2 Se12'
_cell_volume   700.85364014
_cell_formula_units_Z   2
loop_
 _symmetry_equiv_pos_site_id
 _symmetry_equiv_pos_as_xyz
  1  'x, y, z'
loop_
 _atom_site_type_symbol
 _atom_site_label
 _atom_site_symmetry_multiplicity
 _atom_site_fract_x
 _atom_site_fract_y
 _atom_site_fract_z
 _atom_site_occupancy
  Ba  Ba0  1  0.873607  0.626393  0.250000  1
  Ba  Ba1  1  0.250000  0.873607  0.626393  1
  Ba  Ba2  1  0.626393  0.250000  0.873607  1
  Ba  Ba3  1  0.750000  0.126393  0.373607  1
  Ba  Ba4  1  0.373607  0.750000  0.126393  1
  Ba  Ba5  1  0.126393  0.373607  0.750000  1
  Sr  Sr6  1  0.250000  0.250000  0.250000  1
  Sr  Sr7  1  0.750000  0.750000  0.750000  1
  Zr  Zr8  1  0.500000  0.500000  0.500000  1
  Zr  Zr9  1  0.000000  0.000000  0.000000  1
  Se  Se10  1  0.207028  0.553588  0.419947  1
  Se  Se11  1  0.419947  0.207028  0.553588  1
  Se  Se12  1  0.553588  0.419947  0.207028  1
  Se  Se13  1  0.919947  0.053588  0.707028  1
  Se  Se14  1  0.707028  0.919947  0.053588  1
  Se  Se15  1  0.053588  0.707028  0.919947  1
  Se  Se16  1  0.792972  0.446412  0.580053  1
  Se  Se17  1  0.580053  0.792972  0.446412  1
  Se  Se18  1  0.446412  0.580053  0.792972  1
  Se  Se19  1  0.080053  0.946412  0.292972  1
  Se  Se20  1  0.292972  0.080053  0.946412  1
  Se  Se21  1  0.946412  0.292972  0.080053  1
