# generated using pymatgen
data_Ho16Sc4Ir11Os
_symmetry_space_group_name_H-M   'P 1'
_cell_length_a   10.73451000
_cell_length_b   10.73451000
_cell_length_c   6.27621200
_cell_angle_alpha   90.00000000
_cell_angle_beta   90.00000000
_cell_angle_gamma   90.00000000
_symmetry_Int_Tables_number   1
_chemical_formula_structural   Ho16Sc4Ir11Os
_chemical_formula_sum   'Ho16 Sc4 Ir11 Os1'
_cell_volume   723.20605690
_cell_formula_units_Z   1
loop_
 _symmetry_equiv_pos_site_id
 _symmetry_equiv_pos_as_xyz
  1  'x, y, z'
loop_
 _atom_site_type_symbol
 _atom_site_label
 _atom_site_symmetry_multiplicity
 _atom_site_fract_x
 _atom_site_fract_y
 _atom_site_fract_z
 _atom_site_occupancy
  Ho  Ho0  1  0.289183  0.085688  0.375046  1
  Ho  Ho1  1  0.289565  0.914375  0.878570  1
  Ho  Ho2  1  0.710435  0.085625  0.878570  1
  Ho  Ho3  1  0.710817  0.914312  0.375046  1
  Ho  Ho4  1  0.585625  0.789565  0.878570  1
  Ho  Ho5  1  0.585688  0.210817  0.375046  1
  Ho  Ho6  1  0.414312  0.789183  0.375046  1
  Ho  Ho7  1  0.414375  0.210435  0.878570  1
  Ho  Ho8  1  0.212103  0.413534  0.622929  1
  Ho  Ho9  1  0.212042  0.586141  0.122645  1
  Ho  Ho10  1  0.787958  0.413859  0.122645  1
  Ho  Ho11  1  0.787897  0.586466  0.622929  1
  Ho  Ho12  1  0.913859  0.712042  0.122645  1
  Ho  Ho13  1  0.913534  0.287897  0.622929  1
  Ho  Ho14  1  0.086466  0.712103  0.622929  1
  Ho  Ho15  1  0.086141  0.287958  0.122645  1
  Sc  Sc16  1  0.000000  0.000000  0.499932  1
  Sc  Sc17  1  0.000000  0.000000  0.999490  1
  Sc  Sc18  1  0.500000  0.500000  0.999490  1
  Sc  Sc19  1  0.500000  0.500000  0.499932  1
  Ir  Ir20  1  0.852870  0.148318  0.250437  1
  Ir  Ir21  1  0.852846  0.851883  0.749715  1
  Ir  Ir22  1  0.147154  0.148117  0.749715  1
  Ir  Ir23  1  0.147130  0.851682  0.250437  1
  Ir  Ir24  1  0.648117  0.352846  0.749715  1
  Ir  Ir25  1  0.648318  0.647130  0.250437  1
  Ir  Ir26  1  0.351682  0.352870  0.250437  1
  Ir  Ir27  1  0.351883  0.647154  0.749715  1
  Ir  Ir28  1  0.500000  0.000000  0.622833  1
  Ir  Ir29  1  0.000000  0.500000  0.877953  1
  Ir  Ir30  1  0.000000  0.500000  0.378390  1
  Os  Os31  1  0.500000  0.000000  0.124606  1
