# generated using pymatgen
data_Ca5Yb(LuSb3)2
_symmetry_space_group_name_H-M   'P 1'
_cell_length_a   8.15679183
_cell_length_b   8.13775049
_cell_length_c   8.07328655
_cell_angle_alpha   109.46413352
_cell_angle_beta   109.56482847
_cell_angle_gamma   109.78570353
_symmetry_Int_Tables_number   1
_chemical_formula_structural   Ca5Yb(LuSb3)2
_chemical_formula_sum   'Ca5 Yb1 Lu2 Sb6'
_cell_volume   410.47006613
_cell_formula_units_Z   1
loop_
 _symmetry_equiv_pos_site_id
 _symmetry_equiv_pos_as_xyz
  1  'x, y, z'
loop_
 _atom_site_type_symbol
 _atom_site_label
 _atom_site_symmetry_multiplicity
 _atom_site_fract_x
 _atom_site_fract_y
 _atom_site_fract_z
 _atom_site_occupancy
  Ca  Ca0  1  0.003458  0.354835  0.499018  1
  Ca  Ca1  1  0.351579  0.494674  0.996640  1
  Ca  Ca2  1  0.004133  0.855712  0.500710  1
  Ca  Ca3  1  0.855190  0.498443  0.003477  1
  Ca  Ca4  1  0.499239  0.003582  0.858046  1
  Yb  Yb5  1  0.141244  0.145673  0.142068  1
  Lu  Lu6  1  0.498460  0.000047  0.353120  1
  Lu  Lu7  1  0.645525  0.646717  0.646769  1
  Sb  Sb8  1  0.861781  0.112222  0.736204  1
  Sb  Sb9  1  0.384757  0.253909  0.618854  1
  Sb  Sb10  1  0.121657  0.751919  0.880441  1
  Sb  Sb11  1  0.741828  0.871691  0.119842  1
  Sb  Sb12  1  0.265756  0.634386  0.380582  1
  Sb  Sb13  1  0.625391  0.376191  0.264229  1
