# generated using pymatgen
data_Lu2Sn2PtRh
_symmetry_space_group_name_H-M   'P 1'
_cell_length_a   7.58551700
_cell_length_b   7.58551775
_cell_length_c   7.72504100
_cell_angle_alpha   90.00000000
_cell_angle_beta   90.00000000
_cell_angle_gamma   120.00000109
_symmetry_Int_Tables_number   1
_chemical_formula_structural   Lu2Sn2PtRh
_chemical_formula_sum   'Lu6 Sn6 Pt3 Rh3'
_cell_volume   384.94779377
_cell_formula_units_Z   3
loop_
 _symmetry_equiv_pos_site_id
 _symmetry_equiv_pos_as_xyz
  1  'x, y, z'
loop_
 _atom_site_type_symbol
 _atom_site_label
 _atom_site_symmetry_multiplicity
 _atom_site_fract_x
 _atom_site_fract_y
 _atom_site_fract_z
 _atom_site_occupancy
  Lu  Lu0  1  0.406381  0.003585  0.247645  1
  Lu  Lu1  1  0.597203  0.593619  0.247645  1
  Lu  Lu2  1  0.996415  0.402797  0.247645  1
  Lu  Lu3  1  0.405984  0.002695  0.752492  1
  Lu  Lu4  1  0.596709  0.594016  0.752492  1
  Lu  Lu5  1  0.997305  0.403291  0.752492  1
  Sn  Sn6  1  0.263766  0.259082  0.999997  1
  Sn  Sn7  1  0.995315  0.736234  0.999997  1
  Sn  Sn8  1  0.001562  0.741060  0.500045  1
  Sn  Sn9  1  0.739498  0.998438  0.500045  1
  Sn  Sn10  1  0.258940  0.260502  0.500045  1
  Sn  Sn11  1  0.740918  0.004685  0.999997  1
  Pt  Pt12  1  0.333333  0.666667  0.499482  1
  Pt  Pt13  1  0.333333  0.666667  0.000674  1
  Pt  Pt14  1  0.666667  0.333333  0.500359  1
  Rh  Rh15  1  0.000000  0.000000  0.749895  1
  Rh  Rh16  1  0.000000  0.000000  0.249959  1
  Rh  Rh17  1  0.666667  0.333333  0.999092  1
