# generated using pymatgen
data_SrBi3(Ru2O7)2
_symmetry_space_group_name_H-M   'P 1'
_cell_length_a   7.35508698
_cell_length_b   7.35213144
_cell_length_c   7.35380068
_cell_angle_alpha   60.18582737
_cell_angle_beta   60.19538278
_cell_angle_gamma   60.18287117
_symmetry_Int_Tables_number   1
_chemical_formula_structural   SrBi3(Ru2O7)2
_chemical_formula_sum   'Sr1 Bi3 Ru4 O14'
_cell_volume   282.38602824
_cell_formula_units_Z   1
loop_
 _symmetry_equiv_pos_site_id
 _symmetry_equiv_pos_as_xyz
  1  'x, y, z'
loop_
 _atom_site_type_symbol
 _atom_site_label
 _atom_site_symmetry_multiplicity
 _atom_site_fract_x
 _atom_site_fract_y
 _atom_site_fract_z
 _atom_site_occupancy
  Sr  Sr0  1  0.500000  0.500000  0.500000  1
  Bi  Bi1  1  0.500000  0.000000  0.500000  1
  Bi  Bi2  1  0.000000  0.500000  0.500000  1
  Bi  Bi3  1  0.500000  0.500000  0.000000  1
  Ru  Ru4  1  0.000000  0.000000  0.000000  1
  Ru  Ru5  1  0.000000  0.500000  0.000000  1
  Ru  Ru6  1  0.500000  0.000000  0.000000  1
  Ru  Ru7  1  0.000000  0.000000  0.500000  1
  O  O8  1  0.629412  0.629192  0.629363  1
  O  O9  1  0.370588  0.370808  0.370637  1
  O  O10  1  0.922440  0.922225  0.325917  1
  O  O11  1  0.325832  0.922262  0.922497  1
  O  O12  1  0.922309  0.325731  0.922330  1
  O  O13  1  0.324200  0.323731  0.936165  1
  O  O14  1  0.936188  0.323726  0.324197  1
  O  O15  1  0.324240  0.935692  0.324234  1
  O  O16  1  0.077560  0.077775  0.674083  1
  O  O17  1  0.674168  0.077738  0.077503  1
  O  O18  1  0.077691  0.674269  0.077670  1
  O  O19  1  0.675800  0.676269  0.063835  1
  O  O20  1  0.063812  0.676274  0.675803  1
  O  O21  1  0.675760  0.064308  0.675766  1
