# generated using pymatgen
data_Nd6Y10Cd4OsPt3
_symmetry_space_group_name_H-M   'P 1'
_cell_length_a   9.82847784
_cell_length_b   9.82847787
_cell_length_c   9.82847768
_cell_angle_alpha   59.76732337
_cell_angle_beta   59.76733121
_cell_angle_gamma   59.76732932
_symmetry_Int_Tables_number   1
_chemical_formula_structural   Nd6Y10Cd4OsPt3
_chemical_formula_sum   'Nd6 Y10 Cd4 Os1 Pt3'
_cell_volume   667.79529995
_cell_formula_units_Z   1
loop_
 _symmetry_equiv_pos_site_id
 _symmetry_equiv_pos_as_xyz
  1  'x, y, z'
loop_
 _atom_site_type_symbol
 _atom_site_label
 _atom_site_symmetry_multiplicity
 _atom_site_fract_x
 _atom_site_fract_y
 _atom_site_fract_z
 _atom_site_occupancy
  Nd  Nd0  1  0.937660  0.562401  0.562401  1
  Nd  Nd1  1  0.556729  0.939661  0.939661  1
  Nd  Nd2  1  0.562401  0.937660  0.562401  1
  Nd  Nd3  1  0.939661  0.556729  0.939661  1
  Nd  Nd4  1  0.562401  0.562401  0.937660  1
  Nd  Nd5  1  0.939661  0.939661  0.556729  1
  Y  Y6  1  0.351637  0.351637  0.351637  1
  Y  Y7  1  0.347851  0.347851  0.953713  1
  Y  Y8  1  0.347851  0.953713  0.347851  1
  Y  Y9  1  0.953713  0.347851  0.347851  1
  Y  Y10  1  0.816164  0.187563  0.187563  1
  Y  Y11  1  0.185267  0.810526  0.810526  1
  Y  Y12  1  0.187563  0.816164  0.187563  1
  Y  Y13  1  0.810526  0.185267  0.810526  1
  Y  Y14  1  0.187563  0.187563  0.816164  1
  Y  Y15  1  0.810526  0.810526  0.185267  1
  Cd  Cd16  1  0.579341  0.579341  0.579341  1
  Cd  Cd17  1  0.579837  0.579837  0.259511  1
  Cd  Cd18  1  0.579837  0.259511  0.579837  1
  Cd  Cd19  1  0.259511  0.579837  0.579837  1
  Os  Os20  1  0.142363  0.142363  0.142363  1
  Pt  Pt21  1  0.143677  0.143677  0.574586  1
  Pt  Pt22  1  0.143677  0.574586  0.143677  1
  Pt  Pt23  1  0.574586  0.143677  0.143677  1
