# generated using pymatgen
data_Cs6Li2SnPb7
_symmetry_space_group_name_H-M   'P 1'
_cell_length_a   9.43072828
_cell_length_b   9.43072819
_cell_length_c   10.91164960
_cell_angle_alpha   89.89280539
_cell_angle_beta   90.10719462
_cell_angle_gamma   134.14004111
_symmetry_Int_Tables_number   1
_chemical_formula_structural   Cs6Li2SnPb7
_chemical_formula_sum   'Cs6 Li2 Sn1 Pb7'
_cell_volume   696.44445095
_cell_formula_units_Z   1
loop_
 _symmetry_equiv_pos_site_id
 _symmetry_equiv_pos_as_xyz
  1  'x, y, z'
loop_
 _atom_site_type_symbol
 _atom_site_label
 _atom_site_symmetry_multiplicity
 _atom_site_fract_x
 _atom_site_fract_y
 _atom_site_fract_z
 _atom_site_occupancy
  Cs  Cs0  1  0.231690  0.768310  0.248977  1
  Cs  Cs1  1  0.769342  0.230658  0.752372  1
  Cs  Cs2  1  0.615112  0.384888  0.053937  1
  Cs  Cs3  1  0.386357  0.613643  0.947210  1
  Cs  Cs4  1  0.386713  0.613287  0.553851  1
  Cs  Cs5  1  0.612781  0.387219  0.446252  1
  Li  Li6  1  0.998280  0.001720  0.999628  1
  Li  Li7  1  0.999726  0.000274  0.499883  1
  Sn  Sn8  1  0.837596  0.162404  0.111730  1
  Pb  Pb9  1  0.181803  0.259969  0.248733  1
  Pb  Pb10  1  0.816742  0.740106  0.749906  1
  Pb  Pb11  1  0.740031  0.818197  0.248733  1
  Pb  Pb12  1  0.259894  0.183258  0.749906  1
  Pb  Pb13  1  0.164758  0.835242  0.891550  1
  Pb  Pb14  1  0.165415  0.834585  0.608218  1
  Pb  Pb15  1  0.833760  0.166240  0.389116  1
