# generated using pymatgen
data_Be3Nb6Se
_symmetry_space_group_name_H-M   'P 1'
_cell_length_a   6.61882755
_cell_length_b   6.61882755
_cell_length_c   3.42246700
_cell_angle_alpha   90.00000000
_cell_angle_beta   90.00000000
_cell_angle_gamma   89.57957091
_symmetry_Int_Tables_number   1
_chemical_formula_structural   Be3Nb6Se
_chemical_formula_sum   'Be3 Nb6 Se1'
_cell_volume   149.93040311
_cell_formula_units_Z   1
loop_
 _symmetry_equiv_pos_site_id
 _symmetry_equiv_pos_as_xyz
  1  'x, y, z'
loop_
 _atom_site_type_symbol
 _atom_site_label
 _atom_site_symmetry_multiplicity
 _atom_site_fract_x
 _atom_site_fract_y
 _atom_site_fract_z
 _atom_site_occupancy
  Be  Be0  1  0.384414  0.112432  0.000000  1
  Be  Be1  1  0.612432  0.884414  0.000000  1
  Be  Be2  1  0.126127  0.626127  0.000000  1
  Nb  Nb3  1  0.002548  0.991798  0.000000  1
  Nb  Nb4  1  0.491798  0.502548  0.000000  1
  Nb  Nb5  1  0.665282  0.165282  0.500000  1
  Nb  Nb6  1  0.191561  0.320252  0.500000  1
  Nb  Nb7  1  0.820252  0.691561  0.500000  1
  Nb  Nb8  1  0.322869  0.822869  0.500000  1
  Se  Se9  1  0.882716  0.382716  0.000000  1
