# generated using pymatgen
data_Sc4Ga20Ru5Rh
_symmetry_space_group_name_H-M   'P 1'
_cell_length_a   8.85186700
_cell_length_b   8.85186700
_cell_length_c   6.19759000
_cell_angle_alpha   90.00000000
_cell_angle_beta   90.00000000
_cell_angle_gamma   90.00000000
_symmetry_Int_Tables_number   1
_chemical_formula_structural   Sc4Ga20Ru5Rh
_chemical_formula_sum   'Sc4 Ga20 Ru5 Rh1'
_cell_volume   485.61556932
_cell_formula_units_Z   1
loop_
 _symmetry_equiv_pos_site_id
 _symmetry_equiv_pos_as_xyz
  1  'x, y, z'
loop_
 _atom_site_type_symbol
 _atom_site_label
 _atom_site_symmetry_multiplicity
 _atom_site_fract_x
 _atom_site_fract_y
 _atom_site_fract_z
 _atom_site_occupancy
  Sc  Sc0  1  0.183753  0.680840  0.000000  1
  Sc  Sc1  1  0.816247  0.319160  0.000000  1
  Sc  Sc2  1  0.680840  0.816247  0.000000  1
  Sc  Sc3  1  0.319160  0.183753  0.000000  1
  Ga  Ga4  1  0.063120  0.209076  0.713007  1
  Ga  Ga5  1  0.936880  0.790924  0.713007  1
  Ga  Ga6  1  0.562311  0.291896  0.712874  1
  Ga  Ga7  1  0.437689  0.708104  0.712874  1
  Ga  Ga8  1  0.790924  0.063120  0.713007  1
  Ga  Ga9  1  0.209076  0.936880  0.713007  1
  Ga  Ga10  1  0.708104  0.562311  0.712874  1
  Ga  Ga11  1  0.291896  0.437689  0.712874  1
  Ga  Ga12  1  0.936880  0.790924  0.286993  1
  Ga  Ga13  1  0.063120  0.209076  0.286993  1
  Ga  Ga14  1  0.437689  0.708104  0.287126  1
  Ga  Ga15  1  0.562311  0.291896  0.287126  1
  Ga  Ga16  1  0.209076  0.936880  0.286993  1
  Ga  Ga17  1  0.790924  0.063120  0.286993  1
  Ga  Ga18  1  0.291896  0.437689  0.287126  1
  Ga  Ga19  1  0.708104  0.562311  0.287126  1
  Ga  Ga20  1  0.000000  0.500000  0.728053  1
  Ga  Ga21  1  0.500000  0.000000  0.728053  1
  Ga  Ga22  1  0.000000  0.500000  0.271947  1
  Ga  Ga23  1  0.500000  0.000000  0.271947  1
  Ru  Ru24  1  0.176622  0.677703  0.500000  1
  Ru  Ru25  1  0.823378  0.322297  0.500000  1
  Ru  Ru26  1  0.677703  0.823378  0.500000  1
  Ru  Ru27  1  0.322297  0.176622  0.500000  1
  Ru  Ru28  1  0.500000  0.500000  0.000000  1
  Rh  Rh29  1  0.000000  0.000000  0.000000  1
