# generated using pymatgen
data_TbSmY4PtI10
_symmetry_space_group_name_H-M   'P 1'
_cell_length_a   7.75649231
_cell_length_b   9.77187138
_cell_length_c   9.83103335
_cell_angle_alpha   107.29038259
_cell_angle_beta   96.90625175
_cell_angle_gamma   104.79126684
_symmetry_Int_Tables_number   1
_chemical_formula_structural   TbSmY4PtI10
_chemical_formula_sum   'Tb1 Sm1 Y4 Pt1 I10'
_cell_volume   672.19548902
_cell_formula_units_Z   1
loop_
 _symmetry_equiv_pos_site_id
 _symmetry_equiv_pos_as_xyz
  1  'x, y, z'
loop_
 _atom_site_type_symbol
 _atom_site_label
 _atom_site_symmetry_multiplicity
 _atom_site_fract_x
 _atom_site_fract_y
 _atom_site_fract_z
 _atom_site_occupancy
  Tb  Tb0  1  0.115426  0.040721  0.758301  1
  Sm  Sm1  1  0.882551  0.958048  0.243939  1
  Y  Y2  1  0.350401  0.126434  0.165596  1
  Y  Y3  1  0.650441  0.874034  0.832933  1
  Y  Y4  1  0.971629  0.287704  0.086134  1
  Y  Y5  1  0.029106  0.712421  0.912104  1
  Pt  Pt6  1  0.000257  0.999963  0.999375  1
  I  I7  1  0.354749  0.452659  0.272171  1
  I  I8  1  0.645245  0.547426  0.727896  1
  I  I9  1  0.915306  0.624353  0.177434  1
  I  I10  1  0.085185  0.372826  0.821290  1
  I  I11  1  0.450414  0.816375  0.089948  1
  I  I12  1  0.546764  0.182537  0.908515  1
  I  I13  1  0.263855  0.088937  0.463661  1
  I  I14  1  0.739411  0.912270  0.540506  1
  I  I15  1  0.778627  0.262329  0.346764  1
  I  I16  1  0.220632  0.740962  0.653435  1
