# generated using pymatgen
data_Pr9Dy10Si16Ag
_symmetry_space_group_name_H-M   'P 1'
_cell_length_a   7.49291641
_cell_length_b   7.82161089
_cell_length_c   14.91706500
_cell_angle_alpha   90.00000000
_cell_angle_beta   90.00000000
_cell_angle_gamma   90.04633907
_symmetry_Int_Tables_number   1
_chemical_formula_structural   Pr9Dy10Si16Ag
_chemical_formula_sum   'Pr9 Dy10 Si16 Ag1'
_cell_volume   874.23931853
_cell_formula_units_Z   1
loop_
 _symmetry_equiv_pos_site_id
 _symmetry_equiv_pos_as_xyz
  1  'x, y, z'
loop_
 _atom_site_type_symbol
 _atom_site_label
 _atom_site_symmetry_multiplicity
 _atom_site_fract_x
 _atom_site_fract_y
 _atom_site_fract_z
 _atom_site_occupancy
  Pr  Pr0  1  0.021145  0.178268  0.403088  1
  Pr  Pr1  1  0.520631  0.323275  0.402781  1
  Pr  Pr2  1  0.479794  0.691456  0.897421  1
  Pr  Pr3  1  0.479794  0.691456  0.602579  1
  Pr  Pr4  1  0.967488  0.823197  0.602806  1
  Pr  Pr5  1  0.967488  0.823197  0.897194  1
  Pr  Pr6  1  0.520631  0.323275  0.097219  1
  Pr  Pr7  1  0.021145  0.178268  0.096912  1
  Pr  Pr8  1  0.149818  0.506818  0.750000  1
  Dy  Dy9  1  0.333955  0.173944  0.625561  1
  Dy  Dy10  1  0.678338  0.817480  0.375922  1
  Dy  Dy11  1  0.179284  0.678349  0.377875  1
  Dy  Dy12  1  0.817399  0.312603  0.874780  1
  Dy  Dy13  1  0.817399  0.312603  0.625220  1
  Dy  Dy14  1  0.846835  0.487419  0.250000  1
  Dy  Dy15  1  0.344400  0.012056  0.250000  1
  Dy  Dy16  1  0.333955  0.173944  0.874439  1
  Dy  Dy17  1  0.179284  0.678349  0.122125  1
  Dy  Dy18  1  0.678338  0.817480  0.124078  1
  Si  Si19  1  0.265336  0.884093  0.750000  1
  Si  Si20  1  0.471271  0.610164  0.250000  1
  Si  Si21  1  0.032479  0.106001  0.750000  1
  Si  Si22  1  0.530391  0.402592  0.750000  1
  Si  Si23  1  0.147024  0.468073  0.539197  1
  Si  Si24  1  0.971394  0.884207  0.250000  1
  Si  Si25  1  0.727952  0.118938  0.250000  1
  Si  Si26  1  0.854707  0.530189  0.036686  1
  Si  Si27  1  0.356426  0.969777  0.039781  1
  Si  Si28  1  0.147024  0.468073  0.960803  1
  Si  Si29  1  0.650343  0.036135  0.531146  1
  Si  Si30  1  0.356426  0.969777  0.460219  1
  Si  Si31  1  0.854707  0.530189  0.463314  1
  Si  Si32  1  0.765526  0.617020  0.750000  1
  Si  Si33  1  0.228210  0.379889  0.250000  1
  Si  Si34  1  0.650343  0.036135  0.968854  1
  Ag  Ag35  1  0.653318  0.985309  0.750000  1
