# generated using pymatgen
data_Sb12IrRh3
_symmetry_space_group_name_H-M   'P 1'
_cell_length_a   8.12935340
_cell_length_b   8.12935313
_cell_length_c   8.12935304
_cell_angle_alpha   109.46580545
_cell_angle_beta   109.46580411
_cell_angle_gamma   109.46580462
_symmetry_Int_Tables_number   1
_chemical_formula_structural   Sb12IrRh3
_chemical_formula_sum   'Sb12 Ir1 Rh3'
_cell_volume   413.65010576
_cell_formula_units_Z   1
loop_
 _symmetry_equiv_pos_site_id
 _symmetry_equiv_pos_as_xyz
  1  'x, y, z'
loop_
 _atom_site_type_symbol
 _atom_site_label
 _atom_site_symmetry_multiplicity
 _atom_site_fract_x
 _atom_site_fract_y
 _atom_site_fract_z
 _atom_site_occupancy
  Sb  Sb0  1  0.154937  0.814837  0.659921  1
  Sb  Sb1  1  0.845063  0.185163  0.340079  1
  Sb  Sb2  1  0.845762  0.505170  0.660346  1
  Sb  Sb3  1  0.154238  0.494830  0.339654  1
  Sb  Sb4  1  0.814837  0.659921  0.154937  1
  Sb  Sb5  1  0.185163  0.340079  0.845063  1
  Sb  Sb6  1  0.505170  0.660346  0.845762  1
  Sb  Sb7  1  0.494830  0.339654  0.154238  1
  Sb  Sb8  1  0.659921  0.154937  0.814837  1
  Sb  Sb9  1  0.340079  0.845063  0.185163  1
  Sb  Sb10  1  0.660346  0.845762  0.505170  1
  Sb  Sb11  1  0.339654  0.154238  0.494830  1
  Ir  Ir12  1  0.500000  0.500000  0.500000  1
  Rh  Rh13  1  0.000000  0.000000  0.500000  1
  Rh  Rh14  1  0.500000  0.000000  0.000000  1
  Rh  Rh15  1  0.000000  0.500000  0.000000  1
