# generated using pymatgen
data_Mg3Sc(SiPt)4
_symmetry_space_group_name_H-M   'P 1'
_cell_length_a   4.15590600
_cell_length_b   6.59172758
_cell_length_c   7.24247400
_cell_angle_alpha   89.03735025
_cell_angle_beta   90.00000000
_cell_angle_gamma   90.00000000
_symmetry_Int_Tables_number   1
_chemical_formula_structural   Mg3Sc(SiPt)4
_chemical_formula_sum   'Mg3 Sc1 Si4 Pt4'
_cell_volume   198.37667690
_cell_formula_units_Z   1
loop_
 _symmetry_equiv_pos_site_id
 _symmetry_equiv_pos_as_xyz
  1  'x, y, z'
loop_
 _atom_site_type_symbol
 _atom_site_label
 _atom_site_symmetry_multiplicity
 _atom_site_fract_x
 _atom_site_fract_y
 _atom_site_fract_z
 _atom_site_occupancy
  Mg  Mg0  1  0.750000  0.502066  0.808840  1
  Mg  Mg1  1  0.250000  0.997509  0.304443  1
  Mg  Mg2  1  0.750000  0.000565  0.693614  1
  Sc  Sc3  1  0.250000  0.497729  0.196639  1
  Si  Si4  1  0.250000  0.811758  0.904734  1
  Si  Si5  1  0.250000  0.310633  0.590708  1
  Si  Si6  1  0.750000  0.192355  0.096896  1
  Si  Si7  1  0.750000  0.684903  0.406925  1
  Pt  Pt8  1  0.250000  0.699147  0.585673  1
  Pt  Pt9  1  0.250000  0.198941  0.911837  1
  Pt  Pt10  1  0.750000  0.806181  0.082556  1
  Pt  Pt11  1  0.750000  0.298214  0.417135  1
