# generated using pymatgen
data_La9Nd7(CdIr)4
_symmetry_space_group_name_H-M   'P 1'
_cell_length_a   10.04639456
_cell_length_b   10.04639410
_cell_length_c   10.05276700
_cell_angle_alpha   59.97901047
_cell_angle_beta   59.97901196
_cell_angle_gamma   60.31321489
_symmetry_Int_Tables_number   1
_chemical_formula_structural   La9Nd7(CdIr)4
_chemical_formula_sum   'La9 Nd7 Cd4 Ir4'
_cell_volume   718.90258437
_cell_formula_units_Z   1
loop_
 _symmetry_equiv_pos_site_id
 _symmetry_equiv_pos_as_xyz
  1  'x, y, z'
loop_
 _atom_site_type_symbol
 _atom_site_label
 _atom_site_symmetry_multiplicity
 _atom_site_fract_x
 _atom_site_fract_y
 _atom_site_fract_z
 _atom_site_occupancy
  La  La0  1  0.347558  0.347558  0.347803  1
  La  La1  1  0.347558  0.347558  0.957082  1
  La  La2  1  0.349541  0.957453  0.346503  1
  La  La3  1  0.957453  0.349541  0.346503  1
  La  La4  1  0.808245  0.188942  0.192303  1
  La  La5  1  0.188942  0.808245  0.810510  1
  La  La6  1  0.188942  0.808245  0.192303  1
  La  La7  1  0.808245  0.188942  0.810510  1
  La  La8  1  0.190748  0.190748  0.809252  1
  Nd  Nd9  1  0.805873  0.805873  0.194127  1
  Nd  Nd10  1  0.935923  0.564094  0.563768  1
  Nd  Nd11  1  0.564094  0.935923  0.936214  1
  Nd  Nd12  1  0.564094  0.935923  0.563768  1
  Nd  Nd13  1  0.935923  0.564094  0.936214  1
  Nd  Nd14  1  0.563183  0.563183  0.936817  1
  Nd  Nd15  1  0.937234  0.937234  0.562766  1
  Cd  Cd16  1  0.581282  0.581282  0.578817  1
  Cd  Cd17  1  0.581282  0.581282  0.258617  1
  Cd  Cd18  1  0.581067  0.257973  0.580479  1
  Cd  Cd19  1  0.257973  0.581067  0.580479  1
  Ir  Ir20  1  0.140939  0.140939  0.140564  1
  Ir  Ir21  1  0.140939  0.140939  0.577557  1
  Ir  Ir22  1  0.145515  0.577442  0.138521  1
  Ir  Ir23  1  0.577442  0.145515  0.138521  1
