# generated using pymatgen
data_Pr2MnCo8TcP6
_symmetry_space_group_name_H-M   'P 1'
_cell_length_a   3.72994100
_cell_length_b   10.51906100
_cell_length_c   11.96908800
_cell_angle_alpha   90.00000000
_cell_angle_beta   90.00000000
_cell_angle_gamma   90.00000000
_symmetry_Int_Tables_number   1
_chemical_formula_structural   Pr2MnCo8TcP6
_chemical_formula_sum   'Pr4 Mn2 Co16 Tc2 P12'
_cell_volume   469.61287580
_cell_formula_units_Z   2
loop_
 _symmetry_equiv_pos_site_id
 _symmetry_equiv_pos_as_xyz
  1  'x, y, z'
loop_
 _atom_site_type_symbol
 _atom_site_label
 _atom_site_symmetry_multiplicity
 _atom_site_fract_x
 _atom_site_fract_y
 _atom_site_fract_z
 _atom_site_occupancy
  Pr  Pr0  1  0.250000  0.583087  0.702754  1
  Pr  Pr1  1  0.250000  0.916913  0.202754  1
  Pr  Pr2  1  0.750000  0.415868  0.296190  1
  Pr  Pr3  1  0.750000  0.084132  0.796190  1
  Mn  Mn4  1  0.750000  0.291388  0.011035  1
  Mn  Mn5  1  0.750000  0.208612  0.511035  1
  Co  Co6  1  0.250000  0.405520  0.490017  1
  Co  Co7  1  0.250000  0.094480  0.990017  1
  Co  Co8  1  0.750000  0.594428  0.508011  1
  Co  Co9  1  0.750000  0.905572  0.008011  1
  Co  Co10  1  0.250000  0.221140  0.175475  1
  Co  Co11  1  0.250000  0.278860  0.675475  1
  Co  Co12  1  0.750000  0.778487  0.824142  1
  Co  Co13  1  0.750000  0.721513  0.324142  1
  Co  Co14  1  0.250000  0.884945  0.700243  1
  Co  Co15  1  0.250000  0.615055  0.200243  1
  Co  Co16  1  0.750000  0.116747  0.301978  1
  Co  Co17  1  0.750000  0.383253  0.801978  1
  Co  Co18  1  0.250000  0.465470  0.933365  1
  Co  Co19  1  0.250000  0.034530  0.433365  1
  Co  Co20  1  0.750000  0.532676  0.067207  1
  Co  Co21  1  0.750000  0.967324  0.567207  1
  Tc  Tc22  1  0.250000  0.707590  0.989571  1
  Tc  Tc23  1  0.250000  0.792410  0.489571  1
  P  P24  1  0.250000  0.418015  0.109819  1
  P  P25  1  0.250000  0.081985  0.609819  1
  P  P26  1  0.750000  0.579153  0.889546  1
  P  P27  1  0.750000  0.920847  0.389546  1
  P  P28  1  0.250000  0.275576  0.866601  1
  P  P29  1  0.250000  0.224424  0.366601  1
  P  P30  1  0.750000  0.723678  0.133695  1
  P  P31  1  0.750000  0.776322  0.633695  1
  P  P32  1  0.250000  0.601161  0.393471  1
  P  P33  1  0.250000  0.898839  0.893471  1
  P  P34  1  0.750000  0.396059  0.606878  1
  P  P35  1  0.750000  0.103941  0.106878  1
