# generated using pymatgen
data_ErLu2Al3Ge2Ir
_symmetry_space_group_name_H-M   'P 1'
_cell_length_a   6.88611500
_cell_length_b   6.89886092
_cell_length_c   4.18624700
_cell_angle_alpha   90.00000000
_cell_angle_beta   90.00000000
_cell_angle_gamma   119.93889789
_symmetry_Int_Tables_number   1
_chemical_formula_structural   ErLu2Al3Ge2Ir
_chemical_formula_sum   'Er1 Lu2 Al3 Ge2 Ir1'
_cell_volume   172.33528636
_cell_formula_units_Z   1
loop_
 _symmetry_equiv_pos_site_id
 _symmetry_equiv_pos_as_xyz
  1  'x, y, z'
loop_
 _atom_site_type_symbol
 _atom_site_label
 _atom_site_symmetry_multiplicity
 _atom_site_fract_x
 _atom_site_fract_y
 _atom_site_fract_z
 _atom_site_occupancy
  Er  Er0  1  0.413782  0.000000  0.000000  1
  Lu  Lu1  1  0.000810  0.412570  0.000000  1
  Lu  Lu2  1  0.588239  0.587429  0.000000  1
  Al  Al3  1  0.768905  0.000000  0.500001  1
  Al  Al4  1  0.231415  0.231295  0.500001  1
  Al  Al5  1  0.000119  0.768704  0.500001  1
  Ge  Ge6  1  0.668337  0.335929  0.500001  1
  Ge  Ge7  1  0.332407  0.664072  0.500001  1
  Ir  Ir8  1  0.995984  0.000000  0.000000  1
