# generated using pymatgen
data_Er4Tm9Lu3(InIr)4
_symmetry_space_group_name_H-M   'P 1'
_cell_length_a   9.53803838
_cell_length_b   9.54016747
_cell_length_c   9.54806939
_cell_angle_alpha   59.96708624
_cell_angle_beta   59.99377974
_cell_angle_gamma   60.04912841
_symmetry_Int_Tables_number   1
_chemical_formula_structural   Er4Tm9Lu3(InIr)4
_chemical_formula_sum   'Er4 Tm9 Lu3 In4 Ir4'
_cell_volume   614.39542216
_cell_formula_units_Z   1
loop_
 _symmetry_equiv_pos_site_id
 _symmetry_equiv_pos_as_xyz
  1  'x, y, z'
loop_
 _atom_site_type_symbol
 _atom_site_label
 _atom_site_symmetry_multiplicity
 _atom_site_fract_x
 _atom_site_fract_y
 _atom_site_fract_z
 _atom_site_occupancy
  Er  Er0  1  0.810202  0.810681  0.189468  1
  Er  Er1  1  0.060325  0.438511  0.440753  1
  Er  Er2  1  0.439755  0.438868  0.060591  1
  Er  Er3  1  0.060501  0.438616  0.060389  1
  Tm  Tm4  1  0.059770  0.059372  0.440641  1
  Tm  Tm5  1  0.650147  0.048090  0.650939  1
  Tm  Tm6  1  0.190567  0.810662  0.190230  1
  Tm  Tm7  1  0.439477  0.059766  0.440445  1
  Tm  Tm8  1  0.190136  0.190141  0.809761  1
  Tm  Tm9  1  0.650579  0.650730  0.651821  1
  Tm  Tm10  1  0.047711  0.650282  0.651150  1
  Tm  Tm11  1  0.439610  0.059900  0.060320  1
  Tm  Tm12  1  0.650816  0.650797  0.046643  1
  Lu  Lu13  1  0.190451  0.810787  0.808497  1
  Lu  Lu14  1  0.810022  0.190381  0.809322  1
  Lu  Lu15  1  0.809816  0.190607  0.190246  1
  In  In16  1  0.750412  0.416478  0.416580  1
  In  In17  1  0.416681  0.416469  0.750492  1
  In  In18  1  0.416510  0.751075  0.416260  1
  In  In19  1  0.416680  0.416329  0.416364  1
  Ir  Ir20  1  0.859456  0.859951  0.857019  1
  Ir  Ir21  1  0.423475  0.858755  0.858360  1
  Ir  Ir22  1  0.858602  0.860027  0.424225  1
  Ir  Ir23  1  0.858303  0.422725  0.859487  1
