# generated using pymatgen
data_Ti13Al9(IrOs3)2
_symmetry_space_group_name_H-M   'P 1'
_cell_length_a   8.77415311
_cell_length_b   8.79562500
_cell_length_c   8.77415300
_cell_angle_alpha   59.75835489
_cell_angle_beta   60.06512322
_cell_angle_gamma   59.75836931
_symmetry_Int_Tables_number   1
_chemical_formula_structural   Ti13Al9(IrOs3)2
_chemical_formula_sum   'Ti13 Al9 Ir2 Os6'
_cell_volume   477.28516884
_cell_formula_units_Z   1
loop_
 _symmetry_equiv_pos_site_id
 _symmetry_equiv_pos_as_xyz
  1  'x, y, z'
loop_
 _atom_site_type_symbol
 _atom_site_label
 _atom_site_symmetry_multiplicity
 _atom_site_fract_x
 _atom_site_fract_y
 _atom_site_fract_z
 _atom_site_occupancy
  Ti  Ti0  1  0.211303  0.216444  0.791459  1
  Ti  Ti1  1  0.791459  0.216444  0.211303  1
  Ti  Ti2  1  0.214521  0.786835  0.214521  1
  Ti  Ti3  1  0.800474  0.794837  0.182320  1
  Ti  Ti4  1  0.182320  0.794837  0.800474  1
  Ti  Ti5  1  0.796219  0.188131  0.796219  1
  Ti  Ti6  1  0.379427  0.378266  0.379427  1
  Ti  Ti7  1  0.381799  0.863332  0.381799  1
  Ti  Ti8  1  0.864913  0.381690  0.380055  1
  Ti  Ti9  1  0.380055  0.381690  0.864913  1
  Ti  Ti10  1  0.842112  0.469023  0.842112  1
  Ti  Ti11  1  0.463286  0.845180  0.844552  1
  Ti  Ti12  1  0.844552  0.845180  0.463286  1
  Al  Al13  1  0.156008  0.154349  0.156008  1
  Al  Al14  1  0.158623  0.529585  0.158623  1
  Al  Al15  1  0.536546  0.156676  0.157325  1
  Al  Al16  1  0.157325  0.156676  0.536546  1
  Al  Al17  1  0.618574  0.618847  0.618574  1
  Al  Al18  1  0.617788  0.144370  0.617788  1
  Al  Al19  1  0.144077  0.616881  0.619339  1
  Al  Al20  1  0.619339  0.616881  0.144077  1
  Al  Al21  1  0.827546  0.830436  0.827546  1
  Ir  Ir22  1  0.003751  0.002566  0.499341  1
  Ir  Ir23  1  0.499341  0.002566  0.003751  1
  Os  Os24  1  0.002062  0.500118  0.002062  1
  Os  Os25  1  0.499702  0.501436  0.001709  1
  Os  Os26  1  0.001709  0.501436  0.499702  1
  Os  Os27  1  0.500773  0.000983  0.500773  1
  Os  Os28  1  0.500450  0.500099  0.500450  1
  Os  Os29  1  0.003945  0.004206  0.003945  1
