# generated using pymatgen
data_Tb10Ir3Ru2Au
_symmetry_space_group_name_H-M   'P 1'
_cell_length_a   10.98875483
_cell_length_b   10.94808600
_cell_length_c   6.48399809
_cell_angle_alpha   90.00000000
_cell_angle_beta   89.93371462
_cell_angle_gamma   90.00000000
_symmetry_Int_Tables_number   1
_chemical_formula_structural   Tb10Ir3Ru2Au
_chemical_formula_sum   'Tb20 Ir6 Ru4 Au2'
_cell_volume   780.06226876
_cell_formula_units_Z   2
loop_
 _symmetry_equiv_pos_site_id
 _symmetry_equiv_pos_as_xyz
  1  'x, y, z'
loop_
 _atom_site_type_symbol
 _atom_site_label
 _atom_site_symmetry_multiplicity
 _atom_site_fract_x
 _atom_site_fract_y
 _atom_site_fract_z
 _atom_site_occupancy
  Tb  Tb0  1  0.294086  0.087284  0.377299  1
  Tb  Tb1  1  0.294086  0.912716  0.877299  1
  Tb  Tb2  1  0.697930  0.091224  0.868107  1
  Tb  Tb3  1  0.697930  0.908776  0.368107  1
  Tb  Tb4  1  0.578336  0.791825  0.879851  1
  Tb  Tb5  1  0.578336  0.208175  0.379851  1
  Tb  Tb6  1  0.410016  0.792619  0.379851  1
  Tb  Tb7  1  0.410016  0.207381  0.879851  1
  Tb  Tb8  1  0.207730  0.412110  0.619823  1
  Tb  Tb9  1  0.207730  0.587890  0.119823  1
  Tb  Tb10  1  0.792165  0.420141  0.120030  1
  Tb  Tb11  1  0.792165  0.579859  0.620030  1
  Tb  Tb12  1  0.917634  0.703267  0.134489  1
  Tb  Tb13  1  0.917634  0.296733  0.634489  1
  Tb  Tb14  1  0.094521  0.702244  0.619883  1
  Tb  Tb15  1  0.094521  0.297756  0.119883  1
  Tb  Tb16  1  0.008669  0.999159  0.500483  1
  Tb  Tb17  1  0.008669  0.000841  0.000483  1
  Tb  Tb18  1  0.499313  0.499311  0.000297  1
  Tb  Tb19  1  0.499313  0.500689  0.500297  1
  Ir  Ir20  1  0.152827  0.152921  0.749868  1
  Ir  Ir21  1  0.152827  0.847079  0.249868  1
  Ir  Ir22  1  0.653502  0.346996  0.748811  1
  Ir  Ir23  1  0.653502  0.653004  0.248811  1
  Ir  Ir24  1  0.347674  0.347211  0.250678  1
  Ir  Ir25  1  0.347674  0.652789  0.750678  1
  Ru  Ru26  1  0.500995  0.999885  0.124114  1
  Ru  Ru27  1  0.500995  0.000115  0.624114  1
  Ru  Ru28  1  0.999682  0.500637  0.875971  1
  Ru  Ru29  1  0.999682  0.499363  0.375971  1
  Au  Au30  1  0.844920  0.154692  0.250445  1
  Au  Au31  1  0.844920  0.845308  0.750445  1
