# generated using pymatgen
data_Ca2TcH7
_symmetry_space_group_name_H-M   'P 1'
_cell_length_a   5.34535130
_cell_length_b   5.20961150
_cell_length_c   7.44306725
_cell_angle_alpha   44.58066130
_cell_angle_beta   46.38055372
_cell_angle_gamma   60.59624482
_symmetry_Int_Tables_number   1
_chemical_formula_structural   Ca2TcH7
_chemical_formula_sum   'Ca2 Tc1 H7'
_cell_volume   105.32166553
_cell_formula_units_Z   1
loop_
 _symmetry_equiv_pos_site_id
 _symmetry_equiv_pos_as_xyz
  1  'x, y, z'
loop_
 _atom_site_type_symbol
 _atom_site_label
 _atom_site_symmetry_multiplicity
 _atom_site_fract_x
 _atom_site_fract_y
 _atom_site_fract_z
 _atom_site_occupancy
  Ca  Ca0  1  0.287011  0.377842  0.900891  1
  Ca  Ca1  1  0.282792  0.377448  0.403116  1
  Tc  Tc2  1  0.785317  0.887030  0.147203  1
  H  H3  1  0.780767  0.272746  0.077242  1
  H  H4  1  0.789269  0.288716  0.835870  1
  H  H5  1  0.324141  0.884401  0.376697  1
  H  H6  1  0.782020  0.794632  0.965363  1
  H  H7  1  0.246104  0.885873  0.919610  1
  H  H8  1  0.785940  0.405023  0.383876  1
  H  H9  1  0.788226  0.779187  0.426417  1
