# generated using pymatgen
data_PuCI
_symmetry_space_group_name_H-M   'P 1'
_cell_length_a   4.10046095
_cell_length_b   4.10046053
_cell_length_c   11.03306897
_cell_angle_alpha   86.28181309
_cell_angle_beta   86.28181073
_cell_angle_gamma   57.48705949
_symmetry_Int_Tables_number   1
_chemical_formula_structural   PuCI
_chemical_formula_sum   'Pu2 C2 I2'
_cell_volume   156.00451809
_cell_formula_units_Z   2
loop_
 _symmetry_equiv_pos_site_id
 _symmetry_equiv_pos_as_xyz
  1  'x, y, z'
loop_
 _atom_site_type_symbol
 _atom_site_label
 _atom_site_symmetry_multiplicity
 _atom_site_fract_x
 _atom_site_fract_y
 _atom_site_fract_z
 _atom_site_occupancy
  Pu  Pu0  1  0.860241  0.860241  0.126715  1
  Pu  Pu1  1  0.139759  0.139759  0.873285  1
  C  C2  1  0.421569  0.421569  0.970122  1
  C  C3  1  0.578431  0.578431  0.029878  1
  I  I4  1  0.826108  0.826108  0.678936  1
  I  I5  1  0.173892  0.173892  0.321064  1
