# generated using pymatgen
data_Lu4ZnGa23Pt9
_symmetry_space_group_name_H-M   'P 1'
_cell_length_a   7.43172934
_cell_length_b   7.58018453
_cell_length_c   13.31258269
_cell_angle_alpha   84.74005956
_cell_angle_beta   79.57017706
_cell_angle_gamma   60.32765572
_symmetry_Int_Tables_number   1
_chemical_formula_structural   Lu4ZnGa23Pt9
_chemical_formula_sum   'Lu4 Zn1 Ga23 Pt9'
_cell_volume   640.84083833
_cell_formula_units_Z   1
loop_
 _symmetry_equiv_pos_site_id
 _symmetry_equiv_pos_as_xyz
  1  'x, y, z'
loop_
 _atom_site_type_symbol
 _atom_site_label
 _atom_site_symmetry_multiplicity
 _atom_site_fract_x
 _atom_site_fract_y
 _atom_site_fract_z
 _atom_site_occupancy
  Lu  Lu0  1  0.393917  0.171355  0.810966  1
  Lu  Lu1  1  0.605996  0.828553  0.188747  1
  Lu  Lu2  1  0.733829  0.497627  0.811594  1
  Lu  Lu3  1  0.266454  0.502406  0.188476  1
  Zn  Zn4  1  0.685672  0.834583  0.936685  1
  Ga  Ga5  1  0.319033  0.162454  0.061684  1
  Ga  Ga6  1  0.143185  0.833255  0.559641  1
  Ga  Ga7  1  0.856518  0.166782  0.440355  1
  Ga  Ga8  1  0.477330  0.165204  0.556394  1
  Ga  Ga9  1  0.523203  0.834524  0.443594  1
  Ga  Ga10  1  0.223361  0.164664  0.319778  1
  Ga  Ga11  1  0.776618  0.835185  0.681023  1
  Ga  Ga12  1  0.436705  0.503468  0.678833  1
  Ga  Ga13  1  0.562843  0.496854  0.321336  1
  Ga  Ga14  1  0.105846  0.163947  0.679018  1
  Ga  Ga15  1  0.894227  0.835731  0.321230  1
  Ga  Ga16  1  0.360033  0.498423  0.937714  1
  Ga  Ga17  1  0.640278  0.505036  0.061227  1
  Ga  Ga18  1  0.022838  0.170076  0.941540  1
  Ga  Ga19  1  0.975487  0.829716  0.057517  1
  Ga  Ga20  1  0.188510  0.500589  0.443446  1
  Ga  Ga21  1  0.811462  0.499921  0.556561  1
  Ga  Ga22  1  0.731040  0.165948  0.181168  1
  Ga  Ga23  1  0.269363  0.834548  0.818678  1
  Ga  Ga24  1  0.056384  0.632854  0.818898  1
  Ga  Ga25  1  0.939809  0.368785  0.182164  1
  Ga  Ga26  1  0.854294  0.036729  0.818266  1
  Ga  Ga27  1  0.143050  0.960375  0.182903  1
  Pt  Pt28  1  0.116468  0.494151  0.640294  1
  Pt  Pt29  1  0.884461  0.505653  0.359318  1
  Pt  Pt30  1  0.661188  0.173237  0.998526  1
  Pt  Pt31  1  0.336053  0.830417  0.002547  1
  Pt  Pt32  1  0.541389  0.167577  0.359340  1
  Pt  Pt33  1  0.458818  0.832247  0.640079  1
  Pt  Pt34  1  0.777957  0.173247  0.638026  1
  Pt  Pt35  1  0.222566  0.827267  0.361857  1
  Pt  Pt36  1  0.003814  0.496612  0.000576  1
