# generated using pymatgen
data_Cs2NiS16
_symmetry_space_group_name_H-M   'P 1'
_cell_length_a   11.78653000
_cell_length_b   11.78653000
_cell_length_c   7.37888100
_cell_angle_alpha   90.00000000
_cell_angle_beta   90.00000000
_cell_angle_gamma   90.00000000
_symmetry_Int_Tables_number   1
_chemical_formula_structural   Cs2NiS16
_chemical_formula_sum   'Cs4 Ni2 S32'
_cell_volume   1025.09104203
_cell_formula_units_Z   2
loop_
 _symmetry_equiv_pos_site_id
 _symmetry_equiv_pos_as_xyz
  1  'x, y, z'
loop_
 _atom_site_type_symbol
 _atom_site_label
 _atom_site_symmetry_multiplicity
 _atom_site_fract_x
 _atom_site_fract_y
 _atom_site_fract_z
 _atom_site_occupancy
  Cs  Cs0  1  0.500000  0.000000  0.000000  1
  Cs  Cs1  1  0.000000  0.500000  0.000000  1
  Cs  Cs2  1  0.500000  0.500000  0.500000  1
  Cs  Cs3  1  0.000000  0.000000  0.500000  1
  Ni  Ni4  1  0.000000  0.000000  0.000000  1
  Ni  Ni5  1  0.500000  0.500000  0.000000  1
  S  S6  1  0.184149  0.423369  0.573052  1
  S  S7  1  0.815851  0.576631  0.573052  1
  S  S8  1  0.576631  0.184149  0.426948  1
  S  S9  1  0.423369  0.815851  0.426948  1
  S  S10  1  0.315851  0.923369  0.573052  1
  S  S11  1  0.076631  0.315851  0.426948  1
  S  S12  1  0.823510  0.952936  0.938737  1
  S  S13  1  0.047064  0.823510  0.061263  1
  S  S14  1  0.952936  0.176490  0.061263  1
  S  S15  1  0.176490  0.047064  0.938737  1
  S  S16  1  0.547064  0.676490  0.061263  1
  S  S17  1  0.452936  0.323510  0.061263  1
  S  S18  1  0.676490  0.452936  0.938737  1
  S  S19  1  0.323510  0.547064  0.938737  1
  S  S20  1  0.783837  0.204037  0.113088  1
  S  S21  1  0.795963  0.783837  0.886912  1
  S  S22  1  0.204037  0.216163  0.886912  1
  S  S23  1  0.216163  0.795963  0.113088  1
  S  S24  1  0.295963  0.716163  0.886912  1
  S  S25  1  0.704037  0.283837  0.886912  1
  S  S26  1  0.716163  0.704037  0.113088  1
  S  S27  1  0.283837  0.295963  0.113088  1
  S  S28  1  0.923332  0.313450  0.565569  1
  S  S29  1  0.686550  0.923332  0.434431  1
  S  S30  1  0.313450  0.076668  0.434431  1
  S  S31  1  0.076668  0.686550  0.565569  1
  S  S32  1  0.186550  0.576668  0.434431  1
  S  S33  1  0.813450  0.423332  0.434431  1
  S  S34  1  0.576668  0.813450  0.565569  1
  S  S35  1  0.423332  0.186550  0.565569  1
  S  S36  1  0.684149  0.076631  0.573052  1
  S  S37  1  0.923369  0.684149  0.426948  1
