# generated using pymatgen
data_La3Zn3CuNi2
_symmetry_space_group_name_H-M   'P 1'
_cell_length_a   7.31310900
_cell_length_b   7.31310996
_cell_length_c   3.96072700
_cell_angle_alpha   90.00000000
_cell_angle_beta   90.00000000
_cell_angle_gamma   120.00000016
_symmetry_Int_Tables_number   1
_chemical_formula_structural   La3Zn3CuNi2
_chemical_formula_sum   'La3 Zn3 Cu1 Ni2'
_cell_volume   183.44660985
_cell_formula_units_Z   1
loop_
 _symmetry_equiv_pos_site_id
 _symmetry_equiv_pos_as_xyz
  1  'x, y, z'
loop_
 _atom_site_type_symbol
 _atom_site_label
 _atom_site_symmetry_multiplicity
 _atom_site_fract_x
 _atom_site_fract_y
 _atom_site_fract_z
 _atom_site_occupancy
  La  La0  1  0.000000  0.577902  0.000000  1
  La  La1  1  0.422098  0.422098  0.000000  1
  La  La2  1  0.577902  0.000000  0.000000  1
  Zn  Zn3  1  0.232468  0.000000  0.500000  1
  Zn  Zn4  1  0.767532  0.767532  0.500000  1
  Zn  Zn5  1  0.000000  0.232468  0.500000  1
  Cu  Cu6  1  0.000000  0.000000  0.000000  1
  Ni  Ni7  1  0.666667  0.333333  0.500000  1
  Ni  Ni8  1  0.333333  0.666667  0.500000  1
