# generated using pymatgen
data_Zr3ScN4
_symmetry_space_group_name_H-M   'P 1'
_cell_length_a   10.75323956
_cell_length_b   10.75323955
_cell_length_c   10.75323904
_cell_angle_alpha   17.37029459
_cell_angle_beta   17.37029521
_cell_angle_gamma   17.37029837
_symmetry_Int_Tables_number   1
_chemical_formula_structural   Zr3ScN4
_chemical_formula_sum   'Zr3 Sc1 N4'
_cell_volume   96.71290032
_cell_formula_units_Z   1
loop_
 _symmetry_equiv_pos_site_id
 _symmetry_equiv_pos_as_xyz
  1  'x, y, z'
loop_
 _atom_site_type_symbol
 _atom_site_label
 _atom_site_symmetry_multiplicity
 _atom_site_fract_x
 _atom_site_fract_y
 _atom_site_fract_z
 _atom_site_occupancy
  Zr  Zr0  1  0.250351  0.250351  0.250351  1
  Zr  Zr1  1  0.500000  0.500000  0.500000  1
  Zr  Zr2  1  0.749649  0.749649  0.749649  1
  Sc  Sc3  1  0.000000  0.000000  0.000000  1
  N  N4  1  0.374131  0.374131  0.374131  1
  N  N5  1  0.124228  0.124228  0.124228  1
  N  N6  1  0.625869  0.625869  0.625869  1
  N  N7  1  0.875772  0.875772  0.875772  1
