# generated using pymatgen
data_Tb13Er3(LuPb4)4
_symmetry_space_group_name_H-M   'P 1'
_cell_length_a   8.17598142
_cell_length_b   8.26508311
_cell_length_c   15.64147101
_cell_angle_alpha   89.99846708
_cell_angle_beta   90.08265739
_cell_angle_gamma   90.14927398
_symmetry_Int_Tables_number   1
_chemical_formula_structural   Tb13Er3(LuPb4)4
_chemical_formula_sum   'Tb13 Er3 Lu4 Pb16'
_cell_volume   1056.97031209
_cell_formula_units_Z   1
loop_
 _symmetry_equiv_pos_site_id
 _symmetry_equiv_pos_as_xyz
  1  'x, y, z'
loop_
 _atom_site_type_symbol
 _atom_site_label
 _atom_site_symmetry_multiplicity
 _atom_site_fract_x
 _atom_site_fract_y
 _atom_site_fract_z
 _atom_site_occupancy
  Tb  Tb0  1  0.125868  0.342106  0.120318  1
  Tb  Tb1  1  0.623669  0.159026  0.121626  1
  Tb  Tb2  1  0.123536  0.341870  0.379296  1
  Tb  Tb3  1  0.375999  0.841958  0.621247  1
  Tb  Tb4  1  0.876526  0.657939  0.879014  1
  Tb  Tb5  1  0.534754  0.323590  0.900718  1
  Tb  Tb6  1  0.035465  0.176552  0.599100  1
  Tb  Tb7  1  0.465377  0.677426  0.401551  1
  Tb  Tb8  1  0.964219  0.823955  0.099192  1
  Tb  Tb9  1  0.467048  0.677779  0.098372  1
  Tb  Tb10  1  0.967785  0.823048  0.402212  1
  Tb  Tb11  1  0.532775  0.323298  0.598610  1
  Tb  Tb12  1  0.034211  0.174932  0.899791  1
  Er  Er13  1  0.373669  0.843735  0.876736  1
  Er  Er14  1  0.872640  0.656314  0.621947  1
  Er  Er15  1  0.627040  0.156343  0.379015  1
  Lu  Lu16  1  0.206962  0.505621  0.750125  1
  Lu  Lu17  1  0.707091  0.995252  0.749485  1
  Lu  Lu18  1  0.792266  0.494989  0.251293  1
  Lu  Lu19  1  0.293307  0.004683  0.249833  1
  Pb  Pb20  1  0.282814  0.031961  0.042135  1
  Pb  Pb21  1  0.781167  0.464989  0.457511  1
  Pb  Pb22  1  0.719265  0.964103  0.543150  1
  Pb  Pb23  1  0.219750  0.536217  0.955452  1
  Pb  Pb24  1  0.713668  0.965530  0.955592  1
  Pb  Pb25  1  0.213101  0.535015  0.544669  1
  Pb  Pb26  1  0.287163  0.035454  0.455839  1
  Pb  Pb27  1  0.782948  0.466876  0.044575  1
  Pb  Pb28  1  0.569879  0.626103  0.750360  1
  Pb  Pb29  1  0.068950  0.873707  0.748900  1
  Pb  Pb30  1  0.430723  0.374081  0.251736  1
  Pb  Pb31  1  0.929732  0.124531  0.250385  1
  Pb  Pb32  1  0.346707  0.156120  0.749943  1
  Pb  Pb33  1  0.846719  0.344202  0.749376  1
  Pb  Pb34  1  0.653932  0.844933  0.250800  1
  Pb  Pb35  1  0.153272  0.655766  0.250096  1
