# generated using pymatgen
data_Er5Mn4Si3(P3Ir5)3
_symmetry_space_group_name_H-M   'P 1'
_cell_length_a   12.54396304
_cell_length_b   12.58041952
_cell_length_c   3.91649000
_cell_angle_alpha   90.00000000
_cell_angle_beta   90.00000000
_cell_angle_gamma   119.96882436
_symmetry_Int_Tables_number   1
_chemical_formula_structural   Er5Mn4Si3(P3Ir5)3
_chemical_formula_sum   'Er5 Mn4 Si3 P9 Ir15'
_cell_volume   535.41913683
_cell_formula_units_Z   1
loop_
 _symmetry_equiv_pos_site_id
 _symmetry_equiv_pos_as_xyz
  1  'x, y, z'
loop_
 _atom_site_type_symbol
 _atom_site_label
 _atom_site_symmetry_multiplicity
 _atom_site_fract_x
 _atom_site_fract_y
 _atom_site_fract_z
 _atom_site_occupancy
  Er  Er0  1  0.672758  0.335737  0.000000  1
  Er  Er1  1  0.331136  0.665254  0.000000  1
  Er  Er2  1  0.817875  0.817280  0.500000  1
  Er  Er3  1  0.180954  0.999776  0.500000  1
  Er  Er4  1  0.999024  0.182972  0.500000  1
  Mn  Mn5  1  0.288869  0.288848  0.500000  1
  Mn  Mn6  1  0.710908  0.000383  0.500000  1
  Mn  Mn7  1  0.999086  0.710544  0.500000  1
  Mn  Mn8  1  0.873313  0.360233  0.500000  1
  Si  Si9  1  0.637474  0.636663  0.000000  1
  Si  Si10  1  0.363232  0.000925  0.000000  1
  Si  Si11  1  0.994074  0.362453  0.000000  1
  P  P12  1  0.697273  0.174478  0.500000  1
  P  P13  1  0.839922  0.517467  0.500000  1
  P  P14  1  0.477300  0.311568  0.500000  1
  P  P15  1  0.163222  0.687694  0.500000  1
  P  P16  1  0.523928  0.836143  0.500000  1
  P  P17  1  0.309670  0.475154  0.500000  1
  P  P18  1  0.183444  0.184053  0.000000  1
  P  P19  1  0.815692  0.000031  0.000000  1
  P  P20  1  0.998674  0.815869  0.000000  1
  Ir  Ir21  1  0.802072  0.178221  0.000000  1
  Ir  Ir22  1  0.821255  0.625086  0.000000  1
  Ir  Ir23  1  0.376008  0.197704  0.000000  1
  Ir  Ir24  1  0.177685  0.803827  0.000000  1
  Ir  Ir25  1  0.624378  0.821219  0.000000  1
  Ir  Ir26  1  0.194802  0.374695  0.000000  1
  Ir  Ir27  1  0.449057  0.449595  0.000000  1
  Ir  Ir28  1  0.550236  0.999324  0.000000  1
  Ir  Ir29  1  0.997967  0.550326  0.000000  1
  Ir  Ir30  1  0.640516  0.507510  0.500000  1
  Ir  Ir31  1  0.494467  0.131279  0.500000  1
  Ir  Ir32  1  0.360571  0.869870  0.500000  1
  Ir  Ir33  1  0.507928  0.638412  0.500000  1
  Ir  Ir34  1  0.125418  0.489160  0.500000  1
  Ir  Ir35  1  0.999814  0.000245  0.000000  1
