# generated using pymatgen
data_Ce5Dy11(CdCo)4
_symmetry_space_group_name_H-M   'P 1'
_cell_length_a   9.46097401
_cell_length_b   9.56433270
_cell_length_c   9.53458901
_cell_angle_alpha   120.10324655
_cell_angle_beta   89.39233296
_cell_angle_gamma   120.36205157
_symmetry_Int_Tables_number   1
_chemical_formula_structural   Ce5Dy11(CdCo)4
_chemical_formula_sum   'Ce5 Dy11 Cd4 Co4'
_cell_volume   608.97429737
_cell_formula_units_Z   1
loop_
 _symmetry_equiv_pos_site_id
 _symmetry_equiv_pos_as_xyz
  1  'x, y, z'
loop_
 _atom_site_type_symbol
 _atom_site_label
 _atom_site_symmetry_multiplicity
 _atom_site_fract_x
 _atom_site_fract_y
 _atom_site_fract_z
 _atom_site_occupancy
  Ce  Ce0  1  0.180018  0.994730  0.182874  1
  Ce  Ce1  1  0.180018  0.368161  0.182874  1
  Ce  Ce2  1  0.654112  0.305765  0.338994  1
  Ce  Ce3  1  0.038452  0.694221  0.349990  1
  Ce  Ce4  1  0.654112  0.687340  0.338994  1
  Dy  Dy5  1  0.803489  0.994663  0.185839  1
  Dy  Dy6  1  0.060554  0.123637  0.559418  1
  Dy  Dy7  1  0.060554  0.496334  0.559418  1
  Dy  Dy8  1  0.436862  0.497340  0.557819  1
  Dy  Dy9  1  0.186048  0.995184  0.804320  1
  Dy  Dy10  1  0.808124  0.995079  0.807869  1
  Dy  Dy11  1  0.808124  0.620913  0.807869  1
  Dy  Dy12  1  0.061885  0.500539  0.939193  1
  Dy  Dy13  1  0.429869  0.498022  0.933536  1
  Dy  Dy14  1  0.429869  0.865383  0.933536  1
  Dy  Dy15  1  0.653350  0.306865  0.960381  1
  Cd  Cd16  1  0.420964  0.839795  0.258626  1
  Cd  Cd17  1  0.421939  0.165649  0.585038  1
  Cd  Cd18  1  0.743977  0.163622  0.583266  1
  Cd  Cd19  1  0.421939  0.841328  0.585038  1
  Co  Co20  1  0.409236  0.286597  0.163958  1
  Co  Co21  1  0.895610  0.312898  0.162285  1
  Co  Co22  1  0.895610  0.744997  0.162285  1
  Co  Co23  1  0.845288  0.700933  0.556579  1
