# generated using pymatgen
data_Nd4YHo3(B6Ru)4
_symmetry_space_group_name_H-M   'P 1'
_cell_length_a   3.71785100
_cell_length_b   9.23275803
_cell_length_c   11.65391104
_cell_angle_alpha   90.00955226
_cell_angle_beta   90.00000000
_cell_angle_gamma   90.00000000
_symmetry_Int_Tables_number   1
_chemical_formula_structural   Nd4YHo3(B6Ru)4
_chemical_formula_sum   'Nd4 Y1 Ho3 B24 Ru4'
_cell_volume   400.03236254
_cell_formula_units_Z   1
loop_
 _symmetry_equiv_pos_site_id
 _symmetry_equiv_pos_as_xyz
  1  'x, y, z'
loop_
 _atom_site_type_symbol
 _atom_site_label
 _atom_site_symmetry_multiplicity
 _atom_site_fract_x
 _atom_site_fract_y
 _atom_site_fract_z
 _atom_site_occupancy
  Nd  Nd0  1  0.000000  0.323214  0.414284  1
  Nd  Nd1  1  0.000000  0.676792  0.585844  1
  Nd  Nd2  1  0.000000  0.823032  0.085643  1
  Nd  Nd3  1  0.000000  0.176957  0.914254  1
  Y  Y4  1  0.000000  0.944189  0.372107  1
  Ho  Ho5  1  0.000000  0.056049  0.628470  1
  Ho  Ho6  1  0.000000  0.444066  0.128130  1
  Ho  Ho7  1  0.000000  0.555917  0.871781  1
  B  B8  1  0.500000  0.556166  0.430429  1
  B  B9  1  0.500000  0.443663  0.569631  1
  B  B10  1  0.500000  0.056337  0.069470  1
  B  B11  1  0.500000  0.943687  0.930379  1
  B  B12  1  0.500000  0.749120  0.417545  1
  B  B13  1  0.500000  0.250436  0.582556  1
  B  B14  1  0.500000  0.249692  0.082450  1
  B  B15  1  0.500000  0.750375  0.917467  1
  B  B16  1  0.500000  0.790094  0.266687  1
  B  B17  1  0.500000  0.209534  0.733147  1
  B  B18  1  0.500000  0.290666  0.233065  1
  B  B19  1  0.500000  0.709482  0.766899  1
  B  B20  1  0.500000  0.630794  0.185068  1
  B  B21  1  0.500000  0.369099  0.814836  1
  B  B22  1  0.500000  0.131342  0.314659  1
  B  B23  1  0.500000  0.869054  0.685239  1
  B  B24  1  0.500000  0.986223  0.213617  1
  B  B25  1  0.500000  0.013967  0.786058  1
  B  B26  1  0.500000  0.485907  0.285974  1
  B  B27  1  0.500000  0.513973  0.713974  1
  B  B28  1  0.500000  0.603218  0.028219  1
  B  B29  1  0.500000  0.396771  0.971708  1
  B  B30  1  0.500000  0.103858  0.472006  1
  B  B31  1  0.500000  0.896493  0.528739  1
  Ru  Ru32  1  0.000000  0.639032  0.319469  1
  Ru  Ru33  1  0.000000  0.360495  0.680505  1
  Ru  Ru34  1  0.000000  0.139856  0.180148  1
  Ru  Ru35  1  0.000000  0.860452  0.819544  1
