# generated using pymatgen
data_Tb2Zn14Ru3
_symmetry_space_group_name_H-M   'P 1'
_cell_length_a   6.82378665
_cell_length_b   6.82378704
_cell_length_c   6.82378629
_cell_angle_alpha   98.06840674
_cell_angle_beta   81.93158483
_cell_angle_gamma   98.06842365
_symmetry_Int_Tables_number   1
_chemical_formula_structural   Tb2Zn14Ru3
_chemical_formula_sum   'Tb2 Zn14 Ru3'
_cell_volume   309.11550420
_cell_formula_units_Z   1
loop_
 _symmetry_equiv_pos_site_id
 _symmetry_equiv_pos_as_xyz
  1  'x, y, z'
loop_
 _atom_site_type_symbol
 _atom_site_label
 _atom_site_symmetry_multiplicity
 _atom_site_fract_x
 _atom_site_fract_y
 _atom_site_fract_z
 _atom_site_occupancy
  Tb  Tb0  1  0.324122  0.675878  0.324122  1
  Tb  Tb1  1  0.675878  0.324122  0.675878  1
  Zn  Zn2  1  0.292703  0.292703  0.000000  1
  Zn  Zn3  1  0.707297  0.707297  0.000000  1
  Zn  Zn4  1  0.102358  0.897642  0.102358  1
  Zn  Zn5  1  0.649184  0.350816  0.158213  1
  Zn  Zn6  1  0.707297  0.000000  0.292703  1
  Zn  Zn7  1  0.000000  0.292704  0.292704  1
  Zn  Zn8  1  0.841787  0.649184  0.350816  1
  Zn  Zn9  1  0.350816  0.158213  0.350816  1
  Zn  Zn10  1  0.158214  0.350817  0.649183  1
  Zn  Zn11  1  0.649184  0.841787  0.649184  1
  Zn  Zn12  1  0.000000  0.707296  0.707296  1
  Zn  Zn13  1  0.292703  0.000000  0.707297  1
  Zn  Zn14  1  0.350816  0.649184  0.841787  1
  Zn  Zn15  1  0.897642  0.102358  0.897642  1
  Ru  Ru16  1  0.500000  0.000000  0.000000  1
  Ru  Ru17  1  0.000000  0.500000  0.000000  1
  Ru  Ru18  1  0.000000  0.000000  0.500000  1
