# generated using pymatgen
data_La3Pr2Sn3I
_symmetry_space_group_name_H-M   'P 1'
_cell_length_a   9.77079900
_cell_length_b   9.77079999
_cell_length_c   7.07372900
_cell_angle_alpha   90.00000000
_cell_angle_beta   90.00000000
_cell_angle_gamma   120.00000004
_symmetry_Int_Tables_number   1
_chemical_formula_structural   La3Pr2Sn3I
_chemical_formula_sum   'La6 Pr4 Sn6 I2'
_cell_volume   584.84293991
_cell_formula_units_Z   2
loop_
 _symmetry_equiv_pos_site_id
 _symmetry_equiv_pos_as_xyz
  1  'x, y, z'
loop_
 _atom_site_type_symbol
 _atom_site_label
 _atom_site_symmetry_multiplicity
 _atom_site_fract_x
 _atom_site_fract_y
 _atom_site_fract_z
 _atom_site_occupancy
  La  La0  1  0.722678  0.722678  0.250000  1
  La  La1  1  0.277322  0.277322  0.750000  1
  La  La2  1  0.000000  0.277322  0.250000  1
  La  La3  1  0.277322  0.000000  0.250000  1
  La  La4  1  0.722678  0.000000  0.750000  1
  La  La5  1  0.000000  0.722678  0.750000  1
  Pr  Pr6  1  0.333333  0.666667  0.500000  1
  Pr  Pr7  1  0.666667  0.333333  0.500000  1
  Pr  Pr8  1  0.333333  0.666667  0.000000  1
  Pr  Pr9  1  0.666667  0.333333  0.000000  1
  Sn  Sn10  1  0.385630  0.385630  0.250000  1
  Sn  Sn11  1  0.614370  0.614370  0.750000  1
  Sn  Sn12  1  0.385630  0.000000  0.750000  1
  Sn  Sn13  1  0.000000  0.614370  0.250000  1
  Sn  Sn14  1  0.614370  0.000000  0.250000  1
  Sn  Sn15  1  0.000000  0.385630  0.750000  1
  I  I16  1  0.000000  0.000000  0.000000  1
  I  I17  1  0.000000  0.000000  0.500000  1
