# generated using pymatgen
data_Er4Tm8CdCo5
_symmetry_space_group_name_H-M   'P 1'
_cell_length_a   8.14405744
_cell_length_b   8.14405822
_cell_length_c   8.14405724
_cell_angle_alpha   110.94916412
_cell_angle_beta   110.48608521
_cell_angle_gamma   107.00652019
_symmetry_Int_Tables_number   1
_chemical_formula_structural   Er4Tm8CdCo5
_chemical_formula_sum   'Er4 Tm8 Cd1 Co5'
_cell_volume   415.23440181
_cell_formula_units_Z   1
loop_
 _symmetry_equiv_pos_site_id
 _symmetry_equiv_pos_as_xyz
  1  'x, y, z'
loop_
 _atom_site_type_symbol
 _atom_site_label
 _atom_site_symmetry_multiplicity
 _atom_site_fract_x
 _atom_site_fract_y
 _atom_site_fract_z
 _atom_site_occupancy
  Er  Er0  1  0.287045  0.184375  0.471419  1
  Er  Er1  1  0.712955  0.815625  0.528581  1
  Er  Er2  1  0.287045  0.815625  0.102670  1
  Er  Er3  1  0.712955  0.184375  0.897330  1
  Tm  Tm4  1  0.619745  0.314763  0.304982  1
  Tm  Tm5  1  0.380255  0.685237  0.695018  1
  Tm  Tm6  1  0.009781  0.314763  0.695018  1
  Tm  Tm7  1  0.990219  0.685237  0.304982  1
  Tm  Tm8  1  0.213050  0.405714  0.192666  1
  Tm  Tm9  1  0.786950  0.594286  0.807334  1
  Tm  Tm10  1  0.213050  0.020384  0.807334  1
  Tm  Tm11  1  0.786950  0.979616  0.192666  1
  Cd  Cd12  1  0.500000  0.500000  0.000000  1
  Co  Co13  1  0.000000  0.376264  0.376264  1
  Co  Co14  1  0.000000  0.623736  0.623736  1
  Co  Co15  1  0.386389  0.886389  0.500000  1
  Co  Co16  1  0.613611  0.113611  0.500000  1
  Co  Co17  1  0.000000  0.000000  0.000000  1
