# generated using pymatgen
data_Nd6SmEr13Si16
_symmetry_space_group_name_H-M   'P 1'
_cell_length_a   7.70432878
_cell_length_b   7.71027132
_cell_length_c   14.25662244
_cell_angle_alpha   89.99406996
_cell_angle_beta   89.89423108
_cell_angle_gamma   90.10691926
_symmetry_Int_Tables_number   1
_chemical_formula_structural   Nd6SmEr13Si16
_chemical_formula_sum   'Nd6 Sm1 Er13 Si16'
_cell_volume   846.87559663
_cell_formula_units_Z   1
loop_
 _symmetry_equiv_pos_site_id
 _symmetry_equiv_pos_as_xyz
  1  'x, y, z'
loop_
 _atom_site_type_symbol
 _atom_site_label
 _atom_site_symmetry_multiplicity
 _atom_site_fract_x
 _atom_site_fract_y
 _atom_site_fract_z
 _atom_site_occupancy
  Nd  Nd0  1  0.992316  0.643048  0.540740  1
  Nd  Nd1  1  0.490441  0.858610  0.209378  1
  Nd  Nd2  1  0.509419  0.139538  0.707285  1
  Nd  Nd3  1  0.859651  0.490321  0.791639  1
  Nd  Nd4  1  0.139837  0.508881  0.292887  1
  Nd  Nd5  1  0.007746  0.357897  0.042436  1
  Sm  Sm6  1  0.359043  0.006914  0.957888  1
  Er  Er7  1  0.490970  0.360677  0.124764  1
  Er  Er8  1  0.991984  0.136751  0.624257  1
  Er  Er9  1  0.862039  0.008232  0.874721  1
  Er  Er10  1  0.137443  0.993032  0.375234  1
  Er  Er11  1  0.511128  0.639870  0.622894  1
  Er  Er12  1  0.361075  0.490934  0.875337  1
  Er  Er13  1  0.639716  0.509925  0.376279  1
  Er  Er14  1  0.006664  0.861502  0.126379  1
  Er  Er15  1  0.636482  0.995951  0.456118  1
  Er  Er16  1  0.318176  0.316991  0.499824  1
  Er  Er17  1  0.184481  0.816646  0.749241  1
  Er  Er18  1  0.815088  0.182712  0.250548  1
  Er  Er19  1  0.682321  0.682113  0.000298  1
  Si  Si20  1  0.294052  0.938733  0.560205  1
  Si  Si21  1  0.708704  0.062787  0.061631  1
  Si  Si22  1  0.933700  0.287969  0.438167  1
  Si  Si23  1  0.438193  0.209161  0.312996  1
  Si  Si24  1  0.564010  0.788835  0.811914  1
  Si  Si25  1  0.211759  0.436259  0.687695  1
  Si  Si26  1  0.788255  0.564867  0.189000  1
  Si  Si27  1  0.064715  0.710708  0.938594  1
  Si  Si28  1  0.799166  0.845039  0.690530  1
  Si  Si29  1  0.202542  0.153058  0.189833  1
  Si  Si30  1  0.843293  0.801538  0.314189  1
  Si  Si31  1  0.350625  0.706948  0.437932  1
  Si  Si32  1  0.652448  0.295721  0.939664  1
  Si  Si33  1  0.701604  0.342560  0.558887  1
  Si  Si34  1  0.296340  0.653846  0.060561  1
  Si  Si35  1  0.154575  0.201425  0.810052  1
