# generated using pymatgen
data_Cs4RbBaTaP4
_symmetry_space_group_name_H-M   'P 1'
_cell_length_a   10.94154457
_cell_length_b   10.98410190
_cell_length_c   8.24161007
_cell_angle_alpha   88.37730476
_cell_angle_beta   87.90801768
_cell_angle_gamma   120.82827508
_symmetry_Int_Tables_number   1
_chemical_formula_structural   Cs4RbBaTaP4
_chemical_formula_sum   'Cs8 Rb2 Ba2 Ta2 P8'
_cell_volume   848.70684772
_cell_formula_units_Z   2
loop_
 _symmetry_equiv_pos_site_id
 _symmetry_equiv_pos_as_xyz
  1  'x, y, z'
loop_
 _atom_site_type_symbol
 _atom_site_label
 _atom_site_symmetry_multiplicity
 _atom_site_fract_x
 _atom_site_fract_y
 _atom_site_fract_z
 _atom_site_occupancy
  Cs  Cs0  1  0.526896  0.462682  0.993903  1
  Cs  Cs1  1  0.529335  0.065876  0.997907  1
  Cs  Cs2  1  0.866257  0.139805  0.679540  1
  Cs  Cs3  1  0.290764  0.150527  0.723198  1
  Cs  Cs4  1  0.856576  0.717911  0.652903  1
  Cs  Cs5  1  0.139537  0.865803  0.181057  1
  Cs  Cs6  1  0.716651  0.855576  0.152812  1
  Cs  Cs7  1  0.150819  0.292065  0.222192  1
  Rb  Rb8  1  0.463647  0.527383  0.497691  1
  Rb  Rb9  1  0.062740  0.529414  0.501247  1
  Ba  Ba10  1  0.461538  0.930455  0.491002  1
  Ba  Ba11  1  0.934572  0.464277  0.993308  1
  Ta  Ta12  1  0.672841  0.331105  0.396979  1
  Ta  Ta13  1  0.327638  0.668665  0.890771  1
  P  P14  1  0.693881  0.342946  0.687820  1
  P  P15  1  0.335943  0.684785  0.185882  1
  P  P16  1  0.787393  0.207337  0.292320  1
  P  P17  1  0.423595  0.199267  0.336338  1
  P  P18  1  0.794120  0.568958  0.272888  1
  P  P19  1  0.203332  0.782805  0.788292  1
  P  P20  1  0.567007  0.790712  0.765126  1
  P  P21  1  0.194919  0.421643  0.825400  1
