# generated using pymatgen
data_Lu10AlPb5S2
_symmetry_space_group_name_H-M   'P 1'
_cell_length_a   8.86033300
_cell_length_b   8.86033339
_cell_length_c   6.57189700
_cell_angle_alpha   90.00000000
_cell_angle_beta   90.00000000
_cell_angle_gamma   120.09405551
_symmetry_Int_Tables_number   1
_chemical_formula_structural   Lu10AlPb5S2
_chemical_formula_sum   'Lu10 Al1 Pb5 S2'
_cell_volume   446.38449141
_cell_formula_units_Z   1
loop_
 _symmetry_equiv_pos_site_id
 _symmetry_equiv_pos_as_xyz
  1  'x, y, z'
loop_
 _atom_site_type_symbol
 _atom_site_label
 _atom_site_symmetry_multiplicity
 _atom_site_fract_x
 _atom_site_fract_y
 _atom_site_fract_z
 _atom_site_occupancy
  Lu  Lu0  1  0.751519  0.751519  0.750000  1
  Lu  Lu1  1  0.249465  0.013123  0.750000  1
  Lu  Lu2  1  0.013123  0.249465  0.750000  1
  Lu  Lu3  1  0.242377  0.242377  0.250000  1
  Lu  Lu4  1  0.756062  0.001019  0.250000  1
  Lu  Lu5  1  0.001019  0.756062  0.250000  1
  Lu  Lu6  1  0.658278  0.335036  0.996433  1
  Lu  Lu7  1  0.335036  0.658278  0.996433  1
  Lu  Lu8  1  0.335036  0.658278  0.503567  1
  Lu  Lu9  1  0.658278  0.335036  0.503567  1
  Al  Al10  1  0.399914  0.399914  0.750000  1
  Pb  Pb11  1  0.605652  0.002012  0.750000  1
  Pb  Pb12  1  0.002012  0.605652  0.750000  1
  Pb  Pb13  1  0.602490  0.602490  0.250000  1
  Pb  Pb14  1  0.397296  0.997051  0.250000  1
  Pb  Pb15  1  0.997051  0.397296  0.250000  1
  S  S16  1  0.997695  0.997695  0.000294  1
  S  S17  1  0.997695  0.997695  0.499706  1
