# generated using pymatgen
data_Er4NbPd14Pt
_symmetry_space_group_name_H-M   'P 1'
_cell_length_a   4.09494000
_cell_length_b   4.11047000
_cell_length_c   20.50842800
_cell_angle_alpha   90.00000000
_cell_angle_beta   90.00000000
_cell_angle_gamma   90.00000000
_symmetry_Int_Tables_number   1
_chemical_formula_structural   Er4NbPd14Pt
_chemical_formula_sum   'Er4 Nb1 Pd14 Pt1'
_cell_volume   345.20048562
_cell_formula_units_Z   1
loop_
 _symmetry_equiv_pos_site_id
 _symmetry_equiv_pos_as_xyz
  1  'x, y, z'
loop_
 _atom_site_type_symbol
 _atom_site_label
 _atom_site_symmetry_multiplicity
 _atom_site_fract_x
 _atom_site_fract_y
 _atom_site_fract_z
 _atom_site_occupancy
  Er  Er0  1  0.000000  0.000000  0.198852  1
  Er  Er1  1  0.000000  0.000000  0.398380  1
  Er  Er2  1  0.000000  0.000000  0.601654  1
  Er  Er3  1  0.000000  0.000000  0.801272  1
  Nb  Nb4  1  0.000000  0.000000  0.000571  1
  Pd  Pd5  1  0.500000  0.500000  0.999879  1
  Pd  Pd6  1  0.500000  0.500000  0.193333  1
  Pd  Pd7  1  0.500000  0.500000  0.397849  1
  Pd  Pd8  1  0.500000  0.500000  0.602109  1
  Pd  Pd9  1  0.500000  0.500000  0.806612  1
  Pd  Pd10  1  0.500000  0.000000  0.296347  1
  Pd  Pd11  1  0.500000  0.000000  0.499993  1
  Pd  Pd12  1  0.500000  0.000000  0.703673  1
  Pd  Pd13  1  0.500000  0.000000  0.908583  1
  Pd  Pd14  1  0.000000  0.500000  0.091520  1
  Pd  Pd15  1  0.000000  0.500000  0.296418  1
  Pd  Pd16  1  0.000000  0.500000  0.499986  1
  Pd  Pd17  1  0.000000  0.500000  0.703702  1
  Pd  Pd18  1  0.000000  0.500000  0.908712  1
  Pt  Pt19  1  0.500000  0.000000  0.090556  1
