# generated using pymatgen
data_Er10In8Ru3Au
_symmetry_space_group_name_H-M   'P 1'
_cell_length_a   3.60209700
_cell_length_b   8.02382292
_cell_length_c   18.27544990
_cell_angle_alpha   90.05491988
_cell_angle_beta   90.00000000
_cell_angle_gamma   90.00000000
_symmetry_Int_Tables_number   1
_chemical_formula_structural   Er10In8Ru3Au
_chemical_formula_sum   'Er10 In8 Ru3 Au1'
_cell_volume   528.20756501
_cell_formula_units_Z   1
loop_
 _symmetry_equiv_pos_site_id
 _symmetry_equiv_pos_as_xyz
  1  'x, y, z'
loop_
 _atom_site_type_symbol
 _atom_site_label
 _atom_site_symmetry_multiplicity
 _atom_site_fract_x
 _atom_site_fract_y
 _atom_site_fract_z
 _atom_site_occupancy
  Er  Er0  1  0.000000  0.115569  0.414365  1
  Er  Er1  1  0.000000  0.883195  0.590186  1
  Er  Er2  1  0.000000  0.382220  0.909640  1
  Er  Er3  1  0.000000  0.620812  0.080767  1
  Er  Er4  1  0.000000  0.225268  0.223688  1
  Er  Er5  1  0.000000  0.755695  0.778332  1
  Er  Er6  1  0.000000  0.256507  0.721089  1
  Er  Er7  1  0.000000  0.761551  0.281506  1
  Er  Er8  1  0.000000  0.000146  0.999252  1
  Er  Er9  1  0.000000  0.500755  0.500350  1
  In  In10  1  0.500000  0.423233  0.353270  1
  In  In11  1  0.500000  0.569002  0.649857  1
  In  In12  1  0.500000  0.069521  0.849232  1
  In  In13  1  0.500000  0.931755  0.148685  1
  In  In14  1  0.500000  0.290441  0.064686  1
  In  In15  1  0.500000  0.704723  0.930896  1
  In  In16  1  0.500000  0.206768  0.568708  1
  In  In17  1  0.500000  0.792778  0.432440  1
  Ru  Ru18  1  0.500000  0.022883  0.305236  1
  Ru  Ru19  1  0.500000  0.980677  0.697046  1
  Ru  Ru20  1  0.500000  0.481597  0.803345  1
  Au  Au21  1  0.500000  0.524908  0.197425  1
