# generated using pymatgen
data_CeDyY2(ReB6)2
_symmetry_space_group_name_H-M   'P 1'
_cell_length_a   3.70789500
_cell_length_b   9.20468324
_cell_length_c   11.58467728
_cell_angle_alpha   90.14937997
_cell_angle_beta   90.00000000
_cell_angle_gamma   90.00000000
_symmetry_Int_Tables_number   1
_chemical_formula_structural   CeDyY2(ReB6)2
_chemical_formula_sum   'Ce2 Dy2 Y4 Re4 B24'
_cell_volume   395.38367985
_cell_formula_units_Z   2
loop_
 _symmetry_equiv_pos_site_id
 _symmetry_equiv_pos_as_xyz
  1  'x, y, z'
loop_
 _atom_site_type_symbol
 _atom_site_label
 _atom_site_symmetry_multiplicity
 _atom_site_fract_x
 _atom_site_fract_y
 _atom_site_fract_z
 _atom_site_occupancy
  Ce  Ce0  1  0.000000  0.322555  0.413601  1
  Ce  Ce1  1  0.000000  0.677445  0.586399  1
  Dy  Dy2  1  0.000000  0.442827  0.128644  1
  Dy  Dy3  1  0.000000  0.557173  0.871356  1
  Y  Y4  1  0.000000  0.824200  0.085443  1
  Y  Y5  1  0.000000  0.175800  0.914557  1
  Y  Y6  1  0.000000  0.943429  0.370553  1
  Y  Y7  1  0.000000  0.056571  0.629447  1
  Re  Re8  1  0.000000  0.636961  0.321970  1
  Re  Re9  1  0.000000  0.363039  0.678030  1
  Re  Re10  1  0.000000  0.139155  0.179788  1
  Re  Re11  1  0.000000  0.860845  0.820212  1
  B  B12  1  0.500000  0.554027  0.431557  1
  B  B13  1  0.500000  0.445973  0.568443  1
  B  B14  1  0.500000  0.053490  0.066866  1
  B  B15  1  0.500000  0.946510  0.933134  1
  B  B16  1  0.500000  0.748740  0.417463  1
  B  B17  1  0.500000  0.251260  0.582537  1
  B  B18  1  0.500000  0.248290  0.080989  1
  B  B19  1  0.500000  0.751710  0.919011  1
  B  B20  1  0.500000  0.791609  0.265156  1
  B  B21  1  0.500000  0.208391  0.734844  1
  B  B22  1  0.500000  0.291039  0.233407  1
  B  B23  1  0.500000  0.708961  0.766593  1
  B  B24  1  0.500000  0.631194  0.185326  1
  B  B25  1  0.500000  0.368806  0.814674  1
  B  B26  1  0.500000  0.131397  0.313235  1
  B  B27  1  0.500000  0.868603  0.686765  1
  B  B28  1  0.500000  0.982963  0.211372  1
  B  B29  1  0.500000  0.017037  0.788628  1
  B  B30  1  0.500000  0.483650  0.286909  1
  B  B31  1  0.500000  0.516350  0.713091  1
  B  B32  1  0.500000  0.602014  0.028561  1
  B  B33  1  0.500000  0.397986  0.971439  1
  B  B34  1  0.500000  0.103925  0.471078  1
  B  B35  1  0.500000  0.896075  0.528922  1
