# generated using pymatgen
data_K3PuO4
_symmetry_space_group_name_H-M   'P 1'
_cell_length_a   7.47352000
_cell_length_b   6.23056518
_cell_length_c   6.63488558
_cell_angle_alpha   70.08050731
_cell_angle_beta   90.00000000
_cell_angle_gamma   90.00000000
_symmetry_Int_Tables_number   1
_chemical_formula_structural   K3PuO4
_chemical_formula_sum   'K6 Pu2 O8'
_cell_volume   290.46480744
_cell_formula_units_Z   2
loop_
 _symmetry_equiv_pos_site_id
 _symmetry_equiv_pos_as_xyz
  1  'x, y, z'
loop_
 _atom_site_type_symbol
 _atom_site_label
 _atom_site_symmetry_multiplicity
 _atom_site_fract_x
 _atom_site_fract_y
 _atom_site_fract_z
 _atom_site_occupancy
  K  K0  1  0.632976  0.250000  0.000000  1
  K  K1  1  0.367024  0.750000  0.000000  1
  K  K2  1  0.614053  0.750000  0.500000  1
  K  K3  1  0.385947  0.250000  0.500000  1
  K  K4  1  0.881087  0.750000  0.000000  1
  K  K5  1  0.118913  0.250000  0.000000  1
  Pu  Pu6  1  0.887801  0.250000  0.500000  1
  Pu  Pu7  1  0.112199  0.750000  0.500000  1
  O  O8  1  0.088191  0.009707  0.682160  1
  O  O9  1  0.088191  0.490293  0.317840  1
  O  O10  1  0.692665  0.434411  0.292670  1
  O  O11  1  0.692665  0.065589  0.707330  1
  O  O12  1  0.307335  0.565589  0.707330  1
  O  O13  1  0.307335  0.934411  0.292670  1
  O  O14  1  0.911809  0.990293  0.317840  1
  O  O15  1  0.911809  0.509707  0.682160  1
