# generated using pymatgen
data_Ba6Ni(RuO6)2
_symmetry_space_group_name_H-M   'P 1'
_cell_length_a   9.16067168
_cell_length_b   9.16067241
_cell_length_c   7.29216449
_cell_angle_alpha   67.92736850
_cell_angle_beta   67.92736701
_cell_angle_gamma   36.95961945
_symmetry_Int_Tables_number   1
_chemical_formula_structural   Ba6Ni(RuO6)2
_chemical_formula_sum   'Ba6 Ni1 Ru2 O12'
_cell_volume   337.82015716
_cell_formula_units_Z   1
loop_
 _symmetry_equiv_pos_site_id
 _symmetry_equiv_pos_as_xyz
  1  'x, y, z'
loop_
 _atom_site_type_symbol
 _atom_site_label
 _atom_site_symmetry_multiplicity
 _atom_site_fract_x
 _atom_site_fract_y
 _atom_site_fract_z
 _atom_site_occupancy
  Ba  Ba0  1  0.209443  0.209443  0.712970  1
  Ba  Ba1  1  0.885656  0.885656  0.710473  1
  Ba  Ba2  1  0.547798  0.547798  0.714682  1
  Ba  Ba3  1  0.790557  0.790557  0.287030  1
  Ba  Ba4  1  0.452202  0.452202  0.285318  1
  Ba  Ba5  1  0.114344  0.114344  0.289527  1
  Ni  Ni6  1  0.000000  0.000000  0.000000  1
  Ru  Ru7  1  0.665843  0.665843  0.000426  1
  Ru  Ru8  1  0.334157  0.334157  0.999574  1
  O  O9  1  0.281747  0.281747  0.301224  1
  O  O10  1  0.947230  0.947230  0.313026  1
  O  O11  1  0.618247  0.618247  0.301225  1
  O  O12  1  0.718253  0.718253  0.698776  1
  O  O13  1  0.381753  0.381753  0.698775  1
  O  O14  1  0.052770  0.052770  0.686974  1
  O  O15  1  0.000000  0.500000  0.000000  1
  O  O16  1  0.649843  0.174984  0.000434  1
  O  O17  1  0.350157  0.825016  0.999566  1
  O  O18  1  0.500000  0.000000  0.000000  1
  O  O19  1  0.174984  0.649843  0.000434  1
  O  O20  1  0.825016  0.350157  0.999566  1
