# generated using pymatgen
data_Dy4TmInGa2
_symmetry_space_group_name_H-M   'P 1'
_cell_length_a   7.74203400
_cell_length_b   7.74203400
_cell_length_c   14.35866800
_cell_angle_alpha   90.00000000
_cell_angle_beta   90.00000000
_cell_angle_gamma   90.00000000
_symmetry_Int_Tables_number   1
_chemical_formula_structural   Dy4TmInGa2
_chemical_formula_sum   'Dy16 Tm4 In4 Ga8'
_cell_volume   860.64550010
_cell_formula_units_Z   4
loop_
 _symmetry_equiv_pos_site_id
 _symmetry_equiv_pos_as_xyz
  1  'x, y, z'
loop_
 _atom_site_type_symbol
 _atom_site_label
 _atom_site_symmetry_multiplicity
 _atom_site_fract_x
 _atom_site_fract_y
 _atom_site_fract_z
 _atom_site_occupancy
  Dy  Dy0  1  0.673432  0.662018  0.606675  1
  Dy  Dy1  1  0.673432  0.337982  0.106675  1
  Dy  Dy2  1  0.826568  0.837982  0.393325  1
  Dy  Dy3  1  0.173432  0.837982  0.893325  1
  Dy  Dy4  1  0.326568  0.337982  0.606675  1
  Dy  Dy5  1  0.326568  0.662018  0.106675  1
  Dy  Dy6  1  0.173432  0.162018  0.393325  1
  Dy  Dy7  1  0.826568  0.162018  0.893325  1
  Dy  Dy8  1  0.662018  0.326568  0.393325  1
  Dy  Dy9  1  0.337982  0.326568  0.893325  1
  Dy  Dy10  1  0.162018  0.826568  0.606675  1
  Dy  Dy11  1  0.837982  0.826568  0.106675  1
  Dy  Dy12  1  0.337982  0.673432  0.393325  1
  Dy  Dy13  1  0.662018  0.673432  0.893325  1
  Dy  Dy14  1  0.837982  0.173432  0.606675  1
  Dy  Dy15  1  0.162018  0.173432  0.106675  1
  Tm  Tm16  1  0.000000  0.500000  0.759056  1
  Tm  Tm17  1  0.000000  0.500000  0.259056  1
  Tm  Tm18  1  0.500000  0.000000  0.240944  1
  Tm  Tm19  1  0.500000  0.000000  0.740944  1
  In  In20  1  0.000000  0.500000  0.495980  1
  In  In21  1  0.000000  0.500000  0.995980  1
  In  In22  1  0.500000  0.000000  0.504020  1
  In  In23  1  0.500000  0.000000  0.004020  1
  Ga  Ga24  1  0.875134  0.875134  0.750000  1
  Ga  Ga25  1  0.875134  0.124866  0.250000  1
  Ga  Ga26  1  0.624866  0.624866  0.250000  1
  Ga  Ga27  1  0.375134  0.624866  0.750000  1
  Ga  Ga28  1  0.124866  0.124866  0.750000  1
  Ga  Ga29  1  0.124866  0.875134  0.250000  1
  Ga  Ga30  1  0.375134  0.375134  0.250000  1
  Ga  Ga31  1  0.624866  0.375134  0.750000  1
