# generated using pymatgen
data_CeTh2Sn3Ir2Rh
_symmetry_space_group_name_H-M   'P 1'
_cell_length_a   7.56123500
_cell_length_b   7.58892750
_cell_length_c   4.13630000
_cell_angle_alpha   90.00000000
_cell_angle_beta   90.00000000
_cell_angle_gamma   119.87935875
_symmetry_Int_Tables_number   1
_chemical_formula_structural   CeTh2Sn3Ir2Rh
_chemical_formula_sum   'Ce1 Th2 Sn3 Ir2 Rh1'
_cell_volume   205.79862738
_cell_formula_units_Z   1
loop_
 _symmetry_equiv_pos_site_id
 _symmetry_equiv_pos_as_xyz
  1  'x, y, z'
loop_
 _atom_site_type_symbol
 _atom_site_label
 _atom_site_symmetry_multiplicity
 _atom_site_fract_x
 _atom_site_fract_y
 _atom_site_fract_z
 _atom_site_occupancy
  Ce  Ce0  1  0.414107  0.000000  0.000000  1
  Th  Th1  1  0.000539  0.414996  0.000000  1
  Th  Th2  1  0.585542  0.585004  0.000000  1
  Sn  Sn3  1  0.250635  0.245318  0.500000  1
  Sn  Sn4  1  0.005317  0.754682  0.500000  1
  Sn  Sn5  1  0.743897  0.000000  0.500000  1
  Ir  Ir6  1  0.671834  0.338606  0.500000  1
  Ir  Ir7  1  0.333227  0.661394  0.500000  1
  Rh  Rh8  1  0.994903  0.000000  0.000000  1
