# generated using pymatgen
data_Na3Sr(InPt)4
_symmetry_space_group_name_H-M   'P 1'
_cell_length_a   4.51110300
_cell_length_b   7.61335827
_cell_length_c   8.10915873
_cell_angle_alpha   89.73588113
_cell_angle_beta   90.00000000
_cell_angle_gamma   90.00000000
_symmetry_Int_Tables_number   1
_chemical_formula_structural   Na3Sr(InPt)4
_chemical_formula_sum   'Na3 Sr1 In4 Pt4'
_cell_volume   278.50320506
_cell_formula_units_Z   1
loop_
 _symmetry_equiv_pos_site_id
 _symmetry_equiv_pos_as_xyz
  1  'x, y, z'
loop_
 _atom_site_type_symbol
 _atom_site_label
 _atom_site_symmetry_multiplicity
 _atom_site_fract_x
 _atom_site_fract_y
 _atom_site_fract_z
 _atom_site_occupancy
  Na  Na0  1  0.750000  0.976796  0.670376  1
  Na  Na1  1  0.250000  0.021584  0.330771  1
  Na  Na2  1  0.750000  0.475533  0.819321  1
  Sr  Sr3  1  0.250000  0.519921  0.170069  1
  In  In4  1  0.750000  0.337608  0.438569  1
  In  In5  1  0.250000  0.150572  0.925646  1
  In  In6  1  0.250000  0.653945  0.576094  1
  In  In7  1  0.750000  0.856068  0.068484  1
  Pt  Pt8  1  0.250000  0.791822  0.883366  1
  Pt  Pt9  1  0.250000  0.290101  0.617450  1
  Pt  Pt10  1  0.750000  0.709350  0.381570  1
  Pt  Pt11  1  0.750000  0.216698  0.118283  1
