# generated using pymatgen
data_Li2Be(Ni2P)6
_symmetry_space_group_name_H-M   'P 1'
_cell_length_a   8.98095600
_cell_length_b   8.98095596
_cell_length_c   3.48371200
_cell_angle_alpha   90.00000000
_cell_angle_beta   90.00000000
_cell_angle_gamma   120.00000015
_symmetry_Int_Tables_number   1
_chemical_formula_structural   Li2Be(Ni2P)6
_chemical_formula_sum   'Li2 Be1 Ni12 P6'
_cell_volume   243.34252547
_cell_formula_units_Z   1
loop_
 _symmetry_equiv_pos_site_id
 _symmetry_equiv_pos_as_xyz
  1  'x, y, z'
loop_
 _atom_site_type_symbol
 _atom_site_label
 _atom_site_symmetry_multiplicity
 _atom_site_fract_x
 _atom_site_fract_y
 _atom_site_fract_z
 _atom_site_occupancy
  Li  Li0  1  0.000000  0.000000  0.000000  1
  Li  Li1  1  0.333333  0.666667  0.500000  1
  Be  Be2  1  0.666667  0.333333  0.000000  1
  Ni  Ni3  1  0.102129  0.393629  0.000000  1
  Ni  Ni4  1  0.291501  0.897871  0.000000  1
  Ni  Ni5  1  0.606371  0.708499  0.000000  1
  Ni  Ni6  1  0.826995  0.610307  0.000000  1
  Ni  Ni7  1  0.783312  0.173005  0.000000  1
  Ni  Ni8  1  0.389693  0.216688  0.000000  1
  Ni  Ni9  1  0.052539  0.770696  0.500000  1
  Ni  Ni10  1  0.718157  0.947461  0.500000  1
  Ni  Ni11  1  0.229304  0.281843  0.500000  1
  Ni  Ni12  1  0.884128  0.424490  0.500000  1
  Ni  Ni13  1  0.540363  0.115872  0.500000  1
  Ni  Ni14  1  0.575510  0.459637  0.500000  1
  P  P15  1  0.080683  0.623520  0.000000  1
  P  P16  1  0.542838  0.919317  0.000000  1
  P  P17  1  0.376480  0.457162  0.000000  1
  P  P18  1  0.788083  0.743780  0.500000  1
  P  P19  1  0.955697  0.211917  0.500000  1
  P  P20  1  0.256220  0.044303  0.500000  1
