# generated using pymatgen
data_HoHf5(ScPt2)2
_symmetry_space_group_name_H-M   'P 1'
_cell_length_a   4.59296900
_cell_length_b   6.78058092
_cell_length_c   8.11822606
_cell_angle_alpha   89.76652580
_cell_angle_beta   90.00000000
_cell_angle_gamma   90.00000000
_symmetry_Int_Tables_number   1
_chemical_formula_structural   HoHf5(ScPt2)2
_chemical_formula_sum   'Ho1 Hf5 Sc2 Pt4'
_cell_volume   252.82379870
_cell_formula_units_Z   1
loop_
 _symmetry_equiv_pos_site_id
 _symmetry_equiv_pos_as_xyz
  1  'x, y, z'
loop_
 _atom_site_type_symbol
 _atom_site_label
 _atom_site_symmetry_multiplicity
 _atom_site_fract_x
 _atom_site_fract_y
 _atom_site_fract_z
 _atom_site_occupancy
  Ho  Ho0  1  0.750000  0.514305  0.817748  1
  Hf  Hf1  1  0.250000  0.851180  0.922014  1
  Hf  Hf2  1  0.250000  0.342628  0.577941  1
  Hf  Hf3  1  0.750000  0.149300  0.081435  1
  Hf  Hf4  1  0.750000  0.653574  0.417288  1
  Hf  Hf5  1  0.250000  0.988188  0.326471  1
  Sc  Sc6  1  0.250000  0.483725  0.182105  1
  Sc  Sc7  1  0.750000  0.013037  0.674754  1
  Pt  Pt8  1  0.250000  0.239400  0.910114  1
  Pt  Pt9  1  0.250000  0.743310  0.590200  1
  Pt  Pt10  1  0.750000  0.763007  0.096310  1
  Pt  Pt11  1  0.750000  0.258343  0.403619  1
