# generated using pymatgen
data_Ac2Ho3In3Pb
_symmetry_space_group_name_H-M   'P 1'
_cell_length_a   8.21269500
_cell_length_b   8.65297600
_cell_length_c   16.38458000
_cell_angle_alpha   90.00000000
_cell_angle_beta   90.00000000
_cell_angle_gamma   90.00000000
_symmetry_Int_Tables_number   1
_chemical_formula_structural   Ac2Ho3In3Pb
_chemical_formula_sum   'Ac8 Ho12 In12 Pb4'
_cell_volume   1164.35793400
_cell_formula_units_Z   4
loop_
 _symmetry_equiv_pos_site_id
 _symmetry_equiv_pos_as_xyz
  1  'x, y, z'
loop_
 _atom_site_type_symbol
 _atom_site_label
 _atom_site_symmetry_multiplicity
 _atom_site_fract_x
 _atom_site_fract_y
 _atom_site_fract_z
 _atom_site_occupancy
  Ac  Ac0  1  0.502795  0.681443  0.595059  1
  Ac  Ac1  1  0.002795  0.818557  0.904941  1
  Ac  Ac2  1  0.497205  0.318557  0.095059  1
  Ac  Ac3  1  0.997205  0.181443  0.404941  1
  Ac  Ac4  1  0.503606  0.321465  0.404807  1
  Ac  Ac5  1  0.003606  0.178535  0.095193  1
  Ac  Ac6  1  0.496394  0.678535  0.904807  1
  Ac  Ac7  1  0.996394  0.821465  0.595193  1
  Ho  Ho8  1  0.664244  0.166360  0.625760  1
  Ho  Ho9  1  0.164244  0.333640  0.874240  1
  Ho  Ho10  1  0.335756  0.833640  0.125760  1
  Ho  Ho11  1  0.835756  0.666360  0.374240  1
  Ho  Ho12  1  0.340665  0.831257  0.373591  1
  Ho  Ho13  1  0.840665  0.668743  0.126409  1
  Ho  Ho14  1  0.659335  0.168743  0.873591  1
  Ho  Ho15  1  0.159335  0.331257  0.626409  1
  Ho  Ho16  1  0.825466  0.498439  0.748952  1
  Ho  Ho17  1  0.325466  0.001561  0.751048  1
  Ho  Ho18  1  0.174534  0.501561  0.248952  1
  Ho  Ho19  1  0.674534  0.998439  0.251048  1
  In  In20  1  0.672876  0.958179  0.457646  1
  In  In21  1  0.172876  0.541821  0.042354  1
  In  In22  1  0.327124  0.041821  0.957646  1
  In  In23  1  0.827124  0.458179  0.542354  1
  In  In24  1  0.461496  0.379933  0.747099  1
  In  In25  1  0.961496  0.120067  0.752901  1
  In  In26  1  0.538504  0.620067  0.247099  1
  In  In27  1  0.038504  0.879933  0.252901  1
  In  In28  1  0.699709  0.873187  0.750627  1
  In  In29  1  0.199709  0.626813  0.749373  1
  In  In30  1  0.300291  0.126813  0.250627  1
  In  In31  1  0.800291  0.373187  0.249373  1
  Pb  Pb32  1  0.327713  0.040750  0.539964  1
  Pb  Pb33  1  0.827713  0.459250  0.960036  1
  Pb  Pb34  1  0.672287  0.959250  0.039964  1
  Pb  Pb35  1  0.172287  0.540750  0.460036  1
