# generated using pymatgen
data_TbNd2Ga6Co7Cu2
_symmetry_space_group_name_H-M   'P 1'
_cell_length_a   4.11383200
_cell_length_b   8.82082169
_cell_length_c   8.93013970
_cell_angle_alpha   59.54256230
_cell_angle_beta   90.00000000
_cell_angle_gamma   90.00000000
_symmetry_Int_Tables_number   1
_chemical_formula_structural   TbNd2Ga6Co7Cu2
_chemical_formula_sum   'Tb1 Nd2 Ga6 Co7 Cu2'
_cell_volume   279.33419988
_cell_formula_units_Z   1
loop_
 _symmetry_equiv_pos_site_id
 _symmetry_equiv_pos_as_xyz
  1  'x, y, z'
loop_
 _atom_site_type_symbol
 _atom_site_label
 _atom_site_symmetry_multiplicity
 _atom_site_fract_x
 _atom_site_fract_y
 _atom_site_fract_z
 _atom_site_occupancy
  Tb  Tb0  1  0.000000  0.999788  0.996976  1
  Nd  Nd1  1  0.500000  0.329694  0.335244  1
  Nd  Nd2  1  0.500000  0.670590  0.664333  1
  Ga  Ga3  1  0.000000  0.492698  0.511032  1
  Ga  Ga4  1  0.000000  0.507155  0.004161  1
  Ga  Ga5  1  0.000000  0.999812  0.491396  1
  Ga  Ga6  1  0.500000  0.728859  0.272502  1
  Ga  Ga7  1  0.500000  0.272582  0.001121  1
  Ga  Ga8  1  0.500000  0.999979  0.725503  1
  Co  Co9  1  0.000000  0.178066  0.177631  1
  Co  Co10  1  0.000000  0.176582  0.635421  1
  Co  Co11  1  0.000000  0.634098  0.192238  1
  Co  Co12  1  0.000000  0.822931  0.810045  1
  Co  Co13  1  0.000000  0.364863  0.825888  1
  Co  Co14  1  0.000000  0.821176  0.355801  1
  Co  Co15  1  0.500000  0.000832  0.290452  1
  Cu  Cu16  1  0.500000  0.292865  0.708685  1
  Cu  Cu17  1  0.500000  0.707327  0.001672  1
