# generated using pymatgen
data_NaNd(MoO4)2
_symmetry_space_group_name_H-M   'P 1'
_cell_length_a   6.95618078
_cell_length_b   6.95618103
_cell_length_c   6.95618068
_cell_angle_alpha   134.74064134
_cell_angle_beta   134.74064335
_cell_angle_gamma   65.93344072
_symmetry_Int_Tables_number   1
_chemical_formula_structural   NaNd(MoO4)2
_chemical_formula_sum   'Na1 Nd1 Mo2 O8'
_cell_volume   167.23915935
_cell_formula_units_Z   1
loop_
 _symmetry_equiv_pos_site_id
 _symmetry_equiv_pos_as_xyz
  1  'x, y, z'
loop_
 _atom_site_type_symbol
 _atom_site_label
 _atom_site_symmetry_multiplicity
 _atom_site_fract_x
 _atom_site_fract_y
 _atom_site_fract_z
 _atom_site_occupancy
  Na  Na0  1  0.750000  0.250000  0.500000  1
  Nd  Nd1  1  0.500000  0.500000  0.000000  1
  Mo  Mo2  1  0.000000  0.000000  0.000000  1
  Mo  Mo3  1  0.250000  0.750000  0.500000  1
  O  O4  1  0.478943  0.077197  0.882056  1
  O  O5  1  0.195142  0.596887  0.117944  1
  O  O6  1  0.922803  0.804858  0.401747  1
  O  O7  1  0.403113  0.521057  0.598253  1
  O  O8  1  0.323280  0.926281  0.087016  1
  O  O9  1  0.839265  0.236264  0.912984  1
  O  O10  1  0.073719  0.160735  0.396999  1
  O  O11  1  0.763736  0.676720  0.603001  1
