# generated using pymatgen
data_Ho5In4CoAu
_symmetry_space_group_name_H-M   'P 1'
_cell_length_a   3.55011800
_cell_length_b   8.16695830
_cell_length_c   18.19648067
_cell_angle_alpha   89.96905414
_cell_angle_beta   90.00000000
_cell_angle_gamma   90.00000000
_symmetry_Int_Tables_number   1
_chemical_formula_structural   Ho5In4CoAu
_chemical_formula_sum   'Ho10 In8 Co2 Au2'
_cell_volume   527.58259956
_cell_formula_units_Z   2
loop_
 _symmetry_equiv_pos_site_id
 _symmetry_equiv_pos_as_xyz
  1  'x, y, z'
loop_
 _atom_site_type_symbol
 _atom_site_label
 _atom_site_symmetry_multiplicity
 _atom_site_fract_x
 _atom_site_fract_y
 _atom_site_fract_z
 _atom_site_occupancy
  Ho  Ho0  1  0.000000  0.500000  0.500000  1
  Ho  Ho1  1  0.000000  0.000000  0.000000  1
  Ho  Ho2  1  0.000000  0.716280  0.274653  1
  Ho  Ho3  1  0.000000  0.283720  0.725347  1
  Ho  Ho4  1  0.000000  0.733689  0.782940  1
  Ho  Ho5  1  0.000000  0.266311  0.217060  1
  Ho  Ho6  1  0.000000  0.611658  0.088406  1
  Ho  Ho7  1  0.000000  0.388342  0.911594  1
  Ho  Ho8  1  0.000000  0.879756  0.580218  1
  Ho  Ho9  1  0.000000  0.120244  0.419782  1
  In  In10  1  0.500000  0.706644  0.931925  1
  In  In11  1  0.500000  0.293356  0.068075  1
  In  In12  1  0.500000  0.789524  0.431407  1
  In  In13  1  0.500000  0.210476  0.568593  1
  In  In14  1  0.500000  0.575923  0.651054  1
  In  In15  1  0.500000  0.424077  0.348946  1
  In  In16  1  0.500000  0.917420  0.148645  1
  In  In17  1  0.500000  0.082580  0.851355  1
  Co  Co18  1  0.500000  0.519696  0.194295  1
  Co  Co19  1  0.500000  0.480304  0.805705  1
  Au  Au20  1  0.500000  0.976820  0.699135  1
  Au  Au21  1  0.500000  0.023180  0.300865  1
