# generated using pymatgen
data_CsCd11
_symmetry_space_group_name_H-M   'P 1'
_cell_length_a   9.64438325
_cell_length_b   9.64438282
_cell_length_c   9.64438264
_cell_angle_alpha   99.91823870
_cell_angle_beta   99.91823636
_cell_angle_gamma   130.95868348
_symmetry_Int_Tables_number   1
_chemical_formula_structural   CsCd11
_chemical_formula_sum   'Cs2 Cd22'
_cell_volume   616.34909763
_cell_formula_units_Z   2
loop_
 _symmetry_equiv_pos_site_id
 _symmetry_equiv_pos_as_xyz
  1  'x, y, z'
loop_
 _atom_site_type_symbol
 _atom_site_label
 _atom_site_symmetry_multiplicity
 _atom_site_fract_x
 _atom_site_fract_y
 _atom_site_fract_z
 _atom_site_occupancy
  Cs  Cs0  1  0.000000  0.000000  0.000000  1
  Cs  Cs1  1  0.250000  0.750000  0.500000  1
  Cd  Cd2  1  0.066799  0.651379  0.827557  1
  Cd  Cd3  1  0.823822  0.239241  0.172443  1
  Cd  Cd4  1  0.750000  0.250000  0.500000  1
  Cd  Cd5  1  0.500000  0.500000  0.000000  1
  Cd  Cd6  1  0.625000  0.375000  0.750000  1
  Cd  Cd7  1  0.625000  0.375000  0.250000  1
  Cd  Cd8  1  0.125000  0.375000  0.750000  1
  Cd  Cd9  1  0.625000  0.875000  0.250000  1
  Cd  Cd10  1  0.823822  0.651379  0.584581  1
  Cd  Cd11  1  0.901379  0.816799  0.327557  1
  Cd  Cd12  1  0.489241  0.573822  0.672443  1
  Cd  Cd13  1  0.066799  0.239241  0.415419  1
  Cd  Cd14  1  0.760759  0.933201  0.584581  1
  Cd  Cd15  1  0.348621  0.176178  0.415419  1
  Cd  Cd16  1  0.426178  0.510759  0.327557  1
  Cd  Cd17  1  0.183201  0.098621  0.672443  1
  Cd  Cd18  1  0.426178  0.098621  0.915419  1
  Cd  Cd19  1  0.348621  0.933201  0.172443  1
  Cd  Cd20  1  0.760759  0.176178  0.827557  1
  Cd  Cd21  1  0.183201  0.510759  0.084581  1
  Cd  Cd22  1  0.489241  0.816799  0.915419  1
  Cd  Cd23  1  0.901379  0.573822  0.084581  1
