# generated using pymatgen
data_Yb2SiSbPd13
_symmetry_space_group_name_H-M   'P 1'
_cell_length_a   9.05459808
_cell_length_b   9.01390800
_cell_length_c   6.98994553
_cell_angle_alpha   90.00000000
_cell_angle_beta   90.48674587
_cell_angle_gamma   90.00000000
_symmetry_Int_Tables_number   1
_chemical_formula_structural   Yb2SiSbPd13
_chemical_formula_sum   'Yb4 Si2 Sb2 Pd26'
_cell_volume   570.47999285
_cell_formula_units_Z   2
loop_
 _symmetry_equiv_pos_site_id
 _symmetry_equiv_pos_as_xyz
  1  'x, y, z'
loop_
 _atom_site_type_symbol
 _atom_site_label
 _atom_site_symmetry_multiplicity
 _atom_site_fract_x
 _atom_site_fract_y
 _atom_site_fract_z
 _atom_site_occupancy
  Yb  Yb0  1  0.524101  0.000000  0.930032  1
  Yb  Yb1  1  0.975899  0.500000  0.069968  1
  Yb  Yb2  1  0.998637  0.000000  0.498439  1
  Yb  Yb3  1  0.501363  0.500000  0.501561  1
  Si  Si4  1  0.508079  0.000000  0.441646  1
  Si  Si5  1  0.991921  0.500000  0.558354  1
  Sb  Sb6  1  0.250000  0.750000  0.000000  1
  Sb  Sb7  1  0.250000  0.250000  0.000000  1
  Pd  Pd8  1  0.340497  0.836763  0.607066  1
  Pd  Pd9  1  0.340497  0.163237  0.607066  1
  Pd  Pd10  1  0.667276  0.833848  0.616083  1
  Pd  Pd11  1  0.667276  0.166152  0.616083  1
  Pd  Pd12  1  0.159503  0.663237  0.392934  1
  Pd  Pd13  1  0.159503  0.336763  0.392934  1
  Pd  Pd14  1  0.832724  0.666152  0.383917  1
  Pd  Pd15  1  0.832724  0.333848  0.383917  1
  Pd  Pd16  1  0.502203  0.770307  0.253716  1
  Pd  Pd17  1  0.502203  0.229693  0.253716  1
  Pd  Pd18  1  0.273927  0.000000  0.254222  1
  Pd  Pd19  1  0.734312  0.000000  0.252974  1
  Pd  Pd20  1  0.997797  0.729693  0.746284  1
  Pd  Pd21  1  0.997797  0.270307  0.746284  1
  Pd  Pd22  1  0.226073  0.500000  0.745778  1
  Pd  Pd23  1  0.765688  0.500000  0.747026  1
  Pd  Pd24  1  0.497077  0.344965  0.857133  1
  Pd  Pd25  1  0.497077  0.655035  0.857133  1
  Pd  Pd26  1  0.851995  0.000000  0.851787  1
  Pd  Pd27  1  0.160821  0.000000  0.852823  1
  Pd  Pd28  1  0.002923  0.155035  0.142867  1
  Pd  Pd29  1  0.002923  0.844965  0.142867  1
  Pd  Pd30  1  0.648005  0.500000  0.148213  1
  Pd  Pd31  1  0.339179  0.500000  0.147177  1
  Pd  Pd32  1  0.750000  0.750000  0.000000  1
  Pd  Pd33  1  0.750000  0.250000  0.000000  1
