# generated using pymatgen
data_Tb3Lu5Pt4
_symmetry_space_group_name_H-M   'P 1'
_cell_length_a   4.73764800
_cell_length_b   7.09612605
_cell_length_c   8.63514405
_cell_angle_alpha   89.98727788
_cell_angle_beta   90.00000000
_cell_angle_gamma   90.00000000
_symmetry_Int_Tables_number   1
_chemical_formula_structural   Tb3Lu5Pt4
_chemical_formula_sum   'Tb3 Lu5 Pt4'
_cell_volume   290.30444621
_cell_formula_units_Z   1
loop_
 _symmetry_equiv_pos_site_id
 _symmetry_equiv_pos_as_xyz
  1  'x, y, z'
loop_
 _atom_site_type_symbol
 _atom_site_label
 _atom_site_symmetry_multiplicity
 _atom_site_fract_x
 _atom_site_fract_y
 _atom_site_fract_z
 _atom_site_occupancy
  Tb  Tb0  1  0.250000  0.489653  0.169255  1
  Tb  Tb1  1  0.750000  0.009957  0.671685  1
  Tb  Tb2  1  0.250000  0.989840  0.329932  1
  Lu  Lu3  1  0.750000  0.642052  0.422608  1
  Lu  Lu4  1  0.250000  0.358297  0.580994  1
  Lu  Lu5  1  0.750000  0.142881  0.077449  1
  Lu  Lu6  1  0.250000  0.855915  0.920984  1
  Lu  Lu7  1  0.750000  0.510515  0.832207  1
  Pt  Pt8  1  0.750000  0.246902  0.407202  1
  Pt  Pt9  1  0.250000  0.751975  0.593317  1
  Pt  Pt10  1  0.750000  0.746237  0.089362  1
  Pt  Pt11  1  0.250000  0.255777  0.905004  1
