# generated using pymatgen
data_Lu6Si6OsRh3
_symmetry_space_group_name_H-M   'P 1'
_cell_length_a   5.63129780
_cell_length_b   5.63129661
_cell_length_c   13.48589245
_cell_angle_alpha   90.07574481
_cell_angle_beta   89.92425400
_cell_angle_gamma   136.69138272
_symmetry_Int_Tables_number   1
_chemical_formula_structural   Lu6Si6OsRh3
_chemical_formula_sum   'Lu6 Si6 Os1 Rh3'
_cell_volume   293.34220777
_cell_formula_units_Z   1
loop_
 _symmetry_equiv_pos_site_id
 _symmetry_equiv_pos_as_xyz
  1  'x, y, z'
loop_
 _atom_site_type_symbol
 _atom_site_label
 _atom_site_symmetry_multiplicity
 _atom_site_fract_x
 _atom_site_fract_y
 _atom_site_fract_z
 _atom_site_occupancy
  Lu  Lu0  1  0.920986  0.079014  0.385267  1
  Lu  Lu1  1  0.078405  0.921595  0.614793  1
  Lu  Lu2  1  0.924846  0.075154  0.114953  1
  Lu  Lu3  1  0.076381  0.923619  0.885573  1
  Lu  Lu4  1  0.644529  0.355471  0.250776  1
  Lu  Lu5  1  0.354972  0.645028  0.749368  1
  Si  Si6  1  0.606950  0.393050  0.462009  1
  Si  Si7  1  0.391490  0.608510  0.537995  1
  Si  Si8  1  0.611376  0.388624  0.038158  1
  Si  Si9  1  0.387619  0.612381  0.960315  1
  Si  Si10  1  0.339354  0.660646  0.249045  1
  Si  Si11  1  0.664573  0.335427  0.752038  1
  Os  Os12  1  0.788227  0.211773  0.918180  1
  Rh  Rh13  1  0.212760  0.787240  0.081982  1
  Rh  Rh14  1  0.787033  0.212967  0.584096  1
  Rh  Rh15  1  0.210499  0.789501  0.415450  1
