# generated using pymatgen
data_Pa4InGeRh4
_symmetry_space_group_name_H-M   'P 1'
_cell_length_a   7.62338700
_cell_length_b   7.62338700
_cell_length_c   3.60781000
_cell_angle_alpha   90.00000000
_cell_angle_beta   90.00000000
_cell_angle_gamma   90.00000000
_symmetry_Int_Tables_number   1
_chemical_formula_structural   Pa4InGeRh4
_chemical_formula_sum   'Pa4 In1 Ge1 Rh4'
_cell_volume   209.67159186
_cell_formula_units_Z   1
loop_
 _symmetry_equiv_pos_site_id
 _symmetry_equiv_pos_as_xyz
  1  'x, y, z'
loop_
 _atom_site_type_symbol
 _atom_site_label
 _atom_site_symmetry_multiplicity
 _atom_site_fract_x
 _atom_site_fract_y
 _atom_site_fract_z
 _atom_site_occupancy
  Pa  Pa0  1  0.681496  0.164651  0.500000  1
  Pa  Pa1  1  0.318504  0.835349  0.500000  1
  Pa  Pa2  1  0.164651  0.318504  0.500000  1
  Pa  Pa3  1  0.835349  0.681496  0.500000  1
  In  In4  1  0.500000  0.500000  0.000000  1
  Ge  Ge5  1  0.000000  0.000000  0.000000  1
  Rh  Rh6  1  0.129078  0.638421  0.000000  1
  Rh  Rh7  1  0.870922  0.361579  0.000000  1
  Rh  Rh8  1  0.638421  0.870922  0.000000  1
  Rh  Rh9  1  0.361579  0.129078  0.000000  1
