# generated using pymatgen
data_Y5(RhPb2)2
_symmetry_space_group_name_H-M   'P 1'
_cell_length_a   3.71867700
_cell_length_b   8.08725200
_cell_length_c   18.22328100
_cell_angle_alpha   90.00000000
_cell_angle_beta   90.00000000
_cell_angle_gamma   90.00000000
_symmetry_Int_Tables_number   1
_chemical_formula_structural   Y5(RhPb2)2
_chemical_formula_sum   'Y10 Rh4 Pb8'
_cell_volume   548.04472966
_cell_formula_units_Z   2
loop_
 _symmetry_equiv_pos_site_id
 _symmetry_equiv_pos_as_xyz
  1  'x, y, z'
loop_
 _atom_site_type_symbol
 _atom_site_label
 _atom_site_symmetry_multiplicity
 _atom_site_fract_x
 _atom_site_fract_y
 _atom_site_fract_z
 _atom_site_occupancy
  Y  Y0  1  0.000000  0.112780  0.411096  1
  Y  Y1  1  0.000000  0.887220  0.588904  1
  Y  Y2  1  0.000000  0.387220  0.911096  1
  Y  Y3  1  0.000000  0.612780  0.088904  1
  Y  Y4  1  0.000000  0.239726  0.218071  1
  Y  Y5  1  0.000000  0.760274  0.781929  1
  Y  Y6  1  0.000000  0.260274  0.718071  1
  Y  Y7  1  0.000000  0.739726  0.281929  1
  Y  Y8  1  0.000000  0.000000  0.000000  1
  Y  Y9  1  0.000000  0.500000  0.500000  1
  Rh  Rh10  1  0.500000  0.023411  0.304425  1
  Rh  Rh11  1  0.500000  0.976589  0.695575  1
  Rh  Rh12  1  0.500000  0.476589  0.804425  1
  Rh  Rh13  1  0.500000  0.523411  0.195575  1
  Pb  Pb14  1  0.500000  0.414577  0.348654  1
  Pb  Pb15  1  0.500000  0.585423  0.651346  1
  Pb  Pb16  1  0.500000  0.085423  0.848654  1
  Pb  Pb17  1  0.500000  0.914577  0.151346  1
  Pb  Pb18  1  0.500000  0.294075  0.064070  1
  Pb  Pb19  1  0.500000  0.705925  0.935930  1
  Pb  Pb20  1  0.500000  0.205925  0.564070  1
  Pb  Pb21  1  0.500000  0.794075  0.435930  1
