# generated using pymatgen
data_Y4Th(B3Os)2
_symmetry_space_group_name_H-M   'P 1'
_cell_length_a   5.53481457
_cell_length_b   5.53481278
_cell_length_c   8.49423632
_cell_angle_alpha   70.98605768
_cell_angle_beta   70.98605095
_cell_angle_gamma   59.99998797
_symmetry_Int_Tables_number   1
_chemical_formula_structural   Y4Th(B3Os)2
_chemical_formula_sum   'Y4 Th1 B6 Os2'
_cell_volume   208.79711778
_cell_formula_units_Z   1
loop_
 _symmetry_equiv_pos_site_id
 _symmetry_equiv_pos_as_xyz
  1  'x, y, z'
loop_
 _atom_site_type_symbol
 _atom_site_label
 _atom_site_symmetry_multiplicity
 _atom_site_fract_x
 _atom_site_fract_y
 _atom_site_fract_z
 _atom_site_occupancy
  Y  Y0  1  0.750517  0.750517  0.748452  1
  Y  Y1  1  0.249483  0.249483  0.251548  1
  Y  Y2  1  0.582619  0.582619  0.252144  1
  Y  Y3  1  0.417381  0.417381  0.747856  1
  Th  Th4  1  0.000000  0.000000  0.000000  1
  B  B5  1  0.500000  0.174365  0.500000  1
  B  B6  1  0.825635  0.500000  0.500000  1
  B  B7  1  0.174365  0.825635  0.500000  1
  B  B8  1  0.174365  0.500000  0.500000  1
  B  B9  1  0.825635  0.174365  0.500000  1
  B  B10  1  0.500000  0.825635  0.500000  1
  Os  Os11  1  0.888089  0.888089  0.335732  1
  Os  Os12  1  0.111911  0.111911  0.664268  1
