# generated using pymatgen
data_CaYbU4(Cu3Sb4)2
_symmetry_space_group_name_H-M   'P 1'
_cell_length_a   8.35726515
_cell_length_b   8.32412076
_cell_length_c   8.32176858
_cell_angle_alpha   109.74898365
_cell_angle_beta   108.68639904
_cell_angle_gamma   110.02055976
_symmetry_Int_Tables_number   1
_chemical_formula_structural   CaYbU4(Cu3Sb4)2
_chemical_formula_sum   'Ca1 Yb1 U4 Cu6 Sb8'
_cell_volume   445.36931597
_cell_formula_units_Z   1
loop_
 _symmetry_equiv_pos_site_id
 _symmetry_equiv_pos_as_xyz
  1  'x, y, z'
loop_
 _atom_site_type_symbol
 _atom_site_label
 _atom_site_symmetry_multiplicity
 _atom_site_fract_x
 _atom_site_fract_y
 _atom_site_fract_z
 _atom_site_occupancy
  Ca  Ca0  1  0.875417  0.250034  0.125369  1
  Yb  Yb1  1  0.624770  0.749954  0.374825  1
  U  U2  1  0.249683  0.126001  0.873672  1
  U  U3  1  0.748393  0.374119  0.624187  1
  U  U4  1  0.123683  0.873499  0.247184  1
  U  U5  1  0.373302  0.626751  0.749901  1
  Cu  Cu6  1  0.375695  0.250139  0.625614  1
  Cu  Cu7  1  0.125767  0.750182  0.875718  1
  Cu  Cu8  1  0.255247  0.622870  0.371314  1
  Cu  Cu9  1  0.748065  0.876756  0.131905  1
  Cu  Cu10  1  0.628473  0.383263  0.250789  1
  Cu  Cu11  1  0.867568  0.116481  0.745254  1
  Sb  Sb12  1  0.663988  0.502941  0.000715  1
  Sb  Sb13  1  0.497399  0.996987  0.661153  1
  Sb  Sb14  1  0.003282  0.664388  0.500274  1
  Sb  Sb15  1  0.836352  0.835765  0.839276  1
  Sb  Sb16  1  0.501199  0.004287  0.165316  1
  Sb  Sb17  1  0.161351  0.495932  0.997326  1
  Sb  Sb18  1  0.000623  0.163164  0.503039  1
  Sb  Sb19  1  0.339741  0.336488  0.337171  1
