# generated using pymatgen
data_Li4Sm3Er(Si2Pb)2
_symmetry_space_group_name_H-M   'P 1'
_cell_length_a   9.73798170
_cell_length_b   9.73798265
_cell_length_c   6.83872200
_cell_angle_alpha   90.00000000
_cell_angle_beta   90.00000000
_cell_angle_gamma   153.58685412
_symmetry_Int_Tables_number   1
_chemical_formula_structural   Li4Sm3Er(Si2Pb)2
_chemical_formula_sum   'Li4 Sm3 Er1 Si4 Pb2'
_cell_volume   288.48111969
_cell_formula_units_Z   1
loop_
 _symmetry_equiv_pos_site_id
 _symmetry_equiv_pos_as_xyz
  1  'x, y, z'
loop_
 _atom_site_type_symbol
 _atom_site_label
 _atom_site_symmetry_multiplicity
 _atom_site_fract_x
 _atom_site_fract_y
 _atom_site_fract_z
 _atom_site_occupancy
  Li  Li0  1  0.816867  0.183133  0.553225  1
  Li  Li1  1  0.182926  0.817074  0.446292  1
  Li  Li2  1  0.182926  0.817074  0.053708  1
  Li  Li3  1  0.816867  0.183133  0.946775  1
  Sm  Sm4  1  0.453034  0.546966  0.750000  1
  Sm  Sm5  1  0.352717  0.647283  0.250000  1
  Sm  Sm6  1  0.647312  0.352688  0.750000  1
  Er  Er7  1  0.546752  0.453248  0.250000  1
  Si  Si8  1  0.943747  0.056253  0.075001  1
  Si  Si9  1  0.057144  0.942856  0.927906  1
  Si  Si10  1  0.057144  0.942856  0.572094  1
  Si  Si11  1  0.943747  0.056253  0.424999  1
  Pb  Pb12  1  0.717728  0.282272  0.250000  1
  Pb  Pb13  1  0.281089  0.718911  0.750000  1
