# generated using pymatgen
data_K3Ba(RuO3)4
_symmetry_space_group_name_H-M   'P 1'
_cell_length_a   5.77809200
_cell_length_b   5.77809334
_cell_length_c   9.65044600
_cell_angle_alpha   90.00000000
_cell_angle_beta   90.00000000
_cell_angle_gamma   119.99999235
_symmetry_Int_Tables_number   1
_chemical_formula_structural   K3Ba(RuO3)4
_chemical_formula_sum   'K3 Ba1 Ru4 O12'
_cell_volume   279.02753054
_cell_formula_units_Z   1
loop_
 _symmetry_equiv_pos_site_id
 _symmetry_equiv_pos_as_xyz
  1  'x, y, z'
loop_
 _atom_site_type_symbol
 _atom_site_label
 _atom_site_symmetry_multiplicity
 _atom_site_fract_x
 _atom_site_fract_y
 _atom_site_fract_z
 _atom_site_occupancy
  K  K0  1  0.333333  0.666667  0.000000  1
  K  K1  1  0.000000  0.000000  0.779967  1
  K  K2  1  0.000000  0.000000  0.220033  1
  Ba  Ba3  1  0.666667  0.333333  0.500000  1
  Ru  Ru4  1  0.666667  0.333333  0.143773  1
  Ru  Ru5  1  0.333333  0.666667  0.353537  1
  Ru  Ru6  1  0.333333  0.666667  0.646463  1
  Ru  Ru7  1  0.666667  0.333333  0.856227  1
  O  O8  1  0.618040  0.809019  0.500000  1
  O  O9  1  0.190981  0.809019  0.500000  1
  O  O10  1  0.190981  0.381960  0.500000  1
  O  O11  1  0.382051  0.191026  0.000000  1
  O  O12  1  0.808974  0.191026  0.000000  1
  O  O13  1  0.808974  0.617949  0.000000  1
  O  O14  1  0.997719  0.498859  0.748318  1
  O  O15  1  0.501141  0.498859  0.748318  1
  O  O16  1  0.501141  0.002281  0.748318  1
  O  O17  1  0.997719  0.498859  0.251682  1
  O  O18  1  0.501141  0.498859  0.251682  1
  O  O19  1  0.501141  0.002281  0.251682  1
