# generated using pymatgen
data_Ta4AlZn6Ga
_symmetry_space_group_name_H-M   'P 1'
_cell_length_a   5.09814415
_cell_length_b   5.09814437
_cell_length_c   8.15257600
_cell_angle_alpha   90.00000000
_cell_angle_beta   90.00000000
_cell_angle_gamma   120.81025854
_symmetry_Int_Tables_number   1
_chemical_formula_structural   Ta4AlZn6Ga
_chemical_formula_sum   'Ta4 Al1 Zn6 Ga1'
_cell_volume   181.98920278
_cell_formula_units_Z   1
loop_
 _symmetry_equiv_pos_site_id
 _symmetry_equiv_pos_as_xyz
  1  'x, y, z'
loop_
 _atom_site_type_symbol
 _atom_site_label
 _atom_site_symmetry_multiplicity
 _atom_site_fract_x
 _atom_site_fract_y
 _atom_site_fract_z
 _atom_site_occupancy
  Ta  Ta0  1  0.331010  0.668990  0.431802  1
  Ta  Ta1  1  0.669750  0.330250  0.567025  1
  Ta  Ta2  1  0.669750  0.330250  0.932975  1
  Ta  Ta3  1  0.331010  0.668990  0.068198  1
  Al  Al4  1  0.824286  0.175714  0.250000  1
  Zn  Zn5  1  0.998840  0.001160  0.499798  1
  Zn  Zn6  1  0.998840  0.001160  0.000202  1
  Zn  Zn7  1  0.826291  0.659378  0.250000  1
  Zn  Zn8  1  0.340622  0.173709  0.250000  1
  Zn  Zn9  1  0.174803  0.340708  0.750000  1
  Zn  Zn10  1  0.659292  0.825197  0.750000  1
  Ga  Ga11  1  0.175504  0.824496  0.750000  1
