# generated using pymatgen
data_DyYCo5(NiAs)7
_symmetry_space_group_name_H-M   'P 1'
_cell_length_a   3.77841700
_cell_length_b   9.41624401
_cell_length_c   9.38923188
_cell_angle_alpha   120.05996939
_cell_angle_beta   90.00000000
_cell_angle_gamma   90.00000000
_symmetry_Int_Tables_number   1
_chemical_formula_structural   DyYCo5(NiAs)7
_chemical_formula_sum   'Dy1 Y1 Co5 Ni7 As7'
_cell_volume   289.12492260
_cell_formula_units_Z   1
loop_
 _symmetry_equiv_pos_site_id
 _symmetry_equiv_pos_as_xyz
  1  'x, y, z'
loop_
 _atom_site_type_symbol
 _atom_site_label
 _atom_site_symmetry_multiplicity
 _atom_site_fract_x
 _atom_site_fract_y
 _atom_site_fract_z
 _atom_site_occupancy
  Dy  Dy0  1  0.500000  0.336274  0.667427  1
  Y  Y1  1  0.000000  0.664764  0.333204  1
  Co  Co2  1  0.000000  0.874828  0.154515  1
  Co  Co3  1  0.000000  0.276958  0.122793  1
  Co  Co4  1  0.000000  0.847957  0.723150  1
  Co  Co5  1  0.500000  0.426101  0.046610  1
  Co  Co6  1  0.500000  0.621160  0.572569  1
  Ni  Ni7  1  0.000000  0.560530  0.939991  1
  Ni  Ni8  1  0.000000  0.381576  0.438042  1
  Ni  Ni9  1  0.000000  0.058616  0.618399  1
  Ni  Ni10  1  0.500000  0.793248  0.909659  1
  Ni  Ni11  1  0.500000  0.118782  0.210178  1
  Ni  Ni12  1  0.500000  0.089913  0.885251  1
  Ni  Ni13  1  0.500000  0.950714  0.380229  1
  As  As14  1  0.000000  0.999692  0.001855  1
  As  As15  1  0.500000  0.703908  0.109697  1
  As  As16  1  0.500000  0.404915  0.291732  1
  As  As17  1  0.500000  0.886339  0.597130  1
  As  As18  1  0.000000  0.597147  0.710346  1
  As  As19  1  0.000000  0.117656  0.402756  1
  As  As20  1  0.000000  0.288922  0.884468  1
