# generated using pymatgen
data_Cs2LiTbSb2
_symmetry_space_group_name_H-M   'P 1'
_cell_length_a   11.58026659
_cell_length_b   11.58026671
_cell_length_c   7.36381900
_cell_angle_alpha   90.00000000
_cell_angle_beta   90.00000000
_cell_angle_gamma   100.83161765
_symmetry_Int_Tables_number   1
_chemical_formula_structural   Cs2LiTbSb2
_chemical_formula_sum   'Cs8 Li4 Tb4 Sb8'
_cell_volume   969.91337047
_cell_formula_units_Z   4
loop_
 _symmetry_equiv_pos_site_id
 _symmetry_equiv_pos_as_xyz
  1  'x, y, z'
loop_
 _atom_site_type_symbol
 _atom_site_label
 _atom_site_symmetry_multiplicity
 _atom_site_fract_x
 _atom_site_fract_y
 _atom_site_fract_z
 _atom_site_occupancy
  Cs  Cs0  1  0.572530  0.927470  0.750000  1
  Cs  Cs1  1  0.927470  0.572530  0.250000  1
  Cs  Cs2  1  0.427470  0.072530  0.250000  1
  Cs  Cs3  1  0.072530  0.427470  0.750000  1
  Cs  Cs4  1  0.674614  0.325386  0.779169  1
  Cs  Cs5  1  0.825386  0.174614  0.279169  1
  Cs  Cs6  1  0.325386  0.674614  0.220831  1
  Cs  Cs7  1  0.174614  0.825386  0.720831  1
  Li  Li8  1  0.620303  0.620303  0.000000  1
  Li  Li9  1  0.879697  0.879697  0.500000  1
  Li  Li10  1  0.379697  0.379697  0.000000  1
  Li  Li11  1  0.120303  0.120303  0.500000  1
  Tb  Tb12  1  0.869460  0.869460  0.000000  1
  Tb  Tb13  1  0.630540  0.630540  0.500000  1
  Tb  Tb14  1  0.130540  0.130540  0.000000  1
  Tb  Tb15  1  0.369460  0.369460  0.500000  1
  Sb  Sb16  1  0.340553  0.159447  0.750000  1
  Sb  Sb17  1  0.159447  0.340553  0.250000  1
  Sb  Sb18  1  0.659447  0.840553  0.250000  1
  Sb  Sb19  1  0.840553  0.659447  0.750000  1
  Sb  Sb20  1  0.912007  0.087993  0.760317  1
  Sb  Sb21  1  0.587993  0.412007  0.260317  1
  Sb  Sb22  1  0.087993  0.912007  0.239683  1
  Sb  Sb23  1  0.412007  0.587993  0.739683  1
