# generated using pymatgen
data_Dy8Re(B8Os)3
_symmetry_space_group_name_H-M   'P 1'
_cell_length_a   3.66639600
_cell_length_b   9.16512744
_cell_length_c   11.54845508
_cell_angle_alpha   90.08368868
_cell_angle_beta   90.00000000
_cell_angle_gamma   90.00000000
_symmetry_Int_Tables_number   1
_chemical_formula_structural   Dy8Re(B8Os)3
_chemical_formula_sum   'Dy8 Re1 B24 Os3'
_cell_volume   388.06216735
_cell_formula_units_Z   1
loop_
 _symmetry_equiv_pos_site_id
 _symmetry_equiv_pos_as_xyz
  1  'x, y, z'
loop_
 _atom_site_type_symbol
 _atom_site_label
 _atom_site_symmetry_multiplicity
 _atom_site_fract_x
 _atom_site_fract_y
 _atom_site_fract_z
 _atom_site_occupancy
  Dy  Dy0  1  0.000000  0.322886  0.414817  1
  Dy  Dy1  1  0.000000  0.679660  0.588118  1
  Dy  Dy2  1  0.000000  0.822996  0.083707  1
  Dy  Dy3  1  0.000000  0.176125  0.913153  1
  Dy  Dy4  1  0.000000  0.943374  0.371985  1
  Dy  Dy5  1  0.000000  0.055885  0.627579  1
  Dy  Dy6  1  0.000000  0.443069  0.127707  1
  Dy  Dy7  1  0.000000  0.556380  0.872882  1
  Re  Re8  1  0.000000  0.862387  0.821454  1
  B  B9  1  0.500000  0.553735  0.433103  1
  B  B10  1  0.500000  0.446308  0.567266  1
  B  B11  1  0.500000  0.053595  0.067413  1
  B  B12  1  0.500000  0.947145  0.933016  1
  B  B13  1  0.500000  0.747987  0.419414  1
  B  B14  1  0.500000  0.252114  0.580460  1
  B  B15  1  0.500000  0.247801  0.080723  1
  B  B16  1  0.500000  0.751895  0.919322  1
  B  B17  1  0.500000  0.790412  0.266325  1
  B  B18  1  0.500000  0.209177  0.732978  1
  B  B19  1  0.500000  0.290888  0.233738  1
  B  B20  1  0.500000  0.708487  0.766263  1
  B  B21  1  0.500000  0.631537  0.185754  1
  B  B22  1  0.500000  0.367984  0.813925  1
  B  B23  1  0.500000  0.132158  0.314455  1
  B  B24  1  0.500000  0.868177  0.685775  1
  B  B25  1  0.500000  0.983842  0.212602  1
  B  B26  1  0.500000  0.017218  0.787290  1
  B  B27  1  0.500000  0.483503  0.287875  1
  B  B28  1  0.500000  0.516452  0.712742  1
  B  B29  1  0.500000  0.606709  0.030272  1
  B  B30  1  0.500000  0.391756  0.970336  1
  B  B31  1  0.500000  0.108081  0.469653  1
  B  B32  1  0.500000  0.892479  0.529326  1
  Os  Os33  1  0.000000  0.637301  0.321593  1
  Os  Os34  1  0.000000  0.362719  0.677976  1
  Os  Os35  1  0.000000  0.137778  0.179000  1
