# generated using pymatgen
data_Np4Ga10Si2Rh
_symmetry_space_group_name_H-M   'P 1'
_cell_length_a   7.41394650
_cell_length_b   7.40787133
_cell_length_c   7.41394670
_cell_angle_alpha   110.14288924
_cell_angle_beta   110.20320149
_cell_angle_gamma   108.10887726
_symmetry_Int_Tables_number   1
_chemical_formula_structural   Np4Ga10Si2Rh
_chemical_formula_sum   'Np4 Ga10 Si2 Rh1'
_cell_volume   313.19054563
_cell_formula_units_Z   1
loop_
 _symmetry_equiv_pos_site_id
 _symmetry_equiv_pos_as_xyz
  1  'x, y, z'
loop_
 _atom_site_type_symbol
 _atom_site_label
 _atom_site_symmetry_multiplicity
 _atom_site_fract_x
 _atom_site_fract_y
 _atom_site_fract_z
 _atom_site_occupancy
  Np  Np0  1  0.513748  0.499874  0.505518  1
  Np  Np1  1  0.994356  0.499874  0.986126  1
  Np  Np2  1  0.995145  0.002886  0.505594  1
  Np  Np3  1  0.497292  0.002886  0.007741  1
  Ga  Ga4  1  0.290763  0.999845  0.298710  1
  Ga  Ga5  1  0.496794  0.247899  0.751105  1
  Ga  Ga6  1  0.757313  0.502020  0.252805  1
  Ga  Ga7  1  0.246730  0.745486  0.498755  1
  Ga  Ga8  1  0.249215  0.502020  0.744707  1
  Ga  Ga9  1  0.701135  0.999845  0.709082  1
  Ga  Ga10  1  0.497128  0.749570  0.252442  1
  Ga  Ga11  1  0.708203  0.712317  0.004114  1
  Ga  Ga12  1  0.291600  0.295348  0.003749  1
  Ga  Ga13  1  0.003493  0.290064  0.286571  1
  Si  Si14  1  0.753061  0.252013  0.498952  1
  Si  Si15  1  0.004176  0.711166  0.706990  1
  Rh  Rh16  1  0.999848  0.986886  0.987038  1
