# generated using pymatgen
data_Zr3(Sc2Os)4
_symmetry_space_group_name_H-M   'P 1'
_cell_length_a   9.44929922
_cell_length_b   9.50123815
_cell_length_c   9.50119417
_cell_angle_alpha   60.32492723
_cell_angle_beta   60.18064323
_cell_angle_gamma   60.18050970
_symmetry_Int_Tables_number   1
_chemical_formula_structural   Zr3(Sc2Os)4
_chemical_formula_sum   'Zr6 Sc16 Os8'
_cell_volume   606.29493937
_cell_formula_units_Z   2
loop_
 _symmetry_equiv_pos_site_id
 _symmetry_equiv_pos_as_xyz
  1  'x, y, z'
loop_
 _atom_site_type_symbol
 _atom_site_label
 _atom_site_symmetry_multiplicity
 _atom_site_fract_x
 _atom_site_fract_y
 _atom_site_fract_z
 _atom_site_occupancy
  Zr  Zr0  1  0.842523  0.842663  0.842660  1
  Zr  Zr1  1  0.527838  0.157339  0.157344  1
  Zr  Zr2  1  0.158826  0.156161  0.527928  1
  Zr  Zr3  1  0.158831  0.527923  0.156160  1
  Zr  Zr4  1  0.842907  0.843840  0.472076  1
  Zr  Zr5  1  0.842909  0.472072  0.843844  1
  Sc  Sc6  1  0.469585  0.844627  0.844628  1
  Sc  Sc7  1  0.158834  0.155369  0.155369  1
  Sc  Sc8  1  0.196646  0.801853  0.198140  1
  Sc  Sc9  1  0.197797  0.801308  0.801314  1
  Sc  Sc10  1  0.800420  0.198693  0.198696  1
  Sc  Sc11  1  0.800296  0.800757  0.199235  1
  Sc  Sc12  1  0.196651  0.198138  0.801854  1
  Sc  Sc13  1  0.800287  0.199243  0.800758  1
  Sc  Sc14  1  0.384135  0.383344  0.383336  1
  Sc  Sc15  1  0.150826  0.616652  0.616659  1
  Sc  Sc16  1  0.615192  0.149303  0.618140  1
  Sc  Sc17  1  0.615193  0.618142  0.149303  1
  Sc  Sc18  1  0.382631  0.850698  0.381856  1
  Sc  Sc19  1  0.382639  0.381853  0.850695  1
  Sc  Sc20  1  0.852115  0.381866  0.381866  1
  Sc  Sc21  1  0.615837  0.618142  0.618137  1
  Os  Os22  1  0.500822  0.497401  0.001575  1
  Os  Os23  1  0.999785  0.998428  0.502604  1
  Os  Os24  1  0.500816  0.001574  0.497407  1
  Os  Os25  1  0.001077  0.500006  0.500003  1
  Os  Os26  1  0.505006  0.999994  0.999989  1
  Os  Os27  1  0.999789  0.502605  0.998423  1
  Os  Os28  1  0.501562  0.499999  0.499997  1
  Os  Os29  1  0.998225  0.000007  0.000005  1
