# generated using pymatgen
data_Tb3YGa18(IrPd)3
_symmetry_space_group_name_H-M   'P 1'
_cell_length_a   7.63381833
_cell_length_b   7.63369446
_cell_length_c   9.51011002
_cell_angle_alpha   89.97080090
_cell_angle_beta   89.96867602
_cell_angle_gamma   119.77795821
_symmetry_Int_Tables_number   1
_chemical_formula_structural   Tb3YGa18(IrPd)3
_chemical_formula_sum   'Tb3 Y1 Ga18 Ir3 Pd3'
_cell_volume   481.01640840
_cell_formula_units_Z   1
loop_
 _symmetry_equiv_pos_site_id
 _symmetry_equiv_pos_as_xyz
  1  'x, y, z'
loop_
 _atom_site_type_symbol
 _atom_site_label
 _atom_site_symmetry_multiplicity
 _atom_site_fract_x
 _atom_site_fract_y
 _atom_site_fract_z
 _atom_site_occupancy
  Tb  Tb0  1  0.996201  0.668593  0.249739  1
  Tb  Tb1  1  0.002956  0.330696  0.749988  1
  Tb  Tb2  1  0.669338  0.997045  0.249995  1
  Y  Y3  1  0.331356  0.003821  0.750260  1
  Ga  Ga4  1  0.129548  0.128278  0.250498  1
  Ga  Ga5  1  0.871692  0.870494  0.749500  1
  Ga  Ga6  1  0.001395  0.336241  0.080975  1
  Ga  Ga7  1  0.002815  0.665645  0.919545  1
  Ga  Ga8  1  0.000690  0.662896  0.578815  1
  Ga  Ga9  1  0.337153  0.999309  0.421155  1
  Ga  Ga10  1  0.998976  0.337391  0.420648  1
  Ga  Ga11  1  0.662566  0.001030  0.579329  1
  Ga  Ga12  1  0.663746  0.998566  0.919067  1
  Ga  Ga13  1  0.334372  0.997184  0.080495  1
  Ga  Ga14  1  0.333853  0.334005  0.565891  1
  Ga  Ga15  1  0.665989  0.666178  0.434099  1
  Ga  Ga16  1  0.665289  0.667288  0.068411  1
  Ga  Ga17  1  0.332738  0.334692  0.931601  1
  Ga  Ga18  1  0.338264  0.546062  0.250422  1
  Ga  Ga19  1  0.662913  0.455746  0.748072  1
  Ga  Ga20  1  0.544275  0.337188  0.251919  1
  Ga  Ga21  1  0.453891  0.661656  0.749579  1
  Ir  Ir22  1  0.329511  0.670466  0.999977  1
  Ir  Ir23  1  0.328624  0.671351  0.500027  1
  Ir  Ir24  1  0.671245  0.328756  0.500023  1
  Pd  Pd25  1  0.670829  0.329159  0.999975  1
  Pd  Pd26  1  0.000202  0.999825  0.999970  1
  Pd  Pd27  1  0.999571  0.000437  0.500026  1
