# generated using pymatgen
data_Zr3Np2ScF22
_symmetry_space_group_name_H-M   'P 1'
_cell_length_a   8.40629854
_cell_length_b   8.40629868
_cell_length_c   8.45520100
_cell_angle_alpha   124.81653835
_cell_angle_beta   106.34469222
_cell_angle_gamma   98.20270079
_symmetry_Int_Tables_number   1
_chemical_formula_structural   Zr3Np2ScF22
_chemical_formula_sum   'Zr3 Np2 Sc1 F22'
_cell_volume   434.41389182
_cell_formula_units_Z   1
loop_
 _symmetry_equiv_pos_site_id
 _symmetry_equiv_pos_as_xyz
  1  'x, y, z'
loop_
 _atom_site_type_symbol
 _atom_site_label
 _atom_site_symmetry_multiplicity
 _atom_site_fract_x
 _atom_site_fract_y
 _atom_site_fract_z
 _atom_site_occupancy
  Zr  Zr0  1  0.324870  0.368361  0.693231  1
  Zr  Zr1  1  0.177700  0.867072  0.044771  1
  Zr  Zr2  1  0.812036  0.134728  0.946764  1
  Np  Np3  1  0.748730  0.244491  0.489606  1
  Np  Np4  1  0.245115  0.740876  0.489606  1
  Sc  Sc5  1  0.683413  0.638927  0.322340  1
  F  F6  1  0.707211  0.906418  0.349447  1
  F  F7  1  0.293412  0.097017  0.654476  1
  F  F8  1  0.557458  0.361064  0.654476  1
  F  F9  1  0.943826  0.600523  0.808555  1
  F  F10  1  0.443030  0.642235  0.349447  1
  F  F11  1  0.058045  0.393932  0.186905  1
  F  F12  1  0.792973  0.128858  0.186905  1
  F  F13  1  0.208032  0.864729  0.808555  1
  F  F14  1  0.499987  0.500345  0.000331  1
  F  F15  1  0.998821  0.002027  0.000848  1
  F  F16  1  0.779222  0.874188  0.653410  1
  F  F17  1  0.220497  0.130172  0.350669  1
  F  F18  1  0.281058  0.632290  0.913348  1
  F  F19  1  0.719638  0.370214  0.089851  1
  F  F20  1  0.960064  0.735816  0.420686  1
  F  F21  1  0.047719  0.263299  0.585029  1
  F  F22  1  0.321730  0.537310  0.585029  1
  F  F23  1  0.174002  0.757687  0.211921  1
  F  F24  1  0.684871  0.460621  0.420686  1
  F  F25  1  0.824174  0.247461  0.785593  1
  F  F26  1  0.538132  0.961419  0.785593  1
  F  F27  1  0.454234  0.037919  0.211921  1
