# generated using pymatgen
data_TbCeF7
_symmetry_space_group_name_H-M   'P 1'
_cell_length_a   5.94241900
_cell_length_b   6.31798365
_cell_length_c   8.57419696
_cell_angle_alpha   103.08957514
_cell_angle_beta   90.00000000
_cell_angle_gamma   90.00000000
_symmetry_Int_Tables_number   1
_chemical_formula_structural   TbCeF7
_chemical_formula_sum   'Tb2 Ce2 F14'
_cell_volume   313.54641928
_cell_formula_units_Z   2
loop_
 _symmetry_equiv_pos_site_id
 _symmetry_equiv_pos_as_xyz
  1  'x, y, z'
loop_
 _atom_site_type_symbol
 _atom_site_label
 _atom_site_symmetry_multiplicity
 _atom_site_fract_x
 _atom_site_fract_y
 _atom_site_fract_z
 _atom_site_occupancy
  Tb  Tb0  1  0.698312  0.650632  0.682178  1
  Tb  Tb1  1  0.198312  0.349368  0.317822  1
  Ce  Ce2  1  0.706094  0.812194  0.225093  1
  Ce  Ce3  1  0.206094  0.187806  0.774907  1
  F  F4  1  0.907029  0.471091  0.481364  1
  F  F5  1  0.407029  0.528909  0.518636  1
  F  F6  1  0.435484  0.915654  0.764235  1
  F  F7  1  0.935484  0.084346  0.235765  1
  F  F8  1  0.945143  0.936367  0.755189  1
  F  F9  1  0.445143  0.063633  0.244811  1
  F  F10  1  0.982455  0.463810  0.787230  1
  F  F11  1  0.482455  0.536190  0.212770  1
  F  F12  1  0.693757  0.754855  0.967719  1
  F  F13  1  0.193757  0.245145  0.032281  1
  F  F14  1  0.696983  0.861395  0.483484  1
  F  F15  1  0.196983  0.138605  0.516516  1
  F  F16  1  0.511103  0.385521  0.778409  1
  F  F17  1  0.011103  0.614479  0.221591  1
