# generated using pymatgen
data_Ac7Ho(In4Au3)4
_symmetry_space_group_name_H-M   'P 1'
_cell_length_a   15.28633400
_cell_length_b   15.09544170
_cell_length_c   4.50092600
_cell_angle_alpha   90.00000000
_cell_angle_beta   90.00000000
_cell_angle_gamma   120.41920966
_symmetry_Int_Tables_number   1
_chemical_formula_structural   Ac7Ho(In4Au3)4
_chemical_formula_sum   'Ac7 Ho1 In16 Au12'
_cell_volume   895.63605671
_cell_formula_units_Z   1
loop_
 _symmetry_equiv_pos_site_id
 _symmetry_equiv_pos_as_xyz
  1  'x, y, z'
loop_
 _atom_site_type_symbol
 _atom_site_label
 _atom_site_symmetry_multiplicity
 _atom_site_fract_x
 _atom_site_fract_y
 _atom_site_fract_z
 _atom_site_occupancy
  Ac  Ac0  1  0.001266  0.452051  0.000000  1
  Ac  Ac1  1  0.549213  0.547949  0.000000  1
  Ac  Ac2  1  0.340274  0.674371  0.000000  1
  Ac  Ac3  1  0.665905  0.325629  0.000000  1
  Ac  Ac4  1  0.817920  0.000000  0.500000  1
  Ac  Ac5  1  0.999685  0.820162  0.500000  1
  Ac  Ac6  1  0.179524  0.179838  0.500000  1
  Ho  Ho7  1  0.447246  0.000000  0.000000  1
  In  In8  1  0.181312  0.377505  0.000000  1
  In  In9  1  0.628508  0.808277  0.000000  1
  In  In10  1  0.376992  0.176173  0.000000  1
  In  In11  1  0.200817  0.823827  0.000000  1
  In  In12  1  0.803808  0.622495  0.000000  1
  In  In13  1  0.820232  0.191723  0.000000  1
  In  In14  1  0.279209  0.000000  0.500000  1
  In  In15  1  0.999075  0.281539  0.500000  1
  In  In16  1  0.717535  0.718461  0.500000  1
  In  In17  1  0.350296  0.474462  0.500000  1
  In  In18  1  0.523002  0.878634  0.500000  1
  In  In19  1  0.476261  0.344398  0.500000  1
  In  In20  1  0.131863  0.655602  0.500000  1
  In  In21  1  0.875834  0.525538  0.500000  1
  In  In22  1  0.644368  0.121366  0.500000  1
  In  In23  1  0.999052  0.000000  0.000000  1
  Au  Au24  1  0.176383  0.495062  0.500000  1
  Au  Au25  1  0.509029  0.683755  0.500000  1
  Au  Au26  1  0.485369  0.159784  0.500000  1
  Au  Au27  1  0.325584  0.840216  0.500000  1
  Au  Au28  1  0.681323  0.504938  0.500000  1
  Au  Au29  1  0.825274  0.316245  0.500000  1
  Au  Au30  1  0.174309  0.000000  0.000000  1
  Au  Au31  1  0.002304  0.177663  0.000000  1
  Au  Au32  1  0.824641  0.822337  0.000000  1
  Au  Au33  1  0.644317  0.000000  0.000000  1
  Au  Au34  1  0.001948  0.661627  0.000000  1
  Au  Au35  1  0.340322  0.338373  0.000000  1
