# generated using pymatgen
data_NdHo2(SiRh2)3
_symmetry_space_group_name_H-M   'P 1'
_cell_length_a   5.61473904
_cell_length_b   5.61371239
_cell_length_c   14.98063500
_cell_angle_alpha   90.00000000
_cell_angle_beta   90.00000000
_cell_angle_gamma   120.01776720
_symmetry_Int_Tables_number   1
_chemical_formula_structural   NdHo2(SiRh2)3
_chemical_formula_sum   'Nd2 Ho4 Si6 Rh12'
_cell_volume   408.84887594
_cell_formula_units_Z   2
loop_
 _symmetry_equiv_pos_site_id
 _symmetry_equiv_pos_as_xyz
  1  'x, y, z'
loop_
 _atom_site_type_symbol
 _atom_site_label
 _atom_site_symmetry_multiplicity
 _atom_site_fract_x
 _atom_site_fract_y
 _atom_site_fract_z
 _atom_site_occupancy
  Nd  Nd0  1  0.666672  0.333337  0.750000  1
  Nd  Nd1  1  0.333328  0.666663  0.250000  1
  Ho  Ho2  1  0.666666  0.333338  0.963239  1
  Ho  Ho3  1  0.666666  0.333338  0.536761  1
  Ho  Ho4  1  0.333334  0.666662  0.036761  1
  Ho  Ho5  1  0.333334  0.666662  0.463239  1
  Si  Si6  1  0.666649  0.333380  0.250000  1
  Si  Si7  1  0.000000  0.000000  0.500000  1
  Si  Si8  1  0.000014  0.999959  0.250000  1
  Si  Si9  1  0.999986  0.000041  0.750000  1
  Si  Si10  1  0.333351  0.666620  0.750000  1
  Si  Si11  1  0.000000  0.000000  0.000000  1
  Rh  Rh12  1  0.166823  0.333656  0.870411  1
  Rh  Rh13  1  0.166823  0.333656  0.629589  1
  Rh  Rh14  1  0.666343  0.833178  0.870405  1
  Rh  Rh15  1  0.333657  0.166822  0.370405  1
  Rh  Rh16  1  0.833177  0.666344  0.370411  1
  Rh  Rh17  1  0.833166  0.166829  0.370388  1
  Rh  Rh18  1  0.833166  0.166829  0.129612  1
  Rh  Rh19  1  0.333657  0.166822  0.129595  1
  Rh  Rh20  1  0.666343  0.833178  0.629595  1
  Rh  Rh21  1  0.166834  0.833171  0.629612  1
  Rh  Rh22  1  0.833177  0.666344  0.129589  1
  Rh  Rh23  1  0.166834  0.833171  0.870388  1
