# generated using pymatgen
data_Ba4B4Pd5Pt11
_symmetry_space_group_name_H-M   'P 1'
_cell_length_a   6.22020564
_cell_length_b   5.67687300
_cell_length_c   12.11936930
_cell_angle_alpha   90.00000000
_cell_angle_beta   89.71950034
_cell_angle_gamma   90.00000000
_symmetry_Int_Tables_number   1
_chemical_formula_structural   Ba4B4Pd5Pt11
_chemical_formula_sum   'Ba4 B4 Pd5 Pt11'
_cell_volume   427.94576824
_cell_formula_units_Z   1
loop_
 _symmetry_equiv_pos_site_id
 _symmetry_equiv_pos_as_xyz
  1  'x, y, z'
loop_
 _atom_site_type_symbol
 _atom_site_label
 _atom_site_symmetry_multiplicity
 _atom_site_fract_x
 _atom_site_fract_y
 _atom_site_fract_z
 _atom_site_occupancy
  Ba  Ba0  1  0.182512  0.250000  0.333812  1
  Ba  Ba1  1  0.682672  0.250000  0.164940  1
  Ba  Ba2  1  0.819634  0.750000  0.665328  1
  Ba  Ba3  1  0.318617  0.750000  0.834603  1
  B  B4  1  0.093597  0.250000  0.950061  1
  B  B5  1  0.595283  0.250000  0.549739  1
  B  B6  1  0.904195  0.750000  0.050436  1
  B  B7  1  0.408643  0.750000  0.454653  1
  Pd  Pd8  1  0.390538  0.750000  0.266318  1
  Pd  Pd9  1  0.436088  0.250000  0.941281  1
  Pd  Pd10  1  0.936596  0.250000  0.558567  1
  Pd  Pd11  1  0.561449  0.750000  0.057781  1
  Pd  Pd12  1  0.066664  0.750000  0.440818  1
  Pt  Pt13  1  0.107525  0.250000  0.766328  1
  Pt  Pt14  1  0.608600  0.250000  0.733361  1
  Pt  Pt15  1  0.891686  0.750000  0.233915  1
  Pt  Pt16  1  0.331883  0.006348  0.584188  1
  Pt  Pt17  1  0.830606  0.494811  0.915972  1
  Pt  Pt18  1  0.668462  0.506725  0.416243  1
  Pt  Pt19  1  0.166900  0.994842  0.082628  1
  Pt  Pt20  1  0.668462  0.993275  0.416243  1
  Pt  Pt21  1  0.166900  0.505158  0.082628  1
  Pt  Pt22  1  0.331883  0.493652  0.584188  1
  Pt  Pt23  1  0.830606  0.005189  0.915972  1
