# generated using pymatgen
data_Dy3Y2Er5Bi6
_symmetry_space_group_name_H-M   'P 1'
_cell_length_a   8.24446300
_cell_length_b   9.48308700
_cell_length_c   12.05504423
_cell_angle_alpha   89.98931876
_cell_angle_beta   90.00000000
_cell_angle_gamma   90.00000000
_symmetry_Int_Tables_number   1
_chemical_formula_structural   Dy3Y2Er5Bi6
_chemical_formula_sum   'Dy6 Y4 Er10 Bi12'
_cell_volume   942.49902361
_cell_formula_units_Z   2
loop_
 _symmetry_equiv_pos_site_id
 _symmetry_equiv_pos_as_xyz
  1  'x, y, z'
loop_
 _atom_site_type_symbol
 _atom_site_label
 _atom_site_symmetry_multiplicity
 _atom_site_fract_x
 _atom_site_fract_y
 _atom_site_fract_z
 _atom_site_occupancy
  Dy  Dy0  1  0.186394  0.750000  0.718648  1
  Dy  Dy1  1  0.686394  0.750000  0.781352  1
  Dy  Dy2  1  0.813479  0.249792  0.281247  1
  Dy  Dy3  1  0.313479  0.250208  0.218753  1
  Dy  Dy4  1  0.306731  0.063252  0.940465  1
  Dy  Dy5  1  0.806731  0.436748  0.559535  1
  Y  Y6  1  0.353834  0.750175  0.215623  1
  Y  Y7  1  0.853834  0.749825  0.284377  1
  Y  Y8  1  0.645813  0.249923  0.784418  1
  Y  Y9  1  0.145813  0.250077  0.715582  1
  Er  Er10  1  0.025231  0.749867  0.988701  1
  Er  Er11  1  0.525231  0.750133  0.511299  1
  Er  Er12  1  0.974121  0.250268  0.011443  1
  Er  Er13  1  0.474121  0.249732  0.488557  1
  Er  Er14  1  0.306682  0.435222  0.940271  1
  Er  Er15  1  0.806682  0.064778  0.559729  1
  Er  Er16  1  0.693289  0.935011  0.059635  1
  Er  Er17  1  0.193289  0.564989  0.440365  1
  Er  Er18  1  0.693562  0.564854  0.059773  1
  Er  Er19  1  0.193562  0.935146  0.440227  1
  Bi  Bi20  1  0.433977  0.003719  0.672909  1
  Bi  Bi21  1  0.933977  0.496281  0.827091  1
  Bi  Bi22  1  0.566209  0.503782  0.326856  1
  Bi  Bi23  1  0.066209  0.996218  0.173144  1
  Bi  Bi24  1  0.566275  0.996124  0.327067  1
  Bi  Bi25  1  0.066275  0.503876  0.172933  1
  Bi  Bi26  1  0.433534  0.496154  0.673061  1
  Bi  Bi27  1  0.933534  0.003846  0.826939  1
  Bi  Bi28  1  0.408402  0.748360  0.958136  1
  Bi  Bi29  1  0.908402  0.751640  0.541864  1
  Bi  Bi30  1  0.592466  0.250392  0.042473  1
  Bi  Bi31  1  0.092466  0.249608  0.457527  1
