# generated using pymatgen
data_Nd2Si2Tc2C
_symmetry_space_group_name_H-M   'P 1'
_cell_length_a   5.98796422
_cell_length_b   5.98796453
_cell_length_c   7.17990255
_cell_angle_alpha   125.96559321
_cell_angle_beta   125.96559702
_cell_angle_gamma   40.09174312
_symmetry_Int_Tables_number   1
_chemical_formula_structural   Nd2Si2Tc2C
_chemical_formula_sum   'Nd2 Si2 Tc2 C1'
_cell_volume   129.40080191
_cell_formula_units_Z   1
loop_
 _symmetry_equiv_pos_site_id
 _symmetry_equiv_pos_as_xyz
  1  'x, y, z'
loop_
 _atom_site_type_symbol
 _atom_site_label
 _atom_site_symmetry_multiplicity
 _atom_site_fract_x
 _atom_site_fract_y
 _atom_site_fract_z
 _atom_site_occupancy
  Nd  Nd0  1  0.567054  0.567054  0.301112  1
  Nd  Nd1  1  0.432946  0.432946  0.698887  1
  Si  Si2  1  0.844601  0.844601  0.291094  1
  Si  Si3  1  0.155399  0.155399  0.708907  1
  Tc  Tc4  1  0.202572  0.202572  0.092044  1
  Tc  Tc5  1  0.797427  0.797427  0.907956  1
  C  C6  1  0.000000  0.000000  0.000000  1
