# generated using pymatgen
data_Dy3Bi(AuO5)2
_symmetry_space_group_name_H-M   'P 1'
_cell_length_a   8.53428595
_cell_length_b   8.53428512
_cell_length_c   5.73130576
_cell_angle_alpha   88.82662818
_cell_angle_beta   91.17336723
_cell_angle_gamma   90.02025202
_symmetry_Int_Tables_number   1
_chemical_formula_structural   Dy3Bi(AuO5)2
_chemical_formula_sum   'Dy6 Bi2 Au4 O20'
_cell_volume   417.25904643
_cell_formula_units_Z   2
loop_
 _symmetry_equiv_pos_site_id
 _symmetry_equiv_pos_as_xyz
  1  'x, y, z'
loop_
 _atom_site_type_symbol
 _atom_site_label
 _atom_site_symmetry_multiplicity
 _atom_site_fract_x
 _atom_site_fract_y
 _atom_site_fract_z
 _atom_site_occupancy
  Dy  Dy0  1  0.353344  0.655186  0.247347  1
  Dy  Dy1  1  0.844814  0.146656  0.747347  1
  Dy  Dy2  1  0.651815  0.651815  0.750000  1
  Dy  Dy3  1  0.655186  0.353344  0.252653  1
  Dy  Dy4  1  0.848185  0.848185  0.250000  1
  Dy  Dy5  1  0.146656  0.844814  0.752653  1
  Bi  Bi6  1  0.358327  0.358327  0.750000  1
  Bi  Bi7  1  0.141673  0.141673  0.250000  1
  Au  Au8  1  0.495841  0.998641  0.408225  1
  Au  Au9  1  0.501359  0.004159  0.908225  1
  Au  Au10  1  0.998641  0.495841  0.091775  1
  Au  Au11  1  0.004159  0.501359  0.591775  1
  O  O12  1  0.107405  0.290430  0.600266  1
  O  O13  1  0.908896  0.278756  0.111570  1
  O  O14  1  0.908482  0.717658  0.608945  1
  O  O15  1  0.717658  0.908482  0.891055  1
  O  O16  1  0.221244  0.591104  0.611570  1
  O  O17  1  0.406089  0.788589  0.895578  1
  O  O18  1  0.392595  0.209570  0.399734  1
  O  O19  1  0.782342  0.591518  0.108945  1
  O  O20  1  0.278756  0.908896  0.388430  1
  O  O21  1  0.591104  0.221244  0.888430  1
  O  O22  1  0.492773  0.498873  0.998175  1
  O  O23  1  0.498873  0.492773  0.501825  1
  O  O24  1  0.788589  0.406089  0.604422  1
  O  O25  1  0.093911  0.711411  0.104422  1
  O  O26  1  0.290430  0.107405  0.899734  1
  O  O27  1  0.591518  0.782342  0.391055  1
  O  O28  1  0.209570  0.392595  0.100266  1
  O  O29  1  0.007227  0.001127  0.001825  1
  O  O30  1  0.001127  0.007227  0.498175  1
  O  O31  1  0.711411  0.093911  0.395578  1
