# generated using pymatgen
data_U4Si10(OsPt)3
_symmetry_space_group_name_H-M   'P 1'
_cell_length_a   8.11829514
_cell_length_b   8.16608608
_cell_length_c   8.16608542
_cell_angle_alpha   137.31282906
_cell_angle_beta   104.37636549
_cell_angle_gamma   91.04301157
_symmetry_Int_Tables_number   1
_chemical_formula_structural   U4Si10(OsPt)3
_chemical_formula_sum   'U4 Si10 Os3 Pt3'
_cell_volume   338.54061662
_cell_formula_units_Z   1
loop_
 _symmetry_equiv_pos_site_id
 _symmetry_equiv_pos_as_xyz
  1  'x, y, z'
loop_
 _atom_site_type_symbol
 _atom_site_label
 _atom_site_symmetry_multiplicity
 _atom_site_fract_x
 _atom_site_fract_y
 _atom_site_fract_z
 _atom_site_occupancy
  U  U0  1  0.869262  0.632720  0.236542  1
  U  U1  1  0.139805  0.370938  0.768868  1
  U  U2  1  0.394866  0.129492  0.265375  1
  U  U3  1  0.601055  0.869041  0.732014  1
  Si  Si4  1  0.495735  0.752294  0.253707  1
  Si  Si5  1  0.495735  0.242028  0.743441  1
  Si  Si6  1  0.223746  0.972235  0.746397  1
  Si  Si7  1  0.776922  0.525859  0.748433  1
  Si  Si8  1  0.776922  0.028489  0.251063  1
  Si  Si9  1  0.223746  0.477350  0.251511  1
  Si  Si10  1  0.046372  0.894682  0.151690  1
  Si  Si11  1  0.954452  0.105411  0.849041  1
  Si  Si12  1  0.743217  0.393349  0.349869  1
  Si  Si13  1  0.259090  0.606540  0.652549  1
  Os  Os14  1  0.000598  0.750906  0.750349  1
  Os  Os15  1  0.000598  0.250248  0.249692  1
  Os  Os16  1  0.240898  0.858126  0.382773  1
  Pt  Pt17  1  0.752337  0.139770  0.612566  1
  Pt  Pt18  1  0.475948  0.361693  0.114254  1
  Pt  Pt19  1  0.528695  0.638828  0.889868  1
