# generated using pymatgen
data_Tm2P7Ru11Rh
_symmetry_space_group_name_H-M   'P 1'
_cell_length_a   9.37345608
_cell_length_b   9.41714867
_cell_length_c   3.93912400
_cell_angle_alpha   90.00000000
_cell_angle_beta   90.00000000
_cell_angle_gamma   119.70009490
_symmetry_Int_Tables_number   1
_chemical_formula_structural   Tm2P7Ru11Rh
_chemical_formula_sum   'Tm2 P7 Ru11 Rh1'
_cell_volume   302.03272409
_cell_formula_units_Z   1
loop_
 _symmetry_equiv_pos_site_id
 _symmetry_equiv_pos_as_xyz
  1  'x, y, z'
loop_
 _atom_site_type_symbol
 _atom_site_label
 _atom_site_symmetry_multiplicity
 _atom_site_fract_x
 _atom_site_fract_y
 _atom_site_fract_z
 _atom_site_occupancy
  Tm  Tm0  1  0.668652  0.334955  0.500000  1
  Tm  Tm1  1  0.330921  0.662067  0.000000  1
  P  P2  1  0.599069  0.713319  0.500000  1
  P  P3  1  0.997360  0.999531  0.000000  1
  P  P4  1  0.279082  0.880731  0.500000  1
  P  P5  1  0.118341  0.400850  0.500000  1
  P  P6  1  0.885405  0.576561  0.000000  1
  P  P7  1  0.426462  0.308950  0.000000  1
  P  P8  1  0.696430  0.121178  0.000000  1
  Ru  Ru9  1  0.391347  0.442736  0.500000  1
  Ru  Ru10  1  0.912929  0.124741  0.500000  1
  Ru  Ru11  1  0.210551  0.086786  0.500000  1
  Ru  Ru12  1  0.877139  0.793295  0.500000  1
  Ru  Ru13  1  0.723808  0.891090  0.000000  1
  Ru  Ru14  1  0.109562  0.837795  0.000000  1
  Ru  Ru15  1  0.163929  0.270702  0.000000  1
  Ru  Ru16  1  0.429464  0.067132  0.000000  1
  Ru  Ru17  1  0.935415  0.361913  0.000000  1
  Ru  Ru18  1  0.640723  0.574002  0.000000  1
  Ru  Ru19  1  0.052988  0.608625  0.500000  1
  Rh  Rh20  1  0.550424  0.943040  0.500000  1
