# generated using pymatgen
data_Er8Ta4Ti7Si16Ir
_symmetry_space_group_name_H-M   'P 1'
_cell_length_a   7.00062642
_cell_length_b   7.00467209
_cell_length_c   12.83968468
_cell_angle_alpha   90.15691873
_cell_angle_beta   89.84975614
_cell_angle_gamma   89.66940643
_symmetry_Int_Tables_number   1
_chemical_formula_structural   Er8Ta4Ti7Si16Ir
_chemical_formula_sum   'Er8 Ta4 Ti7 Si16 Ir1'
_cell_volume   629.60577234
_cell_formula_units_Z   1
loop_
 _symmetry_equiv_pos_site_id
 _symmetry_equiv_pos_as_xyz
  1  'x, y, z'
loop_
 _atom_site_type_symbol
 _atom_site_label
 _atom_site_symmetry_multiplicity
 _atom_site_fract_x
 _atom_site_fract_y
 _atom_site_fract_z
 _atom_site_occupancy
  Er  Er0  1  0.341534  0.002270  0.467475  1
  Er  Er1  1  0.496854  0.841918  0.718538  1
  Er  Er2  1  0.501613  0.158204  0.216017  1
  Er  Er3  1  0.842068  0.497242  0.281418  1
  Er  Er4  1  0.158019  0.502235  0.784414  1
  Er  Er5  1  0.656136  0.998411  0.968911  1
  Er  Er6  1  0.002392  0.341524  0.532041  1
  Er  Er7  1  0.997275  0.658315  0.031237  1
  Ta  Ta8  1  0.174025  0.827258  0.247588  1
  Ta  Ta9  1  0.827231  0.174091  0.752397  1
  Ta  Ta10  1  0.674514  0.673593  0.499809  1
  Ta  Ta11  1  0.147320  0.001466  0.874823  1
  Ti  Ti12  1  0.493399  0.657498  0.124869  1
  Ti  Ti13  1  0.507932  0.349133  0.628454  1
  Ti  Ti14  1  0.657750  0.491966  0.874991  1
  Ti  Ti15  1  0.349380  0.508031  0.371927  1
  Ti  Ti16  1  0.848324  0.992204  0.374191  1
  Ti  Ti17  1  0.002885  0.146759  0.124739  1
  Ti  Ti18  1  0.992458  0.847992  0.626375  1
  Si  Si19  1  0.204249  0.134775  0.683108  1
  Si  Si20  1  0.372657  0.700812  0.932977  1
  Si  Si21  1  0.631839  0.296904  0.433987  1
  Si  Si22  1  0.700200  0.370895  0.066980  1
  Si  Si23  1  0.297189  0.631960  0.565785  1
  Si  Si24  1  0.796703  0.866170  0.183384  1
  Si  Si25  1  0.133664  0.202934  0.315561  1
  Si  Si26  1  0.863064  0.795151  0.817348  1
  Si  Si27  1  0.289568  0.951441  0.062704  1
  Si  Si28  1  0.547172  0.794075  0.314809  1
  Si  Si29  1  0.448998  0.210206  0.817750  1
  Si  Si30  1  0.794305  0.546835  0.684639  1
  Si  Si31  1  0.209196  0.448982  0.181650  1
  Si  Si32  1  0.707673  0.047829  0.564623  1
  Si  Si33  1  0.951845  0.290740  0.938406  1
  Si  Si34  1  0.047721  0.707269  0.435116  1
  Ir  Ir35  1  0.332850  0.332914  0.000959  1
