# generated using pymatgen
data_Yb2Al20CoOs3
_symmetry_space_group_name_H-M   'P 1'
_cell_length_a   6.86734135
_cell_length_b   6.85892063
_cell_length_c   9.10206847
_cell_angle_alpha   90.53913416
_cell_angle_beta   90.01540037
_cell_angle_gamma   96.69888026
_symmetry_Int_Tables_number   1
_chemical_formula_structural   Yb2Al20CoOs3
_chemical_formula_sum   'Yb2 Al20 Co1 Os3'
_cell_volume   425.78440025
_cell_formula_units_Z   1
loop_
 _symmetry_equiv_pos_site_id
 _symmetry_equiv_pos_as_xyz
  1  'x, y, z'
loop_
 _atom_site_type_symbol
 _atom_site_label
 _atom_site_symmetry_multiplicity
 _atom_site_fract_x
 _atom_site_fract_y
 _atom_site_fract_z
 _atom_site_occupancy
  Yb  Yb0  1  0.626975  0.375245  0.750269  1
  Yb  Yb1  1  0.373025  0.624755  0.249731  1
  Al  Al2  1  0.281820  0.020938  0.751813  1
  Al  Al3  1  0.021339  0.281259  0.248298  1
  Al  Al4  1  0.718180  0.979062  0.248187  1
  Al  Al5  1  0.978661  0.718741  0.751702  1
  Al  Al6  1  0.873737  0.122234  0.954905  1
  Al  Al7  1  0.126263  0.877766  0.045095  1
  Al  Al8  1  0.875514  0.123457  0.545112  1
  Al  Al9  1  0.124486  0.876543  0.454888  1
  Al  Al10  1  0.641609  0.917129  0.753801  1
  Al  Al11  1  0.914892  0.644196  0.249593  1
  Al  Al12  1  0.358391  0.082871  0.246199  1
  Al  Al13  1  0.085108  0.355804  0.750407  1
  Al  Al14  1  0.345444  0.659713  0.900203  1
  Al  Al15  1  0.654556  0.340287  0.099797  1
  Al  Al16  1  0.344718  0.656881  0.599410  1
  Al  Al17  1  0.655282  0.343119  0.400590  1
  Al  Al18  1  0.721479  0.727414  0.000647  1
  Al  Al19  1  0.723115  0.723762  0.501173  1
  Al  Al20  1  0.278521  0.272586  0.999353  1
  Al  Al21  1  0.276885  0.276238  0.498827  1
  Co  Co22  1  0.500000  0.000000  0.000000  1
  Os  Os23  1  0.000000  0.500000  0.000000  1
  Os  Os24  1  0.500000  0.000000  0.500000  1
  Os  Os25  1  0.000000  0.500000  0.500000  1
