# generated using pymatgen
data_Zr4Nb6Ga3Si5
_symmetry_space_group_name_H-M   'P 1'
_cell_length_a   6.96984879
_cell_length_b   6.96609703
_cell_length_c   12.86829817
_cell_angle_alpha   90.01033025
_cell_angle_beta   89.89764538
_cell_angle_gamma   89.99944552
_symmetry_Int_Tables_number   1
_chemical_formula_structural   Zr4Nb6Ga3Si5
_chemical_formula_sum   'Zr8 Nb12 Ga6 Si10'
_cell_volume   624.78887912
_cell_formula_units_Z   2
loop_
 _symmetry_equiv_pos_site_id
 _symmetry_equiv_pos_as_xyz
  1  'x, y, z'
loop_
 _atom_site_type_symbol
 _atom_site_label
 _atom_site_symmetry_multiplicity
 _atom_site_fract_x
 _atom_site_fract_y
 _atom_site_fract_z
 _atom_site_occupancy
  Zr  Zr0  1  0.999191  0.664734  0.030188  1
  Zr  Zr1  1  0.003589  0.338009  0.530004  1
  Zr  Zr2  1  0.657634  0.997123  0.971674  1
  Zr  Zr3  1  0.161539  0.503594  0.780214  1
  Zr  Zr4  1  0.835336  0.498773  0.279788  1
  Zr  Zr5  1  0.501205  0.154885  0.219171  1
  Zr  Zr6  1  0.496971  0.838241  0.720352  1
  Zr  Zr7  1  0.341141  0.000659  0.467814  1
  Nb  Nb8  1  0.352770  0.503120  0.378128  1
  Nb  Nb9  1  0.844180  0.998990  0.368929  1
  Nb  Nb10  1  0.003215  0.147140  0.128805  1
  Nb  Nb11  1  0.001565  0.849440  0.630811  1
  Nb  Nb12  1  0.650818  0.501664  0.881385  1
  Nb  Nb13  1  0.498009  0.349812  0.619920  1
  Nb  Nb14  1  0.498467  0.655975  0.122496  1
  Nb  Nb15  1  0.151118  0.998514  0.873597  1
  Nb  Nb16  1  0.664587  0.668267  0.497643  1
  Nb  Nb17  1  0.834283  0.165899  0.749653  1
  Nb  Nb18  1  0.173040  0.835443  0.248648  1
  Nb  Nb19  1  0.333845  0.329286  0.000731  1
  Ga  Ga20  1  0.041683  0.702624  0.435428  1
  Ga  Ga21  1  0.958286  0.300056  0.935730  1
  Ga  Ga22  1  0.701784  0.040674  0.564419  1
  Ga  Ga23  1  0.199993  0.458070  0.185933  1
  Ga  Ga24  1  0.797423  0.540935  0.685166  1
  Ga  Ga25  1  0.459865  0.201710  0.813646  1
  Si  Si26  1  0.543894  0.796980  0.313383  1
  Si  Si27  1  0.297008  0.956771  0.062474  1
  Si  Si28  1  0.860518  0.794524  0.823015  1
  Si  Si29  1  0.136617  0.207567  0.323783  1
  Si  Si30  1  0.793884  0.861490  0.177920  1
  Si  Si31  1  0.292867  0.638508  0.572856  1
  Si  Si32  1  0.706063  0.362519  0.073908  1
  Si  Si33  1  0.638453  0.293582  0.427677  1
  Si  Si34  1  0.362092  0.706304  0.927440  1
  Si  Si35  1  0.207067  0.138113  0.677273  1
