# generated using pymatgen
data_Y2HoBi3
_symmetry_space_group_name_H-M   'P 1'
_cell_length_a   4.47029976
_cell_length_b   6.34125728
_cell_length_c   9.97948980
_cell_angle_alpha   71.87438208
_cell_angle_beta   131.88268009
_cell_angle_gamma   89.44952781
_symmetry_Int_Tables_number   1
_chemical_formula_structural   Y2HoBi3
_chemical_formula_sum   'Y2 Ho1 Bi3'
_cell_volume   190.49208238
_cell_formula_units_Z   1
loop_
 _symmetry_equiv_pos_site_id
 _symmetry_equiv_pos_as_xyz
  1  'x, y, z'
loop_
 _atom_site_type_symbol
 _atom_site_label
 _atom_site_symmetry_multiplicity
 _atom_site_fract_x
 _atom_site_fract_y
 _atom_site_fract_z
 _atom_site_occupancy
  Y  Y0  1  0.074059  0.454197  0.252553  1
  Y  Y1  1  0.070474  0.787349  0.583987  1
  Ho  Ho2  1  0.069035  0.119072  0.918495  1
  Bi  Bi3  1  0.073805  0.619250  0.918571  1
  Bi  Bi4  1  0.069870  0.954351  0.250068  1
  Bi  Bi5  1  0.073981  0.285095  0.587382  1
