# generated using pymatgen
data_Sr6TlSn8P
_symmetry_space_group_name_H-M   'P 1'
_cell_length_a   8.93744946
_cell_length_b   8.93745036
_cell_length_c   8.93744900
_cell_angle_alpha   120.09744124
_cell_angle_beta   120.09744457
_cell_angle_gamma   89.83130519
_symmetry_Int_Tables_number   1
_chemical_formula_structural   Sr6TlSn8P
_chemical_formula_sum   'Sr6 Tl1 Sn8 P1'
_cell_volume   504.06165909
_cell_formula_units_Z   1
loop_
 _symmetry_equiv_pos_site_id
 _symmetry_equiv_pos_as_xyz
  1  'x, y, z'
loop_
 _atom_site_type_symbol
 _atom_site_label
 _atom_site_symmetry_multiplicity
 _atom_site_fract_x
 _atom_site_fract_y
 _atom_site_fract_z
 _atom_site_occupancy
  Sr  Sr0  1  0.271457  0.271457  0.000000  1
  Sr  Sr1  1  0.728543  0.728543  0.000000  1
  Sr  Sr2  1  0.188852  0.637453  0.826305  1
  Sr  Sr3  1  0.811148  0.362547  0.173695  1
  Sr  Sr4  1  0.637453  0.811148  0.448602  1
  Sr  Sr5  1  0.362547  0.188852  0.551398  1
  Tl  Tl6  1  0.000000  0.000000  0.000000  1
  Sn  Sn7  1  0.842418  0.324083  0.789729  1
  Sn  Sn8  1  0.157582  0.675917  0.210271  1
  Sn  Sn9  1  0.534355  0.052689  0.210271  1
  Sn  Sn10  1  0.324083  0.534355  0.481665  1
  Sn  Sn11  1  0.947311  0.157582  0.481665  1
  Sn  Sn12  1  0.465645  0.947311  0.789729  1
  Sn  Sn13  1  0.675917  0.465645  0.518335  1
  Sn  Sn14  1  0.052689  0.842418  0.518335  1
  P  P15  1  0.500000  0.500000  0.000000  1
