# generated using pymatgen
data_Cs4Zr6NiBr18
_symmetry_space_group_name_H-M   'P 1'
_cell_length_a   10.86912202
_cell_length_b   11.24131675
_cell_length_c   11.33106526
_cell_angle_alpha   118.57905089
_cell_angle_beta   100.35609561
_cell_angle_gamma   104.28111435
_symmetry_Int_Tables_number   1
_chemical_formula_structural   Cs4Zr6NiBr18
_chemical_formula_sum   'Cs4 Zr6 Ni1 Br18'
_cell_volume   1103.73206812
_cell_formula_units_Z   1
loop_
 _symmetry_equiv_pos_site_id
 _symmetry_equiv_pos_as_xyz
  1  'x, y, z'
loop_
 _atom_site_type_symbol
 _atom_site_label
 _atom_site_symmetry_multiplicity
 _atom_site_fract_x
 _atom_site_fract_y
 _atom_site_fract_z
 _atom_site_occupancy
  Cs  Cs0  1  0.661500  0.537378  0.230672  1
  Cs  Cs1  1  0.338500  0.462622  0.769328  1
  Cs  Cs2  1  0.696744  0.227389  0.564379  1
  Cs  Cs3  1  0.303256  0.772611  0.435621  1
  Zr  Zr4  1  0.151119  0.055072  0.231187  1
  Zr  Zr5  1  0.848881  0.944928  0.768813  1
  Zr  Zr6  1  0.859398  0.124269  0.131021  1
  Zr  Zr7  1  0.140602  0.875731  0.868979  1
  Zr  Zr8  1  0.146032  0.239782  0.043974  1
  Zr  Zr9  1  0.853968  0.760218  0.956026  1
  Ni  Ni10  1  0.000000  0.000000  0.000000  1
  Br  Br11  1  0.007298  0.394600  0.190225  1
  Br  Br12  1  0.992702  0.605400  0.809775  1
  Br  Br13  1  0.322084  0.322675  0.300834  1
  Br  Br14  1  0.677916  0.677325  0.699166  1
  Br  Br15  1  0.312023  0.507293  0.097652  1
  Br  Br16  1  0.687977  0.492707  0.902348  1
  Br  Br17  1  0.003450  0.802069  0.203795  1
  Br  Br18  1  0.996550  0.197931  0.796205  1
  Br  Br19  1  0.707431  0.260816  0.273890  1
  Br  Br20  1  0.292569  0.739184  0.726110  1
  Br  Br21  1  0.312212  0.126786  0.910366  1
  Br  Br22  1  0.687788  0.873214  0.089634  1
  Br  Br23  1  0.014919  0.198155  0.394117  1
  Br  Br24  1  0.985081  0.801845  0.605883  1
  Br  Br25  1  0.316095  0.930053  0.109680  1
  Br  Br26  1  0.683905  0.069947  0.890320  1
  Br  Br27  1  0.324660  0.118960  0.487530  1
  Br  Br28  1  0.675340  0.881040  0.512470  1
