# generated using pymatgen
data_Dy3LuSc2CoTe2
_symmetry_space_group_name_H-M   'P 1'
_cell_length_a   8.03022000
_cell_length_b   8.11661592
_cell_length_c   3.92291700
_cell_angle_alpha   90.00000000
_cell_angle_beta   90.00000000
_cell_angle_gamma   119.64851687
_symmetry_Int_Tables_number   1
_chemical_formula_structural   Dy3LuSc2CoTe2
_chemical_formula_sum   'Dy3 Lu1 Sc2 Co1 Te2'
_cell_volume   222.21301616
_cell_formula_units_Z   1
loop_
 _symmetry_equiv_pos_site_id
 _symmetry_equiv_pos_as_xyz
  1  'x, y, z'
loop_
 _atom_site_type_symbol
 _atom_site_label
 _atom_site_symmetry_multiplicity
 _atom_site_fract_x
 _atom_site_fract_y
 _atom_site_fract_z
 _atom_site_occupancy
  Dy  Dy0  1  0.000696  0.398287  0.500000  1
  Dy  Dy1  1  0.602409  0.601713  0.500000  1
  Dy  Dy2  1  0.383538  0.000000  0.500000  1
  Lu  Lu3  1  0.771357  0.000000  0.000000  1
  Sc  Sc4  1  0.992727  0.768707  0.000000  1
  Sc  Sc5  1  0.224020  0.231293  0.000000  1
  Co  Co6  1  0.030719  0.000000  0.500000  1
  Te  Te7  1  0.329639  0.664743  0.000000  1
  Te  Te8  1  0.664897  0.335257  0.000000  1
