# generated using pymatgen
data_La4Dy3Er3Ge8
_symmetry_space_group_name_H-M   'P 1'
_cell_length_a   7.89538464
_cell_length_b   7.89733789
_cell_length_c   14.56317700
_cell_angle_alpha   90.11783701
_cell_angle_beta   89.79478254
_cell_angle_gamma   89.98802321
_symmetry_Int_Tables_number   1
_chemical_formula_structural   La4Dy3Er3Ge8
_chemical_formula_sum   'La8 Dy6 Er6 Ge16'
_cell_volume   908.04302299
_cell_formula_units_Z   2
loop_
 _symmetry_equiv_pos_site_id
 _symmetry_equiv_pos_as_xyz
  1  'x, y, z'
loop_
 _atom_site_type_symbol
 _atom_site_label
 _atom_site_symmetry_multiplicity
 _atom_site_fract_x
 _atom_site_fract_y
 _atom_site_fract_z
 _atom_site_occupancy
  La  La0  1  0.992552  0.643763  0.038862  1
  La  La1  1  0.006739  0.355791  0.538716  1
  La  La2  1  0.644209  0.994427  0.960926  1
  La  La3  1  0.144071  0.507001  0.788929  1
  La  La4  1  0.856175  0.493460  0.288848  1
  La  La5  1  0.505592  0.144374  0.210975  1
  La  La6  1  0.494148  0.855861  0.711217  1
  La  La7  1  0.355929  0.006145  0.461127  1
  Dy  Dy8  1  0.353606  0.492122  0.375886  1
  Dy  Dy9  1  0.853182  0.007238  0.374020  1
  Dy  Dy10  1  0.992320  0.146872  0.126165  1
  Dy  Dy11  1  0.007314  0.853179  0.626160  1
  Dy  Dy12  1  0.646991  0.507432  0.876337  1
  Dy  Dy13  1  0.492609  0.353424  0.624131  1
  Er  Er14  1  0.507091  0.646915  0.123526  1
  Er  Er15  1  0.146823  0.993003  0.873841  1
  Er  Er16  1  0.681244  0.681055  0.500051  1
  Er  Er17  1  0.819538  0.180932  0.749937  1
  Er  Er18  1  0.181380  0.818646  0.249847  1
  Er  Er19  1  0.318766  0.319055  0.000039  1
  Ge  Ge20  1  0.052306  0.711265  0.433293  1
  Ge  Ge21  1  0.949131  0.287793  0.933222  1
  Ge  Ge22  1  0.711778  0.051802  0.566725  1
  Ge  Ge23  1  0.212166  0.449141  0.183022  1
  Ge  Ge24  1  0.788623  0.551341  0.683371  1
  Ge  Ge25  1  0.447263  0.211902  0.816906  1
  Ge  Ge26  1  0.552426  0.787816  0.315725  1
  Ge  Ge27  1  0.287344  0.946726  0.065846  1
  Ge  Ge28  1  0.853533  0.804223  0.816092  1
  Ge  Ge29  1  0.147695  0.195852  0.315795  1
  Ge  Ge30  1  0.801525  0.851514  0.184955  1
  Ge  Ge31  1  0.303959  0.648109  0.565517  1
  Ge  Ge32  1  0.695473  0.352931  0.065808  1
  Ge  Ge33  1  0.648127  0.303207  0.434471  1
  Ge  Ge34  1  0.351641  0.698039  0.935017  1
  Ge  Ge35  1  0.196733  0.147644  0.684696  1
