# generated using pymatgen
data_Ho8Mg2SnPbAu8
_symmetry_space_group_name_H-M   'P 1'
_cell_length_a   8.01737100
_cell_length_b   8.01737100
_cell_length_c   7.34846800
_cell_angle_alpha   90.00000000
_cell_angle_beta   90.00000000
_cell_angle_gamma   90.00000000
_symmetry_Int_Tables_number   1
_chemical_formula_structural   Ho8Mg2SnPbAu8
_chemical_formula_sum   'Ho8 Mg2 Sn1 Pb1 Au8'
_cell_volume   472.34657321
_cell_formula_units_Z   1
loop_
 _symmetry_equiv_pos_site_id
 _symmetry_equiv_pos_as_xyz
  1  'x, y, z'
loop_
 _atom_site_type_symbol
 _atom_site_label
 _atom_site_symmetry_multiplicity
 _atom_site_fract_x
 _atom_site_fract_y
 _atom_site_fract_z
 _atom_site_occupancy
  Ho  Ho0  1  0.843253  0.158502  0.499283  1
  Ho  Ho1  1  0.156747  0.841498  0.499283  1
  Ho  Ho2  1  0.341498  0.343253  0.000717  1
  Ho  Ho3  1  0.658502  0.656747  0.000717  1
  Ho  Ho4  1  0.682274  0.680600  0.499251  1
  Ho  Ho5  1  0.317726  0.319400  0.499251  1
  Ho  Ho6  1  0.180600  0.817726  0.000749  1
  Ho  Ho7  1  0.819400  0.182274  0.000749  1
  Mg  Mg8  1  0.500000  0.000000  0.250000  1
  Mg  Mg9  1  0.000000  0.500000  0.750000  1
  Sn  Sn10  1  0.000000  0.500000  0.250000  1
  Pb  Pb11  1  0.500000  0.000000  0.750000  1
  Au  Au12  1  0.622104  0.363075  0.273418  1
  Au  Au13  1  0.377896  0.636925  0.273418  1
  Au  Au14  1  0.120592  0.137562  0.773383  1
  Au  Au15  1  0.879408  0.862438  0.773383  1
  Au  Au16  1  0.362438  0.620592  0.726617  1
  Au  Au17  1  0.637562  0.379408  0.726617  1
  Au  Au18  1  0.863075  0.877896  0.226582  1
  Au  Au19  1  0.136925  0.122104  0.226582  1
