# generated using pymatgen
data_AgSb(PSe3)2
_symmetry_space_group_name_H-M   'P 1'
_cell_length_a   14.81055699
_cell_length_b   14.81055674
_cell_length_c   14.81055805
_cell_angle_alpha   26.18337156
_cell_angle_beta   26.18337596
_cell_angle_gamma   26.18337478
_symmetry_Int_Tables_number   1
_chemical_formula_structural   AgSb(PSe3)2
_chemical_formula_sum   'Ag2 Sb2 P4 Se12'
_cell_volume   557.30403408
_cell_formula_units_Z   2
loop_
 _symmetry_equiv_pos_site_id
 _symmetry_equiv_pos_as_xyz
  1  'x, y, z'
loop_
 _atom_site_type_symbol
 _atom_site_label
 _atom_site_symmetry_multiplicity
 _atom_site_fract_x
 _atom_site_fract_y
 _atom_site_fract_z
 _atom_site_occupancy
  Ag  Ag0  1  0.593690  0.593690  0.593690  1
  Ag  Ag1  1  0.406310  0.406310  0.406310  1
  Sb  Sb2  1  0.086904  0.086904  0.086904  1
  Sb  Sb3  1  0.913096  0.913096  0.913096  1
  P  P4  1  0.724350  0.724350  0.724350  1
  P  P5  1  0.777458  0.777458  0.777458  1
  P  P6  1  0.222542  0.222542  0.222542  1
  P  P7  1  0.275650  0.275650  0.275650  1
  Se  Se8  1  0.492045  0.756419  0.124848  1
  Se  Se9  1  0.007351  0.737740  0.379047  1
  Se  Se10  1  0.620953  0.992649  0.262260  1
  Se  Se11  1  0.737740  0.379047  0.007351  1
  Se  Se12  1  0.756419  0.124848  0.492045  1
  Se  Se13  1  0.379047  0.007351  0.737740  1
  Se  Se14  1  0.262260  0.620953  0.992649  1
  Se  Se15  1  0.124848  0.492045  0.756419  1
  Se  Se16  1  0.992649  0.262260  0.620953  1
  Se  Se17  1  0.875152  0.507955  0.243581  1
  Se  Se18  1  0.243581  0.875152  0.507955  1
  Se  Se19  1  0.507955  0.243581  0.875152  1
