# generated using pymatgen
data_Er10CoAg3
_symmetry_space_group_name_H-M   'P 1'
_cell_length_a   9.37794800
_cell_length_b   9.37794782
_cell_length_c   9.46439400
_cell_angle_alpha   90.00000000
_cell_angle_beta   90.00000000
_cell_angle_gamma   120.00000062
_symmetry_Int_Tables_number   1
_chemical_formula_structural   Er10CoAg3
_chemical_formula_sum   'Er20 Co2 Ag6'
_cell_volume   720.84032355
_cell_formula_units_Z   2
loop_
 _symmetry_equiv_pos_site_id
 _symmetry_equiv_pos_as_xyz
  1  'x, y, z'
loop_
 _atom_site_type_symbol
 _atom_site_label
 _atom_site_symmetry_multiplicity
 _atom_site_fract_x
 _atom_site_fract_y
 _atom_site_fract_z
 _atom_site_occupancy
  Er  Er0  1  0.000000  0.000000  0.500000  1
  Er  Er1  1  0.000000  0.000000  0.000000  1
  Er  Er2  1  0.543143  0.456857  0.250000  1
  Er  Er3  1  0.543143  0.086286  0.250000  1
  Er  Er4  1  0.913714  0.456857  0.250000  1
  Er  Er5  1  0.456857  0.543143  0.750000  1
  Er  Er6  1  0.456857  0.913714  0.750000  1
  Er  Er7  1  0.086286  0.543143  0.750000  1
  Er  Er8  1  0.210548  0.789452  0.438118  1
  Er  Er9  1  0.210548  0.421097  0.438118  1
  Er  Er10  1  0.578903  0.789452  0.438118  1
  Er  Er11  1  0.789452  0.210548  0.561882  1
  Er  Er12  1  0.789452  0.578903  0.561882  1
  Er  Er13  1  0.421097  0.210548  0.561882  1
  Er  Er14  1  0.789452  0.210548  0.938118  1
  Er  Er15  1  0.789452  0.578903  0.938118  1
  Er  Er16  1  0.421097  0.210548  0.938118  1
  Er  Er17  1  0.210548  0.789452  0.061882  1
  Er  Er18  1  0.210548  0.421097  0.061882  1
  Er  Er19  1  0.578903  0.789452  0.061882  1
  Co  Co20  1  0.333333  0.666667  0.250000  1
  Co  Co21  1  0.666667  0.333333  0.750000  1
  Ag  Ag22  1  0.883659  0.116341  0.250000  1
  Ag  Ag23  1  0.883659  0.767316  0.250000  1
  Ag  Ag24  1  0.232684  0.116341  0.250000  1
  Ag  Ag25  1  0.116341  0.883659  0.750000  1
  Ag  Ag26  1  0.116341  0.232684  0.750000  1
  Ag  Ag27  1  0.767316  0.883659  0.750000  1
