# generated using pymatgen
data_Pr6IrRhBr6
_symmetry_space_group_name_H-M   'P 1'
_cell_length_a   10.55100775
_cell_length_b   10.55100803
_cell_length_c   10.54287852
_cell_angle_alpha   109.47357871
_cell_angle_beta   109.47357836
_cell_angle_gamma   109.49773143
_symmetry_Int_Tables_number   1
_chemical_formula_structural   Pr6IrRhBr6
_chemical_formula_sum   'Pr12 Ir2 Rh2 Br12'
_cell_volume   903.14546902
_cell_formula_units_Z   2
loop_
 _symmetry_equiv_pos_site_id
 _symmetry_equiv_pos_as_xyz
  1  'x, y, z'
loop_
 _atom_site_type_symbol
 _atom_site_label
 _atom_site_symmetry_multiplicity
 _atom_site_fract_x
 _atom_site_fract_y
 _atom_site_fract_z
 _atom_site_occupancy
  Pr  Pr0  1  0.469130  0.484097  0.234922  1
  Pr  Pr1  1  0.749176  0.234209  0.265078  1
  Pr  Pr2  1  0.749205  0.014985  0.484096  1
  Pr  Pr3  1  0.234891  0.469110  0.484096  1
  Pr  Pr4  1  0.265791  0.750824  0.234922  1
  Pr  Pr5  1  0.030890  0.265109  0.015904  1
  Pr  Pr6  1  0.015903  0.030870  0.265078  1
  Pr  Pr7  1  0.485015  0.750795  0.015904  1
  Pr  Pr8  1  0.484380  0.234380  0.468760  1
  Pr  Pr9  1  0.015346  0.484654  0.750000  1
  Pr  Pr10  1  0.265620  0.015620  0.031240  1
  Pr  Pr11  1  0.234654  0.265346  0.750000  1
  Ir  Ir12  1  0.249488  0.250512  0.250000  1
  Ir  Ir13  1  0.500512  0.999488  0.250000  1
  Rh  Rh14  1  0.000588  0.250588  0.501175  1
  Rh  Rh15  1  0.249412  0.499412  0.998825  1
  Br  Br16  1  0.249747  0.754792  0.744733  1
  Br  Br17  1  0.510058  0.505014  0.755267  1
  Br  Br18  1  0.989493  0.744494  0.994745  1
  Br  Br19  1  0.745208  0.250253  0.755267  1
  Br  Br20  1  0.994986  0.989942  0.744733  1
  Br  Br21  1  0.249749  0.994747  0.505255  1
  Br  Br22  1  0.755506  0.510507  0.505255  1
  Br  Br23  1  0.505253  0.250251  0.994745  1
  Br  Br24  1  0.755060  0.744940  0.250000  1
  Br  Br25  1  0.744802  0.994802  0.989605  1
  Br  Br26  1  0.994940  0.505060  0.250000  1
  Br  Br27  1  0.505198  0.755198  0.510395  1
