# generated using pymatgen
data_CsSrPO4
_symmetry_space_group_name_H-M   'P 1'
_cell_length_a   5.92119666
_cell_length_b   5.89167900
_cell_length_c   8.11176034
_cell_angle_alpha   90.00000000
_cell_angle_beta   107.96870326
_cell_angle_gamma   90.00000000
_symmetry_Int_Tables_number   1
_chemical_formula_structural   CsSrPO4
_chemical_formula_sum   'Cs2 Sr2 P2 O8'
_cell_volume   269.18261418
_cell_formula_units_Z   2
loop_
 _symmetry_equiv_pos_site_id
 _symmetry_equiv_pos_as_xyz
  1  'x, y, z'
loop_
 _atom_site_type_symbol
 _atom_site_label
 _atom_site_symmetry_multiplicity
 _atom_site_fract_x
 _atom_site_fract_y
 _atom_site_fract_z
 _atom_site_occupancy
  Cs  Cs0  1  0.799437  0.250000  0.072306  1
  Cs  Cs1  1  0.200563  0.750000  0.927694  1
  Sr  Sr2  1  0.269349  0.750000  0.459558  1
  Sr  Sr3  1  0.730650  0.250000  0.540442  1
  P  P4  1  0.714765  0.750000  0.333803  1
  P  P5  1  0.285235  0.250000  0.666196  1
  O  O6  1  0.875359  0.750000  0.213980  1
  O  O7  1  0.548941  0.536698  0.302617  1
  O  O8  1  0.548941  0.963302  0.302617  1
  O  O9  1  0.124270  0.250000  0.472483  1
  O  O10  1  0.875729  0.750000  0.527516  1
  O  O11  1  0.451058  0.036699  0.697383  1
  O  O12  1  0.451058  0.463301  0.697383  1
  O  O13  1  0.124641  0.250000  0.786020  1
