# generated using pymatgen
data_Sc12AlCo4Ru
_symmetry_space_group_name_H-M   'P 1'
_cell_length_a   7.67938268
_cell_length_b   7.67938327
_cell_length_c   7.67938300
_cell_angle_alpha   111.40072384
_cell_angle_beta   110.25239902
_cell_angle_gamma   106.79540932
_symmetry_Int_Tables_number   1
_chemical_formula_structural   Sc12AlCo4Ru
_chemical_formula_sum   'Sc12 Al1 Co4 Ru1'
_cell_volume   348.02017817
_cell_formula_units_Z   1
loop_
 _symmetry_equiv_pos_site_id
 _symmetry_equiv_pos_as_xyz
  1  'x, y, z'
loop_
 _atom_site_type_symbol
 _atom_site_label
 _atom_site_symmetry_multiplicity
 _atom_site_fract_x
 _atom_site_fract_y
 _atom_site_fract_z
 _atom_site_occupancy
  Sc  Sc0  1  0.424054  0.228642  0.195415  1
  Sc  Sc1  1  0.575946  0.771358  0.804585  1
  Sc  Sc2  1  0.033227  0.228642  0.804585  1
  Sc  Sc3  1  0.966773  0.771358  0.195415  1
  Sc  Sc4  1  0.184398  0.276743  0.461140  1
  Sc  Sc5  1  0.815602  0.723257  0.538860  1
  Sc  Sc6  1  0.184398  0.723257  0.907655  1
  Sc  Sc7  1  0.815602  0.276743  0.092345  1
  Sc  Sc8  1  0.315577  0.616030  0.300453  1
  Sc  Sc9  1  0.684423  0.383970  0.699547  1
  Sc  Sc10  1  0.315577  0.015124  0.699547  1
  Sc  Sc11  1  0.684423  0.984876  0.300453  1
  Al  Al12  1  0.500000  0.500000  0.000000  1
  Co  Co13  1  0.365607  0.000000  0.365607  1
  Co  Co14  1  0.634393  0.000000  0.634393  1
  Co  Co15  1  0.118889  0.618889  0.500000  1
  Co  Co16  1  0.881111  0.381111  0.500000  1
  Ru  Ru17  1  0.000000  0.000000  0.000000  1
