# generated using pymatgen
data_Tm4HgPt11
_symmetry_space_group_name_H-M   'P 1'
_cell_length_a   4.14266900
_cell_length_b   5.81787110
_cell_length_c   11.65225002
_cell_angle_alpha   88.83258745
_cell_angle_beta   90.00000000
_cell_angle_gamma   90.00000000
_symmetry_Int_Tables_number   1
_chemical_formula_structural   Tm4HgPt11
_chemical_formula_sum   'Tm4 Hg1 Pt11'
_cell_volume   280.77857734
_cell_formula_units_Z   1
loop_
 _symmetry_equiv_pos_site_id
 _symmetry_equiv_pos_as_xyz
  1  'x, y, z'
loop_
 _atom_site_type_symbol
 _atom_site_label
 _atom_site_symmetry_multiplicity
 _atom_site_fract_x
 _atom_site_fract_y
 _atom_site_fract_z
 _atom_site_occupancy
  Tm  Tm0  1  0.500000  0.754310  0.375451  1
  Tm  Tm1  1  0.500000  0.727483  0.865747  1
  Tm  Tm2  1  0.500000  0.272517  0.134253  1
  Tm  Tm3  1  0.500000  0.245690  0.624549  1
  Hg  Hg4  1  0.000000  0.000000  0.000000  1
  Pt  Pt5  1  0.000000  0.011715  0.252276  1
  Pt  Pt6  1  0.000000  0.988285  0.747724  1
  Pt  Pt7  1  0.000000  0.500000  0.000000  1
  Pt  Pt8  1  0.000000  0.500000  0.500000  1
  Pt  Pt9  1  0.000000  0.512222  0.250441  1
  Pt  Pt10  1  0.000000  0.487778  0.749559  1
  Pt  Pt11  1  0.500000  0.253935  0.377411  1
  Pt  Pt12  1  0.500000  0.238862  0.875142  1
  Pt  Pt13  1  0.500000  0.761138  0.124858  1
  Pt  Pt14  1  0.500000  0.746065  0.622589  1
  Pt  Pt15  1  0.000000  0.000000  0.500000  1
