# generated using pymatgen
data_TmFe3MoP3Ru
_symmetry_space_group_name_H-M   'P 1'
_cell_length_a   3.72152500
_cell_length_b   10.60555300
_cell_length_c   12.05338100
_cell_angle_alpha   90.00000000
_cell_angle_beta   90.00000000
_cell_angle_gamma   90.00000000
_symmetry_Int_Tables_number   1
_chemical_formula_structural   TmFe3MoP3Ru
_chemical_formula_sum   'Tm4 Fe12 Mo4 P12 Ru4'
_cell_volume   475.73285319
_cell_formula_units_Z   4
loop_
 _symmetry_equiv_pos_site_id
 _symmetry_equiv_pos_as_xyz
  1  'x, y, z'
loop_
 _atom_site_type_symbol
 _atom_site_label
 _atom_site_symmetry_multiplicity
 _atom_site_fract_x
 _atom_site_fract_y
 _atom_site_fract_z
 _atom_site_occupancy
  Tm  Tm0  1  0.250000  0.582015  0.710040  1
  Tm  Tm1  1  0.250000  0.917985  0.210040  1
  Tm  Tm2  1  0.750000  0.417985  0.289960  1
  Tm  Tm3  1  0.750000  0.082015  0.789960  1
  Fe  Fe4  1  0.250000  0.221246  0.177467  1
  Fe  Fe5  1  0.250000  0.278754  0.677467  1
  Fe  Fe6  1  0.750000  0.778754  0.822533  1
  Fe  Fe7  1  0.750000  0.721246  0.322533  1
  Fe  Fe8  1  0.250000  0.877435  0.698566  1
  Fe  Fe9  1  0.250000  0.622565  0.198566  1
  Fe  Fe10  1  0.750000  0.122565  0.301434  1
  Fe  Fe11  1  0.750000  0.377435  0.801434  1
  Fe  Fe12  1  0.250000  0.462809  0.933752  1
  Fe  Fe13  1  0.250000  0.037191  0.433752  1
  Fe  Fe14  1  0.750000  0.537191  0.066248  1
  Fe  Fe15  1  0.750000  0.962809  0.566248  1
  Mo  Mo16  1  0.250000  0.698720  0.985644  1
  Mo  Mo17  1  0.250000  0.801280  0.485644  1
  Mo  Mo18  1  0.750000  0.301280  0.014356  1
  Mo  Mo19  1  0.750000  0.198720  0.514356  1
  P  P20  1  0.250000  0.427413  0.114592  1
  P  P21  1  0.250000  0.072587  0.614592  1
  P  P22  1  0.750000  0.572587  0.885408  1
  P  P23  1  0.750000  0.927413  0.385408  1
  P  P24  1  0.250000  0.269734  0.863433  1
  P  P25  1  0.250000  0.230266  0.363433  1
  P  P26  1  0.750000  0.730266  0.136567  1
  P  P27  1  0.750000  0.769734  0.636567  1
  P  P28  1  0.250000  0.599770  0.384478  1
  P  P29  1  0.250000  0.900230  0.884478  1
  P  P30  1  0.750000  0.400230  0.615522  1
  P  P31  1  0.750000  0.099770  0.115522  1
  Ru  Ru32  1  0.250000  0.403932  0.485865  1
  Ru  Ru33  1  0.250000  0.096068  0.985865  1
  Ru  Ru34  1  0.750000  0.596068  0.514135  1
  Ru  Ru35  1  0.750000  0.903932  0.014135  1
