# generated using pymatgen
data_TcMo2Rh5
_symmetry_space_group_name_H-M   'P 1'
_cell_length_a   5.49755000
_cell_length_b   5.53722142
_cell_length_c   4.39178800
_cell_angle_alpha   90.00000000
_cell_angle_beta   90.00000000
_cell_angle_gamma   119.76328191
_symmetry_Int_Tables_number   1
_chemical_formula_structural   TcMo2Rh5
_chemical_formula_sum   'Tc1 Mo2 Rh5'
_cell_volume   116.05505944
_cell_formula_units_Z   1
loop_
 _symmetry_equiv_pos_site_id
 _symmetry_equiv_pos_as_xyz
  1  'x, y, z'
loop_
 _atom_site_type_symbol
 _atom_site_label
 _atom_site_symmetry_multiplicity
 _atom_site_fract_x
 _atom_site_fract_y
 _atom_site_fract_z
 _atom_site_occupancy
  Tc  Tc0  1  0.832634  0.665268  0.250000  1
  Mo  Mo1  1  0.332311  0.664624  0.250000  1
  Mo  Mo2  1  0.667980  0.335959  0.750000  1
  Rh  Rh3  1  0.166230  0.832780  0.750000  1
  Rh  Rh4  1  0.666550  0.832780  0.750000  1
  Rh  Rh5  1  0.333892  0.166947  0.250000  1
  Rh  Rh6  1  0.833055  0.166947  0.250000  1
  Rh  Rh7  1  0.167347  0.334694  0.750000  1
