# generated using pymatgen
data_Ca4La16Ru5Pt7
_symmetry_space_group_name_H-M   'P 1'
_cell_length_a   11.33047083
_cell_length_b   11.33047077
_cell_length_c   6.62861500
_cell_angle_alpha   90.05289906
_cell_angle_beta   90.05289906
_cell_angle_gamma   90.10471263
_symmetry_Int_Tables_number   1
_chemical_formula_structural   Ca4La16Ru5Pt7
_chemical_formula_sum   'Ca4 La16 Ru5 Pt7'
_cell_volume   850.97658577
_cell_formula_units_Z   1
loop_
 _symmetry_equiv_pos_site_id
 _symmetry_equiv_pos_as_xyz
  1  'x, y, z'
loop_
 _atom_site_type_symbol
 _atom_site_label
 _atom_site_symmetry_multiplicity
 _atom_site_fract_x
 _atom_site_fract_y
 _atom_site_fract_z
 _atom_site_occupancy
  Ca  Ca0  1  0.000641  0.000831  0.498211  1
  Ca  Ca1  1  0.999169  0.999359  0.001789  1
  Ca  Ca2  1  0.500470  0.500911  0.000135  1
  Ca  Ca3  1  0.499089  0.499530  0.499865  1
  La  La4  1  0.295506  0.086877  0.383541  1
  La  La5  1  0.292413  0.913923  0.885614  1
  La  La6  1  0.712199  0.089506  0.898341  1
  La  La7  1  0.709994  0.919388  0.391185  1
  La  La8  1  0.586598  0.795771  0.887318  1
  La  La9  1  0.592474  0.207799  0.386064  1
  La  La10  1  0.416006  0.793362  0.386360  1
  La  La11  1  0.416584  0.205949  0.886472  1
  La  La12  1  0.204229  0.413402  0.612682  1
  La  La13  1  0.206638  0.583994  0.113640  1
  La  La14  1  0.792201  0.407526  0.113936  1
  La  La15  1  0.794051  0.583416  0.613528  1
  La  La16  1  0.913123  0.704494  0.116459  1
  La  La17  1  0.910494  0.287801  0.601659  1
  La  La18  1  0.086077  0.707587  0.614386  1
  La  La19  1  0.080612  0.290006  0.108815  1
  Ru  Ru20  1  0.837708  0.162292  0.250000  1
  Ru  Ru21  1  0.497789  0.000436  0.117575  1
  Ru  Ru22  1  0.499817  0.999111  0.619641  1
  Ru  Ru23  1  0.000889  0.500183  0.880359  1
  Ru  Ru24  1  0.999564  0.502211  0.382425  1
  Pt  Pt25  1  0.845942  0.842520  0.751660  1
  Pt  Pt26  1  0.157480  0.154058  0.748340  1
  Pt  Pt27  1  0.155576  0.844424  0.250000  1
  Pt  Pt28  1  0.653849  0.346151  0.750000  1
  Pt  Pt29  1  0.654928  0.656955  0.251896  1
  Pt  Pt30  1  0.343045  0.345072  0.248104  1
  Pt  Pt31  1  0.344842  0.655158  0.750000  1
