# generated using pymatgen
data_Zn3SiIr2
_symmetry_space_group_name_H-M   'P 1'
_cell_length_a   7.96494054
_cell_length_b   7.96494055
_cell_length_c   7.96494100
_cell_angle_alpha   60.00000230
_cell_angle_beta   60.00000223
_cell_angle_gamma   60.00000395
_symmetry_Int_Tables_number   1
_chemical_formula_structural   Zn3SiIr2
_chemical_formula_sum   'Zn12 Si4 Ir8'
_cell_volume   357.29971503
_cell_formula_units_Z   4
loop_
 _symmetry_equiv_pos_site_id
 _symmetry_equiv_pos_as_xyz
  1  'x, y, z'
loop_
 _atom_site_type_symbol
 _atom_site_label
 _atom_site_symmetry_multiplicity
 _atom_site_fract_x
 _atom_site_fract_y
 _atom_site_fract_z
 _atom_site_occupancy
  Zn  Zn0  1  0.813064  0.813064  0.186936  1
  Zn  Zn1  1  0.186936  0.186936  0.813064  1
  Zn  Zn2  1  0.813064  0.186936  0.813064  1
  Zn  Zn3  1  0.186936  0.813064  0.186936  1
  Zn  Zn4  1  0.186936  0.813064  0.813064  1
  Zn  Zn5  1  0.813064  0.186936  0.186936  1
  Zn  Zn6  1  0.436936  0.436936  0.063064  1
  Zn  Zn7  1  0.063064  0.063064  0.436936  1
  Zn  Zn8  1  0.436936  0.063064  0.436936  1
  Zn  Zn9  1  0.063064  0.436936  0.063064  1
  Zn  Zn10  1  0.063064  0.436936  0.436936  1
  Zn  Zn11  1  0.436936  0.063064  0.063064  1
  Si  Si12  1  0.125000  0.625000  0.625000  1
  Si  Si13  1  0.625000  0.125000  0.625000  1
  Si  Si14  1  0.625000  0.625000  0.125000  1
  Si  Si15  1  0.625000  0.625000  0.625000  1
  Ir  Ir16  1  0.769416  0.410195  0.410195  1
  Ir  Ir17  1  0.410195  0.769416  0.410195  1
  Ir  Ir18  1  0.410195  0.410195  0.769416  1
  Ir  Ir19  1  0.410195  0.410195  0.410195  1
  Ir  Ir20  1  0.480584  0.839805  0.839805  1
  Ir  Ir21  1  0.839805  0.480584  0.839805  1
  Ir  Ir22  1  0.839805  0.839805  0.480584  1
  Ir  Ir23  1  0.839805  0.839805  0.839805  1
