# generated using pymatgen
data_AcDy4(FeB3)2
_symmetry_space_group_name_H-M   'P 1'
_cell_length_a   8.42434232
_cell_length_b   8.42434296
_cell_length_c   8.42434104
_cell_angle_alpha   37.64405651
_cell_angle_beta   37.64404939
_cell_angle_gamma   37.64405506
_symmetry_Int_Tables_number   1
_chemical_formula_structural   AcDy4(FeB3)2
_chemical_formula_sum   'Ac1 Dy4 Fe2 B6'
_cell_volume   200.06100764
_cell_formula_units_Z   1
loop_
 _symmetry_equiv_pos_site_id
 _symmetry_equiv_pos_as_xyz
  1  'x, y, z'
loop_
 _atom_site_type_symbol
 _atom_site_label
 _atom_site_symmetry_multiplicity
 _atom_site_fract_x
 _atom_site_fract_y
 _atom_site_fract_z
 _atom_site_occupancy
  Ac  Ac0  1  0.000000  0.000000  0.000000  1
  Dy  Dy1  1  0.581006  0.581006  0.581006  1
  Dy  Dy2  1  0.418994  0.418994  0.418994  1
  Dy  Dy3  1  0.751690  0.751690  0.751690  1
  Dy  Dy4  1  0.248310  0.248310  0.248310  1
  Fe  Fe5  1  0.883178  0.883178  0.883178  1
  Fe  Fe6  1  0.116822  0.116822  0.116822  1
  B  B7  1  0.500000  0.832475  0.167525  1
  B  B8  1  0.167525  0.500000  0.832475  1
  B  B9  1  0.832475  0.167525  0.500000  1
  B  B10  1  0.500000  0.167525  0.832475  1
  B  B11  1  0.832475  0.500000  0.167525  1
  B  B12  1  0.167525  0.832475  0.500000  1
