# generated using pymatgen
data_Na2Dy3P12Ir18Ru
_symmetry_space_group_name_H-M   'P 1'
_cell_length_a   12.60293209
_cell_length_b   12.70240942
_cell_length_c   3.98377500
_cell_angle_alpha   90.00000000
_cell_angle_beta   90.00000000
_cell_angle_gamma   119.89967484
_symmetry_Int_Tables_number   1
_chemical_formula_structural   Na2Dy3P12Ir18Ru
_chemical_formula_sum   'Na2 Dy3 P12 Ir18 Ru1'
_cell_volume   552.86779934
_cell_formula_units_Z   1
loop_
 _symmetry_equiv_pos_site_id
 _symmetry_equiv_pos_as_xyz
  1  'x, y, z'
loop_
 _atom_site_type_symbol
 _atom_site_label
 _atom_site_symmetry_multiplicity
 _atom_site_fract_x
 _atom_site_fract_y
 _atom_site_fract_z
 _atom_site_occupancy
  Na  Na0  1  0.000385  0.817904  0.000000  1
  Na  Na1  1  0.181962  0.181850  0.000000  1
  Dy  Dy2  1  0.333510  0.666412  0.500000  1
  Dy  Dy3  1  0.668549  0.333420  0.500000  1
  Dy  Dy4  1  0.819252  0.000665  0.000000  1
  P  P5  1  0.999768  0.639592  0.500000  1
  P  P6  1  0.355310  0.355315  0.500000  1
  P  P7  1  0.643005  0.000081  0.500000  1
  P  P8  1  0.518471  0.688723  0.000000  1
  P  P9  1  0.308894  0.828005  0.000000  1
  P  P10  1  0.167990  0.481931  0.000000  1
  P  P11  1  0.481398  0.172009  0.000000  1
  P  P12  1  0.688805  0.518473  0.000000  1
  P  P13  1  0.832596  0.314542  0.000000  1
  P  P14  1  0.003561  0.180831  0.500000  1
  P  P15  1  0.822204  0.819625  0.500000  1
  P  P16  1  0.178547  0.000156  0.500000  1
  Ir  Ir17  1  0.504901  0.866556  0.000000  1
  Ir  Ir18  1  0.129312  0.638148  0.000000  1
  Ir  Ir19  1  0.361062  0.494872  0.000000  1
  Ir  Ir20  1  0.492886  0.362607  0.000000  1
  Ir  Ir21  1  0.869050  0.507936  0.000000  1
  Ir  Ir22  1  0.640193  0.135686  0.000000  1
  Ir  Ir23  1  0.535972  0.536553  0.500000  1
  Ir  Ir24  1  0.461855  0.000224  0.500000  1
  Ir  Ir25  1  0.999761  0.284004  0.000000  1
  Ir  Ir26  1  0.716986  0.716318  0.000000  1
  Ir  Ir27  1  0.285100  0.999753  0.000000  1
  Ir  Ir28  1  0.624809  0.806110  0.500000  1
  Ir  Ir29  1  0.197509  0.818627  0.500000  1
  Ir  Ir30  1  0.182031  0.380548  0.500000  1
  Ir  Ir31  1  0.379403  0.181642  0.500000  1
  Ir  Ir32  1  0.801054  0.619195  0.500000  1
  Ir  Ir33  1  0.819371  0.193994  0.500000  1
  Ir  Ir34  1  0.996826  0.000115  0.500000  1
  Ru  Ru35  1  0.997708  0.457581  0.500000  1
