# generated using pymatgen
data_Lu3Sn3HgIr2
_symmetry_space_group_name_H-M   'P 1'
_cell_length_a   7.63064900
_cell_length_b   7.63064885
_cell_length_c   3.88678400
_cell_angle_alpha   90.00000000
_cell_angle_beta   90.00000000
_cell_angle_gamma   119.99999630
_symmetry_Int_Tables_number   1
_chemical_formula_structural   Lu3Sn3HgIr2
_chemical_formula_sum   'Lu3 Sn3 Hg1 Ir2'
_cell_volume   195.99455212
_cell_formula_units_Z   1
loop_
 _symmetry_equiv_pos_site_id
 _symmetry_equiv_pos_as_xyz
  1  'x, y, z'
loop_
 _atom_site_type_symbol
 _atom_site_label
 _atom_site_symmetry_multiplicity
 _atom_site_fract_x
 _atom_site_fract_y
 _atom_site_fract_z
 _atom_site_occupancy
  Lu  Lu0  1  0.976725  0.385524  0.500000  1
  Lu  Lu1  1  0.614476  0.591201  0.500000  1
  Lu  Lu2  1  0.408799  0.023275  0.500000  1
  Sn  Sn3  1  0.992870  0.740450  0.000000  1
  Sn  Sn4  1  0.259550  0.252420  0.000000  1
  Sn  Sn5  1  0.747580  0.007130  0.000000  1
  Hg  Hg6  1  0.333333  0.666667  0.000000  1
  Ir  Ir7  1  0.666667  0.333333  0.000000  1
  Ir  Ir8  1  0.000000  0.000000  0.500000  1
