# generated using pymatgen
data_Ba4Tc(N2Cl)2
_symmetry_space_group_name_H-M   'P 1'
_cell_length_a   6.16529100
_cell_length_b   8.56978824
_cell_length_c   10.87580535
_cell_angle_alpha   81.02827457
_cell_angle_beta   90.00000000
_cell_angle_gamma   90.00000000
_symmetry_Int_Tables_number   1
_chemical_formula_structural   Ba4Tc(N2Cl)2
_chemical_formula_sum   'Ba8 Tc2 N8 Cl4'
_cell_volume   567.59546167
_cell_formula_units_Z   2
loop_
 _symmetry_equiv_pos_site_id
 _symmetry_equiv_pos_as_xyz
  1  'x, y, z'
loop_
 _atom_site_type_symbol
 _atom_site_label
 _atom_site_symmetry_multiplicity
 _atom_site_fract_x
 _atom_site_fract_y
 _atom_site_fract_z
 _atom_site_occupancy
  Ba  Ba0  1  0.750000  0.288393  0.291915  1
  Ba  Ba1  1  0.750000  0.003024  0.627506  1
  Ba  Ba2  1  0.750000  0.445256  0.622586  1
  Ba  Ba3  1  0.750000  0.813372  0.092547  1
  Ba  Ba4  1  0.250000  0.996976  0.372494  1
  Ba  Ba5  1  0.250000  0.554744  0.377414  1
  Ba  Ba6  1  0.250000  0.186628  0.907453  1
  Ba  Ba7  1  0.250000  0.711607  0.708085  1
  Tc  Tc8  1  0.750000  0.771821  0.400112  1
  Tc  Tc9  1  0.250000  0.228179  0.599888  1
  N  N10  1  0.250000  0.037873  0.706677  1
  N  N11  1  0.006316  0.245627  0.496871  1
  N  N12  1  0.506316  0.754373  0.503129  1
  N  N13  1  0.993684  0.754373  0.503129  1
  N  N14  1  0.750000  0.609498  0.303623  1
  N  N15  1  0.750000  0.962127  0.293323  1
  N  N16  1  0.493684  0.245627  0.496871  1
  N  N17  1  0.250000  0.390502  0.696377  1
  Cl  Cl18  1  0.250000  0.325508  0.164897  1
  Cl  Cl19  1  0.750000  0.674492  0.835103  1
  Cl  Cl20  1  0.250000  0.840726  0.098901  1
  Cl  Cl21  1  0.750000  0.159274  0.901099  1
