# generated using pymatgen
data_Ho7Lu3(In3Cl)2
_symmetry_space_group_name_H-M   'P 1'
_cell_length_a   9.14128000
_cell_length_b   9.14127889
_cell_length_c   6.53551600
_cell_angle_alpha   90.00000000
_cell_angle_beta   90.00000000
_cell_angle_gamma   119.99999678
_symmetry_Int_Tables_number   1
_chemical_formula_structural   Ho7Lu3(In3Cl)2
_chemical_formula_sum   'Ho7 Lu3 In6 Cl2'
_cell_volume   472.96009407
_cell_formula_units_Z   1
loop_
 _symmetry_equiv_pos_site_id
 _symmetry_equiv_pos_as_xyz
  1  'x, y, z'
loop_
 _atom_site_type_symbol
 _atom_site_label
 _atom_site_symmetry_multiplicity
 _atom_site_fract_x
 _atom_site_fract_y
 _atom_site_fract_z
 _atom_site_occupancy
  Ho  Ho0  1  0.260138  0.000313  0.749547  1
  Ho  Ho1  1  0.740176  0.000313  0.250453  1
  Ho  Ho2  1  0.999687  0.259824  0.749547  1
  Ho  Ho3  1  0.999687  0.739862  0.250453  1
  Ho  Ho4  1  0.740176  0.739862  0.749547  1
  Ho  Ho5  1  0.260138  0.259824  0.250453  1
  Ho  Ho6  1  0.333333  0.666667  0.000000  1
  Lu  Lu7  1  0.333333  0.666667  0.500000  1
  Lu  Lu8  1  0.666667  0.333333  0.500000  1
  Lu  Lu9  1  0.666667  0.333333  0.000000  1
  In  In10  1  0.607390  0.001156  0.749098  1
  In  In11  1  0.393766  0.001156  0.250902  1
  In  In12  1  0.998844  0.606234  0.749098  1
  In  In13  1  0.998844  0.392610  0.250902  1
  In  In14  1  0.393766  0.392610  0.749098  1
  In  In15  1  0.607390  0.606234  0.250902  1
  Cl  Cl16  1  0.000000  0.000000  0.500000  1
  Cl  Cl17  1  0.000000  0.000000  0.000000  1
