# generated using pymatgen
data_Pr3Co2Cu6Ni5B2
_symmetry_space_group_name_H-M   'P 1'
_cell_length_a   5.11549614
_cell_length_b   5.11549784
_cell_length_c   10.98366800
_cell_angle_alpha   90.00000000
_cell_angle_beta   90.00000000
_cell_angle_gamma   119.73197819
_symmetry_Int_Tables_number   1
_chemical_formula_structural   Pr3Co2Cu6Ni5B2
_chemical_formula_sum   'Pr3 Co2 Cu6 Ni5 B2'
_cell_volume   249.58604516
_cell_formula_units_Z   1
loop_
 _symmetry_equiv_pos_site_id
 _symmetry_equiv_pos_as_xyz
  1  'x, y, z'
loop_
 _atom_site_type_symbol
 _atom_site_label
 _atom_site_symmetry_multiplicity
 _atom_site_fract_x
 _atom_site_fract_y
 _atom_site_fract_z
 _atom_site_occupancy
  Pr  Pr0  1  0.000000  0.000000  0.999109  1
  Pr  Pr1  1  0.000000  0.000000  0.687389  1
  Pr  Pr2  1  0.000000  0.000000  0.322669  1
  Co  Co3  1  0.500000  0.000000  0.872680  1
  Co  Co4  1  0.000000  0.500000  0.872680  1
  Cu  Cu5  1  0.500000  0.000000  0.500291  1
  Cu  Cu6  1  0.000000  0.500000  0.500291  1
  Cu  Cu7  1  0.665851  0.334149  0.685410  1
  Cu  Cu8  1  0.334149  0.665851  0.685410  1
  Cu  Cu9  1  0.335260  0.664740  0.313962  1
  Cu  Cu10  1  0.664740  0.335260  0.313962  1
  Ni  Ni11  1  0.500000  0.500000  0.499297  1
  Ni  Ni12  1  0.500000  0.500000  0.871468  1
  Ni  Ni13  1  0.500000  0.500000  0.126573  1
  Ni  Ni14  1  0.500000  0.000000  0.127629  1
  Ni  Ni15  1  0.000000  0.500000  0.127629  1
  B  B16  1  0.669530  0.330470  0.996774  1
  B  B17  1  0.330470  0.669530  0.996774  1
