# generated using pymatgen
data_DyEr15(ZnIn3)2
_symmetry_space_group_name_H-M   'P 1'
_cell_length_a   10.58362200
_cell_length_b   10.58187656
_cell_length_c   6.73325200
_cell_angle_alpha   89.99901897
_cell_angle_beta   90.00000000
_cell_angle_gamma   120.00545652
_symmetry_Int_Tables_number   1
_chemical_formula_structural   DyEr15(ZnIn3)2
_chemical_formula_sum   'Dy1 Er15 Zn2 In6'
_cell_volume   653.02322922
_cell_formula_units_Z   1
loop_
 _symmetry_equiv_pos_site_id
 _symmetry_equiv_pos_as_xyz
  1  'x, y, z'
loop_
 _atom_site_type_symbol
 _atom_site_label
 _atom_site_symmetry_multiplicity
 _atom_site_fract_x
 _atom_site_fract_y
 _atom_site_fract_z
 _atom_site_occupancy
  Dy  Dy0  1  0.521617  0.043233  0.517905  1
  Er  Er1  1  0.956534  0.478174  0.518123  1
  Er  Er2  1  0.521642  0.478174  0.518123  1
  Er  Er3  1  0.478306  0.956613  0.018040  1
  Er  Er4  1  0.043330  0.521660  0.018083  1
  Er  Er5  1  0.478328  0.521660  0.018083  1
  Er  Er6  1  0.173002  0.346005  0.732507  1
  Er  Er7  1  0.654108  0.826802  0.732587  1
  Er  Er8  1  0.172692  0.826802  0.732587  1
  Er  Er9  1  0.827063  0.654126  0.232417  1
  Er  Er10  1  0.345778  0.173062  0.232211  1
  Er  Er11  1  0.827285  0.173062  0.232211  1
  Er  Er12  1  0.666842  0.333684  0.871198  1
  Er  Er13  1  0.333143  0.666287  0.370683  1
  Er  Er14  1  0.999930  0.999861  0.498259  1
  Er  Er15  1  0.000008  0.000017  0.998164  1
  Zn  Zn16  1  0.666879  0.333758  0.301636  1
  Zn  Zn17  1  0.333399  0.666800  0.801902  1
  In  In18  1  0.835558  0.671116  0.749807  1
  In  In19  1  0.328632  0.164634  0.750131  1
  In  In20  1  0.836001  0.164634  0.750131  1
  In  In21  1  0.164445  0.328888  0.249848  1
  In  In22  1  0.671110  0.835475  0.249782  1
  In  In23  1  0.164366  0.835475  0.249782  1
