# generated using pymatgen
data_PrTa4(NbSn3)2
_symmetry_space_group_name_H-M   'P 1'
_cell_length_a   5.82203001
_cell_length_b   5.82262648
_cell_length_c   9.64787600
_cell_angle_alpha   90.00000000
_cell_angle_beta   90.00000000
_cell_angle_gamma   120.00339270
_symmetry_Int_Tables_number   1
_chemical_formula_structural   PrTa4(NbSn3)2
_chemical_formula_sum   'Pr1 Ta4 Nb2 Sn6'
_cell_volume   283.23105321
_cell_formula_units_Z   1
loop_
 _symmetry_equiv_pos_site_id
 _symmetry_equiv_pos_as_xyz
  1  'x, y, z'
loop_
 _atom_site_type_symbol
 _atom_site_label
 _atom_site_symmetry_multiplicity
 _atom_site_fract_x
 _atom_site_fract_y
 _atom_site_fract_z
 _atom_site_occupancy
  Pr  Pr0  1  0.000000  0.000000  0.999763  1
  Ta  Ta1  1  0.000000  0.500000  0.750094  1
  Ta  Ta2  1  0.500000  0.500000  0.749633  1
  Ta  Ta3  1  0.500000  0.000000  0.749633  1
  Ta  Ta4  1  0.000000  0.500000  0.250427  1
  Nb  Nb5  1  0.500000  0.500000  0.250791  1
  Nb  Nb6  1  0.500000  0.000000  0.250791  1
  Sn  Sn7  1  0.667109  0.333554  0.499982  1
  Sn  Sn8  1  0.332891  0.666446  0.499982  1
  Sn  Sn9  1  0.666642  0.333320  0.000130  1
  Sn  Sn10  1  0.333358  0.666680  0.000130  1
  Sn  Sn11  1  0.000000  0.000000  0.665301  1
  Sn  Sn12  1  0.000000  0.000000  0.333339  1
