# generated using pymatgen
data_YTm3(Si5Os3)2
_symmetry_space_group_name_H-M   'P 1'
_cell_length_a   8.11008962
_cell_length_b   8.12791187
_cell_length_c   5.77181272
_cell_angle_alpha   70.66416807
_cell_angle_beta   70.54166188
_cell_angle_gamma   94.13399183
_symmetry_Int_Tables_number   1
_chemical_formula_structural   YTm3(Si5Os3)2
_chemical_formula_sum   'Y1 Tm3 Si10 Os6'
_cell_volume   331.31228709
_cell_formula_units_Z   1
loop_
 _symmetry_equiv_pos_site_id
 _symmetry_equiv_pos_as_xyz
  1  'x, y, z'
loop_
 _atom_site_type_symbol
 _atom_site_label
 _atom_site_symmetry_multiplicity
 _atom_site_fract_x
 _atom_site_fract_y
 _atom_site_fract_z
 _atom_site_occupancy
  Y  Y0  1  0.599719  0.868869  0.254539  1
  Tm  Tm1  1  0.869354  0.602148  0.751631  1
  Tm  Tm2  1  0.399905  0.131254  0.745499  1
  Tm  Tm3  1  0.131202  0.397480  0.247823  1
  Si  Si4  1  0.068580  0.259902  0.834197  1
  Si  Si5  1  0.736768  0.931375  0.667911  1
  Si  Si6  1  0.931941  0.739430  0.165009  1
  Si  Si7  1  0.263571  0.068852  0.331349  1
  Si  Si8  1  0.207895  0.795615  0.743765  1
  Si  Si9  1  0.793398  0.205602  0.254662  1
  Si  Si10  1  0.513072  0.487746  0.748857  1
  Si  Si11  1  0.486146  0.511227  0.252789  1
  Si  Si12  1  0.774882  0.225318  0.747423  1
  Si  Si13  1  0.224049  0.775092  0.252836  1
  Os  Os14  1  0.253251  0.541732  0.633908  1
  Os  Os15  1  0.453217  0.743209  0.872614  1
  Os  Os16  1  0.746199  0.457641  0.366930  1
  Os  Os17  1  0.546119  0.257659  0.128701  1
  Os  Os18  1  0.002866  0.997360  0.749415  1
  Os  Os19  1  0.997866  0.002486  0.250142  1
