# generated using pymatgen
data_Dy5In4PdAu
_symmetry_space_group_name_H-M   'P 1'
_cell_length_a   3.67128200
_cell_length_b   8.17283704
_cell_length_c   18.37815108
_cell_angle_alpha   89.98903944
_cell_angle_beta   90.00000000
_cell_angle_gamma   90.00000000
_symmetry_Int_Tables_number   1
_chemical_formula_structural   Dy5In4PdAu
_chemical_formula_sum   'Dy10 In8 Pd2 Au2'
_cell_volume   551.43254467
_cell_formula_units_Z   2
loop_
 _symmetry_equiv_pos_site_id
 _symmetry_equiv_pos_as_xyz
  1  'x, y, z'
loop_
 _atom_site_type_symbol
 _atom_site_label
 _atom_site_symmetry_multiplicity
 _atom_site_fract_x
 _atom_site_fract_y
 _atom_site_fract_z
 _atom_site_occupancy
  Dy  Dy0  1  0.000000  0.500000  0.500000  1
  Dy  Dy1  1  0.000000  0.000000  0.000000  1
  Dy  Dy2  1  0.000000  0.748690  0.282124  1
  Dy  Dy3  1  0.000000  0.251310  0.717876  1
  Dy  Dy4  1  0.000000  0.765457  0.779363  1
  Dy  Dy5  1  0.000000  0.234543  0.220637  1
  Dy  Dy6  1  0.000000  0.619338  0.080090  1
  Dy  Dy7  1  0.000000  0.380662  0.919910  1
  Dy  Dy8  1  0.000000  0.884053  0.582499  1
  Dy  Dy9  1  0.000000  0.115947  0.417501  1
  In  In10  1  0.500000  0.711877  0.932258  1
  In  In11  1  0.500000  0.288123  0.067742  1
  In  In12  1  0.500000  0.790635  0.431950  1
  In  In13  1  0.500000  0.209365  0.568050  1
  In  In14  1  0.500000  0.580654  0.647239  1
  In  In15  1  0.500000  0.419346  0.352761  1
  In  In16  1  0.500000  0.923812  0.148537  1
  In  In17  1  0.500000  0.076188  0.851463  1
  Pd  Pd18  1  0.500000  0.972881  0.695892  1
  Pd  Pd19  1  0.500000  0.027119  0.304108  1
  Au  Au20  1  0.500000  0.528083  0.197107  1
  Au  Au21  1  0.500000  0.471917  0.802893  1
