# generated using pymatgen
data_La4Zn51
_symmetry_space_group_name_H-M   'P 1'
_cell_length_a   8.60652200
_cell_length_b   8.60652169
_cell_length_c   14.80378400
_cell_angle_alpha   73.10093745
_cell_angle_beta   90.00000000
_cell_angle_gamma   120.00000119
_symmetry_Int_Tables_number   1
_chemical_formula_structural   La4Zn51
_chemical_formula_sum   'La4 Zn51'
_cell_volume   894.54573756
_cell_formula_units_Z   1
loop_
 _symmetry_equiv_pos_site_id
 _symmetry_equiv_pos_as_xyz
  1  'x, y, z'
loop_
 _atom_site_type_symbol
 _atom_site_label
 _atom_site_symmetry_multiplicity
 _atom_site_fract_x
 _atom_site_fract_y
 _atom_site_fract_z
 _atom_site_occupancy
  La  La0  1  0.875061  0.750122  0.374816  1
  La  La1  1  0.374583  0.749165  0.876252  1
  La  La2  1  0.624939  0.249878  0.125184  1
  La  La3  1  0.125417  0.250835  0.623748  1
  Zn  Zn4  1  0.338055  0.442563  0.103555  1
  Zn  Zn5  1  0.843933  0.442996  0.598577  1
  Zn  Zn6  1  0.161945  0.557437  0.396445  1
  Zn  Zn7  1  0.656067  0.557004  0.901423  1
  Zn  Zn8  1  0.985431  0.206552  0.221103  1
  Zn  Zn9  1  0.478676  0.198106  0.720862  1
  Zn  Zn10  1  0.514569  0.793449  0.278897  1
  Zn  Zn11  1  0.021324  0.801894  0.779138  1
  Zn  Zn12  1  0.709065  0.057365  0.348748  1
  Zn  Zn13  1  0.208569  0.058543  0.850228  1
  Zn  Zn14  1  0.790935  0.942635  0.151252  1
  Zn  Zn15  1  0.291431  0.941457  0.649772  1
  Zn  Zn16  1  0.669225  0.698819  0.029895  1
  Zn  Zn17  1  0.170691  0.700026  0.528455  1
  Zn  Zn18  1  0.830775  0.301181  0.470105  1
  Zn  Zn19  1  0.329309  0.299974  0.971545  1
  Zn  Zn20  1  0.046117  0.208062  0.396445  1
  Zn  Zn21  1  0.541573  0.197639  0.901423  1
  Zn  Zn22  1  0.453883  0.791938  0.103555  1
  Zn  Zn23  1  0.958427  0.802361  0.598577  1
  Zn  Zn24  1  0.927655  0.442224  0.278897  1
  Zn  Zn25  1  0.418968  0.440293  0.779138  1
  Zn  Zn26  1  0.572345  0.557776  0.221103  1
  Zn  Zn27  1  0.081032  0.559707  0.720862  1
  Zn  Zn28  1  0.906114  0.697049  0.151252  1
  Zn  Zn29  1  0.408771  0.700202  0.649772  1
  Zn  Zn30  1  0.593886  0.302951  0.348748  1
  Zn  Zn31  1  0.091229  0.299798  0.850228  1
  Zn  Zn32  1  0.228714  0.059489  0.470105  1
  Zn  Zn33  1  0.728482  0.057791  0.971545  1
  Zn  Zn34  1  0.271286  0.940511  0.029895  1
  Zn  Zn35  1  0.771518  0.942209  0.528455  1
  Zn  Zn36  1  0.221120  0.793466  0.221103  1
  Zn  Zn37  1  0.719431  0.800463  0.720862  1
  Zn  Zn38  1  0.278880  0.206534  0.278897  1
  Zn  Zn39  1  0.780569  0.199537  0.779138  1
  Zn  Zn40  1  0.104508  0.558390  0.103555  1
  Zn  Zn41  1  0.599062  0.557490  0.598577  1
  Zn  Zn42  1  0.395492  0.441610  0.396445  1
  Zn  Zn43  1  0.900938  0.442510  0.901423  1
  Zn  Zn44  1  0.029594  0.300880  0.029895  1
  Zn  Zn45  1  0.529336  0.300854  0.528455  1
  Zn  Zn46  1  0.470406  0.699120  0.470105  1
  Zn  Zn47  1  0.970664  0.699146  0.971545  1
  Zn  Zn48  1  0.348300  0.942187  0.348748  1
  Zn  Zn49  1  0.849974  0.941203  0.850228  1
  Zn  Zn50  1  0.151700  0.057813  0.151252  1
  Zn  Zn51  1  0.650026  0.058797  0.649772  1
  Zn  Zn52  1  0.750000  0.500000  0.750000  1
  Zn  Zn53  1  0.999751  0.999501  0.000748  1
  Zn  Zn54  1  0.500249  0.000499  0.499252  1
