# generated using pymatgen
data_Tm2Ga10Tc2Pt
_symmetry_space_group_name_H-M   'P 1'
_cell_length_a   9.03335900
_cell_length_b   9.03335900
_cell_length_c   6.33347700
_cell_angle_alpha   90.00000000
_cell_angle_beta   90.00000000
_cell_angle_gamma   90.00000000
_symmetry_Int_Tables_number   1
_chemical_formula_structural   Tm2Ga10Tc2Pt
_chemical_formula_sum   'Tm4 Ga20 Tc4 Pt2'
_cell_volume   516.82169730
_cell_formula_units_Z   2
loop_
 _symmetry_equiv_pos_site_id
 _symmetry_equiv_pos_as_xyz
  1  'x, y, z'
loop_
 _atom_site_type_symbol
 _atom_site_label
 _atom_site_symmetry_multiplicity
 _atom_site_fract_x
 _atom_site_fract_y
 _atom_site_fract_z
 _atom_site_occupancy
  Tm  Tm0  1  0.182846  0.317154  0.000000  1
  Tm  Tm1  1  0.682846  0.182846  0.000000  1
  Tm  Tm2  1  0.817154  0.682846  0.000000  1
  Tm  Tm3  1  0.317154  0.817154  0.000000  1
  Ga  Ga4  1  0.500000  0.000000  0.282526  1
  Ga  Ga5  1  0.500000  0.000000  0.717474  1
  Ga  Ga6  1  0.290074  0.561782  0.706506  1
  Ga  Ga7  1  0.000000  0.500000  0.282526  1
  Ga  Ga8  1  0.000000  0.500000  0.717474  1
  Ga  Ga9  1  0.061782  0.790074  0.706506  1
  Ga  Ga10  1  0.209926  0.061782  0.293494  1
  Ga  Ga11  1  0.061782  0.790074  0.293494  1
  Ga  Ga12  1  0.709926  0.438218  0.706506  1
  Ga  Ga13  1  0.209926  0.061782  0.706506  1
  Ga  Ga14  1  0.938218  0.209926  0.706506  1
  Ga  Ga15  1  0.709926  0.438218  0.293494  1
  Ga  Ga16  1  0.561782  0.709926  0.293494  1
  Ga  Ga17  1  0.938218  0.209926  0.293494  1
  Ga  Ga18  1  0.561782  0.709926  0.706506  1
  Ga  Ga19  1  0.790074  0.938218  0.293494  1
  Ga  Ga20  1  0.438218  0.290074  0.706506  1
  Ga  Ga21  1  0.790074  0.938218  0.706506  1
  Ga  Ga22  1  0.438218  0.290074  0.293494  1
  Ga  Ga23  1  0.290074  0.561782  0.293494  1
  Tc  Tc24  1  0.178389  0.321611  0.500000  1
  Tc  Tc25  1  0.321611  0.821611  0.500000  1
  Tc  Tc26  1  0.821611  0.678389  0.500000  1
  Tc  Tc27  1  0.678389  0.178389  0.500000  1
  Pt  Pt28  1  0.000000  0.000000  0.000000  1
  Pt  Pt29  1  0.500000  0.500000  0.000000  1
