# generated using pymatgen
data_GdThNp2N6
_symmetry_space_group_name_H-M   'P 1'
_cell_length_a   5.81033400
_cell_length_b   5.99345000
_cell_length_c   8.38786100
_cell_angle_alpha   90.00000000
_cell_angle_beta   90.00000000
_cell_angle_gamma   90.00000000
_symmetry_Int_Tables_number   1
_chemical_formula_structural   GdThNp2N6
_chemical_formula_sum   'Gd2 Th2 Np4 N12'
_cell_volume   292.09842114
_cell_formula_units_Z   2
loop_
 _symmetry_equiv_pos_site_id
 _symmetry_equiv_pos_as_xyz
  1  'x, y, z'
loop_
 _atom_site_type_symbol
 _atom_site_label
 _atom_site_symmetry_multiplicity
 _atom_site_fract_x
 _atom_site_fract_y
 _atom_site_fract_z
 _atom_site_occupancy
  Gd  Gd0  1  0.512066  0.550459  0.250000  1
  Gd  Gd1  1  0.987934  0.050459  0.250000  1
  Th  Th2  1  0.489047  0.447610  0.750000  1
  Th  Th3  1  0.010953  0.947610  0.750000  1
  Np  Np4  1  0.999506  0.499885  0.005491  1
  Np  Np5  1  0.500494  0.999885  0.494509  1
  Np  Np6  1  0.999506  0.499885  0.494509  1
  Np  Np7  1  0.500494  0.999885  0.005491  1
  N  N8  1  0.382992  0.948219  0.250000  1
  N  N9  1  0.117008  0.448219  0.250000  1
  N  N10  1  0.615076  0.042973  0.750000  1
  N  N11  1  0.884924  0.542973  0.750000  1
  N  N12  1  0.794366  0.813337  0.057958  1
  N  N13  1  0.705634  0.313337  0.442042  1
  N  N14  1  0.211236  0.192148  0.563212  1
  N  N15  1  0.288764  0.692148  0.936788  1
  N  N16  1  0.211236  0.192148  0.936788  1
  N  N17  1  0.288764  0.692148  0.563212  1
  N  N18  1  0.794366  0.813337  0.442042  1
  N  N19  1  0.705634  0.313337  0.057958  1
