# generated using pymatgen
data_MnV20Ga9
_symmetry_space_group_name_H-M   'P 1'
_cell_length_a   9.31679198
_cell_length_b   9.31679320
_cell_length_c   4.73628500
_cell_angle_alpha   90.00000000
_cell_angle_beta   90.00000000
_cell_angle_gamma   90.47314945
_symmetry_Int_Tables_number   1
_chemical_formula_structural   MnV20Ga9
_chemical_formula_sum   'Mn1 V20 Ga9'
_cell_volume   411.10794879
_cell_formula_units_Z   1
loop_
 _symmetry_equiv_pos_site_id
 _symmetry_equiv_pos_as_xyz
  1  'x, y, z'
loop_
 _atom_site_type_symbol
 _atom_site_label
 _atom_site_symmetry_multiplicity
 _atom_site_fract_x
 _atom_site_fract_y
 _atom_site_fract_z
 _atom_site_occupancy
  Mn  Mn0  1  0.000000  0.000000  0.000000  1
  V  V1  1  0.397911  0.397911  0.000000  1
  V  V2  1  0.899655  0.100345  0.500000  1
  V  V3  1  0.100345  0.899655  0.500000  1
  V  V4  1  0.602089  0.602089  0.000000  1
  V  V5  1  0.127932  0.470614  0.000000  1
  V  V6  1  0.964002  0.374507  0.500000  1
  V  V7  1  0.035998  0.625493  0.500000  1
  V  V8  1  0.872068  0.529386  0.000000  1
  V  V9  1  0.374507  0.964002  0.500000  1
  V  V10  1  0.625493  0.035998  0.500000  1
  V  V11  1  0.470614  0.127932  0.000000  1
  V  V12  1  0.529386  0.872068  0.000000  1
  V  V13  1  0.177227  0.177227  0.249589  1
  V  V14  1  0.680811  0.319189  0.755344  1
  V  V15  1  0.319189  0.680811  0.755344  1
  V  V16  1  0.822773  0.822773  0.249589  1
  V  V17  1  0.319189  0.680811  0.244656  1
  V  V18  1  0.680811  0.319189  0.244656  1
  V  V19  1  0.177227  0.177227  0.750411  1
  V  V20  1  0.822773  0.822773  0.750411  1
  Ga  Ga21  1  0.500000  0.500000  0.500000  1
  Ga  Ga22  1  0.260505  0.937068  0.000000  1
  Ga  Ga23  1  0.432145  0.233179  0.500000  1
  Ga  Ga24  1  0.567855  0.766821  0.500000  1
  Ga  Ga25  1  0.739495  0.062932  0.000000  1
  Ga  Ga26  1  0.233179  0.432145  0.500000  1
  Ga  Ga27  1  0.766821  0.567855  0.500000  1
  Ga  Ga28  1  0.937068  0.260505  0.000000  1
  Ga  Ga29  1  0.062932  0.739495  0.000000  1
