# generated using pymatgen
data_CsPaMnS3
_symmetry_space_group_name_H-M   'P 1'
_cell_length_a   8.07467321
_cell_length_b   8.07467206
_cell_length_c   10.36756100
_cell_angle_alpha   90.00092491
_cell_angle_beta   89.99907579
_cell_angle_gamma   151.07184288
_symmetry_Int_Tables_number   1
_chemical_formula_structural   CsPaMnS3
_chemical_formula_sum   'Cs2 Pa2 Mn2 S6'
_cell_volume   326.97444414
_cell_formula_units_Z   2
loop_
 _symmetry_equiv_pos_site_id
 _symmetry_equiv_pos_as_xyz
  1  'x, y, z'
loop_
 _atom_site_type_symbol
 _atom_site_label
 _atom_site_symmetry_multiplicity
 _atom_site_fract_x
 _atom_site_fract_y
 _atom_site_fract_z
 _atom_site_occupancy
  Cs  Cs0  1  0.761056  0.238943  0.250001  1
  Cs  Cs1  1  0.238943  0.761056  0.749999  1
  Pa  Pa2  1  0.499999  0.499999  0.000000  1
  Pa  Pa3  1  0.499999  0.499999  0.499999  1
  Mn  Mn4  1  0.032495  0.967504  0.249999  1
  Mn  Mn5  1  0.967504  0.032495  0.750001  1
  S  S6  1  0.112567  0.887432  0.058054  1
  S  S7  1  0.450016  0.549983  0.250000  1
  S  S8  1  0.112567  0.887432  0.441947  1
  S  S9  1  0.887432  0.112567  0.558053  1
  S  S10  1  0.549983  0.450016  0.750000  1
  S  S11  1  0.887432  0.112567  0.941946  1
