# generated using pymatgen
data_Dy2MnCoSi2C
_symmetry_space_group_name_H-M   'P 1'
_cell_length_a   5.65118142
_cell_length_b   5.65118236
_cell_length_c   6.75908224
_cell_angle_alpha   126.53738970
_cell_angle_beta   126.53739257
_cell_angle_gamma   40.73080186
_symmetry_Int_Tables_number   1
_chemical_formula_structural   Dy2MnCoSi2C
_chemical_formula_sum   'Dy2 Mn1 Co1 Si2 C1'
_cell_volume   108.80190528
_cell_formula_units_Z   1
loop_
 _symmetry_equiv_pos_site_id
 _symmetry_equiv_pos_as_xyz
  1  'x, y, z'
loop_
 _atom_site_type_symbol
 _atom_site_label
 _atom_site_symmetry_multiplicity
 _atom_site_fract_x
 _atom_site_fract_y
 _atom_site_fract_z
 _atom_site_occupancy
  Dy  Dy0  1  0.559368  0.559368  0.293764  1
  Dy  Dy1  1  0.439639  0.439639  0.707028  1
  Mn  Mn2  1  0.200157  0.200157  0.094300  1
  Co  Co3  1  0.796352  0.796352  0.902463  1
  Si  Si4  1  0.841063  0.841063  0.286051  1
  Si  Si5  1  0.160095  0.160095  0.711742  1
  C  C6  1  0.003326  0.003326  0.004653  1
