# generated using pymatgen
data_PrNd7(HoPb3)2
_symmetry_space_group_name_H-M   'P 1'
_cell_length_a   9.34416602
_cell_length_b   9.33760885
_cell_length_c   6.86545602
_cell_angle_alpha   89.99109819
_cell_angle_beta   90.00445388
_cell_angle_gamma   119.97678240
_symmetry_Int_Tables_number   1
_chemical_formula_structural   PrNd7(HoPb3)2
_chemical_formula_sum   'Pr1 Nd7 Ho2 Pb6'
_cell_volume   518.89298266
_cell_formula_units_Z   1
loop_
 _symmetry_equiv_pos_site_id
 _symmetry_equiv_pos_as_xyz
  1  'x, y, z'
loop_
 _atom_site_type_symbol
 _atom_site_label
 _atom_site_symmetry_multiplicity
 _atom_site_fract_x
 _atom_site_fract_y
 _atom_site_fract_z
 _atom_site_occupancy
  Pr  Pr0  1  0.000000  0.760501  0.248360  1
  Nd  Nd1  1  0.333320  0.666682  0.500119  1
  Nd  Nd2  1  0.666680  0.333361  0.500119  1
  Nd  Nd3  1  0.759652  0.759808  0.751739  1
  Nd  Nd4  1  0.240348  0.000157  0.751739  1
  Nd  Nd5  1  0.000000  0.239735  0.751795  1
  Nd  Nd6  1  0.240242  0.240169  0.248262  1
  Nd  Nd7  1  0.759758  0.999927  0.248262  1
  Ho  Ho8  1  0.666638  0.333230  0.999883  1
  Ho  Ho9  1  0.333362  0.666593  0.999883  1
  Pb  Pb10  1  0.396532  0.396594  0.755999  1
  Pb  Pb11  1  0.603468  0.000061  0.755999  1
  Pb  Pb12  1  0.000000  0.603451  0.755969  1
  Pb  Pb13  1  0.602310  0.603012  0.243937  1
  Pb  Pb14  1  0.397690  0.000700  0.243937  1
  Pb  Pb15  1  0.000000  0.396020  0.244001  1
