# generated using pymatgen
data_Er5Tl4AgPt
_symmetry_space_group_name_H-M   'P 1'
_cell_length_a   3.62542800
_cell_length_b   8.14787247
_cell_length_c   18.28723800
_cell_angle_alpha   90.01938017
_cell_angle_beta   90.00000000
_cell_angle_gamma   90.00000000
_symmetry_Int_Tables_number   1
_chemical_formula_structural   Er5Tl4AgPt
_chemical_formula_sum   'Er10 Tl8 Ag2 Pt2'
_cell_volume   540.19629280
_cell_formula_units_Z   2
loop_
 _symmetry_equiv_pos_site_id
 _symmetry_equiv_pos_as_xyz
  1  'x, y, z'
loop_
 _atom_site_type_symbol
 _atom_site_label
 _atom_site_symmetry_multiplicity
 _atom_site_fract_x
 _atom_site_fract_y
 _atom_site_fract_z
 _atom_site_occupancy
  Er  Er0  1  0.000000  0.118784  0.420538  1
  Er  Er1  1  0.000000  0.881216  0.579462  1
  Er  Er2  1  0.000000  0.382852  0.914628  1
  Er  Er3  1  0.000000  0.617148  0.085372  1
  Er  Er4  1  0.000000  0.257826  0.213741  1
  Er  Er5  1  0.000000  0.742174  0.786259  1
  Er  Er6  1  0.000000  0.276294  0.718940  1
  Er  Er7  1  0.000000  0.723706  0.281060  1
  Er  Er8  1  0.000000  0.000000  0.000000  1
  Er  Er9  1  0.000000  0.500000  0.500000  1
  Tl  Tl10  1  0.500000  0.410467  0.354623  1
  Tl  Tl11  1  0.500000  0.589533  0.645377  1
  Tl  Tl12  1  0.500000  0.076977  0.852711  1
  Tl  Tl13  1  0.500000  0.923023  0.147289  1
  Tl  Tl14  1  0.500000  0.294586  0.061074  1
  Tl  Tl15  1  0.500000  0.705414  0.938926  1
  Tl  Tl16  1  0.500000  0.208965  0.567756  1
  Tl  Tl17  1  0.500000  0.791035  0.432244  1
  Ag  Ag18  1  0.500000  0.027990  0.300925  1
  Ag  Ag19  1  0.500000  0.972010  0.699075  1
  Pt  Pt20  1  0.500000  0.470975  0.803598  1
  Pt  Pt21  1  0.500000  0.529025  0.196402  1
