# generated using pymatgen
data_Tb2Co2GePH2
_symmetry_space_group_name_H-M   'P 1'
_cell_length_a   3.81726100
_cell_length_b   3.81726100
_cell_length_c   7.51273400
_cell_angle_alpha   90.00000000
_cell_angle_beta   90.00000000
_cell_angle_gamma   90.00000000
_symmetry_Int_Tables_number   1
_chemical_formula_structural   Tb2Co2GePH2
_chemical_formula_sum   'Tb2 Co2 Ge1 P1 H2'
_cell_volume   109.47166481
_cell_formula_units_Z   1
loop_
 _symmetry_equiv_pos_site_id
 _symmetry_equiv_pos_as_xyz
  1  'x, y, z'
loop_
 _atom_site_type_symbol
 _atom_site_label
 _atom_site_symmetry_multiplicity
 _atom_site_fract_x
 _atom_site_fract_y
 _atom_site_fract_z
 _atom_site_occupancy
  Tb  Tb0  1  0.500000  0.000000  0.335594  1
  Tb  Tb1  1  0.000000  0.500000  0.672773  1
  Co  Co2  1  0.500000  0.500000  0.988496  1
  Co  Co3  1  0.000000  0.000000  0.988496  1
  Ge  Ge4  1  0.000000  0.500000  0.175099  1
  P  P5  1  0.500000  0.000000  0.836457  1
  H  H6  1  0.000000  0.000000  0.501542  1
  H  H7  1  0.500000  0.500000  0.501542  1
