# generated using pymatgen
data_Tb2Pa(GaIr)3
_symmetry_space_group_name_H-M   'P 1'
_cell_length_a   7.25223888
_cell_length_b   7.38324963
_cell_length_c   3.82869100
_cell_angle_alpha   90.00000000
_cell_angle_beta   90.00000000
_cell_angle_gamma   120.59942652
_symmetry_Int_Tables_number   1
_chemical_formula_structural   Tb2Pa(GaIr)3
_chemical_formula_sum   'Tb2 Pa1 Ga3 Ir3'
_cell_volume   176.45970546
_cell_formula_units_Z   1
loop_
 _symmetry_equiv_pos_site_id
 _symmetry_equiv_pos_as_xyz
  1  'x, y, z'
loop_
 _atom_site_type_symbol
 _atom_site_label
 _atom_site_symmetry_multiplicity
 _atom_site_fract_x
 _atom_site_fract_y
 _atom_site_fract_z
 _atom_site_occupancy
  Tb  Tb0  1  0.406675  0.410104  0.500000  1
  Tb  Tb1  1  0.593325  0.003431  0.500000  1
  Pa  Pa2  1  0.000000  0.584696  0.500000  1
  Ga  Ga3  1  0.740288  0.749523  0.000000  1
  Ga  Ga4  1  0.259712  0.009235  0.000000  1
  Ga  Ga5  1  0.000000  0.236225  0.000000  1
  Ir  Ir6  1  0.695029  0.358824  0.000000  1
  Ir  Ir7  1  0.304971  0.663797  0.000000  1
  Ir  Ir8  1  0.000000  0.984164  0.500000  1
