# generated using pymatgen
data_NdY3Th6(Ge3C)2
_symmetry_space_group_name_H-M   'P 1'
_cell_length_a   8.85934500
_cell_length_b   8.85931484
_cell_length_c   6.44255100
_cell_angle_alpha   90.00033907
_cell_angle_beta   89.99989733
_cell_angle_gamma   119.99868339
_symmetry_Int_Tables_number   1
_chemical_formula_structural   NdY3Th6(Ge3C)2
_chemical_formula_sum   'Nd1 Y3 Th6 Ge6 C2'
_cell_volume   437.92123885
_cell_formula_units_Z   1
loop_
 _symmetry_equiv_pos_site_id
 _symmetry_equiv_pos_as_xyz
  1  'x, y, z'
loop_
 _atom_site_type_symbol
 _atom_site_label
 _atom_site_symmetry_multiplicity
 _atom_site_fract_x
 _atom_site_fract_y
 _atom_site_fract_z
 _atom_site_occupancy
  Nd  Nd0  1  0.666646  0.333342  0.500002  1
  Y  Y1  1  0.333355  0.666658  0.500008  1
  Y  Y2  1  0.333347  0.666646  0.000004  1
  Y  Y3  1  0.666648  0.333361  0.000003  1
  Th  Th4  1  0.769743  0.769710  0.249436  1
  Th  Th5  1  0.230271  0.000002  0.249429  1
  Th  Th6  1  0.999941  0.230244  0.249433  1
  Th  Th7  1  0.230289  0.230272  0.750576  1
  Th  Th8  1  0.769761  0.000055  0.750587  1
  Th  Th9  1  0.000013  0.769744  0.750580  1
  Ge  Ge10  1  0.399628  0.403293  0.246500  1
  Ge  Ge11  1  0.596629  0.996312  0.246488  1
  Ge  Ge12  1  0.003620  0.600260  0.246547  1
  Ge  Ge13  1  0.596711  0.600331  0.753450  1
  Ge  Ge14  1  0.399755  0.996391  0.753465  1
  Ge  Ge15  1  0.003632  0.403370  0.753469  1
  C  C16  1  0.000005  0.000004  0.500012  1
  C  C17  1  0.000004  0.000004  0.000010  1
