# generated using pymatgen
data_Ti8GaGeN6
_symmetry_space_group_name_H-M   'P 1'
_cell_length_a   3.01638300
_cell_length_b   3.01638212
_cell_length_c   23.02152700
_cell_angle_alpha   90.00000000
_cell_angle_beta   90.00000000
_cell_angle_gamma   120.00002062
_symmetry_Int_Tables_number   1
_chemical_formula_structural   Ti8GaGeN6
_chemical_formula_sum   'Ti8 Ga1 Ge1 N6'
_cell_volume   181.40009505
_cell_formula_units_Z   1
loop_
 _symmetry_equiv_pos_site_id
 _symmetry_equiv_pos_as_xyz
  1  'x, y, z'
loop_
 _atom_site_type_symbol
 _atom_site_label
 _atom_site_symmetry_multiplicity
 _atom_site_fract_x
 _atom_site_fract_y
 _atom_site_fract_z
 _atom_site_occupancy
  Ti  Ti0  1  0.333333  0.666667  0.445010  1
  Ti  Ti1  1  0.666667  0.333333  0.553646  1
  Ti  Ti2  1  0.000000  0.000000  0.655162  1
  Ti  Ti3  1  0.000000  0.000000  0.157096  1
  Ti  Ti4  1  0.000000  0.000000  0.844838  1
  Ti  Ti5  1  0.666667  0.333333  0.946354  1
  Ti  Ti6  1  0.000000  0.000000  0.342904  1
  Ti  Ti7  1  0.333333  0.666667  0.054990  1
  Ga  Ga8  1  0.666667  0.333333  0.750000  1
  Ge  Ge9  1  0.333333  0.666667  0.250000  1
  N  N10  1  0.666667  0.333333  0.107308  1
  N  N11  1  0.333333  0.666667  0.606588  1
  N  N12  1  0.000000  0.000000  0.499167  1
  N  N13  1  0.666667  0.333333  0.392692  1
  N  N14  1  0.333333  0.666667  0.893412  1
  N  N15  1  0.000000  0.000000  0.000833  1
