# generated using pymatgen
data_LiBi(TeO4)2
_symmetry_space_group_name_H-M   'P 1'
_cell_length_a   6.08197600
_cell_length_b   5.17492388
_cell_length_c   11.03502128
_cell_angle_alpha   68.27332132
_cell_angle_beta   90.00000000
_cell_angle_gamma   90.00000000
_symmetry_Int_Tables_number   1
_chemical_formula_structural   LiBi(TeO4)2
_chemical_formula_sum   'Li2 Bi2 Te4 O16'
_cell_volume   322.64058734
_cell_formula_units_Z   2
loop_
 _symmetry_equiv_pos_site_id
 _symmetry_equiv_pos_as_xyz
  1  'x, y, z'
loop_
 _atom_site_type_symbol
 _atom_site_label
 _atom_site_symmetry_multiplicity
 _atom_site_fract_x
 _atom_site_fract_y
 _atom_site_fract_z
 _atom_site_occupancy
  Li  Li0  1  0.767472  0.000000  0.750000  1
  Li  Li1  1  0.232528  0.000000  0.250000  1
  Bi  Bi2  1  0.383731  0.500000  0.750000  1
  Bi  Bi3  1  0.616269  0.500000  0.250000  1
  Te  Te4  1  0.848844  0.741978  0.507644  1
  Te  Te5  1  0.151156  0.258022  0.492356  1
  Te  Te6  1  0.848844  0.258022  0.992356  1
  Te  Te7  1  0.151156  0.741978  0.007644  1
  O  O8  1  0.892037  0.850707  0.096849  1
  O  O9  1  0.107963  0.149293  0.903151  1
  O  O10  1  0.892037  0.149293  0.403151  1
  O  O11  1  0.107963  0.850707  0.596849  1
  O  O12  1  0.376243  0.728309  0.895026  1
  O  O13  1  0.623757  0.271691  0.104974  1
  O  O14  1  0.376243  0.271691  0.604974  1
  O  O15  1  0.623757  0.728309  0.395026  1
  O  O16  1  0.918772  0.657493  0.892738  1
  O  O17  1  0.081228  0.342507  0.107262  1
  O  O18  1  0.918772  0.342507  0.607262  1
  O  O19  1  0.081228  0.657493  0.392738  1
  O  O20  1  0.665714  0.776850  0.640523  1
  O  O21  1  0.334286  0.223150  0.359477  1
  O  O22  1  0.665714  0.223150  0.859477  1
  O  O23  1  0.334286  0.776850  0.140523  1
