# generated using pymatgen
data_Sr4GdYTa2O12
_symmetry_space_group_name_H-M   'P 1'
_cell_length_a   5.87031814
_cell_length_b   5.96105208
_cell_length_c   8.34144309
_cell_angle_alpha   89.99105319
_cell_angle_beta   90.24398583
_cell_angle_gamma   89.98292376
_symmetry_Int_Tables_number   1
_chemical_formula_structural   Sr4GdYTa2O12
_chemical_formula_sum   'Sr4 Gd1 Y1 Ta2 O12'
_cell_volume   291.89172552
_cell_formula_units_Z   1
loop_
 _symmetry_equiv_pos_site_id
 _symmetry_equiv_pos_as_xyz
  1  'x, y, z'
loop_
 _atom_site_type_symbol
 _atom_site_label
 _atom_site_symmetry_multiplicity
 _atom_site_fract_x
 _atom_site_fract_y
 _atom_site_fract_z
 _atom_site_occupancy
  Sr  Sr0  1  0.990515  0.461657  0.250247  1
  Sr  Sr1  1  0.509479  0.961451  0.250638  1
  Sr  Sr2  1  0.490522  0.038550  0.749362  1
  Sr  Sr3  1  0.009484  0.538343  0.749753  1
  Gd  Gd4  1  0.000000  0.000000  0.000000  1
  Y  Y5  1  0.499999  0.500000  0.499999  1
  Ta  Ta6  1  0.500001  0.500000  0.000000  1
  Ta  Ta7  1  0.000000  0.000000  0.499999  1
  O  O8  1  0.772704  0.694849  0.044011  1
  O  O9  1  0.691485  0.226212  0.047691  1
  O  O10  1  0.414687  0.525498  0.234154  1
  O  O11  1  0.086078  0.025715  0.267471  1
  O  O12  1  0.806473  0.725655  0.452799  1
  O  O13  1  0.726694  0.196796  0.456500  1
  O  O14  1  0.273305  0.803204  0.543500  1
  O  O15  1  0.193528  0.274345  0.547201  1
  O  O16  1  0.913920  0.974285  0.732529  1
  O  O17  1  0.585312  0.474503  0.765846  1
  O  O18  1  0.308515  0.773787  0.952309  1
  O  O19  1  0.227297  0.305151  0.955989  1
