# generated using pymatgen
data_Ce3Nd3Pt7Rh11
_symmetry_space_group_name_H-M   'P 1'
_cell_length_a   5.37886700
_cell_length_b   5.37828086
_cell_length_c   17.67530133
_cell_angle_alpha   90.04086923
_cell_angle_beta   90.00000000
_cell_angle_gamma   120.00359902
_symmetry_Int_Tables_number   1
_chemical_formula_structural   Ce3Nd3Pt7Rh11
_chemical_formula_sum   'Ce3 Nd3 Pt7 Rh11'
_cell_volume   442.80839241
_cell_formula_units_Z   1
loop_
 _symmetry_equiv_pos_site_id
 _symmetry_equiv_pos_as_xyz
  1  'x, y, z'
loop_
 _atom_site_type_symbol
 _atom_site_label
 _atom_site_symmetry_multiplicity
 _atom_site_fract_x
 _atom_site_fract_y
 _atom_site_fract_z
 _atom_site_occupancy
  Ce  Ce0  1  0.333125  0.666252  0.544644  1
  Ce  Ce1  1  0.666036  0.332072  0.043488  1
  Ce  Ce2  1  0.666422  0.332843  0.455614  1
  Nd  Nd3  1  0.332823  0.665649  0.956571  1
  Nd  Nd4  1  0.333311  0.666625  0.750863  1
  Nd  Nd5  1  0.666218  0.332435  0.251026  1
  Pt  Pt6  1  0.169398  0.338794  0.124081  1
  Pt  Pt7  1  0.996333  0.992664  0.251529  1
  Pt  Pt8  1  0.999903  0.999806  0.749373  1
  Pt  Pt9  1  0.334739  0.669480  0.251218  1
  Pt  Pt10  1  0.666961  0.333920  0.749144  1
  Pt  Pt11  1  0.998780  0.997561  0.998531  1
  Pt  Pt12  1  0.000077  0.000153  0.500367  1
  Rh  Rh13  1  0.831131  0.662262  0.623147  1
  Rh  Rh14  1  0.664403  0.835147  0.123738  1
  Rh  Rh15  1  0.170746  0.835147  0.123738  1
  Rh  Rh16  1  0.831207  0.168954  0.623333  1
  Rh  Rh17  1  0.337746  0.168954  0.623333  1
  Rh  Rh18  1  0.830932  0.661863  0.874617  1
  Rh  Rh19  1  0.830456  0.168088  0.874317  1
  Rh  Rh20  1  0.337631  0.168088  0.874317  1
  Rh  Rh21  1  0.661991  0.832242  0.377717  1
  Rh  Rh22  1  0.170251  0.832242  0.377717  1
  Rh  Rh23  1  0.169381  0.338760  0.377576  1
