# generated using pymatgen
data_DyTm15In4(IrRu)2
_symmetry_space_group_name_H-M   'P 1'
_cell_length_a   9.54974105
_cell_length_b   9.54974091
_cell_length_c   9.56494100
_cell_angle_alpha   59.94733035
_cell_angle_beta   59.94733084
_cell_angle_gamma   59.85708928
_symmetry_Int_Tables_number   1
_chemical_formula_structural   DyTm15In4(IrRu)2
_chemical_formula_sum   'Dy1 Tm15 In4 Ir2 Ru2'
_cell_volume   615.64984382
_cell_formula_units_Z   1
loop_
 _symmetry_equiv_pos_site_id
 _symmetry_equiv_pos_as_xyz
  1  'x, y, z'
loop_
 _atom_site_type_symbol
 _atom_site_label
 _atom_site_symmetry_multiplicity
 _atom_site_fract_x
 _atom_site_fract_y
 _atom_site_fract_z
 _atom_site_occupancy
  Dy  Dy0  1  0.191178  0.191178  0.808822  1
  Tm  Tm1  1  0.598601  0.598601  0.599136  1
  Tm  Tm2  1  0.598601  0.598601  0.203662  1
  Tm  Tm3  1  0.597689  0.207676  0.597318  1
  Tm  Tm4  1  0.207676  0.597689  0.597318  1
  Tm  Tm5  1  0.058484  0.442070  0.442904  1
  Tm  Tm6  1  0.442070  0.058484  0.056540  1
  Tm  Tm7  1  0.442070  0.058484  0.442904  1
  Tm  Tm8  1  0.058484  0.442070  0.056540  1
  Tm  Tm9  1  0.441592  0.441592  0.058408  1
  Tm  Tm10  1  0.056257  0.056257  0.443743  1
  Tm  Tm11  1  0.190604  0.806321  0.810170  1
  Tm  Tm12  1  0.806321  0.190604  0.192906  1
  Tm  Tm13  1  0.806321  0.190604  0.810170  1
  Tm  Tm14  1  0.190604  0.806321  0.192906  1
  Tm  Tm15  1  0.809359  0.809359  0.190641  1
  In  In16  1  0.833236  0.833236  0.832232  1
  In  In17  1  0.833236  0.833236  0.501296  1
  In  In18  1  0.833039  0.500086  0.833437  1
  In  In19  1  0.500086  0.833039  0.833437  1
  Ir  Ir20  1  0.392859  0.828919  0.389111  1
  Ir  Ir21  1  0.828919  0.392859  0.389111  1
  Ru  Ru22  1  0.391357  0.391357  0.384986  1
  Ru  Ru23  1  0.391357  0.391357  0.832301  1
