# generated using pymatgen
data_Ba3PrTm2LuO9
_symmetry_space_group_name_H-M   'P 1'
_cell_length_a   9.18876413
_cell_length_b   9.18876259
_cell_length_c   9.18876363
_cell_angle_alpha   39.13692123
_cell_angle_beta   39.13691968
_cell_angle_gamma   39.13691968
_symmetry_Int_Tables_number   1
_chemical_formula_structural   Ba3PrTm2LuO9
_chemical_formula_sum   'Ba3 Pr1 Tm2 Lu1 O9'
_cell_volume   278.03275933
_cell_formula_units_Z   1
loop_
 _symmetry_equiv_pos_site_id
 _symmetry_equiv_pos_as_xyz
  1  'x, y, z'
loop_
 _atom_site_type_symbol
 _atom_site_label
 _atom_site_symmetry_multiplicity
 _atom_site_fract_x
 _atom_site_fract_y
 _atom_site_fract_z
 _atom_site_occupancy
  Ba  Ba0  1  0.001045  0.001045  0.001045  1
  Ba  Ba1  1  0.833381  0.833381  0.833381  1
  Ba  Ba2  1  0.404928  0.404928  0.404928  1
  Pr  Pr3  1  0.573587  0.573587  0.573587  1
  Tm  Tm4  1  0.261290  0.261290  0.261290  1
  Tm  Tm5  1  0.701480  0.701480  0.701480  1
  Lu  Lu6  1  0.135908  0.135908  0.135908  1
  O  O7  1  0.522009  0.438648  0.974444  1
  O  O8  1  0.438648  0.974444  0.522009  1
  O  O9  1  0.974444  0.522009  0.438648  1
  O  O10  1  0.426753  0.263722  0.899295  1
  O  O11  1  0.263722  0.899295  0.426753  1
  O  O12  1  0.899295  0.426753  0.263722  1
  O  O13  1  0.975428  0.413407  0.865177  1
  O  O14  1  0.865177  0.975428  0.413407  1
  O  O15  1  0.413407  0.865177  0.975428  1
