# generated using pymatgen
data_Tb4ThIr2Ru
_symmetry_space_group_name_H-M   'P 1'
_cell_length_a   10.97464400
_cell_length_b   10.93825500
_cell_length_c   6.43996300
_cell_angle_alpha   90.00000000
_cell_angle_beta   90.00000000
_cell_angle_gamma   90.00000000
_symmetry_Int_Tables_number   1
_chemical_formula_structural   Tb4ThIr2Ru
_chemical_formula_sum   'Tb16 Th4 Ir8 Ru4'
_cell_volume   773.07540606
_cell_formula_units_Z   4
loop_
 _symmetry_equiv_pos_site_id
 _symmetry_equiv_pos_as_xyz
  1  'x, y, z'
loop_
 _atom_site_type_symbol
 _atom_site_label
 _atom_site_symmetry_multiplicity
 _atom_site_fract_x
 _atom_site_fract_y
 _atom_site_fract_z
 _atom_site_occupancy
  Tb  Tb0  1  0.589782  0.785552  0.879039  1
  Tb  Tb1  1  0.589782  0.214448  0.379039  1
  Tb  Tb2  1  0.410218  0.785552  0.379039  1
  Tb  Tb3  1  0.410218  0.214448  0.879039  1
  Tb  Tb4  1  0.205253  0.414415  0.618910  1
  Tb  Tb5  1  0.205253  0.585585  0.118910  1
  Tb  Tb6  1  0.794747  0.414415  0.118910  1
  Tb  Tb7  1  0.794747  0.585585  0.618910  1
  Tb  Tb8  1  0.914752  0.704460  0.116485  1
  Tb  Tb9  1  0.914752  0.295540  0.616485  1
  Tb  Tb10  1  0.085248  0.704460  0.616485  1
  Tb  Tb11  1  0.085248  0.295540  0.116485  1
  Tb  Tb12  1  0.000000  0.000000  0.503008  1
  Tb  Tb13  1  0.000000  0.000000  0.003008  1
  Tb  Tb14  1  0.500000  0.500000  0.008831  1
  Tb  Tb15  1  0.500000  0.500000  0.508831  1
  Th  Th16  1  0.295520  0.091166  0.379546  1
  Th  Th17  1  0.295520  0.908834  0.879546  1
  Th  Th18  1  0.704480  0.091166  0.879546  1
  Th  Th19  1  0.704480  0.908834  0.379546  1
  Ir  Ir20  1  0.841610  0.148320  0.246907  1
  Ir  Ir21  1  0.841610  0.851680  0.746907  1
  Ir  Ir22  1  0.158390  0.148320  0.746907  1
  Ir  Ir23  1  0.158390  0.851680  0.246907  1
  Ir  Ir24  1  0.653793  0.346131  0.755209  1
  Ir  Ir25  1  0.653793  0.653869  0.255209  1
  Ir  Ir26  1  0.346207  0.346131  0.255209  1
  Ir  Ir27  1  0.346207  0.653869  0.755209  1
  Ru  Ru28  1  0.500000  0.000000  0.121403  1
  Ru  Ru29  1  0.500000  0.000000  0.621403  1
  Ru  Ru30  1  0.000000  0.500000  0.874565  1
  Ru  Ru31  1  0.000000  0.500000  0.374565  1
