# generated using pymatgen
data_Sr12Ca3Dy(Ru2O9)4
_symmetry_space_group_name_H-M   'P 1'
_cell_length_a   5.80456859
_cell_length_b   9.97291526
_cell_length_c   14.14762667
_cell_angle_alpha   89.85006152
_cell_angle_beta   89.99612838
_cell_angle_gamma   89.94854903
_symmetry_Int_Tables_number   1
_chemical_formula_structural   Sr12Ca3Dy(Ru2O9)4
_chemical_formula_sum   'Sr12 Ca3 Dy1 Ru8 O36'
_cell_volume   818.98133466
_cell_formula_units_Z   1
loop_
 _symmetry_equiv_pos_site_id
 _symmetry_equiv_pos_as_xyz
  1  'x, y, z'
loop_
 _atom_site_type_symbol
 _atom_site_label
 _atom_site_symmetry_multiplicity
 _atom_site_fract_x
 _atom_site_fract_y
 _atom_site_fract_z
 _atom_site_occupancy
  Sr  Sr0  1  0.532978  0.828780  0.415479  1
  Sr  Sr1  1  0.541680  0.492710  0.752619  1
  Sr  Sr2  1  0.964858  0.334187  0.416884  1
  Sr  Sr3  1  0.462748  0.833112  0.911934  1
  Sr  Sr4  1  0.537252  0.166888  0.088066  1
  Sr  Sr5  1  0.042432  0.006637  0.246007  1
  Sr  Sr6  1  0.037511  0.333194  0.911866  1
  Sr  Sr7  1  0.957568  0.993363  0.753993  1
  Sr  Sr8  1  0.467022  0.171220  0.584521  1
  Sr  Sr9  1  0.035142  0.665813  0.583116  1
  Sr  Sr10  1  0.458320  0.507290  0.247381  1
  Sr  Sr11  1  0.962489  0.666806  0.088134  1
  Ca  Ca12  1  0.500000  0.500000  0.000000  1
  Ca  Ca13  1  0.500000  0.500000  0.500000  1
  Ca  Ca14  1  0.000000  0.000000  0.000000  1
  Dy  Dy15  1  0.000000  0.000000  0.500000  1
  Ru  Ru16  1  0.501120  0.828547  0.669286  1
  Ru  Ru17  1  0.997907  0.329302  0.668796  1
  Ru  Ru18  1  0.494643  0.161417  0.831091  1
  Ru  Ru19  1  0.002093  0.670698  0.331204  1
  Ru  Ru20  1  0.005364  0.661599  0.830842  1
  Ru  Ru21  1  0.498880  0.171453  0.330714  1
  Ru  Ru22  1  0.505357  0.838583  0.168909  1
  Ru  Ru23  1  0.994636  0.338401  0.169158  1
  O  O24  1  0.015600  0.795182  0.929409  1
  O  O25  1  0.804296  0.604608  0.431229  1
  O  O26  1  0.771398  0.873988  0.591072  1
  O  O27  1  0.788068  0.261428  0.775253  1
  O  O28  1  0.784449  0.211870  0.250297  1
  O  O29  1  0.196495  0.449265  0.094800  1
  O  O30  1  0.696723  0.050568  0.905482  1
  O  O31  1  0.516205  0.023074  0.723948  1
  O  O32  1  0.712455  0.763584  0.774482  1
  O  O33  1  0.228602  0.126012  0.408928  1
  O  O34  1  0.700209  0.102738  0.432829  1
  O  O35  1  0.015375  0.150560  0.614823  1
  O  O36  1  0.984400  0.204818  0.070591  1
  O  O37  1  0.729184  0.426113  0.119067  1
  O  O38  1  0.016627  0.477650  0.275889  1
  O  O39  1  0.483943  0.295116  0.929831  1
  O  O40  1  0.983373  0.522350  0.724111  1
  O  O41  1  0.713864  0.713384  0.250394  1
  O  O42  1  0.303277  0.949432  0.094518  1
  O  O43  1  0.270816  0.573887  0.880933  1
  O  O44  1  0.287545  0.236416  0.225518  1
  O  O45  1  0.515873  0.346334  0.383674  1
  O  O46  1  0.215551  0.788130  0.749703  1
  O  O47  1  0.211932  0.738572  0.224747  1
  O  O48  1  0.516057  0.704884  0.070169  1
  O  O49  1  0.770652  0.926082  0.118754  1
  O  O50  1  0.483795  0.976926  0.276052  1
  O  O51  1  0.195704  0.395392  0.568771  1
  O  O52  1  0.484127  0.653666  0.616326  1
  O  O53  1  0.730801  0.371541  0.593393  1
  O  O54  1  0.984625  0.849440  0.385177  1
  O  O55  1  0.269199  0.628459  0.406607  1
  O  O56  1  0.286136  0.286616  0.749606  1
  O  O57  1  0.229348  0.073918  0.881246  1
  O  O58  1  0.299791  0.897262  0.567171  1
  O  O59  1  0.803505  0.550735  0.905200  1
