# generated using pymatgen
data_Y8Cd2CoRu
_symmetry_space_group_name_H-M   'P 1'
_cell_length_a   9.69491857
_cell_length_b   9.61272516
_cell_length_c   9.61270207
_cell_angle_alpha   59.48601139
_cell_angle_beta   59.71682562
_cell_angle_gamma   59.71659599
_symmetry_Int_Tables_number   1
_chemical_formula_structural   Y8Cd2CoRu
_chemical_formula_sum   'Y16 Cd4 Co2 Ru2'
_cell_volume   628.27134001
_cell_formula_units_Z   2
loop_
 _symmetry_equiv_pos_site_id
 _symmetry_equiv_pos_as_xyz
  1  'x, y, z'
loop_
 _atom_site_type_symbol
 _atom_site_label
 _atom_site_symmetry_multiplicity
 _atom_site_fract_x
 _atom_site_fract_y
 _atom_site_fract_z
 _atom_site_occupancy
  Y  Y0  1  0.440640  0.437180  0.056728  1
  Y  Y1  1  0.590096  0.599418  0.599420  1
  Y  Y2  1  0.187063  0.812937  0.812937  1
  Y  Y3  1  0.065453  0.056728  0.437180  1
  Y  Y4  1  0.440244  0.059756  0.059756  1
  Y  Y5  1  0.814006  0.188676  0.809337  1
  Y  Y6  1  0.440641  0.056728  0.437180  1
  Y  Y7  1  0.593468  0.209693  0.603370  1
  Y  Y8  1  0.814006  0.809339  0.188676  1
  Y  Y9  1  0.211065  0.599420  0.599418  1
  Y  Y10  1  0.809430  0.190570  0.190570  1
  Y  Y11  1  0.061301  0.438699  0.438699  1
  Y  Y12  1  0.187981  0.809337  0.188676  1
  Y  Y13  1  0.593469  0.603370  0.209693  1
  Y  Y14  1  0.187980  0.188676  0.809339  1
  Y  Y15  1  0.065451  0.437180  0.056728  1
  Cd  Cd16  1  0.830961  0.829348  0.508729  1
  Cd  Cd17  1  0.831314  0.829710  0.829711  1
  Cd  Cd18  1  0.509263  0.829711  0.829710  1
  Cd  Cd19  1  0.830961  0.508729  0.829348  1
  Co  Co20  1  0.388454  0.829772  0.393322  1
  Co  Co21  1  0.388452  0.393322  0.829772  1
  Ru  Ru22  1  0.388821  0.390851  0.390851  1
  Ru  Ru23  1  0.829479  0.390851  0.390851  1
