# generated using pymatgen
data_Y2SnAs4(PRh6)2
_symmetry_space_group_name_H-M   'P 1'
_cell_length_a   9.98795472
_cell_length_b   10.02749402
_cell_length_c   3.93321597
_cell_angle_alpha   89.29405136
_cell_angle_beta   90.73616678
_cell_angle_gamma   120.67819734
_symmetry_Int_Tables_number   1
_chemical_formula_structural   Y2SnAs4(PRh6)2
_chemical_formula_sum   'Y2 Sn1 As4 P2 Rh12'
_cell_volume   338.76075098
_cell_formula_units_Z   1
loop_
 _symmetry_equiv_pos_site_id
 _symmetry_equiv_pos_as_xyz
  1  'x, y, z'
loop_
 _atom_site_type_symbol
 _atom_site_label
 _atom_site_symmetry_multiplicity
 _atom_site_fract_x
 _atom_site_fract_y
 _atom_site_fract_z
 _atom_site_occupancy
  Y  Y0  1  0.331976  0.667764  0.753547  1
  Y  Y1  1  0.662283  0.329292  0.241233  1
  Sn  Sn2  1  0.001812  0.000300  0.555458  1
  As  As3  1  0.399391  0.283910  0.738972  1
  As  As4  1  0.714620  0.121890  0.747732  1
  As  As5  1  0.880155  0.592231  0.743606  1
  As  As6  1  0.592957  0.710293  0.255491  1
  P  P7  1  0.289528  0.881730  0.245197  1
  P  P8  1  0.118772  0.408813  0.255918  1
  Rh  Rh9  1  0.446278  0.059690  0.737283  1
  Rh  Rh10  1  0.942419  0.390527  0.744608  1
  Rh  Rh11  1  0.613429  0.549954  0.748716  1
  Rh  Rh12  1  0.543365  0.933834  0.249350  1
  Rh  Rh13  1  0.077283  0.617300  0.246443  1
  Rh  Rh14  1  0.374821  0.446166  0.253156  1
  Rh  Rh15  1  0.152337  0.290857  0.764209  1
  Rh  Rh16  1  0.714401  0.879035  0.762107  1
  Rh  Rh17  1  0.132390  0.838512  0.744443  1
  Rh  Rh18  1  0.848942  0.723429  0.236921  1
  Rh  Rh19  1  0.274187  0.107507  0.227264  1
  Rh  Rh20  1  0.888654  0.166967  0.248346  1
