# generated using pymatgen
data_CeLu2Fe6(CoP2)3
_symmetry_space_group_name_H-M   'P 1'
_cell_length_a   3.69142500
_cell_length_b   10.56566500
_cell_length_c   12.01694200
_cell_angle_alpha   90.00000000
_cell_angle_beta   90.00000000
_cell_angle_gamma   90.00000000
_symmetry_Int_Tables_number   1
_chemical_formula_structural   CeLu2Fe6(CoP2)3
_chemical_formula_sum   'Ce2 Lu4 Fe12 Co6 P12'
_cell_volume   468.68909705
_cell_formula_units_Z   2
loop_
 _symmetry_equiv_pos_site_id
 _symmetry_equiv_pos_as_xyz
  1  'x, y, z'
loop_
 _atom_site_type_symbol
 _atom_site_label
 _atom_site_symmetry_multiplicity
 _atom_site_fract_x
 _atom_site_fract_y
 _atom_site_fract_z
 _atom_site_occupancy
  Ce  Ce0  1  0.000000  0.500000  0.528240  1
  Ce  Ce1  1  0.500000  0.000000  0.471760  1
  Lu  Lu2  1  0.500000  0.818141  0.203535  1
  Lu  Lu3  1  0.500000  0.181859  0.203535  1
  Lu  Lu4  1  0.000000  0.681859  0.796465  1
  Lu  Lu5  1  0.000000  0.318141  0.796465  1
  Fe  Fe6  1  0.500000  0.500000  0.154347  1
  Fe  Fe7  1  0.000000  0.000000  0.845653  1
  Fe  Fe8  1  0.000000  0.500000  0.987816  1
  Fe  Fe9  1  0.500000  0.000000  0.012184  1
  Fe  Fe10  1  0.500000  0.332126  0.995331  1
  Fe  Fe11  1  0.500000  0.667874  0.995331  1
  Fe  Fe12  1  0.000000  0.167874  0.004669  1
  Fe  Fe13  1  0.000000  0.832126  0.004669  1
  Fe  Fe14  1  0.500000  0.300213  0.428030  1
  Fe  Fe15  1  0.500000  0.699787  0.428030  1
  Fe  Fe16  1  0.000000  0.199787  0.571970  1
  Fe  Fe17  1  0.000000  0.800213  0.571970  1
  Co  Co18  1  0.500000  0.500000  0.700725  1
  Co  Co19  1  0.000000  0.000000  0.299275  1
  Co  Co20  1  0.500000  0.880828  0.713368  1
  Co  Co21  1  0.500000  0.119172  0.713368  1
  Co  Co22  1  0.000000  0.619172  0.286632  1
  Co  Co23  1  0.000000  0.380828  0.286632  1
  P  P24  1  0.500000  0.500000  0.883999  1
  P  P25  1  0.000000  0.000000  0.116001  1
  P  P26  1  0.500000  0.500000  0.341185  1
  P  P27  1  0.000000  0.000000  0.658815  1
  P  P28  1  0.500000  0.304101  0.616445  1
  P  P29  1  0.500000  0.695899  0.616445  1
  P  P30  1  0.000000  0.195899  0.383555  1
  P  P31  1  0.000000  0.804101  0.383555  1
  P  P32  1  0.500000  0.845536  0.895185  1
  P  P33  1  0.500000  0.154464  0.895185  1
  P  P34  1  0.000000  0.654464  0.104815  1
  P  P35  1  0.000000  0.345536  0.104815  1
