# generated using pymatgen
data_Ba6LaTb(BO3)6
_symmetry_space_group_name_H-M   'P 1'
_cell_length_a   8.29215956
_cell_length_b   8.29216061
_cell_length_c   8.29216034
_cell_angle_alpha   105.56791107
_cell_angle_beta   105.56790817
_cell_angle_gamma   105.56790325
_symmetry_Int_Tables_number   1
_chemical_formula_structural   Ba6LaTb(BO3)6
_chemical_formula_sum   'Ba6 La1 Tb1 B6 O18'
_cell_volume   492.21549890
_cell_formula_units_Z   1
loop_
 _symmetry_equiv_pos_site_id
 _symmetry_equiv_pos_as_xyz
  1  'x, y, z'
loop_
 _atom_site_type_symbol
 _atom_site_label
 _atom_site_symmetry_multiplicity
 _atom_site_fract_x
 _atom_site_fract_y
 _atom_site_fract_z
 _atom_site_occupancy
  Ba  Ba0  1  0.352597  0.733403  0.843264  1
  Ba  Ba1  1  0.843264  0.352597  0.733403  1
  Ba  Ba2  1  0.733403  0.843264  0.352597  1
  Ba  Ba3  1  0.647403  0.266597  0.156736  1
  Ba  Ba4  1  0.156736  0.647403  0.266597  1
  Ba  Ba5  1  0.266597  0.156736  0.647403  1
  La  La6  1  0.000000  0.000000  0.000000  1
  Tb  Tb7  1  0.500000  0.500000  0.500000  1
  B  B8  1  0.705636  0.618334  0.956309  1
  B  B9  1  0.956309  0.705636  0.618334  1
  B  B10  1  0.618334  0.956309  0.705636  1
  B  B11  1  0.043691  0.294364  0.381666  1
  B  B12  1  0.381666  0.043691  0.294364  1
  B  B13  1  0.294364  0.381666  0.043691  1
  O  O14  1  0.059785  0.804997  0.548160  1
  O  O15  1  0.548160  0.059785  0.804997  1
  O  O16  1  0.427144  0.493562  0.213082  1
  O  O17  1  0.493562  0.213082  0.427144  1
  O  O18  1  0.213082  0.427144  0.493562  1
  O  O19  1  0.786918  0.572856  0.506438  1
  O  O20  1  0.572856  0.506438  0.786918  1
  O  O21  1  0.506438  0.786918  0.572856  1
  O  O22  1  0.268280  0.198401  0.982472  1
  O  O23  1  0.198401  0.982472  0.268280  1
  O  O24  1  0.982472  0.268280  0.198401  1
  O  O25  1  0.731720  0.801599  0.017528  1
  O  O26  1  0.801599  0.017528  0.731720  1
  O  O27  1  0.017528  0.731720  0.801599  1
  O  O28  1  0.195003  0.451840  0.940215  1
  O  O29  1  0.451840  0.940215  0.195003  1
  O  O30  1  0.940215  0.195003  0.451840  1
  O  O31  1  0.804997  0.548160  0.059785  1
