# generated using pymatgen
data_V6Ga3NiN2
_symmetry_space_group_name_H-M   'P 1'
_cell_length_a   6.55426196
_cell_length_b   6.55678361
_cell_length_c   6.55564800
_cell_angle_alpha   90.00000000
_cell_angle_beta   90.00000000
_cell_angle_gamma   90.16935104
_symmetry_Int_Tables_number   1
_chemical_formula_structural   V6Ga3NiN2
_chemical_formula_sum   'V12 Ga6 Ni2 N4'
_cell_volume   281.72693873
_cell_formula_units_Z   2
loop_
 _symmetry_equiv_pos_site_id
 _symmetry_equiv_pos_as_xyz
  1  'x, y, z'
loop_
 _atom_site_type_symbol
 _atom_site_label
 _atom_site_symmetry_multiplicity
 _atom_site_fract_x
 _atom_site_fract_y
 _atom_site_fract_z
 _atom_site_occupancy
  V  V0  1  0.791464  0.960570  0.375482  1
  V  V1  1  0.708536  0.039430  0.875482  1
  V  V2  1  0.210434  0.458759  0.125965  1
  V  V3  1  0.289566  0.541241  0.625965  1
  V  V4  1  0.961472  0.376678  0.789515  1
  V  V5  1  0.041428  0.873462  0.709734  1
  V  V6  1  0.458572  0.126538  0.209734  1
  V  V7  1  0.538528  0.623322  0.289515  1
  V  V8  1  0.376028  0.790104  0.960770  1
  V  V9  1  0.873919  0.710414  0.040884  1
  V  V10  1  0.123972  0.209896  0.460770  1
  V  V11  1  0.626081  0.289586  0.540884  1
  Ga  Ga12  1  0.822312  0.319749  0.177986  1
  Ga  Ga13  1  0.677688  0.680251  0.677986  1
  Ga  Ga14  1  0.557821  0.419087  0.925675  1
  Ga  Ga15  1  0.417604  0.936232  0.569121  1
  Ga  Ga16  1  0.942179  0.580913  0.425675  1
  Ga  Ga17  1  0.082396  0.063768  0.069121  1
  Ni  Ni18  1  0.183425  0.823814  0.318697  1
  Ni  Ni19  1  0.316575  0.176186  0.818697  1
  N  N20  1  0.877664  0.122833  0.627347  1
  N  N21  1  0.622336  0.877167  0.127347  1
  N  N22  1  0.126245  0.625373  0.878824  1
  N  N23  1  0.373755  0.374627  0.378824  1
