# generated using pymatgen
data_Dy12Si12Pt3Au
_symmetry_space_group_name_H-M   'P 1'
_cell_length_a   4.25718100
_cell_length_b   10.74285220
_cell_length_c   12.37865923
_cell_angle_alpha   90.02199115
_cell_angle_beta   90.00000000
_cell_angle_gamma   90.00000000
_symmetry_Int_Tables_number   1
_chemical_formula_structural   Dy12Si12Pt3Au
_chemical_formula_sum   'Dy12 Si12 Pt3 Au1'
_cell_volume   566.12885540
_cell_formula_units_Z   1
loop_
 _symmetry_equiv_pos_site_id
 _symmetry_equiv_pos_as_xyz
  1  'x, y, z'
loop_
 _atom_site_type_symbol
 _atom_site_label
 _atom_site_symmetry_multiplicity
 _atom_site_fract_x
 _atom_site_fract_y
 _atom_site_fract_z
 _atom_site_occupancy
  Dy  Dy0  1  0.250000  0.879002  0.021499  1
  Dy  Dy1  1  0.250000  0.623494  0.519734  1
  Dy  Dy2  1  0.750000  0.120445  0.980442  1
  Dy  Dy3  1  0.750000  0.378945  0.477498  1
  Dy  Dy4  1  0.250000  0.919615  0.600856  1
  Dy  Dy5  1  0.250000  0.580771  0.101909  1
  Dy  Dy6  1  0.750000  0.080164  0.397831  1
  Dy  Dy7  1  0.750000  0.419578  0.899349  1
  Dy  Dy8  1  0.250000  0.665339  0.803156  1
  Dy  Dy9  1  0.250000  0.839467  0.301227  1
  Dy  Dy10  1  0.750000  0.339043  0.197899  1
  Dy  Dy11  1  0.750000  0.158247  0.698509  1
  Si  Si12  1  0.250000  0.014249  0.822742  1
  Si  Si13  1  0.250000  0.484200  0.323879  1
  Si  Si14  1  0.750000  0.984021  0.177597  1
  Si  Si15  1  0.750000  0.524324  0.675939  1
  Si  Si16  1  0.250000  0.241022  0.847793  1
  Si  Si17  1  0.250000  0.253794  0.341871  1
  Si  Si18  1  0.750000  0.754724  0.157329  1
  Si  Si19  1  0.750000  0.748817  0.656820  1
  Si  Si20  1  0.250000  0.186862  0.535420  1
  Si  Si21  1  0.250000  0.304706  0.041377  1
  Si  Si22  1  0.750000  0.804572  0.459209  1
  Si  Si23  1  0.750000  0.695338  0.960600  1
  Pt  Pt24  1  0.250000  0.109949  0.181304  1
  Pt  Pt25  1  0.750000  0.610541  0.317638  1
  Pt  Pt26  1  0.750000  0.889584  0.818312  1
  Au  Au27  1  0.250000  0.389186  0.682265  1
