# generated using pymatgen
data_Yb2MnWO6
_symmetry_space_group_name_H-M   'P 1'
_cell_length_a   5.44557341
_cell_length_b   5.69580600
_cell_length_c   7.82705575
_cell_angle_alpha   89.99992972
_cell_angle_beta   90.51340981
_cell_angle_gamma   89.99975285
_symmetry_Int_Tables_number   1
_chemical_formula_structural   Yb2MnWO6
_chemical_formula_sum   'Yb4 Mn2 W2 O12'
_cell_volume   242.76149145
_cell_formula_units_Z   2
loop_
 _symmetry_equiv_pos_site_id
 _symmetry_equiv_pos_as_xyz
  1  'x, y, z'
loop_
 _atom_site_type_symbol
 _atom_site_label
 _atom_site_symmetry_multiplicity
 _atom_site_fract_x
 _atom_site_fract_y
 _atom_site_fract_z
 _atom_site_occupancy
  Yb  Yb0  1  0.982752  0.060972  0.253966  1
  Yb  Yb1  1  0.517259  0.560985  0.246029  1
  Yb  Yb2  1  0.017229  0.939007  0.746030  1
  Yb  Yb3  1  0.482783  0.439021  0.753964  1
  Mn  Mn4  1  0.000122  0.499995  0.499955  1
  Mn  Mn5  1  0.499754  0.000140  0.000035  1
  W  W6  1  0.500015  0.000008  0.500008  1
  W  W7  1  0.999977  0.500030  0.000012  1
  O  O8  1  0.679015  0.285216  0.436846  1
  O  O9  1  0.820990  0.785226  0.063153  1
  O  O10  1  0.321030  0.714766  0.563161  1
  O  O11  1  0.178972  0.214776  0.936837  1
  O  O12  1  0.208582  0.184763  0.551620  1
  O  O13  1  0.291446  0.684773  0.948385  1
  O  O14  1  0.791460  0.815191  0.448388  1
  O  O15  1  0.708569  0.315201  0.051618  1
  O  O16  1  0.110565  0.456752  0.236003  1
  O  O17  1  0.389460  0.956757  0.263991  1
  O  O18  1  0.610547  0.043212  0.736024  1
  O  O19  1  0.889475  0.543210  0.763973  1
