# generated using pymatgen
data_Dy5Ho12Lu3Sn16
_symmetry_space_group_name_H-M   'P 1'
_cell_length_a   8.00426265
_cell_length_b   8.13552826
_cell_length_c   15.39790800
_cell_angle_alpha   90.00107048
_cell_angle_beta   89.92615642
_cell_angle_gamma   89.98554985
_symmetry_Int_Tables_number   1
_chemical_formula_structural   Dy5Ho12Lu3Sn16
_chemical_formula_sum   'Dy5 Ho12 Lu3 Sn16'
_cell_volume   1002.69404300
_cell_formula_units_Z   1
loop_
 _symmetry_equiv_pos_site_id
 _symmetry_equiv_pos_as_xyz
  1  'x, y, z'
loop_
 _atom_site_type_symbol
 _atom_site_label
 _atom_site_symmetry_multiplicity
 _atom_site_fract_x
 _atom_site_fract_y
 _atom_site_fract_z
 _atom_site_occupancy
  Dy  Dy0  1  0.979548  0.820723  0.096933  1
  Dy  Dy1  1  0.479706  0.678824  0.096823  1
  Dy  Dy2  1  0.979150  0.821055  0.403115  1
  Dy  Dy3  1  0.520816  0.320848  0.596752  1
  Dy  Dy4  1  0.019898  0.179131  0.903399  1
  Ho  Ho5  1  0.367076  0.837462  0.877363  1
  Ho  Ho6  1  0.867374  0.662657  0.622319  1
  Ho  Ho7  1  0.632307  0.162540  0.377492  1
  Ho  Ho8  1  0.132849  0.337534  0.122862  1
  Ho  Ho9  1  0.632650  0.162424  0.122788  1
  Ho  Ho10  1  0.132037  0.337622  0.377424  1
  Ho  Ho11  1  0.368313  0.837763  0.622443  1
  Ho  Ho12  1  0.867095  0.662618  0.877378  1
  Ho  Ho13  1  0.521212  0.320738  0.902905  1
  Ho  Ho14  1  0.021501  0.178953  0.597148  1
  Ho  Ho15  1  0.478318  0.678887  0.402743  1
  Ho  Ho16  1  0.198550  0.503274  0.749881  1
  Lu  Lu17  1  0.698838  0.996423  0.749952  1
  Lu  Lu18  1  0.801279  0.496501  0.250079  1
  Lu  Lu19  1  0.301427  0.003632  0.250149  1
  Sn  Sn20  1  0.293829  0.037383  0.042079  1
  Sn  Sn21  1  0.792595  0.463313  0.457761  1
  Sn  Sn22  1  0.707508  0.963510  0.542039  1
  Sn  Sn23  1  0.207005  0.536994  0.958491  1
  Sn  Sn24  1  0.705645  0.962422  0.958201  1
  Sn  Sn25  1  0.207091  0.537984  0.541283  1
  Sn  Sn26  1  0.293205  0.037454  0.458080  1
  Sn  Sn27  1  0.793593  0.461777  0.041762  1
  Sn  Sn28  1  0.565135  0.618535  0.749910  1
  Sn  Sn29  1  0.063987  0.882135  0.749789  1
  Sn  Sn30  1  0.435876  0.381392  0.250149  1
  Sn  Sn31  1  0.935680  0.118556  0.250114  1
  Sn  Sn32  1  0.331104  0.148150  0.750193  1
  Sn  Sn33  1  0.830520  0.350597  0.749740  1
  Sn  Sn34  1  0.668474  0.850697  0.250350  1
  Sn  Sn35  1  0.168810  0.649492  0.250111  1
