# generated using pymatgen
data_CeU2(AlIr)3
_symmetry_space_group_name_H-M   'P 1'
_cell_length_a   7.03887113
_cell_length_b   7.03887091
_cell_length_c   4.08706400
_cell_angle_alpha   90.00000000
_cell_angle_beta   90.00000000
_cell_angle_gamma   120.99647659
_symmetry_Int_Tables_number   1
_chemical_formula_structural   CeU2(AlIr)3
_chemical_formula_sum   'Ce1 U2 Al3 Ir3'
_cell_volume   173.57976419
_cell_formula_units_Z   1
loop_
 _symmetry_equiv_pos_site_id
 _symmetry_equiv_pos_as_xyz
  1  'x, y, z'
loop_
 _atom_site_type_symbol
 _atom_site_label
 _atom_site_symmetry_multiplicity
 _atom_site_fract_x
 _atom_site_fract_y
 _atom_site_fract_z
 _atom_site_occupancy
  Ce  Ce0  1  0.421210  0.421210  0.500000  1
  U  U1  1  0.580204  0.001136  0.500000  1
  U  U2  1  0.001136  0.580204  0.500000  1
  Al  Al3  1  0.758081  0.758081  0.000000  1
  Al  Al4  1  0.234097  0.002259  0.000000  1
  Al  Al5  1  0.002259  0.234097  0.000000  1
  Ir  Ir6  1  0.684918  0.331571  0.000000  1
  Ir  Ir7  1  0.331571  0.684918  0.000000  1
  Ir  Ir8  1  0.986523  0.986523  0.500000  1
