# generated using pymatgen
data_PaReB3
_symmetry_space_group_name_H-M   'P 1'
_cell_length_a   5.15853200
_cell_length_b   5.15853171
_cell_length_c   5.14804500
_cell_angle_alpha   90.00000000
_cell_angle_beta   90.00000000
_cell_angle_gamma   119.99998904
_symmetry_Int_Tables_number   1
_chemical_formula_structural   PaReB3
_chemical_formula_sum   'Pa2 Re2 B6'
_cell_volume   118.63839087
_cell_formula_units_Z   2
loop_
 _symmetry_equiv_pos_site_id
 _symmetry_equiv_pos_as_xyz
  1  'x, y, z'
loop_
 _atom_site_type_symbol
 _atom_site_label
 _atom_site_symmetry_multiplicity
 _atom_site_fract_x
 _atom_site_fract_y
 _atom_site_fract_z
 _atom_site_occupancy
  Pa  Pa0  1  0.666667  0.333333  0.750000  1
  Pa  Pa1  1  0.333333  0.666667  0.250000  1
  Re  Re2  1  0.000000  0.000000  0.500000  1
  Re  Re3  1  0.000000  0.000000  0.000000  1
  B  B4  1  0.220814  0.441629  0.750000  1
  B  B5  1  0.779186  0.220814  0.250000  1
  B  B6  1  0.441629  0.220814  0.250000  1
  B  B7  1  0.558371  0.779186  0.750000  1
  B  B8  1  0.779186  0.558371  0.250000  1
  B  B9  1  0.220814  0.779186  0.750000  1
