# generated using pymatgen
data_Sm(TmPt)4
_symmetry_space_group_name_H-M   'P 1'
_cell_length_a   7.47780000
_cell_length_b   7.54420508
_cell_length_c   14.67757900
_cell_angle_alpha   89.99200281
_cell_angle_beta   89.99803850
_cell_angle_gamma   89.94092834
_symmetry_Int_Tables_number   1
_chemical_formula_structural   Sm(TmPt)4
_chemical_formula_sum   'Sm4 Tm16 Pt16'
_cell_volume   828.02132681
_cell_formula_units_Z   4
loop_
 _symmetry_equiv_pos_site_id
 _symmetry_equiv_pos_as_xyz
  1  'x, y, z'
loop_
 _atom_site_type_symbol
 _atom_site_label
 _atom_site_symmetry_multiplicity
 _atom_site_fract_x
 _atom_site_fract_y
 _atom_site_fract_z
 _atom_site_occupancy
  Sm  Sm0  1  0.499936  0.677957  0.092849  1
  Sm  Sm1  1  0.500570  0.323177  0.592542  1
  Sm  Sm2  1  0.000767  0.177415  0.907574  1
  Sm  Sm3  1  0.000484  0.176253  0.592836  1
  Tm  Tm4  1  0.503060  0.319824  0.905993  1
  Tm  Tm5  1  0.497398  0.681486  0.405870  1
  Tm  Tm6  1  0.997299  0.819298  0.094361  1
  Tm  Tm7  1  0.681402  0.989913  0.250594  1
  Tm  Tm8  1  0.180993  0.510197  0.250806  1
  Tm  Tm9  1  0.818846  0.490479  0.750607  1
  Tm  Tm10  1  0.319727  0.009663  0.750595  1
  Tm  Tm11  1  0.654469  0.831613  0.622101  1
  Tm  Tm12  1  0.156032  0.667395  0.878293  1
  Tm  Tm13  1  0.842871  0.333012  0.377418  1
  Tm  Tm14  1  0.343805  0.167496  0.122593  1
  Tm  Tm15  1  0.342197  0.165990  0.377252  1
  Tm  Tm16  1  0.844033  0.333043  0.123498  1
  Tm  Tm17  1  0.154801  0.668022  0.622123  1
  Tm  Tm18  1  0.656088  0.832996  0.877467  1
  Tm  Tm19  1  0.997449  0.818337  0.405999  1
  Pt  Pt20  1  0.819318  0.643571  0.251395  1
  Pt  Pt21  1  0.315082  0.858563  0.252137  1
  Pt  Pt22  1  0.682048  0.141458  0.751555  1
  Pt  Pt23  1  0.185592  0.360546  0.750546  1
  Pt  Pt24  1  0.547207  0.383069  0.251189  1
  Pt  Pt25  1  0.045777  0.115653  0.250265  1
  Pt  Pt26  1  0.953047  0.880571  0.749864  1
  Pt  Pt27  1  0.453746  0.618439  0.750770  1
  Pt  Pt28  1  0.819332  0.540095  0.539696  1
  Pt  Pt29  1  0.320126  0.966368  0.957991  1
  Pt  Pt30  1  0.684756  0.028583  0.455511  1
  Pt  Pt31  1  0.179228  0.466777  0.042639  1
  Pt  Pt32  1  0.182971  0.472088  0.455105  1
  Pt  Pt33  1  0.683769  0.035368  0.042333  1
  Pt  Pt34  1  0.320214  0.960506  0.539696  1
  Pt  Pt35  1  0.815567  0.534781  0.957937  1
