# generated using pymatgen
data_PaH6Ru
_symmetry_space_group_name_H-M   'P 1'
_cell_length_a   4.56190199
_cell_length_b   4.56190295
_cell_length_c   4.56343669
_cell_angle_alpha   58.29364177
_cell_angle_beta   58.29362908
_cell_angle_gamma   58.28051708
_symmetry_Int_Tables_number   1
_chemical_formula_structural   PaH6Ru
_chemical_formula_sum   'Pa1 H6 Ru1'
_cell_volume   64.52244456
_cell_formula_units_Z   1
loop_
 _symmetry_equiv_pos_site_id
 _symmetry_equiv_pos_as_xyz
  1  'x, y, z'
loop_
 _atom_site_type_symbol
 _atom_site_label
 _atom_site_symmetry_multiplicity
 _atom_site_fract_x
 _atom_site_fract_y
 _atom_site_fract_z
 _atom_site_occupancy
  Pa  Pa0  1  0.500000  0.500000  0.500000  1
  H  H1  1  0.548513  0.104536  0.104565  1
  H  H2  1  0.104536  0.548513  0.104565  1
  H  H3  1  0.895575  0.895575  0.451318  1
  H  H4  1  0.104425  0.104425  0.548681  1
  H  H5  1  0.895464  0.451486  0.895435  1
  H  H6  1  0.451486  0.895464  0.895435  1
  Ru  Ru7  1  0.000000  0.000000  0.000000  1
