# generated using pymatgen
data_Pr11NdSi2(PBr6)2
_symmetry_space_group_name_H-M   'P 1'
_cell_length_a   10.43171689
_cell_length_b   10.42679048
_cell_length_c   10.44888959
_cell_angle_alpha   109.44893240
_cell_angle_beta   109.49422289
_cell_angle_gamma   109.38834072
_symmetry_Int_Tables_number   1
_chemical_formula_structural   Pr11NdSi2(PBr6)2
_chemical_formula_sum   'Pr11 Nd1 Si2 P2 Br12'
_cell_volume   875.77797467
_cell_formula_units_Z   1
loop_
 _symmetry_equiv_pos_site_id
 _symmetry_equiv_pos_as_xyz
  1  'x, y, z'
loop_
 _atom_site_type_symbol
 _atom_site_label
 _atom_site_symmetry_multiplicity
 _atom_site_fract_x
 _atom_site_fract_y
 _atom_site_fract_z
 _atom_site_occupancy
  Pr  Pr0  1  0.753195  0.238294  0.264410  1
  Pr  Pr1  1  0.753108  0.014660  0.488754  1
  Pr  Pr2  1  0.235795  0.474027  0.488739  1
  Pr  Pr3  1  0.261981  0.746969  0.235695  1
  Pr  Pr4  1  0.025990  0.264283  0.011223  1
  Pr  Pr5  1  0.011588  0.026378  0.264304  1
  Pr  Pr6  1  0.485422  0.747005  0.011412  1
  Pr  Pr7  1  0.489268  0.239257  0.478184  1
  Pr  Pr8  1  0.015505  0.485028  0.750368  1
  Pr  Pr9  1  0.260995  0.010998  0.021882  1
  Pr  Pr10  1  0.234892  0.265193  0.750027  1
  Nd  Nd11  1  0.472254  0.487912  0.234997  1
  Si  Si12  1  0.250114  0.251010  0.250105  1
  Si  Si13  1  0.500529  0.999644  0.250055  1
  P  P14  1  0.000402  0.250384  0.500728  1
  P  P15  1  0.250312  0.499596  0.999807  1
  Br  Br16  1  0.249822  0.754337  0.744592  1
  Br  Br17  1  0.509752  0.505198  0.755506  1
  Br  Br18  1  0.989432  0.744017  0.994390  1
  Br  Br19  1  0.745849  0.250288  0.755485  1
  Br  Br20  1  0.994946  0.990355  0.744649  1
  Br  Br21  1  0.249768  0.995093  0.505706  1
  Br  Br22  1  0.754670  0.510572  0.503984  1
  Br  Br23  1  0.505320  0.252642  0.996431  1
  Br  Br24  1  0.753773  0.743402  0.250271  1
  Br  Br25  1  0.745107  0.995127  0.990150  1
  Br  Br26  1  0.994891  0.505252  0.249970  1
  Br  Br27  1  0.505319  0.753083  0.508176  1
