# generated using pymatgen
data_HoLuPaCo2
_symmetry_space_group_name_H-M   'P 1'
_cell_length_a   3.60384781
_cell_length_b   5.92961699
_cell_length_c   5.92961553
_cell_angle_alpha   61.16485574
_cell_angle_beta   72.30888256
_cell_angle_gamma   72.30887813
_symmetry_Int_Tables_number   1
_chemical_formula_structural   HoLuPaCo2
_chemical_formula_sum   'Ho1 Lu1 Pa1 Co2'
_cell_volume   103.85623892
_cell_formula_units_Z   1
loop_
 _symmetry_equiv_pos_site_id
 _symmetry_equiv_pos_as_xyz
  1  'x, y, z'
loop_
 _atom_site_type_symbol
 _atom_site_label
 _atom_site_symmetry_multiplicity
 _atom_site_fract_x
 _atom_site_fract_y
 _atom_site_fract_z
 _atom_site_occupancy
  Ho  Ho0  1  0.807729  0.692271  0.692271  1
  Lu  Lu1  1  0.190757  0.309243  0.309243  1
  Pa  Pa2  1  0.999428  0.000572  0.000572  1
  Co  Co3  1  0.501043  0.285281  0.712634  1
  Co  Co4  1  0.501043  0.712634  0.285281  1
