# generated using pymatgen
data_YHo15(ScBi3)4
_symmetry_space_group_name_H-M   'P 1'
_cell_length_a   8.10100119
_cell_length_b   9.41686300
_cell_length_c   11.90690077
_cell_angle_alpha   90.00000000
_cell_angle_beta   89.93769318
_cell_angle_gamma   90.00000000
_symmetry_Int_Tables_number   1
_chemical_formula_structural   YHo15(ScBi3)4
_chemical_formula_sum   'Y1 Ho15 Sc4 Bi12'
_cell_volume   908.32951386
_cell_formula_units_Z   1
loop_
 _symmetry_equiv_pos_site_id
 _symmetry_equiv_pos_as_xyz
  1  'x, y, z'
loop_
 _atom_site_type_symbol
 _atom_site_label
 _atom_site_symmetry_multiplicity
 _atom_site_fract_x
 _atom_site_fract_y
 _atom_site_fract_z
 _atom_site_occupancy
  Y  Y0  1  0.145375  0.250000  0.715342  1
  Ho  Ho1  1  0.185616  0.750000  0.720202  1
  Ho  Ho2  1  0.685703  0.750000  0.779850  1
  Ho  Ho3  1  0.814166  0.250000  0.279740  1
  Ho  Ho4  1  0.314311  0.250000  0.220150  1
  Ho  Ho5  1  0.303495  0.435712  0.941230  1
  Ho  Ho6  1  0.803232  0.064394  0.558954  1
  Ho  Ho7  1  0.696489  0.935655  0.059038  1
  Ho  Ho8  1  0.196572  0.564412  0.440965  1
  Ho  Ho9  1  0.696489  0.564345  0.059038  1
  Ho  Ho10  1  0.196572  0.935588  0.440965  1
  Ho  Ho11  1  0.303495  0.064288  0.941230  1
  Ho  Ho12  1  0.803232  0.435606  0.558954  1
  Ho  Ho13  1  0.354900  0.750000  0.215622  1
  Ho  Ho14  1  0.854788  0.750000  0.284389  1
  Ho  Ho15  1  0.645263  0.250000  0.784386  1
  Sc  Sc16  1  0.025665  0.750000  0.988056  1
  Sc  Sc17  1  0.525686  0.750000  0.511974  1
  Sc  Sc18  1  0.974444  0.250000  0.012174  1
  Sc  Sc19  1  0.474413  0.250000  0.487901  1
  Bi  Bi20  1  0.434307  0.003579  0.669010  1
  Bi  Bi21  1  0.933583  0.496558  0.831201  1
  Bi  Bi22  1  0.566136  0.503857  0.330955  1
  Bi  Bi23  1  0.066062  0.996247  0.169051  1
  Bi  Bi24  1  0.566136  0.996143  0.330955  1
  Bi  Bi25  1  0.066062  0.503753  0.169051  1
  Bi  Bi26  1  0.434307  0.496421  0.669010  1
  Bi  Bi27  1  0.933583  0.003442  0.831201  1
  Bi  Bi28  1  0.403936  0.750000  0.957388  1
  Bi  Bi29  1  0.903862  0.750000  0.542660  1
  Bi  Bi30  1  0.596251  0.250000  0.042523  1
  Bi  Bi31  1  0.095870  0.250000  0.456834  1
