# generated using pymatgen
data_Dy2ErLu13(InIr)4
_symmetry_space_group_name_H-M   'P 1'
_cell_length_a   9.50926198
_cell_length_b   9.51053299
_cell_length_c   9.50092007
_cell_angle_alpha   60.02458935
_cell_angle_beta   59.97869473
_cell_angle_gamma   59.93754951
_symmetry_Int_Tables_number   1
_chemical_formula_structural   Dy2ErLu13(InIr)4
_chemical_formula_sum   'Dy2 Er1 Lu13 In4 Ir4'
_cell_volume   607.30599840
_cell_formula_units_Z   1
loop_
 _symmetry_equiv_pos_site_id
 _symmetry_equiv_pos_as_xyz
  1  'x, y, z'
loop_
 _atom_site_type_symbol
 _atom_site_label
 _atom_site_symmetry_multiplicity
 _atom_site_fract_x
 _atom_site_fract_y
 _atom_site_fract_z
 _atom_site_occupancy
  Dy  Dy0  1  0.812823  0.813327  0.186743  1
  Dy  Dy1  1  0.186743  0.187107  0.812823  1
  Er  Er2  1  0.191054  0.808946  0.191054  1
  Lu  Lu3  1  0.600638  0.597408  0.596624  1
  Lu  Lu4  1  0.600072  0.599876  0.203967  1
  Lu  Lu5  1  0.596624  0.205330  0.600638  1
  Lu  Lu6  1  0.203967  0.596084  0.600072  1
  Lu  Lu7  1  0.058985  0.440207  0.440034  1
  Lu  Lu8  1  0.440034  0.060773  0.058985  1
  Lu  Lu9  1  0.440378  0.059622  0.440378  1
  Lu  Lu10  1  0.059207  0.440793  0.059207  1
  Lu  Lu11  1  0.441473  0.441403  0.057886  1
  Lu  Lu12  1  0.057886  0.059240  0.441473  1
  Lu  Lu13  1  0.193180  0.806521  0.806762  1
  Lu  Lu14  1  0.806762  0.193536  0.193180  1
  Lu  Lu15  1  0.809173  0.190827  0.809173  1
  In  In16  1  0.833570  0.833397  0.833161  1
  In  In17  1  0.832830  0.833493  0.501335  1
  In  In18  1  0.833161  0.499872  0.833570  1
  In  In19  1  0.501335  0.832342  0.832830  1
  Ir  Ir20  1  0.392839  0.391031  0.388615  1
  Ir  Ir21  1  0.391325  0.392788  0.827328  1
  Ir  Ir22  1  0.388615  0.827516  0.392839  1
  Ir  Ir23  1  0.827328  0.388560  0.391325  1
