# generated using pymatgen
data_Ca20Zn11Ga
_symmetry_space_group_name_H-M   'P 1'
_cell_length_a   7.95494600
_cell_length_b   7.95494600
_cell_length_c   15.04695200
_cell_angle_alpha   90.00000000
_cell_angle_beta   90.00000000
_cell_angle_gamma   90.00000000
_symmetry_Int_Tables_number   1
_chemical_formula_structural   Ca20Zn11Ga
_chemical_formula_sum   'Ca20 Zn11 Ga1'
_cell_volume   952.18866524
_cell_formula_units_Z   1
loop_
 _symmetry_equiv_pos_site_id
 _symmetry_equiv_pos_as_xyz
  1  'x, y, z'
loop_
 _atom_site_type_symbol
 _atom_site_label
 _atom_site_symmetry_multiplicity
 _atom_site_fract_x
 _atom_site_fract_y
 _atom_site_fract_z
 _atom_site_occupancy
  Ca  Ca0  1  0.675833  0.165724  0.101287  1
  Ca  Ca1  1  0.169068  0.671060  0.604670  1
  Ca  Ca2  1  0.324167  0.834276  0.101287  1
  Ca  Ca3  1  0.830932  0.328940  0.604670  1
  Ca  Ca4  1  0.834276  0.675833  0.101287  1
  Ca  Ca5  1  0.328940  0.169068  0.604670  1
  Ca  Ca6  1  0.165724  0.324167  0.101287  1
  Ca  Ca7  1  0.671060  0.830932  0.604670  1
  Ca  Ca8  1  0.834276  0.324167  0.898713  1
  Ca  Ca9  1  0.328940  0.830932  0.395330  1
  Ca  Ca10  1  0.165724  0.675833  0.898713  1
  Ca  Ca11  1  0.671060  0.169068  0.395330  1
  Ca  Ca12  1  0.675833  0.834276  0.898713  1
  Ca  Ca13  1  0.169068  0.328940  0.395330  1
  Ca  Ca14  1  0.324167  0.165724  0.898713  1
  Ca  Ca15  1  0.830932  0.671060  0.395330  1
  Ca  Ca16  1  0.500000  0.500000  0.755651  1
  Ca  Ca17  1  0.000000  0.000000  0.248480  1
  Ca  Ca18  1  0.000000  0.000000  0.751520  1
  Ca  Ca19  1  0.500000  0.500000  0.244349  1
  Zn  Zn20  1  0.617644  0.118831  0.750904  1
  Zn  Zn21  1  0.118831  0.617644  0.249096  1
  Zn  Zn22  1  0.881169  0.382356  0.249096  1
  Zn  Zn23  1  0.382356  0.881169  0.750904  1
  Zn  Zn24  1  0.881169  0.617644  0.750904  1
  Zn  Zn25  1  0.382356  0.118831  0.249096  1
  Zn  Zn26  1  0.118831  0.382356  0.750904  1
  Zn  Zn27  1  0.617644  0.881169  0.249096  1
  Zn  Zn28  1  0.500000  0.500000  0.500000  1
  Zn  Zn29  1  0.500000  0.500000  0.000000  1
  Zn  Zn30  1  0.000000  0.000000  0.500000  1
  Ga  Ga31  1  0.000000  0.000000  0.000000  1
