# generated using pymatgen
data_TiNbFe5(CoP)7
_symmetry_space_group_name_H-M   'P 1'
_cell_length_a   8.84588604
_cell_length_b   8.82317370
_cell_length_c   3.53805500
_cell_angle_alpha   90.00000000
_cell_angle_beta   90.00000000
_cell_angle_gamma   119.95885576
_symmetry_Int_Tables_number   1
_chemical_formula_structural   TiNbFe5(CoP)7
_chemical_formula_sum   'Ti1 Nb1 Fe5 Co7 P7'
_cell_volume   239.24412887
_cell_formula_units_Z   1
loop_
 _symmetry_equiv_pos_site_id
 _symmetry_equiv_pos_as_xyz
  1  'x, y, z'
loop_
 _atom_site_type_symbol
 _atom_site_label
 _atom_site_symmetry_multiplicity
 _atom_site_fract_x
 _atom_site_fract_y
 _atom_site_fract_z
 _atom_site_occupancy
  Ti  Ti0  1  0.663360  0.331492  0.500000  1
  Nb  Nb1  1  0.336236  0.667709  0.000000  1
  Fe  Fe2  1  0.388660  0.440441  0.500000  1
  Fe  Fe3  1  0.560687  0.949601  0.500000  1
  Fe  Fe4  1  0.218955  0.092797  0.500000  1
  Fe  Fe5  1  0.872759  0.779648  0.500000  1
  Fe  Fe6  1  0.908124  0.126380  0.500000  1
  Co  Co7  1  0.116744  0.836100  0.000000  1
  Co  Co8  1  0.721876  0.883800  0.000000  1
  Co  Co9  1  0.933777  0.370071  0.000000  1
  Co  Co10  1  0.630609  0.565403  0.000000  1
  Co  Co11  1  0.433577  0.064650  0.000000  1
  Co  Co12  1  0.052285  0.610776  0.500000  1
  Co  Co13  1  0.161633  0.279517  0.000000  1
  P  P14  1  0.000442  0.999599  0.000000  1
  P  P15  1  0.592201  0.713064  0.500000  1
  P  P16  1  0.701346  0.120060  0.000000  1
  P  P17  1  0.878925  0.582163  0.000000  1
  P  P18  1  0.417553  0.298392  0.000000  1
  P  P19  1  0.288590  0.880269  0.500000  1
  P  P20  1  0.121659  0.408069  0.500000  1
