# generated using pymatgen
data_TcF18
_symmetry_space_group_name_H-M   'P 1'
_cell_length_a   5.85743597
_cell_length_b   9.37752285
_cell_length_c   13.56166100
_cell_angle_alpha   101.85032987
_cell_angle_beta   93.26313484
_cell_angle_gamma   102.74165111
_symmetry_Int_Tables_number   1
_chemical_formula_structural   TcF18
_chemical_formula_sum   'Tc2 F36'
_cell_volume   707.00074063
_cell_formula_units_Z   2
loop_
 _symmetry_equiv_pos_site_id
 _symmetry_equiv_pos_as_xyz
  1  'x, y, z'
loop_
 _atom_site_type_symbol
 _atom_site_label
 _atom_site_symmetry_multiplicity
 _atom_site_fract_x
 _atom_site_fract_y
 _atom_site_fract_z
 _atom_site_occupancy
  Tc  Tc0  1  0.160861  0.986403  0.287598  1
  Tc  Tc1  1  0.839139  0.013597  0.712402  1
  F  F2  1  0.682100  0.630633  0.371084  1
  F  F3  1  0.317900  0.369367  0.628916  1
  F  F4  1  0.046944  0.379154  0.378000  1
  F  F5  1  0.953056  0.620846  0.622000  1
  F  F6  1  0.207142  0.895084  0.946969  1
  F  F7  1  0.792858  0.104916  0.053031  1
  F  F8  1  0.894835  0.057638  0.317160  1
  F  F9  1  0.105165  0.942362  0.682840  1
  F  F10  1  0.003028  0.793977  0.293850  1
  F  F11  1  0.996972  0.206023  0.706150  1
  F  F12  1  0.586914  0.493836  0.400328  1
  F  F13  1  0.413086  0.506164  0.599672  1
  F  F14  1  0.045362  0.950153  0.152166  1
  F  F15  1  0.954638  0.049847  0.847834  1
  F  F16  1  0.268384  0.036886  0.424616  1
  F  F17  1  0.731616  0.963114  0.575384  1
  F  F18  1  0.067583  0.398255  0.277123  1
  F  F19  1  0.932417  0.601745  0.722877  1
  F  F20  1  0.723924  0.672161  0.060745  1
  F  F21  1  0.276076  0.327839  0.939255  1
  F  F22  1  0.854844  0.580140  0.002910  1
  F  F23  1  0.145156  0.419860  0.997090  1
  F  F24  1  0.542167  0.565188  0.845509  1
  F  F25  1  0.457833  0.434812  0.154491  1
  F  F26  1  0.330884  0.176076  0.281855  1
  F  F27  1  0.669116  0.823924  0.718145  1
  F  F28  1  0.270932  0.805938  0.500784  1
  F  F29  1  0.729068  0.194062  0.499216  1
  F  F30  1  0.356434  0.839765  0.008807  1
  F  F31  1  0.643566  0.160235  0.991193  1
  F  F32  1  0.416845  0.905322  0.255473  1
  F  F33  1  0.583155  0.094678  0.744527  1
  F  F34  1  0.666944  0.392351  0.183222  1
  F  F35  1  0.333056  0.607649  0.816778  1
  F  F36  1  0.220966  0.647144  0.463719  1
  F  F37  1  0.779034  0.352856  0.536281  1
