# generated using pymatgen
data_BaLa(IrO3)6
_symmetry_space_group_name_H-M   'P 1'
_cell_length_a   5.46695822
_cell_length_b   5.46695709
_cell_length_c   12.16993700
_cell_angle_alpha   90.00000000
_cell_angle_beta   90.00000000
_cell_angle_gamma   107.49812301
_symmetry_Int_Tables_number   1
_chemical_formula_structural   BaLa(IrO3)6
_chemical_formula_sum   'Ba1 La1 Ir6 O18'
_cell_volume   346.89955078
_cell_formula_units_Z   1
loop_
 _symmetry_equiv_pos_site_id
 _symmetry_equiv_pos_as_xyz
  1  'x, y, z'
loop_
 _atom_site_type_symbol
 _atom_site_label
 _atom_site_symmetry_multiplicity
 _atom_site_fract_x
 _atom_site_fract_y
 _atom_site_fract_z
 _atom_site_occupancy
  Ba  Ba0  1  0.753026  0.246974  0.750000  1
  La  La1  1  0.249162  0.750838  0.250000  1
  Ir  Ir2  1  0.114794  0.885206  0.911768  1
  Ir  Ir3  1  0.881987  0.118013  0.400897  1
  Ir  Ir4  1  0.881987  0.118013  0.099103  1
  Ir  Ir5  1  0.114794  0.885206  0.588232  1
  Ir  Ir6  1  0.497445  0.502555  0.007359  1
  Ir  Ir7  1  0.497445  0.502555  0.492641  1
  O  O8  1  0.960968  0.039032  0.250000  1
  O  O9  1  0.078450  0.921550  0.750000  1
  O  O10  1  0.104845  0.895155  0.072147  1
  O  O11  1  0.895468  0.104532  0.559763  1
  O  O12  1  0.895468  0.104532  0.940237  1
  O  O13  1  0.104845  0.895155  0.427853  1
  O  O14  1  0.334573  0.665427  0.900160  1
  O  O15  1  0.663850  0.336150  0.386379  1
  O  O16  1  0.407113  0.192339  0.586737  1
  O  O17  1  0.582175  0.810712  0.104621  1
  O  O18  1  0.189288  0.417825  0.395379  1
  O  O19  1  0.807661  0.592887  0.913263  1
  O  O20  1  0.582175  0.810712  0.395379  1
  O  O21  1  0.407113  0.192339  0.913263  1
  O  O22  1  0.807661  0.592887  0.586737  1
  O  O23  1  0.189288  0.417825  0.104621  1
  O  O24  1  0.334573  0.665427  0.599840  1
  O  O25  1  0.663850  0.336150  0.113621  1
