# generated using pymatgen
data_La9Nd7(DyIr3)4
_symmetry_space_group_name_H-M   'P 1'
_cell_length_a   11.32388691
_cell_length_b   11.30123506
_cell_length_c   6.53786900
_cell_angle_alpha   89.96962134
_cell_angle_beta   89.80750737
_cell_angle_gamma   89.90508681
_symmetry_Int_Tables_number   1
_chemical_formula_structural   La9Nd7(DyIr3)4
_chemical_formula_sum   'La9 Nd7 Dy4 Ir12'
_cell_volume   836.67065930
_cell_formula_units_Z   1
loop_
 _symmetry_equiv_pos_site_id
 _symmetry_equiv_pos_as_xyz
  1  'x, y, z'
loop_
 _atom_site_type_symbol
 _atom_site_label
 _atom_site_symmetry_multiplicity
 _atom_site_fract_x
 _atom_site_fract_y
 _atom_site_fract_z
 _atom_site_occupancy
  La  La0  1  0.287324  0.089625  0.384277  1
  La  La1  1  0.287113  0.909575  0.884669  1
  La  La2  1  0.712795  0.089991  0.885289  1
  La  La3  1  0.712742  0.909912  0.385281  1
  La  La4  1  0.590124  0.787324  0.884862  1
  La  La5  1  0.590547  0.212737  0.385663  1
  La  La6  1  0.409951  0.787188  0.384603  1
  La  La7  1  0.410678  0.211977  0.886195  1
  La  La8  1  0.210267  0.413465  0.613928  1
  Nd  Nd9  1  0.209650  0.586996  0.114582  1
  Nd  Nd10  1  0.790357  0.414565  0.113662  1
  Nd  Nd11  1  0.790468  0.585880  0.614151  1
  Nd  Nd12  1  0.914627  0.709584  0.114374  1
  Nd  Nd13  1  0.912613  0.289673  0.613911  1
  Nd  Nd14  1  0.085307  0.711052  0.614623  1
  Nd  Nd15  1  0.084307  0.289681  0.113894  1
  Dy  Dy16  1  0.999416  0.000008  0.500769  1
  Dy  Dy17  1  0.999830  0.999942  0.000699  1
  Dy  Dy18  1  0.500201  0.499906  0.002370  1
  Dy  Dy19  1  0.501454  0.500766  0.501620  1
  Ir  Ir20  1  0.850883  0.148954  0.248482  1
  Ir  Ir21  1  0.851287  0.850480  0.749136  1
  Ir  Ir22  1  0.148699  0.148435  0.748310  1
  Ir  Ir23  1  0.148618  0.850864  0.248474  1
  Ir  Ir24  1  0.649122  0.351104  0.749439  1
  Ir  Ir25  1  0.649419  0.648930  0.248593  1
  Ir  Ir26  1  0.350138  0.351478  0.250390  1
  Ir  Ir27  1  0.351660  0.649961  0.749915  1
  Ir  Ir28  1  0.499972  0.000211  0.122405  1
  Ir  Ir29  1  0.500241  0.999721  0.622143  1
  Ir  Ir30  1  0.000586  0.499723  0.880903  1
  Ir  Ir31  1  0.999607  0.500293  0.382384  1
