# generated using pymatgen
data_TbHo2Ga6Co8Cu
_symmetry_space_group_name_H-M   'P 1'
_cell_length_a   4.06242100
_cell_length_b   8.80289340
_cell_length_c   8.80475320
_cell_angle_alpha   59.07672326
_cell_angle_beta   90.00000000
_cell_angle_gamma   90.00000000
_symmetry_Int_Tables_number   1
_chemical_formula_structural   TbHo2Ga6Co8Cu
_chemical_formula_sum   'Tb1 Ho2 Ga6 Co8 Cu1'
_cell_volume   270.11086613
_cell_formula_units_Z   1
loop_
 _symmetry_equiv_pos_site_id
 _symmetry_equiv_pos_as_xyz
  1  'x, y, z'
loop_
 _atom_site_type_symbol
 _atom_site_label
 _atom_site_symmetry_multiplicity
 _atom_site_fract_x
 _atom_site_fract_y
 _atom_site_fract_z
 _atom_site_occupancy
  Tb  Tb0  1  0.500000  0.670272  0.668027  1
  Ho  Ho1  1  0.500000  0.330969  0.329745  1
  Ho  Ho2  1  0.000000  0.003165  0.996897  1
  Ga  Ga3  1  0.000000  0.493509  0.506269  1
  Ga  Ga4  1  0.000000  0.504471  0.003909  1
  Ga  Ga5  1  0.000000  0.996805  0.495051  1
  Ga  Ga6  1  0.500000  0.728467  0.271580  1
  Ga  Ga7  1  0.500000  0.273664  0.002700  1
  Ga  Ga8  1  0.500000  0.998119  0.725811  1
  Co  Co9  1  0.000000  0.178624  0.180401  1
  Co  Co10  1  0.000000  0.179340  0.629098  1
  Co  Co11  1  0.000000  0.639346  0.182334  1
  Co  Co12  1  0.000000  0.819912  0.822126  1
  Co  Co13  1  0.000000  0.369341  0.821263  1
  Co  Co14  1  0.000000  0.818412  0.359389  1
  Co  Co15  1  0.500000  0.701292  0.003728  1
  Co  Co16  1  0.500000  0.997175  0.299032  1
  Cu  Cu17  1  0.500000  0.297016  0.702734  1
