# generated using pymatgen
data_Ho6ScCrO12
_symmetry_space_group_name_H-M   'P 1'
_cell_length_a   6.54067953
_cell_length_b   6.54068049
_cell_length_c   6.54067964
_cell_angle_alpha   92.49722910
_cell_angle_beta   92.49722933
_cell_angle_gamma   92.49722834
_symmetry_Int_Tables_number   1
_chemical_formula_structural   Ho6ScCrO12
_chemical_formula_sum   'Ho6 Sc1 Cr1 O12'
_cell_volume   278.99234949
_cell_formula_units_Z   1
loop_
 _symmetry_equiv_pos_site_id
 _symmetry_equiv_pos_as_xyz
  1  'x, y, z'
loop_
 _atom_site_type_symbol
 _atom_site_label
 _atom_site_symmetry_multiplicity
 _atom_site_fract_x
 _atom_site_fract_y
 _atom_site_fract_z
 _atom_site_occupancy
  Ho  Ho0  1  0.743662  0.928296  0.437573  1
  Ho  Ho1  1  0.928296  0.437573  0.743662  1
  Ho  Ho2  1  0.437573  0.743662  0.928296  1
  Ho  Ho3  1  0.256338  0.071704  0.562427  1
  Ho  Ho4  1  0.071704  0.562427  0.256338  1
  Ho  Ho5  1  0.562427  0.256338  0.071704  1
  Sc  Sc6  1  0.000000  0.000000  0.000000  1
  Cr  Cr7  1  0.500000  0.500000  0.500000  1
  O  O8  1  0.589392  0.461976  0.799965  1
  O  O9  1  0.461976  0.799965  0.589392  1
  O  O10  1  0.799965  0.589392  0.461976  1
  O  O11  1  0.410608  0.538024  0.200035  1
  O  O12  1  0.538024  0.200035  0.410608  1
  O  O13  1  0.200035  0.410608  0.538024  1
  O  O14  1  0.069303  0.913532  0.308015  1
  O  O15  1  0.913532  0.308015  0.069303  1
  O  O16  1  0.691985  0.930697  0.086468  1
  O  O17  1  0.086468  0.691985  0.930697  1
  O  O18  1  0.930697  0.086468  0.691985  1
  O  O19  1  0.308015  0.069303  0.913532  1
