# generated using pymatgen
data_CaCdH6Ru
_symmetry_space_group_name_H-M   'P 1'
_cell_length_a   4.97402164
_cell_length_b   4.97402137
_cell_length_c   4.97402100
_cell_angle_alpha   59.99999582
_cell_angle_beta   59.99999763
_cell_angle_gamma   59.99998893
_symmetry_Int_Tables_number   1
_chemical_formula_structural   CaCdH6Ru
_chemical_formula_sum   'Ca1 Cd1 H6 Ru1'
_cell_volume   87.01775540
_cell_formula_units_Z   1
loop_
 _symmetry_equiv_pos_site_id
 _symmetry_equiv_pos_as_xyz
  1  'x, y, z'
loop_
 _atom_site_type_symbol
 _atom_site_label
 _atom_site_symmetry_multiplicity
 _atom_site_fract_x
 _atom_site_fract_y
 _atom_site_fract_z
 _atom_site_occupancy
  Ca  Ca0  1  0.750000  0.750000  0.750000  1
  Cd  Cd1  1  0.250000  0.250000  0.250000  1
  H  H2  1  0.758408  0.758408  0.241592  1
  H  H3  1  0.241592  0.758408  0.241592  1
  H  H4  1  0.758408  0.241592  0.241592  1
  H  H5  1  0.241592  0.241592  0.758408  1
  H  H6  1  0.758408  0.241592  0.758408  1
  H  H7  1  0.241592  0.758408  0.758408  1
  Ru  Ru8  1  0.000000  0.000000  0.000000  1
