# generated using pymatgen
data_TmZr4(Re5Tc3)3
_symmetry_space_group_name_H-M   'P 1'
_cell_length_a   8.49311268
_cell_length_b   8.49311197
_cell_length_c   8.49311200
_cell_angle_alpha   109.51496539
_cell_angle_beta   109.51497283
_cell_angle_gamma   109.51495945
_symmetry_Int_Tables_number   1
_chemical_formula_structural   TmZr4(Re5Tc3)3
_chemical_formula_sum   'Tm1 Zr4 Re15 Tc9'
_cell_volume   470.83994819
_cell_formula_units_Z   1
loop_
 _symmetry_equiv_pos_site_id
 _symmetry_equiv_pos_as_xyz
  1  'x, y, z'
loop_
 _atom_site_type_symbol
 _atom_site_label
 _atom_site_symmetry_multiplicity
 _atom_site_fract_x
 _atom_site_fract_y
 _atom_site_fract_z
 _atom_site_occupancy
  Tm  Tm0  1  0.999311  0.999311  0.999311  1
  Zr  Zr1  1  0.625570  0.999798  0.999798  1
  Zr  Zr2  1  0.999798  0.625570  0.999798  1
  Zr  Zr3  1  0.999798  0.999798  0.625570  1
  Zr  Zr4  1  0.372517  0.372517  0.372517  1
  Re  Re5  1  0.604191  0.604191  0.278375  1
  Re  Re6  1  0.278375  0.604191  0.604191  1
  Re  Re7  1  0.604191  0.278375  0.604191  1
  Re  Re8  1  0.377903  0.195876  0.000920  1
  Re  Re9  1  0.181385  0.805436  0.805436  1
  Re  Re10  1  0.377903  0.000920  0.195876  1
  Re  Re11  1  0.195876  0.377903  0.000920  1
  Re  Re12  1  0.000920  0.377903  0.195876  1
  Re  Re13  1  0.805436  0.181385  0.805436  1
  Re  Re14  1  0.805436  0.805436  0.181385  1
  Re  Re15  1  0.000920  0.195876  0.377903  1
  Re  Re16  1  0.195876  0.000920  0.377903  1
  Re  Re17  1  0.621225  0.621225  0.815399  1
  Re  Re18  1  0.815399  0.621225  0.621225  1
  Re  Re19  1  0.621225  0.815399  0.621225  1
  Tc  Tc20  1  0.396528  0.676660  0.000867  1
  Tc  Tc21  1  0.721072  0.323779  0.323779  1
  Tc  Tc22  1  0.396528  0.000867  0.676660  1
  Tc  Tc23  1  0.676660  0.396528  0.000867  1
  Tc  Tc24  1  0.000867  0.396528  0.676660  1
  Tc  Tc25  1  0.323779  0.721072  0.323779  1
  Tc  Tc26  1  0.323779  0.323779  0.721072  1
  Tc  Tc27  1  0.000867  0.676660  0.396528  1
  Tc  Tc28  1  0.676660  0.000867  0.396528  1
