# generated using pymatgen
data_Dy2Ho3SnBi2
_symmetry_space_group_name_H-M   'P 1'
_cell_length_a   9.08302031
_cell_length_b   9.05223861
_cell_length_c   6.43443300
_cell_angle_alpha   90.00000000
_cell_angle_beta   90.00000000
_cell_angle_gamma   119.65801928
_symmetry_Int_Tables_number   1
_chemical_formula_structural   Dy2Ho3SnBi2
_chemical_formula_sum   'Dy4 Ho6 Sn2 Bi4'
_cell_volume   459.74127038
_cell_formula_units_Z   2
loop_
 _symmetry_equiv_pos_site_id
 _symmetry_equiv_pos_as_xyz
  1  'x, y, z'
loop_
 _atom_site_type_symbol
 _atom_site_label
 _atom_site_symmetry_multiplicity
 _atom_site_fract_x
 _atom_site_fract_y
 _atom_site_fract_z
 _atom_site_occupancy
  Dy  Dy0  1  0.994853  0.758696  0.750000  1
  Dy  Dy1  1  0.993945  0.235607  0.250000  1
  Dy  Dy2  1  0.756417  0.994966  0.750000  1
  Dy  Dy3  1  0.245782  0.245678  0.750000  1
  Ho  Ho4  1  0.755626  0.760616  0.250000  1
  Ho  Ho5  1  0.245002  0.999410  0.250000  1
  Ho  Ho6  1  0.340661  0.670425  0.500016  1
  Ho  Ho7  1  0.665035  0.332498  0.000220  1
  Ho  Ho8  1  0.665035  0.332498  0.499780  1
  Ho  Ho9  1  0.340661  0.670425  0.999984  1
  Sn  Sn10  1  0.609037  0.607393  0.750000  1
  Sn  Sn11  1  0.608327  0.002717  0.250000  1
  Bi  Bi12  1  0.389088  0.998772  0.750000  1
  Bi  Bi13  1  0.388226  0.388721  0.250000  1
  Bi  Bi14  1  0.001608  0.609983  0.250000  1
  Bi  Bi15  1  0.000696  0.391594  0.750000  1
