# generated using pymatgen
data_BaTc5N7
_symmetry_space_group_name_H-M   'P 1'
_cell_length_a   6.18409600
_cell_length_b   6.18409666
_cell_length_c   10.03902200
_cell_angle_alpha   90.00000000
_cell_angle_beta   90.00000000
_cell_angle_gamma   119.99999646
_symmetry_Int_Tables_number   1
_chemical_formula_structural   BaTc5N7
_chemical_formula_sum   'Ba2 Tc10 N14'
_cell_volume   332.48690501
_cell_formula_units_Z   2
loop_
 _symmetry_equiv_pos_site_id
 _symmetry_equiv_pos_as_xyz
  1  'x, y, z'
loop_
 _atom_site_type_symbol
 _atom_site_label
 _atom_site_symmetry_multiplicity
 _atom_site_fract_x
 _atom_site_fract_y
 _atom_site_fract_z
 _atom_site_occupancy
  Ba  Ba0  1  0.666667  0.333333  0.565139  1
  Ba  Ba1  1  0.333333  0.666667  0.065139  1
  Tc  Tc2  1  0.666667  0.333333  0.958700  1
  Tc  Tc3  1  0.333333  0.666667  0.458700  1
  Tc  Tc4  1  0.170162  0.340322  0.755411  1
  Tc  Tc5  1  0.829838  0.170162  0.255411  1
  Tc  Tc6  1  0.340322  0.170162  0.255411  1
  Tc  Tc7  1  0.659678  0.829838  0.755411  1
  Tc  Tc8  1  0.170162  0.829838  0.755411  1
  Tc  Tc9  1  0.829838  0.659678  0.255411  1
  Tc  Tc10  1  0.000000  0.000000  0.060587  1
  Tc  Tc11  1  0.000000  0.000000  0.560587  1
  N  N12  1  0.000000  0.000000  0.851120  1
  N  N13  1  0.000000  0.000000  0.351120  1
  N  N14  1  0.821936  0.643874  0.061732  1
  N  N15  1  0.178064  0.821936  0.561732  1
  N  N16  1  0.643874  0.821936  0.561732  1
  N  N17  1  0.356126  0.178064  0.061732  1
  N  N18  1  0.821936  0.178064  0.061732  1
  N  N19  1  0.178064  0.356126  0.561732  1
  N  N20  1  0.506657  0.493343  0.828615  1
  N  N21  1  0.013317  0.506657  0.328615  1
  N  N22  1  0.493343  0.986683  0.328615  1
  N  N23  1  0.506657  0.013317  0.828615  1
  N  N24  1  0.493343  0.506657  0.328615  1
  N  N25  1  0.986683  0.493343  0.828615  1
