# generated using pymatgen
data_CdAs2F12
_symmetry_space_group_name_H-M   'P 1'
_cell_length_a   9.66158958
_cell_length_b   9.66158978
_cell_length_c   9.66159008
_cell_angle_alpha   131.80381890
_cell_angle_beta   131.80382579
_cell_angle_gamma   70.53904883
_symmetry_Int_Tables_number   1
_chemical_formula_structural   CdAs2F12
_chemical_formula_sum   'Cd2 As4 F24'
_cell_volume   491.01121109
_cell_formula_units_Z   2
loop_
 _symmetry_equiv_pos_site_id
 _symmetry_equiv_pos_as_xyz
  1  'x, y, z'
loop_
 _atom_site_type_symbol
 _atom_site_label
 _atom_site_symmetry_multiplicity
 _atom_site_fract_x
 _atom_site_fract_y
 _atom_site_fract_z
 _atom_site_occupancy
  Cd  Cd0  1  0.750000  0.250000  0.500000  1
  Cd  Cd1  1  0.000000  0.000000  0.000000  1
  As  As2  1  0.779074  0.779074  0.000000  1
  As  As3  1  0.220926  0.220926  0.000000  1
  As  As4  1  0.970926  0.470926  0.500000  1
  As  As5  1  0.529074  0.029074  0.500000  1
  F  F6  1  0.860965  0.743567  0.195105  1
  F  F7  1  0.548460  0.665860  0.804895  1
  F  F8  1  0.415860  0.798460  0.304895  1
  F  F9  1  0.334140  0.139035  0.882601  1
  F  F10  1  0.256433  0.451540  0.117399  1
  F  F11  1  0.201540  0.506433  0.617399  1
  F  F12  1  0.649646  0.262614  0.684409  1
  F  F13  1  0.737386  0.421795  0.387032  1
  F  F14  1  0.034764  0.350354  0.612968  1
  F  F15  1  0.100354  0.284764  0.112968  1
  F  F16  1  0.171795  0.987386  0.887032  1
  F  F17  1  0.578205  0.965236  0.315591  1
  F  F18  1  0.715236  0.828205  0.815591  1
  F  F19  1  0.012614  0.899646  0.184409  1
  F  F20  1  0.310579  0.088875  0.334109  1
  F  F21  1  0.911125  0.245234  0.221704  1
  F  F22  1  0.023530  0.689421  0.778296  1
  F  F23  1  0.439421  0.273530  0.278296  1
  F  F24  1  0.995234  0.161125  0.721704  1
  F  F25  1  0.754766  0.976470  0.665891  1
  F  F26  1  0.726470  0.004766  0.165891  1
  F  F27  1  0.838875  0.560579  0.834109  1
  F  F28  1  0.493567  0.110965  0.695105  1
  F  F29  1  0.889035  0.584140  0.382601  1
