# generated using pymatgen
data_CoSi12(P4Ir)3
_symmetry_space_group_name_H-M   'P 1'
_cell_length_a   5.87631110
_cell_length_b   6.07647355
_cell_length_c   12.98321961
_cell_angle_alpha   89.95547816
_cell_angle_beta   89.93953717
_cell_angle_gamma   90.03529455
_symmetry_Int_Tables_number   1
_chemical_formula_structural   CoSi12(P4Ir)3
_chemical_formula_sum   'Co1 Si12 P12 Ir3'
_cell_volume   463.59456874
_cell_formula_units_Z   1
loop_
 _symmetry_equiv_pos_site_id
 _symmetry_equiv_pos_as_xyz
  1  'x, y, z'
loop_
 _atom_site_type_symbol
 _atom_site_label
 _atom_site_symmetry_multiplicity
 _atom_site_fract_x
 _atom_site_fract_y
 _atom_site_fract_z
 _atom_site_occupancy
  Co  Co0  1  0.035174  0.519290  0.383019  1
  Si  Si1  1  0.969416  0.173484  0.321035  1
  Si  Si2  1  0.466329  0.839797  0.680664  1
  Si  Si3  1  0.933085  0.626284  0.222023  1
  Si  Si4  1  0.431773  0.370595  0.784396  1
  Si  Si5  1  0.340051  0.916577  0.950908  1
  Si  Si6  1  0.841423  0.081423  0.050538  1
  Si  Si7  1  0.917657  0.529642  0.670762  1
  Si  Si8  1  0.401919  0.472488  0.329132  1
  Si  Si9  1  0.999586  0.061431  0.567589  1
  Si  Si10  1  0.499190  0.932488  0.428104  1
  Si  Si11  1  0.906976  0.624164  0.928756  1
  Si  Si12  1  0.407513  0.375350  0.072680  1
  P  P13  1  0.578661  0.028060  0.824880  1
  P  P14  1  0.078898  0.972173  0.177877  1
  P  P15  1  0.516359  0.560593  0.929091  1
  P  P16  1  0.016311  0.440123  0.073763  1
  P  P17  1  0.611015  0.112000  0.571671  1
  P  P18  1  0.109244  0.875226  0.424233  1
  P  P19  1  0.544213  0.643614  0.183046  1
  P  P20  1  0.045118  0.355767  0.818522  1
  P  P21  1  0.577799  0.136910  0.289607  1
  P  P22  1  0.078607  0.870006  0.710065  1
  P  P23  1  0.153756  0.408122  0.546180  1
  P  P24  1  0.663812  0.590966  0.443634  1
  Ir  Ir25  1  0.965675  0.987299  0.879196  1
  Ir  Ir26  1  0.466762  0.011828  0.121972  1
  Ir  Ir27  1  0.537479  0.484301  0.616655  1
