# generated using pymatgen
data_Tb4Co9B4Ru
_symmetry_space_group_name_H-M   'P 1'
_cell_length_a   5.08610800
_cell_length_b   5.08610736
_cell_length_c   20.25432700
_cell_angle_alpha   90.00000000
_cell_angle_beta   90.00000000
_cell_angle_gamma   120.00000414
_symmetry_Int_Tables_number   1
_chemical_formula_structural   Tb4Co9B4Ru
_chemical_formula_sum   'Tb8 Co18 B8 Ru2'
_cell_volume   453.75302393
_cell_formula_units_Z   2
loop_
 _symmetry_equiv_pos_site_id
 _symmetry_equiv_pos_as_xyz
  1  'x, y, z'
loop_
 _atom_site_type_symbol
 _atom_site_label
 _atom_site_symmetry_multiplicity
 _atom_site_fract_x
 _atom_site_fract_y
 _atom_site_fract_z
 _atom_site_occupancy
  Tb  Tb0  1  0.666667  0.333333  0.824428  1
  Tb  Tb1  1  0.666667  0.333333  0.977013  1
  Tb  Tb2  1  0.333333  0.666667  0.477013  1
  Tb  Tb3  1  0.333333  0.666667  0.022987  1
  Tb  Tb4  1  0.333333  0.666667  0.175572  1
  Tb  Tb5  1  0.666667  0.333333  0.522987  1
  Tb  Tb6  1  0.666667  0.333333  0.675572  1
  Tb  Tb7  1  0.333333  0.666667  0.324428  1
  Co  Co8  1  0.164187  0.328373  0.891930  1
  Co  Co9  1  0.164187  0.835813  0.608070  1
  Co  Co10  1  0.835813  0.164187  0.391930  1
  Co  Co11  1  0.334074  0.167037  0.250000  1
  Co  Co12  1  0.328373  0.164187  0.391930  1
  Co  Co13  1  0.835813  0.671627  0.108070  1
  Co  Co14  1  0.835813  0.671627  0.391930  1
  Co  Co15  1  0.832963  0.665926  0.250000  1
  Co  Co16  1  0.671627  0.835813  0.608070  1
  Co  Co17  1  0.665926  0.832963  0.750000  1
  Co  Co18  1  0.835813  0.164187  0.108070  1
  Co  Co19  1  0.671627  0.835813  0.891930  1
  Co  Co20  1  0.167037  0.334074  0.750000  1
  Co  Co21  1  0.167037  0.832963  0.750000  1
  Co  Co22  1  0.832963  0.167037  0.250000  1
  Co  Co23  1  0.328373  0.164187  0.108070  1
  Co  Co24  1  0.164187  0.835813  0.891930  1
  Co  Co25  1  0.164187  0.328373  0.608070  1
  B  B26  1  0.333333  0.666667  0.823293  1
  B  B27  1  0.333333  0.666667  0.676707  1
  B  B28  1  0.666667  0.333333  0.323293  1
  B  B29  1  0.000000  0.000000  0.821991  1
  B  B30  1  0.666667  0.333333  0.176707  1
  B  B31  1  0.000000  0.000000  0.678009  1
  B  B32  1  0.000000  0.000000  0.321991  1
  B  B33  1  0.000000  0.000000  0.178009  1
  Ru  Ru34  1  0.000000  0.000000  0.000000  1
  Ru  Ru35  1  0.000000  0.000000  0.500000  1
