# generated using pymatgen
data_ScTi2AlPt12
_symmetry_space_group_name_H-M   'P 1'
_cell_length_a   5.60315226
_cell_length_b   5.60315180
_cell_length_c   7.91156600
_cell_angle_alpha   90.00000000
_cell_angle_beta   90.00000000
_cell_angle_gamma   89.91027000
_symmetry_Int_Tables_number   1
_chemical_formula_structural   ScTi2AlPt12
_chemical_formula_sum   'Sc1 Ti2 Al1 Pt12'
_cell_volume   248.38578389
_cell_formula_units_Z   1
loop_
 _symmetry_equiv_pos_site_id
 _symmetry_equiv_pos_as_xyz
  1  'x, y, z'
loop_
 _atom_site_type_symbol
 _atom_site_label
 _atom_site_symmetry_multiplicity
 _atom_site_fract_x
 _atom_site_fract_y
 _atom_site_fract_z
 _atom_site_occupancy
  Sc  Sc0  1  0.500000  0.000000  0.750077  1
  Ti  Ti1  1  0.500000  0.000000  0.250043  1
  Ti  Ti2  1  0.000000  0.500000  0.250183  1
  Al  Al3  1  0.000000  0.500000  0.749791  1
  Pt  Pt4  1  0.245783  0.254217  0.003835  1
  Pt  Pt5  1  0.748280  0.248280  0.004805  1
  Pt  Pt6  1  0.251720  0.751720  0.004805  1
  Pt  Pt7  1  0.754217  0.745783  0.003835  1
  Pt  Pt8  1  0.000000  0.000000  0.249953  1
  Pt  Pt9  1  0.500000  0.500000  0.249953  1
  Pt  Pt10  1  0.751158  0.251158  0.495642  1
  Pt  Pt11  1  0.248779  0.251221  0.495694  1
  Pt  Pt12  1  0.751221  0.748779  0.495694  1
  Pt  Pt13  1  0.248842  0.748842  0.495642  1
  Pt  Pt14  1  0.000000  0.000000  0.750024  1
  Pt  Pt15  1  0.500000  0.500000  0.750024  1
