# generated using pymatgen
data_DyY2Mg3Pb2Au
_symmetry_space_group_name_H-M   'P 1'
_cell_length_a   7.58940026
_cell_length_b   7.58940005
_cell_length_c   4.50688000
_cell_angle_alpha   90.00000000
_cell_angle_beta   90.00000000
_cell_angle_gamma   119.97000632
_symmetry_Int_Tables_number   1
_chemical_formula_structural   DyY2Mg3Pb2Au
_chemical_formula_sum   'Dy1 Y2 Mg3 Pb2 Au1'
_cell_volume   224.88097229
_cell_formula_units_Z   1
loop_
 _symmetry_equiv_pos_site_id
 _symmetry_equiv_pos_as_xyz
  1  'x, y, z'
loop_
 _atom_site_type_symbol
 _atom_site_label
 _atom_site_symmetry_multiplicity
 _atom_site_fract_x
 _atom_site_fract_y
 _atom_site_fract_z
 _atom_site_occupancy
  Dy  Dy0  1  0.403454  0.403454  0.000000  1
  Y  Y1  1  0.595794  0.000008  0.000000  1
  Y  Y2  1  0.000008  0.595794  0.000000  1
  Mg  Mg3  1  0.233040  0.000119  0.500000  1
  Mg  Mg4  1  0.000119  0.233040  0.500000  1
  Mg  Mg5  1  0.766868  0.766868  0.500000  1
  Pb  Pb6  1  0.333391  0.666266  0.500000  1
  Pb  Pb7  1  0.666266  0.333391  0.500000  1
  Au  Au8  1  0.001058  0.001058  0.000000  1
