# generated using pymatgen
data_PrNd3(SeO6)2
_symmetry_space_group_name_H-M   'P 1'
_cell_length_a   10.44058006
_cell_length_b   10.46738733
_cell_length_c   5.59512175
_cell_angle_alpha   72.56941865
_cell_angle_beta   72.72136681
_cell_angle_gamma   68.67335085
_symmetry_Int_Tables_number   1
_chemical_formula_structural   PrNd3(SeO6)2
_chemical_formula_sum   'Pr2 Nd6 Se4 O24'
_cell_volume   531.13105045
_cell_formula_units_Z   2
loop_
 _symmetry_equiv_pos_site_id
 _symmetry_equiv_pos_as_xyz
  1  'x, y, z'
loop_
 _atom_site_type_symbol
 _atom_site_label
 _atom_site_symmetry_multiplicity
 _atom_site_fract_x
 _atom_site_fract_y
 _atom_site_fract_z
 _atom_site_occupancy
  Pr  Pr0  1  0.050397  0.282913  0.620092  1
  Pr  Pr1  1  0.949603  0.717087  0.379908  1
  Nd  Nd2  1  0.640093  0.358910  0.750598  1
  Nd  Nd3  1  0.359907  0.641090  0.249402  1
  Nd  Nd4  1  0.109462  0.891160  0.749708  1
  Nd  Nd5  1  0.890538  0.108840  0.250292  1
  Nd  Nd6  1  0.717832  0.950182  0.878338  1
  Nd  Nd7  1  0.282168  0.049818  0.121662  1
  Se  Se8  1  0.534336  0.788806  0.561749  1
  Se  Se9  1  0.465664  0.211194  0.438251  1
  Se  Se10  1  0.212246  0.465065  0.936709  1
  Se  Se11  1  0.787754  0.534935  0.063291  1
  O  O12  1  0.719831  0.160685  0.615766  1
  O  O13  1  0.280169  0.839315  0.384234  1
  O  O14  1  0.838336  0.280126  0.886264  1
  O  O15  1  0.161664  0.719874  0.113736  1
  O  O16  1  0.402709  0.826310  0.816692  1
  O  O17  1  0.597291  0.173690  0.183308  1
  O  O18  1  0.174358  0.596476  0.681027  1
  O  O19  1  0.825642  0.403524  0.318973  1
  O  O20  1  0.681648  0.788247  0.628017  1
  O  O21  1  0.318352  0.211753  0.371983  1
  O  O22  1  0.213004  0.317416  0.873264  1
  O  O23  1  0.786996  0.682584  0.126736  1
  O  O24  1  0.479398  0.089295  0.713937  1
  O  O25  1  0.520602  0.910705  0.286063  1
  O  O26  1  0.909977  0.520237  0.789150  1
  O  O27  1  0.090023  0.479763  0.210850  1
  O  O28  1  0.544132  0.631439  0.523889  1
  O  O29  1  0.455868  0.368561  0.476111  1
  O  O30  1  0.369603  0.455934  0.975445  1
  O  O31  1  0.630397  0.544066  0.024555  1
  O  O32  1  0.882602  0.927383  0.086727  1
  O  O33  1  0.117398  0.072617  0.913273  1
  O  O34  1  0.074154  0.116189  0.411522  1
  O  O35  1  0.925846  0.883811  0.588478  1
