# generated using pymatgen
data_Dy5Ho3Np4O24
_symmetry_space_group_name_H-M   'P 1'
_cell_length_a   5.52599402
_cell_length_b   7.83397831
_cell_length_c   11.84154476
_cell_angle_alpha   73.78415052
_cell_angle_beta   90.00344226
_cell_angle_gamma   90.00859708
_symmetry_Int_Tables_number   1
_chemical_formula_structural   Dy5Ho3Np4O24
_chemical_formula_sum   'Dy5 Ho3 Np4 O24'
_cell_volume   492.23249767
_cell_formula_units_Z   1
loop_
 _symmetry_equiv_pos_site_id
 _symmetry_equiv_pos_as_xyz
  1  'x, y, z'
loop_
 _atom_site_type_symbol
 _atom_site_label
 _atom_site_symmetry_multiplicity
 _atom_site_fract_x
 _atom_site_fract_y
 _atom_site_fract_z
 _atom_site_occupancy
  Dy  Dy0  1  0.744285  0.000124  0.750143  1
  Dy  Dy1  1  0.255693  0.000087  0.249866  1
  Dy  Dy2  1  0.186623  0.795236  0.579463  1
  Dy  Dy3  1  0.698909  0.499826  0.750137  1
  Dy  Dy4  1  0.301131  0.499953  0.250002  1
  Ho  Ho5  1  0.813315  0.794964  0.079580  1
  Ho  Ho6  1  0.186675  0.205056  0.920365  1
  Ho  Ho7  1  0.813253  0.205195  0.420337  1
  Np  Np8  1  0.255474  0.720004  0.887154  1
  Np  Np9  1  0.744735  0.719962  0.386760  1
  Np  Np10  1  0.255322  0.279959  0.613029  1
  Np  Np11  1  0.744632  0.279936  0.113011  1
  O  O12  1  0.044775  0.943604  0.897112  1
  O  O13  1  0.553276  0.848677  0.932057  1
  O  O14  1  0.955166  0.943723  0.396929  1
  O  O15  1  0.449582  0.800680  0.727076  1
  O  O16  1  0.447634  0.848952  0.431316  1
  O  O17  1  0.964104  0.713919  0.766467  1
  O  O18  1  0.551074  0.800733  0.226466  1
  O  O19  1  0.875111  0.626105  0.555013  1
  O  O20  1  0.388474  0.480246  0.883585  1
  O  O21  1  0.035800  0.713987  0.266130  1
  O  O22  1  0.389131  0.519232  0.616472  1
  O  O23  1  0.876246  0.373265  0.944971  1
  O  O24  1  0.123705  0.626671  0.055124  1
  O  O25  1  0.611351  0.480161  0.383528  1
  O  O26  1  0.964344  0.286063  0.733929  1
  O  O27  1  0.611478  0.519712  0.116420  1
  O  O28  1  0.123757  0.373377  0.444855  1
  O  O29  1  0.448908  0.199181  0.773446  1
  O  O30  1  0.035685  0.285993  0.233834  1
  O  O31  1  0.553153  0.151150  0.568054  1
  O  O32  1  0.551070  0.199260  0.273384  1
  O  O33  1  0.044114  0.057226  0.603007  1
  O  O34  1  0.446756  0.151373  0.068069  1
  O  O35  1  0.955259  0.056408  0.102911  1
