# generated using pymatgen
data_Y3HoLu4(B6Ru)4
_symmetry_space_group_name_H-M   'P 1'
_cell_length_a   3.62126800
_cell_length_b   9.06994900
_cell_length_c   11.45651801
_cell_angle_alpha   89.99627628
_cell_angle_beta   90.00000000
_cell_angle_gamma   90.00000000
_symmetry_Int_Tables_number   1
_chemical_formula_structural   Y3HoLu4(B6Ru)4
_chemical_formula_sum   'Y3 Ho1 Lu4 B24 Ru4'
_cell_volume   376.28608057
_cell_formula_units_Z   1
loop_
 _symmetry_equiv_pos_site_id
 _symmetry_equiv_pos_as_xyz
  1  'x, y, z'
loop_
 _atom_site_type_symbol
 _atom_site_label
 _atom_site_symmetry_multiplicity
 _atom_site_fract_x
 _atom_site_fract_y
 _atom_site_fract_z
 _atom_site_occupancy
  Y  Y0  1  0.000000  0.321404  0.414373  1
  Y  Y1  1  0.000000  0.678582  0.585726  1
  Y  Y2  1  0.000000  0.821456  0.085533  1
  Ho  Ho3  1  0.000000  0.178541  0.914388  1
  Lu  Lu4  1  0.000000  0.943767  0.372225  1
  Lu  Lu5  1  0.000000  0.056283  0.627762  1
  Lu  Lu6  1  0.000000  0.443645  0.127387  1
  Lu  Lu7  1  0.000000  0.556178  0.872487  1
  B  B8  1  0.500000  0.554511  0.432738  1
  B  B9  1  0.500000  0.445243  0.567534  1
  B  B10  1  0.500000  0.054873  0.066745  1
  B  B11  1  0.500000  0.945865  0.932778  1
  B  B12  1  0.500000  0.749881  0.418957  1
  B  B13  1  0.500000  0.250024  0.581303  1
  B  B14  1  0.500000  0.249802  0.080363  1
  B  B15  1  0.500000  0.750331  0.919079  1
  B  B16  1  0.500000  0.791786  0.265505  1
  B  B17  1  0.500000  0.208013  0.734885  1
  B  B18  1  0.500000  0.291705  0.233944  1
  B  B19  1  0.500000  0.708344  0.765869  1
  B  B20  1  0.500000  0.630439  0.184068  1
  B  B21  1  0.500000  0.369114  0.816230  1
  B  B22  1  0.500000  0.130523  0.315567  1
  B  B23  1  0.500000  0.869701  0.684397  1
  B  B24  1  0.500000  0.982930  0.213262  1
  B  B25  1  0.500000  0.017558  0.786793  1
  B  B26  1  0.500000  0.482744  0.286263  1
  B  B27  1  0.500000  0.516992  0.713876  1
  B  B28  1  0.500000  0.603773  0.028367  1
  B  B29  1  0.500000  0.395802  0.971442  1
  B  B30  1  0.500000  0.103535  0.471647  1
  B  B31  1  0.500000  0.896572  0.528389  1
  Ru  Ru32  1  0.000000  0.638431  0.319943  1
  Ru  Ru33  1  0.000000  0.361226  0.680438  1
  Ru  Ru34  1  0.000000  0.138461  0.179512  1
  Ru  Ru35  1  0.000000  0.861962  0.820227  1
