# generated using pymatgen
data_HoEr3(FeOs)4
_symmetry_space_group_name_H-M   'P 1'
_cell_length_a   5.16976100
_cell_length_b   5.26228358
_cell_length_c   9.18391010
_cell_angle_alpha   72.61575903
_cell_angle_beta   90.00000000
_cell_angle_gamma   119.42007598
_symmetry_Int_Tables_number   1
_chemical_formula_structural   HoEr3(FeOs)4
_chemical_formula_sum   'Ho1 Er3 Fe4 Os4'
_cell_volume   204.42305193
_cell_formula_units_Z   1
loop_
 _symmetry_equiv_pos_site_id
 _symmetry_equiv_pos_as_xyz
  1  'x, y, z'
loop_
 _atom_site_type_symbol
 _atom_site_label
 _atom_site_symmetry_multiplicity
 _atom_site_fract_x
 _atom_site_fract_y
 _atom_site_fract_z
 _atom_site_occupancy
  Ho  Ho0  1  0.311619  0.123239  0.061520  1
  Er  Er1  1  0.811942  0.123884  0.561327  1
  Er  Er2  1  0.188288  0.876574  0.438622  1
  Er  Er3  1  0.688176  0.876353  0.938477  1
  Fe  Fe4  1  0.749853  0.499768  0.249999  1
  Fe  Fe5  1  0.250136  0.500275  0.750027  1
  Fe  Fe6  1  0.249914  0.499768  0.249999  1
  Fe  Fe7  1  0.750139  0.500275  0.750027  1
  Os  Os8  1  0.999914  0.499827  0.000045  1
  Os  Os9  1  0.500025  0.500051  0.500001  1
  Os  Os10  1  0.749929  0.999860  0.250341  1
  Os  Os11  1  0.250063  0.000128  0.749620  1
