# generated using pymatgen
data_Ho2Si5Os2Rh
_symmetry_space_group_name_H-M   'P 1'
_cell_length_a   8.10209403
_cell_length_b   8.10209387
_cell_length_c   5.77658792
_cell_angle_alpha   70.91025948
_cell_angle_beta   70.91026436
_cell_angle_gamma   94.17280701
_symmetry_Int_Tables_number   1
_chemical_formula_structural   Ho2Si5Os2Rh
_chemical_formula_sum   'Ho4 Si10 Os4 Rh2'
_cell_volume   331.70989728
_cell_formula_units_Z   2
loop_
 _symmetry_equiv_pos_site_id
 _symmetry_equiv_pos_as_xyz
  1  'x, y, z'
loop_
 _atom_site_type_symbol
 _atom_site_label
 _atom_site_symmetry_multiplicity
 _atom_site_fract_x
 _atom_site_fract_y
 _atom_site_fract_z
 _atom_site_occupancy
  Ho  Ho0  1  0.866664  0.599375  0.757152  1
  Ho  Ho1  1  0.400625  0.133336  0.742848  1
  Ho  Ho2  1  0.129840  0.399292  0.248152  1
  Ho  Ho3  1  0.600708  0.870160  0.251848  1
  Si  Si4  1  0.065613  0.260663  0.834943  1
  Si  Si5  1  0.739337  0.934387  0.665057  1
  Si  Si6  1  0.935309  0.737084  0.165082  1
  Si  Si7  1  0.262916  0.064691  0.334918  1
  Si  Si8  1  0.208898  0.791102  0.750000  1
  Si  Si9  1  0.793048  0.206952  0.250000  1
  Si  Si10  1  0.514815  0.485185  0.750000  1
  Si  Si11  1  0.488101  0.511899  0.250000  1
  Si  Si12  1  0.772616  0.227384  0.750000  1
  Si  Si13  1  0.222366  0.777634  0.250000  1
  Os  Os14  1  0.742723  0.458150  0.367518  1
  Os  Os15  1  0.541850  0.257277  0.132482  1
  Os  Os16  1  0.005183  0.994817  0.750000  1
  Os  Os17  1  0.995682  0.004318  0.250000  1
  Rh  Rh18  1  0.257256  0.543552  0.627617  1
  Rh  Rh19  1  0.456448  0.742744  0.872383  1
