# generated using pymatgen
data_Pa2NiSe6
_symmetry_space_group_name_H-M   'P 1'
_cell_length_a   7.60410139
_cell_length_b   7.60410115
_cell_length_c   11.36594166
_cell_angle_alpha   57.19830384
_cell_angle_beta   57.19830455
_cell_angle_gamma   29.82519118
_symmetry_Int_Tables_number   1
_chemical_formula_structural   Pa2NiSe6
_chemical_formula_sum   'Pa2 Ni1 Se6'
_cell_volume   270.66907095
_cell_formula_units_Z   1
loop_
 _symmetry_equiv_pos_site_id
 _symmetry_equiv_pos_as_xyz
  1  'x, y, z'
loop_
 _atom_site_type_symbol
 _atom_site_label
 _atom_site_symmetry_multiplicity
 _atom_site_fract_x
 _atom_site_fract_y
 _atom_site_fract_z
 _atom_site_occupancy
  Pa  Pa0  1  0.320188  0.320188  0.290561  1
  Pa  Pa1  1  0.679812  0.679812  0.709439  1
  Ni  Ni2  1  0.000000  0.000000  0.000000  1
  Se  Se3  1  0.659237  0.659237  0.471801  1
  Se  Se4  1  0.014901  0.014901  0.783466  1
  Se  Se5  1  0.985099  0.985099  0.216534  1
  Se  Se6  1  0.340763  0.340763  0.528199  1
  Se  Se7  1  0.810057  0.810057  0.113754  1
  Se  Se8  1  0.189943  0.189943  0.886246  1
