# generated using pymatgen
data_La4Pd5RuO19
_symmetry_space_group_name_H-M   'P 1'
_cell_length_a   7.89310744
_cell_length_b   7.85215381
_cell_length_c   7.89310714
_cell_angle_alpha   109.60416011
_cell_angle_beta   109.85707299
_cell_angle_gamma   109.16253415
_symmetry_Int_Tables_number   1
_chemical_formula_structural   La4Pd5RuO19
_chemical_formula_sum   'La4 Pd5 Ru1 O19'
_cell_volume   375.59467772
_cell_formula_units_Z   1
loop_
 _symmetry_equiv_pos_site_id
 _symmetry_equiv_pos_as_xyz
  1  'x, y, z'
loop_
 _atom_site_type_symbol
 _atom_site_label
 _atom_site_symmetry_multiplicity
 _atom_site_fract_x
 _atom_site_fract_y
 _atom_site_fract_z
 _atom_site_occupancy
  La  La0  1  0.010613  0.016651  0.327908  1
  La  La1  1  0.998702  0.319907  0.996932  1
  La  La2  1  0.677025  0.680093  0.678795  1
  La  La3  1  0.311258  0.983349  0.993963  1
  Pd  Pd4  1  0.337530  0.500000  0.837530  1
  Pd  Pd5  1  0.841335  0.339842  0.498281  1
  Pd  Pd6  1  0.501821  0.161097  0.659738  1
  Pd  Pd7  1  0.158439  0.660158  0.501492  1
  Pd  Pd8  1  0.498641  0.838903  0.340724  1
  Ru  Ru9  1  0.662940  0.500000  0.162940  1
  O  O10  1  0.342712  0.000000  0.342712  1
  O  O11  1  0.355652  0.349172  0.002613  1
  O  O12  1  0.998419  0.661030  0.660698  1
  O  O13  1  0.653441  0.650828  0.006480  1
  O  O14  1  0.999668  0.338970  0.337389  1
  O  O15  1  0.662287  0.000000  0.662287  1
  O  O16  1  0.001379  0.000000  0.001379  1
  O  O17  1  0.365855  0.328774  0.606468  1
  O  O18  1  0.038088  0.282520  0.672557  1
  O  O19  1  0.754890  0.392729  0.713887  1
  O  O20  1  0.390037  0.717480  0.755567  1
  O  O21  1  0.248305  0.965902  0.641719  1
  O  O22  1  0.607547  0.358637  0.311276  1
  O  O23  1  0.321158  0.607271  0.362161  1
  O  O24  1  0.675816  0.034098  0.282401  1
  O  O25  1  0.952638  0.641363  0.248910  1
  O  O26  1  0.705289  0.737772  0.388595  1
  O  O27  1  0.650823  0.262228  0.967515  1
  O  O28  1  0.277694  0.671226  0.037082  1
