# generated using pymatgen
data_Ce8Re(TcB8)3
_symmetry_space_group_name_H-M   'P 1'
_cell_length_a   3.74054000
_cell_length_b   9.43756790
_cell_length_c   11.55558009
_cell_angle_alpha   90.04988935
_cell_angle_beta   90.00000000
_cell_angle_gamma   90.00000000
_symmetry_Int_Tables_number   1
_chemical_formula_structural   Ce8Re(TcB8)3
_chemical_formula_sum   'Ce8 Re1 Tc3 B24'
_cell_volume   407.93031409
_cell_formula_units_Z   1
loop_
 _symmetry_equiv_pos_site_id
 _symmetry_equiv_pos_as_xyz
  1  'x, y, z'
loop_
 _atom_site_type_symbol
 _atom_site_label
 _atom_site_symmetry_multiplicity
 _atom_site_fract_x
 _atom_site_fract_y
 _atom_site_fract_z
 _atom_site_occupancy
  Ce  Ce0  1  0.000000  0.336130  0.408020  1
  Ce  Ce1  1  0.000000  0.664252  0.592131  1
  Ce  Ce2  1  0.000000  0.835869  0.091799  1
  Ce  Ce3  1  0.000000  0.164115  0.908063  1
  Ce  Ce4  1  0.000000  0.953828  0.389000  1
  Ce  Ce5  1  0.000000  0.046430  0.610557  1
  Ce  Ce6  1  0.000000  0.453714  0.110991  1
  Ce  Ce7  1  0.000000  0.545723  0.889463  1
  Re  Re8  1  0.000000  0.855672  0.821178  1
  Tc  Tc9  1  0.000000  0.644417  0.321092  1
  Tc  Tc10  1  0.000000  0.355581  0.679040  1
  Tc  Tc11  1  0.000000  0.144188  0.178914  1
  B  B12  1  0.500000  0.553029  0.430100  1
  B  B13  1  0.500000  0.447098  0.569975  1
  B  B14  1  0.500000  0.052917  0.069846  1
  B  B15  1  0.500000  0.947167  0.930188  1
  B  B16  1  0.500000  0.742105  0.422893  1
  B  B17  1  0.500000  0.258049  0.576988  1
  B  B18  1  0.500000  0.241978  0.077036  1
  B  B19  1  0.500000  0.757819  0.923050  1
  B  B20  1  0.500000  0.798974  0.275098  1
  B  B21  1  0.500000  0.200996  0.724829  1
  B  B22  1  0.500000  0.298968  0.224826  1
  B  B23  1  0.500000  0.700910  0.775190  1
  B  B24  1  0.500000  0.644903  0.190043  1
  B  B25  1  0.500000  0.354970  0.810041  1
  B  B26  1  0.500000  0.144961  0.309884  1
  B  B27  1  0.500000  0.855080  0.689960  1
  B  B28  1  0.500000  0.991295  0.217269  1
  B  B29  1  0.500000  0.008837  0.782590  1
  B  B30  1  0.500000  0.491374  0.282656  1
  B  B31  1  0.500000  0.508605  0.717479  1
  B  B32  1  0.500000  0.646955  0.041560  1
  B  B33  1  0.500000  0.352628  0.958629  1
  B  B34  1  0.500000  0.147379  0.458375  1
  B  B35  1  0.500000  0.853084  0.541245  1
