# generated using pymatgen
data_Dy13Y3MgAg3Rh4
_symmetry_space_group_name_H-M   'P 1'
_cell_length_a   9.55847195
_cell_length_b   9.58204405
_cell_length_c   9.58152112
_cell_angle_alpha   60.22062265
_cell_angle_beta   60.24330137
_cell_angle_gamma   60.21674017
_symmetry_Int_Tables_number   1
_chemical_formula_structural   Dy13Y3MgAg3Rh4
_chemical_formula_sum   'Dy13 Y3 Mg1 Ag3 Rh4'
_cell_volume   623.72216446
_cell_formula_units_Z   1
loop_
 _symmetry_equiv_pos_site_id
 _symmetry_equiv_pos_as_xyz
  1  'x, y, z'
loop_
 _atom_site_type_symbol
 _atom_site_label
 _atom_site_symmetry_multiplicity
 _atom_site_fract_x
 _atom_site_fract_y
 _atom_site_fract_z
 _atom_site_occupancy
  Dy  Dy0  1  0.601306  0.597821  0.598072  1
  Dy  Dy1  1  0.599490  0.597899  0.204519  1
  Dy  Dy2  1  0.599340  0.204801  0.597880  1
  Dy  Dy3  1  0.186416  0.604559  0.604626  1
  Dy  Dy4  1  0.059795  0.438085  0.438709  1
  Dy  Dy5  1  0.436439  0.062830  0.062712  1
  Dy  Dy6  1  0.435802  0.063089  0.436289  1
  Dy  Dy7  1  0.059547  0.438686  0.060719  1
  Dy  Dy8  1  0.435843  0.435863  0.063204  1
  Dy  Dy9  1  0.059605  0.060767  0.438963  1
  Dy  Dy10  1  0.184799  0.813562  0.813143  1
  Dy  Dy11  1  0.814966  0.186040  0.185807  1
  Dy  Dy12  1  0.813562  0.186469  0.814691  1
  Y  Y13  1  0.184669  0.814275  0.186201  1
  Y  Y14  1  0.813895  0.815438  0.186071  1
  Y  Y15  1  0.184277  0.185916  0.814315  1
  Mg  Mg16  1  0.539651  0.820594  0.820579  1
  Ag  Ag17  1  0.832827  0.835546  0.834695  1
  Ag  Ag18  1  0.832561  0.835845  0.499023  1
  Ag  Ag19  1  0.832599  0.498036  0.835685  1
  Rh  Rh20  1  0.387954  0.394053  0.393933  1
  Rh  Rh21  1  0.390697  0.396089  0.821472  1
  Rh  Rh22  1  0.390584  0.821327  0.396072  1
  Rh  Rh23  1  0.823377  0.392413  0.392623  1
