# generated using pymatgen
data_Y10In5BiCl2
_symmetry_space_group_name_H-M   'P 1'
_cell_length_a   9.14357200
_cell_length_b   9.14357162
_cell_length_c   6.68296000
_cell_angle_alpha   90.00000000
_cell_angle_beta   90.00000000
_cell_angle_gamma   120.16419803
_symmetry_Int_Tables_number   1
_chemical_formula_structural   Y10In5BiCl2
_chemical_formula_sum   'Y10 In5 Bi1 Cl2'
_cell_volume   483.07026224
_cell_formula_units_Z   1
loop_
 _symmetry_equiv_pos_site_id
 _symmetry_equiv_pos_as_xyz
  1  'x, y, z'
loop_
 _atom_site_type_symbol
 _atom_site_label
 _atom_site_symmetry_multiplicity
 _atom_site_fract_x
 _atom_site_fract_y
 _atom_site_fract_z
 _atom_site_occupancy
  Y  Y0  1  0.260064  0.001205  0.750000  1
  Y  Y1  1  0.744432  0.007442  0.250000  1
  Y  Y2  1  0.001205  0.260064  0.750000  1
  Y  Y3  1  0.007442  0.744432  0.250000  1
  Y  Y4  1  0.742532  0.742532  0.750000  1
  Y  Y5  1  0.253413  0.253413  0.250000  1
  Y  Y6  1  0.328808  0.667198  0.502766  1
  Y  Y7  1  0.667198  0.328808  0.502766  1
  Y  Y8  1  0.667198  0.328808  0.997234  1
  Y  Y9  1  0.328808  0.667198  0.997234  1
  In  In10  1  0.606744  0.998739  0.750000  1
  In  In11  1  0.395644  0.001685  0.250000  1
  In  In12  1  0.998739  0.606744  0.750000  1
  In  In13  1  0.001685  0.395644  0.250000  1
  In  In14  1  0.391981  0.391981  0.750000  1
  Bi  Bi15  1  0.608759  0.608759  0.250000  1
  Cl  Cl16  1  0.997673  0.997673  0.498552  1
  Cl  Cl17  1  0.997673  0.997673  0.001448  1
