# generated using pymatgen
data_Tb16Tl3InTcRh3
_symmetry_space_group_name_H-M   'P 1'
_cell_length_a   9.69565624
_cell_length_b   9.73959745
_cell_length_c   9.72217600
_cell_angle_alpha   60.05915289
_cell_angle_beta   59.90947830
_cell_angle_gamma   59.96821100
_symmetry_Int_Tables_number   1
_chemical_formula_structural   Tb16Tl3InTcRh3
_chemical_formula_sum   'Tb16 Tl3 In1 Tc1 Rh3'
_cell_volume   648.87018467
_cell_formula_units_Z   1
loop_
 _symmetry_equiv_pos_site_id
 _symmetry_equiv_pos_as_xyz
  1  'x, y, z'
loop_
 _atom_site_type_symbol
 _atom_site_label
 _atom_site_symmetry_multiplicity
 _atom_site_fract_x
 _atom_site_fract_y
 _atom_site_fract_z
 _atom_site_occupancy
  Tb  Tb0  1  0.811831  0.808681  0.189744  1
  Tb  Tb1  1  0.812023  0.192327  0.807419  1
  Tb  Tb2  1  0.188643  0.192198  0.809580  1
  Tb  Tb3  1  0.649983  0.047409  0.651304  1
  Tb  Tb4  1  0.060661  0.061278  0.439030  1
  Tb  Tb5  1  0.446570  0.436807  0.058312  1
  Tb  Tb6  1  0.650390  0.651134  0.650974  1
  Tb  Tb7  1  0.812023  0.192327  0.188231  1
  Tb  Tb8  1  0.191021  0.810295  0.808785  1
  Tb  Tb9  1  0.048097  0.650958  0.650473  1
  Tb  Tb10  1  0.439149  0.060104  0.062058  1
  Tb  Tb11  1  0.439149  0.060104  0.438689  1
  Tb  Tb12  1  0.057424  0.437468  0.058851  1
  Tb  Tb13  1  0.650390  0.651134  0.047501  1
  Tb  Tb14  1  0.191021  0.810295  0.189898  1
  Tb  Tb15  1  0.057424  0.437468  0.446257  1
  Tl  Tl16  1  0.416302  0.413201  0.414605  1
  Tl  Tl17  1  0.416302  0.413201  0.755892  1
  Tl  Tl18  1  0.417019  0.753437  0.414772  1
  In  In19  1  0.749812  0.416090  0.417049  1
  Tc  Tc20  1  0.856126  0.425476  0.859200  1
  Rh  Rh21  1  0.857890  0.859965  0.858396  1
  Rh  Rh22  1  0.857890  0.859965  0.423750  1
  Rh  Rh23  1  0.422861  0.858680  0.859230  1
