# generated using pymatgen
data_Yb3AlGa2Ge2Pt
_symmetry_space_group_name_H-M   'P 1'
_cell_length_a   6.97833278
_cell_length_b   6.93799755
_cell_length_c   4.28805900
_cell_angle_alpha   90.00000000
_cell_angle_beta   90.00000000
_cell_angle_gamma   119.80898391
_symmetry_Int_Tables_number   1
_chemical_formula_structural   Yb3AlGa2Ge2Pt
_chemical_formula_sum   'Yb3 Al1 Ga2 Ge2 Pt1'
_cell_volume   180.13990130
_cell_formula_units_Z   1
loop_
 _symmetry_equiv_pos_site_id
 _symmetry_equiv_pos_as_xyz
  1  'x, y, z'
loop_
 _atom_site_type_symbol
 _atom_site_label
 _atom_site_symmetry_multiplicity
 _atom_site_fract_x
 _atom_site_fract_y
 _atom_site_fract_z
 _atom_site_occupancy
  Yb  Yb0  1  0.426268  0.002761  0.000000  1
  Yb  Yb1  1  0.000000  0.418398  0.000000  1
  Yb  Yb2  1  0.573731  0.576493  0.000000  1
  Al  Al3  1  0.000000  0.771506  0.500000  1
  Ga  Ga4  1  0.759352  0.995053  0.500000  1
  Ga  Ga5  1  0.240648  0.235702  0.500000  1
  Ge  Ge6  1  0.672316  0.339405  0.500000  1
  Ge  Ge7  1  0.327684  0.667089  0.500000  1
  Pt  Pt8  1  0.000000  0.993593  0.000000  1
