# generated using pymatgen
data_PrThPd5Pt
_symmetry_space_group_name_H-M   'P 1'
_cell_length_a   5.94312900
_cell_length_b   5.94312748
_cell_length_c   9.74570400
_cell_angle_alpha   90.00000000
_cell_angle_beta   90.00000000
_cell_angle_gamma   119.87500129
_symmetry_Int_Tables_number   1
_chemical_formula_structural   PrThPd5Pt
_chemical_formula_sum   'Pr2 Th2 Pd10 Pt2'
_cell_volume   298.48306707
_cell_formula_units_Z   2
loop_
 _symmetry_equiv_pos_site_id
 _symmetry_equiv_pos_as_xyz
  1  'x, y, z'
loop_
 _atom_site_type_symbol
 _atom_site_label
 _atom_site_symmetry_multiplicity
 _atom_site_fract_x
 _atom_site_fract_y
 _atom_site_fract_z
 _atom_site_occupancy
  Pr  Pr0  1  0.000000  0.000000  0.500000  1
  Pr  Pr1  1  0.000000  0.000000  0.000000  1
  Th  Th2  1  0.334214  0.665786  0.250000  1
  Th  Th3  1  0.665786  0.334214  0.750000  1
  Pd  Pd4  1  0.500000  0.000000  0.500000  1
  Pd  Pd5  1  0.000000  0.500000  0.500000  1
  Pd  Pd6  1  0.500000  0.000000  0.000000  1
  Pd  Pd7  1  0.000000  0.500000  0.000000  1
  Pd  Pd8  1  0.823657  0.645622  0.250000  1
  Pd  Pd9  1  0.354378  0.176343  0.250000  1
  Pd  Pd10  1  0.824094  0.175906  0.250000  1
  Pd  Pd11  1  0.176343  0.354378  0.750000  1
  Pd  Pd12  1  0.645622  0.823657  0.750000  1
  Pd  Pd13  1  0.175906  0.824094  0.750000  1
  Pt  Pt14  1  0.500000  0.500000  0.500000  1
  Pt  Pt15  1  0.500000  0.500000  0.000000  1
