# generated using pymatgen
data_Gd8Ta(TeO8)3
_symmetry_space_group_name_H-M   'P 1'
_cell_length_a   5.38082777
_cell_length_b   9.24756658
_cell_length_c   10.18854559
_cell_angle_alpha   89.67534655
_cell_angle_beta   89.81941317
_cell_angle_gamma   90.12316685
_symmetry_Int_Tables_number   1
_chemical_formula_structural   Gd8Ta(TeO8)3
_chemical_formula_sum   'Gd8 Ta1 Te3 O24'
_cell_volume   506.96572900
_cell_formula_units_Z   1
loop_
 _symmetry_equiv_pos_site_id
 _symmetry_equiv_pos_as_xyz
  1  'x, y, z'
loop_
 _atom_site_type_symbol
 _atom_site_label
 _atom_site_symmetry_multiplicity
 _atom_site_fract_x
 _atom_site_fract_y
 _atom_site_fract_z
 _atom_site_occupancy
  Gd  Gd0  1  0.480968  0.901979  0.038117  1
  Gd  Gd1  1  0.983656  0.599821  0.963212  1
  Gd  Gd2  1  0.519620  0.394385  0.461469  1
  Gd  Gd3  1  0.016692  0.101047  0.539430  1
  Gd  Gd4  1  0.455786  0.783162  0.632557  1
  Gd  Gd5  1  0.961952  0.716377  0.363015  1
  Gd  Gd6  1  0.541068  0.278775  0.868006  1
  Gd  Gd7  1  0.034344  0.215708  0.135472  1
  Ta  Ta8  1  0.978741  0.998402  0.854994  1
  Te  Te9  1  0.464353  0.505650  0.147521  1
  Te  Te10  1  0.038672  0.493772  0.647020  1
  Te  Te11  1  0.536811  0.004285  0.352247  1
  O  O12  1  0.242467  0.584954  0.506083  1
  O  O13  1  0.741676  0.912634  0.491987  1
  O  O14  1  0.756239  0.093014  0.995187  1
  O  O15  1  0.263367  0.415639  0.006744  1
  O  O16  1  0.270079  0.883284  0.430640  1
  O  O17  1  0.768765  0.612309  0.570357  1
  O  O18  1  0.736819  0.391518  0.069443  1
  O  O19  1  0.236791  0.117008  0.939441  1
  O  O20  1  0.185729  0.637013  0.179548  1
  O  O21  1  0.673873  0.869752  0.819421  1
  O  O22  1  0.812379  0.139727  0.322598  1
  O  O23  1  0.314673  0.360286  0.678414  1
  O  O24  1  0.319989  0.358804  0.259422  1
  O  O25  1  0.786694  0.130621  0.733101  1
  O  O26  1  0.685911  0.862056  0.238398  1
  O  O27  1  0.177533  0.641518  0.758356  1
  O  O28  1  0.326397  0.048526  0.205048  1
  O  O29  1  0.838911  0.441453  0.797547  1
  O  O30  1  0.667012  0.552326  0.297310  1
  O  O31  1  0.184366  0.959714  0.702307  1
  O  O32  1  0.410136  0.152759  0.468715  1
  O  O33  1  0.915730  0.344978  0.528984  1
  O  O34  1  0.587986  0.657715  0.029584  1
  O  O35  1  0.083816  0.839030  0.968304  1
