# generated using pymatgen
data_Tb3HoAl18(AgOs2)2
_symmetry_space_group_name_H-M   'P 1'
_cell_length_a   7.63158864
_cell_length_b   7.63107498
_cell_length_c   9.56738900
_cell_angle_alpha   90.00000000
_cell_angle_beta   90.00000000
_cell_angle_gamma   119.11071079
_symmetry_Int_Tables_number   1
_chemical_formula_structural   Tb3HoAl18(AgOs2)2
_chemical_formula_sum   'Tb3 Ho1 Al18 Ag2 Os4'
_cell_volume   486.79615901
_cell_formula_units_Z   1
loop_
 _symmetry_equiv_pos_site_id
 _symmetry_equiv_pos_as_xyz
  1  'x, y, z'
loop_
 _atom_site_type_symbol
 _atom_site_label
 _atom_site_symmetry_multiplicity
 _atom_site_fract_x
 _atom_site_fract_y
 _atom_site_fract_z
 _atom_site_occupancy
  Tb  Tb0  1  0.997431  0.677217  0.250000  1
  Tb  Tb1  1  0.002111  0.322824  0.750000  1
  Tb  Tb2  1  0.676825  0.997820  0.250000  1
  Ho  Ho3  1  0.323190  0.002113  0.750000  1
  Al  Al4  1  0.142415  0.142518  0.250000  1
  Al  Al5  1  0.857856  0.857618  0.750000  1
  Al  Al6  1  0.003899  0.348839  0.076228  1
  Al  Al7  1  0.996663  0.651896  0.923513  1
  Al  Al8  1  0.996663  0.651896  0.576487  1
  Al  Al9  1  0.348582  0.003750  0.424117  1
  Al  Al10  1  0.003899  0.348839  0.423772  1
  Al  Al11  1  0.651163  0.996318  0.576451  1
  Al  Al12  1  0.651163  0.996318  0.923549  1
  Al  Al13  1  0.348582  0.003750  0.075883  1
  Al  Al14  1  0.344914  0.344576  0.553509  1
  Al  Al15  1  0.654815  0.654821  0.447314  1
  Al  Al16  1  0.654815  0.654821  0.052686  1
  Al  Al17  1  0.344914  0.344576  0.946491  1
  Al  Al18  1  0.337442  0.553975  0.250000  1
  Al  Al19  1  0.662335  0.445428  0.750000  1
  Al  Al20  1  0.553669  0.337092  0.250000  1
  Al  Al21  1  0.445738  0.662723  0.750000  1
  Ag  Ag22  1  0.000241  0.000016  0.999837  1
  Ag  Ag23  1  0.000241  0.000016  0.500163  1
  Os  Os24  1  0.672684  0.327368  0.999713  1
  Os  Os25  1  0.327534  0.672752  0.999688  1
  Os  Os26  1  0.327534  0.672752  0.500312  1
  Os  Os27  1  0.672684  0.327368  0.500287  1
