# generated using pymatgen
data_Rb3Sb3Pt2
_symmetry_space_group_name_H-M   'P 1'
_cell_length_a   7.13749100
_cell_length_b   7.41064259
_cell_length_c   11.50592498
_cell_angle_alpha   72.38975878
_cell_angle_beta   90.00000000
_cell_angle_gamma   90.00000000
_symmetry_Int_Tables_number   1
_chemical_formula_structural   Rb3Sb3Pt2
_chemical_formula_sum   'Rb6 Sb6 Pt4'
_cell_volume   580.06696022
_cell_formula_units_Z   2
loop_
 _symmetry_equiv_pos_site_id
 _symmetry_equiv_pos_as_xyz
  1  'x, y, z'
loop_
 _atom_site_type_symbol
 _atom_site_label
 _atom_site_symmetry_multiplicity
 _atom_site_fract_x
 _atom_site_fract_y
 _atom_site_fract_z
 _atom_site_occupancy
  Rb  Rb0  1  0.250000  0.434473  0.433031  1
  Rb  Rb1  1  0.750000  0.159705  0.909554  1
  Rb  Rb2  1  0.750000  0.463442  0.159740  1
  Rb  Rb3  1  0.250000  0.536558  0.840260  1
  Rb  Rb4  1  0.750000  0.565527  0.566969  1
  Rb  Rb5  1  0.250000  0.840295  0.090446  1
  Sb  Sb6  1  0.250000  0.865455  0.539064  1
  Sb  Sb7  1  0.750000  0.134545  0.460936  1
  Sb  Sb8  1  0.250000  0.274297  0.166722  1
  Sb  Sb9  1  0.750000  0.725703  0.833278  1
  Sb  Sb10  1  0.250000  0.093988  0.738283  1
  Sb  Sb11  1  0.750000  0.906012  0.261717  1
  Pt  Pt12  1  0.047729  0.036092  0.340352  1
  Pt  Pt13  1  0.547729  0.963908  0.659648  1
  Pt  Pt14  1  0.452271  0.036092  0.340352  1
  Pt  Pt15  1  0.952271  0.963908  0.659648  1
