# generated using pymatgen
data_Dy3Th(CdCu2)2
_symmetry_space_group_name_H-M   'P 1'
_cell_length_a   7.63635650
_cell_length_b   7.63635650
_cell_length_c   3.69553400
_cell_angle_alpha   90.00000000
_cell_angle_beta   90.00000000
_cell_angle_gamma   91.31590958
_symmetry_Int_Tables_number   1
_chemical_formula_structural   Dy3Th(CdCu2)2
_chemical_formula_sum   'Dy3 Th1 Cd2 Cu4'
_cell_volume   215.44431618
_cell_formula_units_Z   1
loop_
 _symmetry_equiv_pos_site_id
 _symmetry_equiv_pos_as_xyz
  1  'x, y, z'
loop_
 _atom_site_type_symbol
 _atom_site_label
 _atom_site_symmetry_multiplicity
 _atom_site_fract_x
 _atom_site_fract_y
 _atom_site_fract_z
 _atom_site_occupancy
  Dy  Dy0  1  0.324024  0.824024  0.500000  1
  Dy  Dy1  1  0.175959  0.328815  0.500000  1
  Dy  Dy2  1  0.828815  0.675959  0.500000  1
  Th  Th3  1  0.672775  0.172775  0.500000  1
  Cd  Cd4  1  0.006475  0.997056  0.000000  1
  Cd  Cd5  1  0.497056  0.506475  0.000000  1
  Cu  Cu6  1  0.118686  0.618686  0.000000  1
  Cu  Cu7  1  0.882168  0.382168  0.000000  1
  Cu  Cu8  1  0.618006  0.876037  0.000000  1
  Cu  Cu9  1  0.376037  0.118006  0.000000  1
