# generated using pymatgen
data_BaSc2(H6Ru)2
_symmetry_space_group_name_H-M   'P 1'
_cell_length_a   4.77679900
_cell_length_b   4.77680074
_cell_length_c   8.32388000
_cell_angle_alpha   90.00000000
_cell_angle_beta   90.00000000
_cell_angle_gamma   119.99999490
_symmetry_Int_Tables_number   1
_chemical_formula_structural   BaSc2(H6Ru)2
_chemical_formula_sum   'Ba1 Sc2 H12 Ru2'
_cell_volume   164.48661267
_cell_formula_units_Z   1
loop_
 _symmetry_equiv_pos_site_id
 _symmetry_equiv_pos_as_xyz
  1  'x, y, z'
loop_
 _atom_site_type_symbol
 _atom_site_label
 _atom_site_symmetry_multiplicity
 _atom_site_fract_x
 _atom_site_fract_y
 _atom_site_fract_z
 _atom_site_occupancy
  Ba  Ba0  1  0.000000  0.000000  0.000000  1
  Sc  Sc1  1  0.666667  0.333333  0.373491  1
  Sc  Sc2  1  0.333333  0.666667  0.626509  1
  H  H3  1  0.159974  0.840026  0.395673  1
  H  H4  1  0.680053  0.840026  0.395673  1
  H  H5  1  0.159974  0.319947  0.395673  1
  H  H6  1  0.840026  0.159974  0.604327  1
  H  H7  1  0.319947  0.159974  0.604327  1
  H  H8  1  0.840026  0.680053  0.604327  1
  H  H9  1  0.498009  0.996018  0.831043  1
  H  H10  1  0.498009  0.501991  0.831043  1
  H  H11  1  0.003982  0.501991  0.831043  1
  H  H12  1  0.501991  0.003982  0.168957  1
  H  H13  1  0.501991  0.498009  0.168957  1
  H  H14  1  0.996018  0.498009  0.168957  1
  Ru  Ru15  1  0.666667  0.333333  0.711328  1
  Ru  Ru16  1  0.333333  0.666667  0.288672  1
