# generated using pymatgen
data_Ti3GaAuO
_symmetry_space_group_name_H-M   'P 1'
_cell_length_a   6.94480300
_cell_length_b   6.94480300
_cell_length_c   6.94480300
_cell_angle_alpha   90.00000000
_cell_angle_beta   90.00000000
_cell_angle_gamma   90.00000000
_symmetry_Int_Tables_number   1
_chemical_formula_structural   Ti3GaAuO
_chemical_formula_sum   'Ti12 Ga4 Au4 O4'
_cell_volume   334.94985372
_cell_formula_units_Z   4
loop_
 _symmetry_equiv_pos_site_id
 _symmetry_equiv_pos_as_xyz
  1  'x, y, z'
loop_
 _atom_site_type_symbol
 _atom_site_label
 _atom_site_symmetry_multiplicity
 _atom_site_fract_x
 _atom_site_fract_y
 _atom_site_fract_z
 _atom_site_occupancy
  Ti  Ti0  1  0.785899  0.956650  0.377682  1
  Ti  Ti1  1  0.714101  0.043350  0.877682  1
  Ti  Ti2  1  0.214101  0.456650  0.122318  1
  Ti  Ti3  1  0.285899  0.543350  0.622318  1
  Ti  Ti4  1  0.956650  0.377682  0.785899  1
  Ti  Ti5  1  0.043350  0.877682  0.714101  1
  Ti  Ti6  1  0.456650  0.122318  0.214101  1
  Ti  Ti7  1  0.543350  0.622318  0.285899  1
  Ti  Ti8  1  0.377682  0.785899  0.956650  1
  Ti  Ti9  1  0.877682  0.714101  0.043350  1
  Ti  Ti10  1  0.122318  0.214101  0.456650  1
  Ti  Ti11  1  0.622318  0.285899  0.543350  1
  Ga  Ga12  1  0.569230  0.430770  0.930770  1
  Ga  Ga13  1  0.430770  0.930770  0.569230  1
  Ga  Ga14  1  0.930770  0.569230  0.430770  1
  Ga  Ga15  1  0.069230  0.069230  0.069230  1
  Au  Au16  1  0.180473  0.819527  0.319527  1
  Au  Au17  1  0.319527  0.180473  0.819527  1
  Au  Au18  1  0.819527  0.319527  0.180473  1
  Au  Au19  1  0.680473  0.680473  0.680473  1
  O  O20  1  0.875073  0.124927  0.624927  1
  O  O21  1  0.624927  0.875073  0.124927  1
  O  O22  1  0.124927  0.624927  0.875073  1
  O  O23  1  0.375073  0.375073  0.375073  1
