# generated using pymatgen
data_Y2Zr2Al17Co6Si
_symmetry_space_group_name_H-M   'P 1'
_cell_length_a   7.33816197
_cell_length_b   7.31004272
_cell_length_c   9.13139100
_cell_angle_alpha   90.00000000
_cell_angle_beta   90.00000000
_cell_angle_gamma   119.40527521
_symmetry_Int_Tables_number   1
_chemical_formula_structural   Y2Zr2Al17Co6Si
_chemical_formula_sum   'Y2 Zr2 Al17 Co6 Si1'
_cell_volume   426.72330921
_cell_formula_units_Z   1
loop_
 _symmetry_equiv_pos_site_id
 _symmetry_equiv_pos_as_xyz
  1  'x, y, z'
loop_
 _atom_site_type_symbol
 _atom_site_label
 _atom_site_symmetry_multiplicity
 _atom_site_fract_x
 _atom_site_fract_y
 _atom_site_fract_z
 _atom_site_occupancy
  Y  Y0  1  0.675627  0.991240  0.250000  1
  Y  Y1  1  0.328444  0.007475  0.750000  1
  Zr  Zr2  1  0.992660  0.675625  0.250000  1
  Zr  Zr3  1  0.006227  0.328726  0.750000  1
  Al  Al4  1  0.878570  0.881310  0.750000  1
  Al  Al5  1  0.329961  0.332512  0.547957  1
  Al  Al6  1  0.668561  0.665991  0.044966  1
  Al  Al7  1  0.329961  0.332512  0.952043  1
  Al  Al8  1  0.668561  0.665991  0.455034  1
  Al  Al9  1  0.330249  0.553135  0.250000  1
  Al  Al10  1  0.667517  0.446368  0.750000  1
  Al  Al11  1  0.561011  0.342474  0.250000  1
  Al  Al12  1  0.438997  0.655545  0.750000  1
  Al  Al13  1  0.997270  0.338265  0.071637  1
  Al  Al14  1  0.003196  0.662954  0.570501  1
  Al  Al15  1  0.334000  0.996623  0.424849  1
  Al  Al16  1  0.667418  0.004622  0.926496  1
  Al  Al17  1  0.003196  0.662954  0.929499  1
  Al  Al18  1  0.997270  0.338265  0.428363  1
  Al  Al19  1  0.667418  0.004622  0.573504  1
  Al  Al20  1  0.334000  0.996623  0.075151  1
  Co  Co21  1  0.001286  0.001101  0.007778  1
  Co  Co22  1  0.001286  0.001101  0.492222  1
  Co  Co23  1  0.670512  0.327944  0.000211  1
  Co  Co24  1  0.327247  0.669644  0.498993  1
  Co  Co25  1  0.327247  0.669644  0.001007  1
  Co  Co26  1  0.670512  0.327944  0.499789  1
  Si  Si27  1  0.121795  0.118792  0.250000  1
