# generated using pymatgen
data_Ca10Cu3Ag2Ir
_symmetry_space_group_name_H-M   'P 1'
_cell_length_a   9.15313696
_cell_length_b   9.15313678
_cell_length_c   9.18158219
_cell_angle_alpha   129.90702010
_cell_angle_beta   129.90702324
_cell_angle_gamma   73.31709717
_symmetry_Int_Tables_number   1
_chemical_formula_structural   Ca10Cu3Ag2Ir
_chemical_formula_sum   'Ca10 Cu3 Ag2 Ir1'
_cell_volume   442.38476223
_cell_formula_units_Z   1
loop_
 _symmetry_equiv_pos_site_id
 _symmetry_equiv_pos_as_xyz
  1  'x, y, z'
loop_
 _atom_site_type_symbol
 _atom_site_label
 _atom_site_symmetry_multiplicity
 _atom_site_fract_x
 _atom_site_fract_y
 _atom_site_fract_z
 _atom_site_occupancy
  Ca  Ca0  1  0.532736  0.023432  0.833262  1
  Ca  Ca1  1  0.199474  0.690169  0.166738  1
  Ca  Ca2  1  0.030430  0.189804  0.500000  1
  Ca  Ca3  1  0.683583  0.543124  0.500000  1
  Ca  Ca4  1  0.476568  0.967264  0.166738  1
  Ca  Ca5  1  0.809831  0.300526  0.833262  1
  Ca  Ca6  1  0.956876  0.816417  0.500000  1
  Ca  Ca7  1  0.310196  0.469570  0.500000  1
  Ca  Ca8  1  0.502341  0.506514  0.008856  1
  Ca  Ca9  1  0.993486  0.997659  0.991144  1
  Cu  Cu10  1  0.381285  0.118715  0.500000  1
  Cu  Cu11  1  0.113255  0.613728  0.726983  1
  Cu  Cu12  1  0.886272  0.386745  0.273017  1
  Ag  Ag13  1  0.253545  0.246455  0.000000  1
  Ag  Ag14  1  0.753545  0.746455  0.000000  1
  Ir  Ir15  1  0.616578  0.883422  0.500000  1
