# generated using pymatgen
data_Na3CuSi4Pt3
_symmetry_space_group_name_H-M   'P 1'
_cell_length_a   6.33426953
_cell_length_b   6.52185485
_cell_length_c   6.52185602
_cell_angle_alpha   110.04651287
_cell_angle_beta   108.88959307
_cell_angle_gamma   108.88961920
_symmetry_Int_Tables_number   1
_chemical_formula_structural   Na3CuSi4Pt3
_chemical_formula_sum   'Na3 Cu1 Si4 Pt3'
_cell_volume   208.87387382
_cell_formula_units_Z   1
loop_
 _symmetry_equiv_pos_site_id
 _symmetry_equiv_pos_as_xyz
  1  'x, y, z'
loop_
 _atom_site_type_symbol
 _atom_site_label
 _atom_site_symmetry_multiplicity
 _atom_site_fract_x
 _atom_site_fract_y
 _atom_site_fract_z
 _atom_site_occupancy
  Na  Na0  1  0.499992  0.502971  0.000000  1
  Na  Na1  1  0.499992  0.000000  0.502971  1
  Na  Na2  1  0.997022  0.497029  0.497029  1
  Cu  Cu3  1  0.730878  0.000000  0.000000  1
  Si  Si4  1  0.365342  0.000000  0.000000  1
  Si  Si5  1  0.001114  0.367231  0.000000  1
  Si  Si6  1  0.001114  0.000000  0.367231  1
  Si  Si7  1  0.633883  0.632769  0.632769  1
  Pt  Pt8  1  0.995637  0.716248  0.000000  1
  Pt  Pt9  1  0.279390  0.283753  0.283753  1
  Pt  Pt10  1  0.995637  0.000000  0.716248  1
