# generated using pymatgen
data_Be5Nb6GeRu6
_symmetry_space_group_name_H-M   'P 1'
_cell_length_a   7.40109834
_cell_length_b   7.40007545
_cell_length_c   7.40074916
_cell_angle_alpha   126.25761371
_cell_angle_beta   129.40796391
_cell_angle_gamma   76.92172613
_symmetry_Int_Tables_number   1
_chemical_formula_structural   Be5Nb6GeRu6
_chemical_formula_sum   'Be5 Nb6 Ge1 Ru6'
_cell_volume   245.18915928
_cell_formula_units_Z   1
loop_
 _symmetry_equiv_pos_site_id
 _symmetry_equiv_pos_as_xyz
  1  'x, y, z'
loop_
 _atom_site_type_symbol
 _atom_site_label
 _atom_site_symmetry_multiplicity
 _atom_site_fract_x
 _atom_site_fract_y
 _atom_site_fract_z
 _atom_site_occupancy
  Be  Be0  1  0.750012  0.497157  0.246719  1
  Be  Be1  1  0.250283  0.496724  0.747326  1
  Be  Be2  1  0.331427  0.829547  0.499038  1
  Be  Be3  1  0.665380  0.163645  0.495654  1
  Be  Be4  1  0.835113  0.830348  0.994214  1
  Nb  Nb5  1  0.558533  0.088836  0.042452  1
  Nb  Nb6  1  0.460225  0.509461  0.561715  1
  Nb  Nb7  1  0.947841  0.508831  0.048441  1
  Nb  Nb8  1  0.045799  0.088414  0.530369  1
  Nb  Nb9  1  0.737141  0.893165  0.641982  1
  Nb  Nb10  1  0.250138  0.892109  0.155650  1
  Ge  Ge11  1  0.167604  0.163247  0.997458  1
  Ru  Ru12  1  0.499651  0.245567  0.745946  1
  Ru  Ru13  1  0.997485  0.246313  0.249142  1
  Ru  Ru14  1  0.125304  0.742465  0.617654  1
  Ru  Ru15  1  0.874423  0.496613  0.621979  1
  Ru  Ru16  1  0.625865  0.746769  0.120775  1
  Ru  Ru17  1  0.377777  0.502986  0.125685  1
