# generated using pymatgen
data_NaDy(ThIr4)2
_symmetry_space_group_name_H-M   'P 1'
_cell_length_a   9.33451588
_cell_length_b   9.33451519
_cell_length_c   9.33451700
_cell_angle_alpha   33.60908270
_cell_angle_beta   33.60907798
_cell_angle_gamma   33.60908447
_symmetry_Int_Tables_number   1
_chemical_formula_structural   NaDy(ThIr4)2
_chemical_formula_sum   'Na1 Dy1 Th2 Ir8'
_cell_volume   221.98701867
_cell_formula_units_Z   1
loop_
 _symmetry_equiv_pos_site_id
 _symmetry_equiv_pos_as_xyz
  1  'x, y, z'
loop_
 _atom_site_type_symbol
 _atom_site_label
 _atom_site_symmetry_multiplicity
 _atom_site_fract_x
 _atom_site_fract_y
 _atom_site_fract_z
 _atom_site_occupancy
  Na  Na0  1  0.127258  0.127258  0.127258  1
  Dy  Dy1  1  0.623063  0.623063  0.623063  1
  Th  Th2  1  0.004816  0.004816  0.004816  1
  Th  Th3  1  0.495518  0.495518  0.495518  1
  Ir  Ir4  1  0.563389  0.563389  0.058380  1
  Ir  Ir5  1  0.063262  0.063262  0.563210  1
  Ir  Ir6  1  0.563389  0.058380  0.563389  1
  Ir  Ir7  1  0.063262  0.563210  0.063262  1
  Ir  Ir8  1  0.812265  0.812265  0.812265  1
  Ir  Ir9  1  0.312187  0.312187  0.312187  1
  Ir  Ir10  1  0.058380  0.563389  0.563389  1
  Ir  Ir11  1  0.563210  0.063262  0.063262  1
