# generated using pymatgen
data_Be7Cr4B
_symmetry_space_group_name_H-M   'P 1'
_cell_length_a   4.16759129
_cell_length_b   4.16002410
_cell_length_c   6.79149600
_cell_angle_alpha   90.00000000
_cell_angle_beta   90.00000000
_cell_angle_gamma   119.93997788
_symmetry_Int_Tables_number   1
_chemical_formula_structural   Be7Cr4B
_chemical_formula_sum   'Be7 Cr4 B1'
_cell_volume   102.03270546
_cell_formula_units_Z   1
loop_
 _symmetry_equiv_pos_site_id
 _symmetry_equiv_pos_as_xyz
  1  'x, y, z'
loop_
 _atom_site_type_symbol
 _atom_site_label
 _atom_site_symmetry_multiplicity
 _atom_site_fract_x
 _atom_site_fract_y
 _atom_site_fract_z
 _atom_site_occupancy
  Be  Be0  1  0.007015  0.003507  0.003856  1
  Be  Be1  1  0.827473  0.170966  0.250000  1
  Be  Be2  1  0.827474  0.656504  0.250000  1
  Be  Be3  1  0.007015  0.003507  0.496144  1
  Be  Be4  1  0.168279  0.339541  0.750001  1
  Be  Be5  1  0.168278  0.828739  0.750001  1
  Be  Be6  1  0.659481  0.829741  0.750001  1
  Cr  Cr7  1  0.334958  0.667479  0.067318  1
  Cr  Cr8  1  0.334958  0.667479  0.432683  1
  Cr  Cr9  1  0.661259  0.330634  0.559485  1
  Cr  Cr10  1  0.661259  0.330634  0.940515  1
  B  B11  1  0.342550  0.171272  0.250000  1
