# generated using pymatgen
data_Ca2PrGa2SiRh6
_symmetry_space_group_name_H-M   'P 1'
_cell_length_a   5.68040000
_cell_length_b   5.67858112
_cell_length_c   15.42797900
_cell_angle_alpha   89.99849951
_cell_angle_beta   90.00032480
_cell_angle_gamma   120.01128869
_symmetry_Int_Tables_number   1
_chemical_formula_structural   Ca2PrGa2SiRh6
_chemical_formula_sum   'Ca4 Pr2 Ga4 Si2 Rh12'
_cell_volume   430.93226319
_cell_formula_units_Z   2
loop_
 _symmetry_equiv_pos_site_id
 _symmetry_equiv_pos_as_xyz
  1  'x, y, z'
loop_
 _atom_site_type_symbol
 _atom_site_label
 _atom_site_symmetry_multiplicity
 _atom_site_fract_x
 _atom_site_fract_y
 _atom_site_fract_z
 _atom_site_occupancy
  Ca  Ca0  1  0.333331  0.666669  0.537451  1
  Ca  Ca1  1  0.666669  0.333331  0.462549  1
  Ca  Ca2  1  0.333326  0.666651  0.740831  1
  Ca  Ca3  1  0.666674  0.333349  0.259169  1
  Pr  Pr4  1  0.666665  0.333341  0.046349  1
  Pr  Pr5  1  0.333335  0.666659  0.953651  1
  Ga  Ga6  1  0.000026  0.000065  0.249552  1
  Ga  Ga7  1  0.999974  0.999935  0.750448  1
  Ga  Ga8  1  0.000000  0.000000  0.000000  1
  Ga  Ga9  1  0.000000  0.000000  0.500000  1
  Si  Si10  1  0.333334  0.666664  0.251007  1
  Si  Si11  1  0.666666  0.333336  0.748993  1
  Rh  Rh12  1  0.170257  0.340517  0.130506  1
  Rh  Rh13  1  0.829743  0.659483  0.869494  1
  Rh  Rh14  1  0.659534  0.829763  0.130461  1
  Rh  Rh15  1  0.830954  0.661907  0.631981  1
  Rh  Rh16  1  0.340466  0.170237  0.869539  1
  Rh  Rh17  1  0.169046  0.338093  0.368019  1
  Rh  Rh18  1  0.170236  0.829757  0.130462  1
  Rh  Rh19  1  0.338049  0.169014  0.631939  1
  Rh  Rh20  1  0.829764  0.170243  0.869538  1
  Rh  Rh21  1  0.661951  0.830986  0.368061  1
  Rh  Rh22  1  0.830966  0.169015  0.631940  1
  Rh  Rh23  1  0.169034  0.830985  0.368060  1
