# generated using pymatgen
data_Tb2Al(ZnPt2)2
_symmetry_space_group_name_H-M   'P 1'
_cell_length_a   8.08518272
_cell_length_b   8.08518117
_cell_length_c   7.64713800
_cell_angle_alpha   90.00000000
_cell_angle_beta   90.00000000
_cell_angle_gamma   139.44112020
_symmetry_Int_Tables_number   1
_chemical_formula_structural   Tb2Al(ZnPt2)2
_chemical_formula_sum   'Tb4 Al2 Zn4 Pt8'
_cell_volume   325.04609045
_cell_formula_units_Z   2
loop_
 _symmetry_equiv_pos_site_id
 _symmetry_equiv_pos_as_xyz
  1  'x, y, z'
loop_
 _atom_site_type_symbol
 _atom_site_label
 _atom_site_symmetry_multiplicity
 _atom_site_fract_x
 _atom_site_fract_y
 _atom_site_fract_z
 _atom_site_occupancy
  Tb  Tb0  1  0.111262  0.888738  0.407945  1
  Tb  Tb1  1  0.888738  0.111262  0.592055  1
  Tb  Tb2  1  0.388738  0.611262  0.907945  1
  Tb  Tb3  1  0.611262  0.388738  0.092055  1
  Al  Al4  1  0.000000  0.000000  0.000000  1
  Al  Al5  1  0.500000  0.500000  0.500000  1
  Zn  Zn6  1  0.022960  0.477040  0.250000  1
  Zn  Zn7  1  0.477040  0.022960  0.750000  1
  Zn  Zn8  1  0.977040  0.522960  0.750000  1
  Zn  Zn9  1  0.522960  0.977040  0.250000  1
  Pt  Pt10  1  0.195038  0.304962  0.250000  1
  Pt  Pt11  1  0.304962  0.195038  0.750000  1
  Pt  Pt12  1  0.804962  0.695038  0.750000  1
  Pt  Pt13  1  0.695038  0.804962  0.250000  1
  Pt  Pt14  1  0.175277  0.824723  0.027226  1
  Pt  Pt15  1  0.824723  0.175277  0.972774  1
  Pt  Pt16  1  0.324723  0.675277  0.527226  1
  Pt  Pt17  1  0.675277  0.324723  0.472774  1
