# generated using pymatgen
data_Tb6Ho10MgHg3Ir4
_symmetry_space_group_name_H-M   'P 1'
_cell_length_a   9.61643847
_cell_length_b   9.61219749
_cell_length_c   9.60468044
_cell_angle_alpha   59.99597359
_cell_angle_beta   60.01397393
_cell_angle_gamma   60.04443901
_symmetry_Int_Tables_number   1
_chemical_formula_structural   Tb6Ho10MgHg3Ir4
_chemical_formula_sum   'Tb6 Ho10 Mg1 Hg3 Ir4'
_cell_volume   628.03399851
_cell_formula_units_Z   1
loop_
 _symmetry_equiv_pos_site_id
 _symmetry_equiv_pos_as_xyz
  1  'x, y, z'
loop_
 _atom_site_type_symbol
 _atom_site_label
 _atom_site_symmetry_multiplicity
 _atom_site_fract_x
 _atom_site_fract_y
 _atom_site_fract_z
 _atom_site_occupancy
  Tb  Tb0  1  0.438939  0.437847  0.060188  1
  Tb  Tb1  1  0.439166  0.061501  0.062831  1
  Tb  Tb2  1  0.061028  0.438132  0.438343  1
  Tb  Tb3  1  0.191607  0.190901  0.810538  1
  Tb  Tb4  1  0.649008  0.650373  0.047475  1
  Tb  Tb5  1  0.650100  0.047338  0.650097  1
  Ho  Ho6  1  0.192050  0.808725  0.808687  1
  Ho  Ho7  1  0.815215  0.187855  0.188169  1
  Ho  Ho8  1  0.062550  0.439765  0.059928  1
  Ho  Ho9  1  0.053928  0.649116  0.647459  1
  Ho  Ho10  1  0.650792  0.652572  0.652621  1
  Ho  Ho11  1  0.063659  0.059777  0.439009  1
  Ho  Ho12  1  0.191164  0.810652  0.191026  1
  Ho  Ho13  1  0.812827  0.810499  0.189389  1
  Ho  Ho14  1  0.812981  0.189252  0.810319  1
  Ho  Ho15  1  0.439565  0.059272  0.438332  1
  Mg  Mg16  1  0.718301  0.427694  0.427645  1
  Hg  Hg17  1  0.417527  0.414046  0.755066  1
  Hg  Hg18  1  0.417465  0.755634  0.414012  1
  Hg  Hg19  1  0.418532  0.413729  0.414211  1
  Ir  Ir20  1  0.859046  0.856240  0.424721  1
  Ir  Ir21  1  0.858784  0.425335  0.855912  1
  Ir  Ir22  1  0.861483  0.856977  0.856958  1
  Ir  Ir23  1  0.424288  0.856768  0.857062  1
