# generated using pymatgen
data_Dy2Y2InPt
_symmetry_space_group_name_H-M   'P 1'
_cell_length_a   9.72408663
_cell_length_b   9.73755892
_cell_length_c   9.74692450
_cell_angle_alpha   59.87329616
_cell_angle_beta   59.81891337
_cell_angle_gamma   60.11170356
_symmetry_Int_Tables_number   1
_chemical_formula_structural   Dy2Y2InPt
_chemical_formula_sum   'Dy8 Y8 In4 Pt4'
_cell_volume   651.62951594
_cell_formula_units_Z   4
loop_
 _symmetry_equiv_pos_site_id
 _symmetry_equiv_pos_as_xyz
  1  'x, y, z'
loop_
 _atom_site_type_symbol
 _atom_site_label
 _atom_site_symmetry_multiplicity
 _atom_site_fract_x
 _atom_site_fract_y
 _atom_site_fract_z
 _atom_site_occupancy
  Dy  Dy0  1  0.350489  0.351196  0.350618  1
  Dy  Dy1  1  0.350538  0.351280  0.946571  1
  Dy  Dy2  1  0.350675  0.947700  0.350428  1
  Dy  Dy3  1  0.946616  0.351608  0.350486  1
  Dy  Dy4  1  0.810659  0.189690  0.190325  1
  Dy  Dy5  1  0.190377  0.809324  0.810608  1
  Dy  Dy6  1  0.189761  0.810278  0.189697  1
  Dy  Dy7  1  0.809704  0.190309  0.809666  1
  Y  Y8  1  0.190959  0.190099  0.809957  1
  Y  Y9  1  0.810006  0.808987  0.190903  1
  Y  Y10  1  0.937332  0.562094  0.561773  1
  Y  Y11  1  0.561827  0.938796  0.937286  1
  Y  Y12  1  0.562486  0.937535  0.562436  1
  Y  Y13  1  0.938564  0.561463  0.938515  1
  Y  Y14  1  0.561220  0.561415  0.937951  1
  Y  Y15  1  0.938001  0.939411  0.561172  1
  In  In16  1  0.583790  0.583591  0.583723  1
  In  In17  1  0.583321  0.583107  0.250669  1
  In  In18  1  0.583382  0.249001  0.584040  1
  In  In19  1  0.250566  0.582774  0.583570  1
  Pt  Pt20  1  0.142166  0.142888  0.144651  1
  Pt  Pt21  1  0.141732  0.142427  0.571152  1
  Pt  Pt22  1  0.144698  0.570294  0.142115  1
  Pt  Pt23  1  0.571133  0.144737  0.141690  1
