# generated using pymatgen
data_Tm10GeBi2Ru3
_symmetry_space_group_name_H-M   'P 1'
_cell_length_a   8.72706332
_cell_length_b   8.72706364
_cell_length_c   8.66716890
_cell_angle_alpha   127.26328440
_cell_angle_beta   127.26328259
_cell_angle_gamma   78.30826532
_symmetry_Int_Tables_number   1
_chemical_formula_structural   Tm10GeBi2Ru3
_chemical_formula_sum   'Tm10 Ge1 Bi2 Ru3'
_cell_volume   403.85738466
_cell_formula_units_Z   1
loop_
 _symmetry_equiv_pos_site_id
 _symmetry_equiv_pos_as_xyz
  1  'x, y, z'
loop_
 _atom_site_type_symbol
 _atom_site_label
 _atom_site_symmetry_multiplicity
 _atom_site_fract_x
 _atom_site_fract_y
 _atom_site_fract_z
 _atom_site_occupancy
  Tm  Tm0  1  0.997326  0.000534  0.997860  1
  Tm  Tm1  1  0.499466  0.502674  0.002140  1
  Tm  Tm2  1  0.801533  0.292487  0.826433  1
  Tm  Tm3  1  0.207513  0.698467  0.173567  1
  Tm  Tm4  1  0.475101  0.966054  0.173567  1
  Tm  Tm5  1  0.278420  0.484344  0.500000  1
  Tm  Tm6  1  0.015656  0.221580  0.500000  1
  Tm  Tm7  1  0.533946  0.024899  0.826433  1
  Tm  Tm8  1  0.715081  0.530936  0.500000  1
  Tm  Tm9  1  0.969064  0.784919  0.500000  1
  Ge  Ge10  1  0.364173  0.135827  0.500000  1
  Bi  Bi11  1  0.256262  0.243738  0.000000  1
  Bi  Bi12  1  0.756262  0.743738  0.000000  1
  Ru  Ru13  1  0.144399  0.635638  0.780038  1
  Ru  Ru14  1  0.864362  0.355601  0.219962  1
  Ru  Ru15  1  0.621436  0.878564  0.500000  1
