# generated using pymatgen
data_Ta6TiGa6B2Mo3
_symmetry_space_group_name_H-M   'P 1'
_cell_length_a   7.74286200
_cell_length_b   7.74286047
_cell_length_c   5.22295300
_cell_angle_alpha   90.00000000
_cell_angle_beta   90.00000000
_cell_angle_gamma   119.99999799
_symmetry_Int_Tables_number   1
_chemical_formula_structural   Ta6TiGa6B2Mo3
_chemical_formula_sum   'Ta6 Ti1 Ga6 B2 Mo3'
_cell_volume   271.17503838
_cell_formula_units_Z   1
loop_
 _symmetry_equiv_pos_site_id
 _symmetry_equiv_pos_as_xyz
  1  'x, y, z'
loop_
 _atom_site_type_symbol
 _atom_site_label
 _atom_site_symmetry_multiplicity
 _atom_site_fract_x
 _atom_site_fract_y
 _atom_site_fract_z
 _atom_site_occupancy
  Ta  Ta0  1  0.242537  0.000506  0.250523  1
  Ta  Ta1  1  0.757969  0.000506  0.749477  1
  Ta  Ta2  1  0.999494  0.242031  0.250523  1
  Ta  Ta3  1  0.999494  0.757463  0.749477  1
  Ta  Ta4  1  0.757969  0.757463  0.250523  1
  Ta  Ta5  1  0.242537  0.242031  0.749477  1
  Ti  Ti6  1  0.333333  0.666667  0.500000  1
  Ga  Ga7  1  0.595407  0.998984  0.249255  1
  Ga  Ga8  1  0.403577  0.998984  0.750745  1
  Ga  Ga9  1  0.001016  0.596423  0.249255  1
  Ga  Ga10  1  0.001016  0.404593  0.750745  1
  Ga  Ga11  1  0.403577  0.404593  0.249255  1
  Ga  Ga12  1  0.595407  0.596423  0.750745  1
  B  B13  1  0.000000  0.000000  0.000000  1
  B  B14  1  0.000000  0.000000  0.500000  1
  Mo  Mo15  1  0.333333  0.666667  0.000000  1
  Mo  Mo16  1  0.666667  0.333333  0.000000  1
  Mo  Mo17  1  0.666667  0.333333  0.500000  1
