# generated using pymatgen
data_Y3Ho(CdGa2)2
_symmetry_space_group_name_H-M   'P 1'
_cell_length_a   7.35109241
_cell_length_b   7.35109209
_cell_length_c   4.28799200
_cell_angle_alpha   90.00000000
_cell_angle_beta   90.00000000
_cell_angle_gamma   89.85921288
_symmetry_Int_Tables_number   1
_chemical_formula_structural   Y3Ho(CdGa2)2
_chemical_formula_sum   'Y3 Ho1 Cd2 Ga4'
_cell_volume   231.71620173
_cell_formula_units_Z   1
loop_
 _symmetry_equiv_pos_site_id
 _symmetry_equiv_pos_as_xyz
  1  'x, y, z'
loop_
 _atom_site_type_symbol
 _atom_site_label
 _atom_site_symmetry_multiplicity
 _atom_site_fract_x
 _atom_site_fract_y
 _atom_site_fract_z
 _atom_site_occupancy
  Y  Y0  1  0.673339  0.172524  0.500000  1
  Y  Y1  1  0.327476  0.826661  0.500000  1
  Y  Y2  1  0.172425  0.327575  0.500000  1
  Ho  Ho3  1  0.827466  0.672534  0.500000  1
  Cd  Cd4  1  0.999947  0.000150  0.000000  1
  Cd  Cd5  1  0.499850  0.500053  0.000000  1
  Ga  Ga6  1  0.123861  0.625894  0.000000  1
  Ga  Ga7  1  0.874106  0.376139  0.000000  1
  Ga  Ga8  1  0.626260  0.873740  0.000000  1
  Ga  Ga9  1  0.375272  0.124728  0.000000  1
