# generated using pymatgen
data_YbIr4Pb3O14
_symmetry_space_group_name_H-M   'P 1'
_cell_length_a   7.30407791
_cell_length_b   7.32447062
_cell_length_c   7.30407800
_cell_angle_alpha   60.09205715
_cell_angle_beta   59.99999961
_cell_angle_gamma   60.09205467
_symmetry_Int_Tables_number   1
_chemical_formula_structural   YbIr4Pb3O14
_chemical_formula_sum   'Yb1 Ir4 Pb3 O14'
_cell_volume   276.69093459
_cell_formula_units_Z   1
loop_
 _symmetry_equiv_pos_site_id
 _symmetry_equiv_pos_as_xyz
  1  'x, y, z'
loop_
 _atom_site_type_symbol
 _atom_site_label
 _atom_site_symmetry_multiplicity
 _atom_site_fract_x
 _atom_site_fract_y
 _atom_site_fract_z
 _atom_site_occupancy
  Yb  Yb0  1  0.125000  0.625000  0.125000  1
  Ir  Ir1  1  0.125000  0.625000  0.625000  1
  Ir  Ir2  1  0.625000  0.125000  0.625000  1
  Ir  Ir3  1  0.625000  0.625000  0.125000  1
  Ir  Ir4  1  0.625000  0.625000  0.625000  1
  Pb  Pb5  1  0.625000  0.125000  0.125000  1
  Pb  Pb6  1  0.125000  0.125000  0.625000  1
  Pb  Pb7  1  0.125000  0.125000  0.125000  1
  O  O8  1  0.698980  0.706602  0.297209  1
  O  O9  1  0.295564  0.294554  0.704941  1
  O  O10  1  0.704941  0.294554  0.704941  1
  O  O11  1  0.297209  0.706602  0.297209  1
  O  O12  1  0.297209  0.706602  0.698980  1
  O  O13  1  0.704941  0.294554  0.295564  1
  O  O14  1  0.551020  0.543398  0.952791  1
  O  O15  1  0.954436  0.955446  0.545059  1
  O  O16  1  0.545059  0.955446  0.545059  1
  O  O17  1  0.952791  0.543398  0.952791  1
  O  O18  1  0.952791  0.543398  0.551020  1
  O  O19  1  0.545059  0.955446  0.954436  1
  O  O20  1  0.247917  0.256249  0.247917  1
  O  O21  1  0.002083  0.993751  0.002083  1
