# generated using pymatgen
data_Tm2TiZnIr2
_symmetry_space_group_name_H-M   'P 1'
_cell_length_a   4.29250200
_cell_length_b   6.81941516
_cell_length_c   7.92065936
_cell_angle_alpha   88.38202267
_cell_angle_beta   90.00000000
_cell_angle_gamma   90.00000000
_symmetry_Int_Tables_number   1
_chemical_formula_structural   Tm2TiZnIr2
_chemical_formula_sum   'Tm4 Ti2 Zn2 Ir4'
_cell_volume   231.76389859
_cell_formula_units_Z   2
loop_
 _symmetry_equiv_pos_site_id
 _symmetry_equiv_pos_as_xyz
  1  'x, y, z'
loop_
 _atom_site_type_symbol
 _atom_site_label
 _atom_site_symmetry_multiplicity
 _atom_site_fract_x
 _atom_site_fract_y
 _atom_site_fract_z
 _atom_site_occupancy
  Tm  Tm0  1  0.250000  0.473033  0.194325  1
  Tm  Tm1  1  0.750000  0.526967  0.805675  1
  Tm  Tm2  1  0.750000  0.021457  0.671208  1
  Tm  Tm3  1  0.250000  0.978543  0.328792  1
  Ti  Ti4  1  0.250000  0.861702  0.929306  1
  Ti  Ti5  1  0.750000  0.138298  0.070694  1
  Zn  Zn6  1  0.750000  0.650353  0.425139  1
  Zn  Zn7  1  0.250000  0.349647  0.574861  1
  Ir  Ir8  1  0.250000  0.733424  0.626653  1
  Ir  Ir9  1  0.750000  0.266576  0.373347  1
  Ir  Ir10  1  0.750000  0.772475  0.095733  1
  Ir  Ir11  1  0.250000  0.227525  0.904267  1
