# generated using pymatgen
data_Nd2Fe2TcP7Ir4Ru5
_symmetry_space_group_name_H-M   'P 1'
_cell_length_a   9.43670500
_cell_length_b   9.43990772
_cell_length_c   3.91432800
_cell_angle_alpha   90.00000000
_cell_angle_beta   90.00000000
_cell_angle_gamma   120.06288002
_symmetry_Int_Tables_number   1
_chemical_formula_structural   Nd2Fe2TcP7Ir4Ru5
_chemical_formula_sum   'Nd2 Fe2 Tc1 P7 Ir4 Ru5'
_cell_volume   301.78694391
_cell_formula_units_Z   1
loop_
 _symmetry_equiv_pos_site_id
 _symmetry_equiv_pos_as_xyz
  1  'x, y, z'
loop_
 _atom_site_type_symbol
 _atom_site_label
 _atom_site_symmetry_multiplicity
 _atom_site_fract_x
 _atom_site_fract_y
 _atom_site_fract_z
 _atom_site_occupancy
  Nd  Nd0  1  0.666311  0.332511  0.000000  1
  Nd  Nd1  1  0.334459  0.666337  0.500000  1
  Fe  Fe2  1  0.839913  0.730846  0.000000  1
  Fe  Fe3  1  0.891534  0.159460  0.000000  1
  Tc  Tc4  1  0.085229  0.872221  0.500000  1
  P  P5  1  0.302452  0.887041  0.000000  1
  P  P6  1  0.593183  0.703855  0.000000  1
  P  P7  1  0.110758  0.405029  0.000000  1
  P  P8  1  0.398041  0.288573  0.500000  1
  P  P9  1  0.883280  0.602350  0.500000  1
  P  P10  1  0.717445  0.111928  0.500000  1
  P  P11  1  0.988747  0.994391  0.000000  1
  Ir  Ir12  1  0.061242  0.632885  0.000000  1
  Ir  Ir13  1  0.439030  0.052545  0.500000  1
  Ir  Ir14  1  0.617336  0.563574  0.500000  1
  Ir  Ir15  1  0.944011  0.382895  0.500000  1
  Ru  Ru16  1  0.577843  0.941751  0.000000  1
  Ru  Ru17  1  0.368565  0.431911  0.000000  1
  Ru  Ru18  1  0.263821  0.108763  0.000000  1
  Ru  Ru19  1  0.791237  0.912171  0.500000  1
  Ru  Ru20  1  0.125564  0.218963  0.500000  1
