# generated using pymatgen
data_CaYb7(Si3Pd)4
_symmetry_space_group_name_H-M   'P 1'
_cell_length_a   8.26564800
_cell_length_b   8.26564701
_cell_length_c   8.25414700
_cell_angle_alpha   90.00000000
_cell_angle_beta   90.00000000
_cell_angle_gamma   120.00000397
_symmetry_Int_Tables_number   1
_chemical_formula_structural   CaYb7(Si3Pd)4
_chemical_formula_sum   'Ca1 Yb7 Si12 Pd4'
_cell_volume   488.37854226
_cell_formula_units_Z   1
loop_
 _symmetry_equiv_pos_site_id
 _symmetry_equiv_pos_as_xyz
  1  'x, y, z'
loop_
 _atom_site_type_symbol
 _atom_site_label
 _atom_site_symmetry_multiplicity
 _atom_site_fract_x
 _atom_site_fract_y
 _atom_site_fract_z
 _atom_site_occupancy
  Ca  Ca0  1  0.000000  0.000000  0.750000  1
  Yb  Yb1  1  0.501056  0.002111  0.250000  1
  Yb  Yb2  1  0.498963  0.997928  0.750000  1
  Yb  Yb3  1  0.997889  0.498944  0.250000  1
  Yb  Yb4  1  0.002072  0.501037  0.750000  1
  Yb  Yb5  1  0.501056  0.498944  0.250000  1
  Yb  Yb6  1  0.498963  0.501037  0.750000  1
  Yb  Yb7  1  0.000000  0.000000  0.250000  1
  Si  Si8  1  0.164043  0.328086  0.002222  1
  Si  Si9  1  0.835922  0.671843  0.000907  1
  Si  Si10  1  0.671914  0.835957  0.002222  1
  Si  Si11  1  0.835922  0.671843  0.499093  1
  Si  Si12  1  0.328157  0.164078  0.000907  1
  Si  Si13  1  0.164043  0.328086  0.497778  1
  Si  Si14  1  0.164043  0.835957  0.002222  1
  Si  Si15  1  0.328157  0.164078  0.499093  1
  Si  Si16  1  0.835922  0.164078  0.000907  1
  Si  Si17  1  0.671914  0.835957  0.497778  1
  Si  Si18  1  0.835922  0.164078  0.499093  1
  Si  Si19  1  0.164043  0.835957  0.497778  1
  Pd  Pd20  1  0.333333  0.666667  0.001412  1
  Pd  Pd21  1  0.666667  0.333333  0.997241  1
  Pd  Pd22  1  0.666667  0.333333  0.502759  1
  Pd  Pd23  1  0.333333  0.666667  0.498588  1
