# generated using pymatgen
data_YbEr3Se4
_symmetry_space_group_name_H-M   'P 1'
_cell_length_a   13.46050388
_cell_length_b   13.46050359
_cell_length_c   13.46050375
_cell_angle_alpha   17.39687082
_cell_angle_beta   17.39687354
_cell_angle_gamma   17.39687178
_symmetry_Int_Tables_number   1
_chemical_formula_structural   YbEr3Se4
_chemical_formula_sum   'Yb1 Er3 Se4'
_cell_volume   190.25996319
_cell_formula_units_Z   1
loop_
 _symmetry_equiv_pos_site_id
 _symmetry_equiv_pos_as_xyz
  1  'x, y, z'
loop_
 _atom_site_type_symbol
 _atom_site_label
 _atom_site_symmetry_multiplicity
 _atom_site_fract_x
 _atom_site_fract_y
 _atom_site_fract_z
 _atom_site_occupancy
  Yb  Yb0  1  0.000000  0.000000  0.000000  1
  Er  Er1  1  0.249283  0.249283  0.249283  1
  Er  Er2  1  0.500000  0.500000  0.500000  1
  Er  Er3  1  0.750717  0.750717  0.750717  1
  Se  Se4  1  0.376021  0.376021  0.376021  1
  Se  Se5  1  0.125214  0.125214  0.125214  1
  Se  Se6  1  0.623979  0.623979  0.623979  1
  Se  Se7  1  0.874786  0.874786  0.874786  1
