# generated using pymatgen
data_CsRb2Ge17
_symmetry_space_group_name_H-M   'P 1'
_cell_length_a   11.38696900
_cell_length_b   11.38696950
_cell_length_c   11.38696900
_cell_angle_alpha   120.00000145
_cell_angle_beta   90.00000000
_cell_angle_gamma   120.00000145
_symmetry_Int_Tables_number   1
_chemical_formula_structural   CsRb2Ge17
_chemical_formula_sum   'Cs2 Rb4 Ge34'
_cell_volume   1044.02143971
_cell_formula_units_Z   2
loop_
 _symmetry_equiv_pos_site_id
 _symmetry_equiv_pos_as_xyz
  1  'x, y, z'
loop_
 _atom_site_type_symbol
 _atom_site_label
 _atom_site_symmetry_multiplicity
 _atom_site_fract_x
 _atom_site_fract_y
 _atom_site_fract_z
 _atom_site_occupancy
  Cs  Cs0  1  0.375000  0.750000  0.125000  1
  Cs  Cs1  1  0.625000  0.250000  0.875000  1
  Rb  Rb2  1  0.000000  0.000000  0.000000  1
  Rb  Rb3  1  0.000000  0.000000  0.500000  1
  Rb  Rb4  1  0.000000  0.500000  0.500000  1
  Rb  Rb5  1  0.500000  0.500000  0.500000  1
  Ge  Ge6  1  0.993149  0.755802  0.127901  1
  Ge  Ge7  1  0.372099  0.134752  0.127901  1
  Ge  Ge8  1  0.372099  0.365248  0.127901  1
  Ge  Ge9  1  0.993149  0.365248  0.127901  1
  Ge  Ge10  1  0.762653  0.134752  0.127902  1
  Ge  Ge11  1  0.762653  0.755802  0.127902  1
  Ge  Ge12  1  0.627901  0.255802  0.262653  1
  Ge  Ge13  1  0.006851  0.634751  0.262653  1
  Ge  Ge14  1  0.627901  0.634751  0.262653  1
  Ge  Ge15  1  0.219302  0.061396  0.280698  1
  Ge  Ge16  1  0.842093  0.061396  0.280698  1
  Ge  Ge17  1  0.219302  0.438604  0.280698  1
  Ge  Ge18  1  0.780697  0.561395  0.342093  1
  Ge  Ge19  1  0.125000  0.250000  0.375000  1
  Ge  Ge20  1  0.237347  0.865248  0.493149  1
  Ge  Ge21  1  0.627901  0.255802  0.493149  1
  Ge  Ge22  1  0.627901  0.865248  0.493149  1
  Ge  Ge23  1  0.372099  0.134752  0.506851  1
  Ge  Ge24  1  0.762653  0.134752  0.506851  1
  Ge  Ge25  1  0.372099  0.744197  0.506851  1
  Ge  Ge26  1  0.875000  0.750000  0.625000  1
  Ge  Ge27  1  0.219302  0.438604  0.657906  1
  Ge  Ge28  1  0.780698  0.561395  0.719302  1
  Ge  Ge29  1  0.157907  0.938604  0.719302  1
  Ge  Ge30  1  0.780698  0.938604  0.719302  1
  Ge  Ge31  1  0.372099  0.365248  0.737347  1
  Ge  Ge32  1  0.372099  0.744197  0.737347  1
  Ge  Ge33  1  0.993149  0.365248  0.737347  1
  Ge  Ge34  1  0.006851  0.244198  0.872099  1
  Ge  Ge35  1  0.237348  0.244198  0.872099  1
  Ge  Ge36  1  0.006851  0.634751  0.872099  1
  Ge  Ge37  1  0.627901  0.634751  0.872099  1
  Ge  Ge38  1  0.237348  0.865248  0.872099  1
  Ge  Ge39  1  0.627901  0.865248  0.872099  1
