# generated using pymatgen
data_Tb2Sc2Ga5Ni9
_symmetry_space_group_name_H-M   'P 1'
_cell_length_a   5.19489685
_cell_length_b   5.19489767
_cell_length_c   11.88865400
_cell_angle_alpha   77.38015187
_cell_angle_beta   77.38014985
_cell_angle_gamma   60.00000042
_symmetry_Int_Tables_number   1
_chemical_formula_structural   Tb2Sc2Ga5Ni9
_chemical_formula_sum   'Tb2 Sc2 Ga5 Ni9'
_cell_volume   268.86694341
_cell_formula_units_Z   1
loop_
 _symmetry_equiv_pos_site_id
 _symmetry_equiv_pos_as_xyz
  1  'x, y, z'
loop_
 _atom_site_type_symbol
 _atom_site_label
 _atom_site_symmetry_multiplicity
 _atom_site_fract_x
 _atom_site_fract_y
 _atom_site_fract_z
 _atom_site_occupancy
  Tb  Tb0  1  0.949613  0.949613  0.151161  1
  Tb  Tb1  1  0.050387  0.050387  0.848839  1
  Sc  Sc2  1  0.851917  0.851917  0.444250  1
  Sc  Sc3  1  0.148083  0.148083  0.555751  1
  Ga  Ga4  1  0.500000  0.500000  0.500000  1
  Ga  Ga5  1  0.722928  0.722928  0.831215  1
  Ga  Ga6  1  0.277072  0.277072  0.168785  1
  Ga  Ga7  1  0.609715  0.609715  0.170856  1
  Ga  Ga8  1  0.390285  0.390285  0.829144  1
  Ni  Ni9  1  0.000000  0.500000  0.000000  1
  Ni  Ni10  1  0.500000  0.000000  0.000000  1
  Ni  Ni11  1  0.500000  0.500000  0.000000  1
  Ni  Ni12  1  0.383049  0.383049  0.337945  1
  Ni  Ni13  1  0.895957  0.383049  0.337945  1
  Ni  Ni14  1  0.383049  0.895957  0.337945  1
  Ni  Ni15  1  0.616951  0.616951  0.662055  1
  Ni  Ni16  1  0.104043  0.616951  0.662055  1
  Ni  Ni17  1  0.616951  0.104043  0.662055  1
