# generated using pymatgen
data_RbGa5(HgTe3)4
_symmetry_space_group_name_H-M   'P 1'
_cell_length_a   9.79064223
_cell_length_b   9.81174931
_cell_length_c   9.85154386
_cell_angle_alpha   107.33673519
_cell_angle_beta   107.85241385
_cell_angle_gamma   107.27718300
_symmetry_Int_Tables_number   1
_chemical_formula_structural   RbGa5(HgTe3)4
_chemical_formula_sum   'Rb1 Ga5 Hg4 Te12'
_cell_volume   777.38150311
_cell_formula_units_Z   1
loop_
 _symmetry_equiv_pos_site_id
 _symmetry_equiv_pos_as_xyz
  1  'x, y, z'
loop_
 _atom_site_type_symbol
 _atom_site_label
 _atom_site_symmetry_multiplicity
 _atom_site_fract_x
 _atom_site_fract_y
 _atom_site_fract_z
 _atom_site_occupancy
  Rb  Rb0  1  0.999261  0.998773  0.997675  1
  Ga  Ga1  1  0.484328  0.335656  0.941138  1
  Ga  Ga2  1  0.939044  0.489702  0.341609  1
  Ga  Ga3  1  0.331455  0.933264  0.480180  1
  Ga  Ga4  1  0.018059  0.185547  0.554300  1
  Ga  Ga5  1  0.559835  0.024344  0.186903  1
  Hg  Hg6  1  0.631975  0.707318  0.395899  1
  Hg  Hg7  1  0.400399  0.637152  0.716207  1
  Hg  Hg8  1  0.708976  0.391395  0.630660  1
  Hg  Hg9  1  0.190938  0.563278  0.018553  1
  Te  Te10  1  0.786009  0.931922  0.288668  1
  Te  Te11  1  0.300135  0.807377  0.929680  1
  Te  Te12  1  0.922863  0.274526  0.773156  1
  Te  Te13  1  0.064216  0.698421  0.238437  1
  Te  Te14  1  0.229957  0.077249  0.689361  1
  Te  Te15  1  0.698390  0.232383  0.079328  1
  Te  Te16  1  0.375528  0.420555  0.150773  1
  Te  Te17  1  0.145406  0.370771  0.433957  1
  Te  Te18  1  0.425905  0.140302  0.363922  1
  Te  Te19  1  0.879657  0.640311  0.569670  1
  Te  Te20  1  0.561884  0.876552  0.637088  1
  Te  Te21  1  0.640422  0.557844  0.877477  1
