# generated using pymatgen
data_Hf6Ti16Ir7
_symmetry_space_group_name_H-M   'P 1'
_cell_length_a   8.94307823
_cell_length_b   8.94307906
_cell_length_c   8.94307900
_cell_angle_alpha   60.00000394
_cell_angle_beta   60.00000085
_cell_angle_gamma   60.00000579
_symmetry_Int_Tables_number   1
_chemical_formula_structural   Hf6Ti16Ir7
_chemical_formula_sum   'Hf6 Ti16 Ir7'
_cell_volume   505.76200950
_cell_formula_units_Z   1
loop_
 _symmetry_equiv_pos_site_id
 _symmetry_equiv_pos_as_xyz
  1  'x, y, z'
loop_
 _atom_site_type_symbol
 _atom_site_label
 _atom_site_symmetry_multiplicity
 _atom_site_fract_x
 _atom_site_fract_y
 _atom_site_fract_z
 _atom_site_occupancy
  Hf  Hf0  1  0.683412  0.316588  0.316588  1
  Hf  Hf1  1  0.316588  0.683412  0.683412  1
  Hf  Hf2  1  0.316588  0.683412  0.316588  1
  Hf  Hf3  1  0.683412  0.316588  0.683412  1
  Hf  Hf4  1  0.316588  0.316588  0.683412  1
  Hf  Hf5  1  0.683412  0.683412  0.316588  1
  Ti  Ti6  1  0.330860  0.330860  0.330860  1
  Ti  Ti7  1  0.669140  0.669140  0.669140  1
  Ti  Ti8  1  0.330860  0.330860  0.007421  1
  Ti  Ti9  1  0.330860  0.007421  0.330860  1
  Ti  Ti10  1  0.669140  0.669140  0.992579  1
  Ti  Ti11  1  0.669140  0.992579  0.669140  1
  Ti  Ti12  1  0.007421  0.330860  0.330860  1
  Ti  Ti13  1  0.992579  0.669140  0.669140  1
  Ti  Ti14  1  0.117865  0.117865  0.117865  1
  Ti  Ti15  1  0.882135  0.882135  0.882135  1
  Ti  Ti16  1  0.117865  0.117865  0.646405  1
  Ti  Ti17  1  0.117865  0.646405  0.117865  1
  Ti  Ti18  1  0.882135  0.882135  0.353595  1
  Ti  Ti19  1  0.882135  0.353595  0.882135  1
  Ti  Ti20  1  0.646405  0.117865  0.117865  1
  Ti  Ti21  1  0.353595  0.882135  0.882135  1
  Ir  Ir22  1  0.500000  0.000000  0.000000  1
  Ir  Ir23  1  0.000000  0.500000  0.500000  1
  Ir  Ir24  1  0.000000  0.500000  0.000000  1
  Ir  Ir25  1  0.500000  0.000000  0.500000  1
  Ir  Ir26  1  0.000000  0.000000  0.500000  1
  Ir  Ir27  1  0.500000  0.500000  0.000000  1
  Ir  Ir28  1  0.000000  0.000000  0.000000  1
