# generated using pymatgen
data_Tb3PaZn4PtRh3
_symmetry_space_group_name_H-M   'P 1'
_cell_length_a   3.90267300
_cell_length_b   7.17671252
_cell_length_c   8.32951908
_cell_angle_alpha   90.64685645
_cell_angle_beta   90.00000000
_cell_angle_gamma   90.00000000
_symmetry_Int_Tables_number   1
_chemical_formula_structural   Tb3PaZn4PtRh3
_chemical_formula_sum   'Tb3 Pa1 Zn4 Pt1 Rh3'
_cell_volume   233.28131943
_cell_formula_units_Z   1
loop_
 _symmetry_equiv_pos_site_id
 _symmetry_equiv_pos_as_xyz
  1  'x, y, z'
loop_
 _atom_site_type_symbol
 _atom_site_label
 _atom_site_symmetry_multiplicity
 _atom_site_fract_x
 _atom_site_fract_y
 _atom_site_fract_z
 _atom_site_occupancy
  Tb  Tb0  1  0.750000  0.447334  0.809984  1
  Tb  Tb1  1  0.250000  0.051140  0.315043  1
  Tb  Tb2  1  0.750000  0.936635  0.689684  1
  Pa  Pa3  1  0.250000  0.554025  0.179106  1
  Zn  Zn4  1  0.250000  0.128830  0.938629  1
  Zn  Zn5  1  0.750000  0.892851  0.063200  1
  Zn  Zn6  1  0.250000  0.623946  0.562172  1
  Zn  Zn7  1  0.750000  0.369916  0.439040  1
  Pt  Pt8  1  0.250000  0.236066  0.625535  1
  Rh  Rh9  1  0.750000  0.738313  0.357147  1
  Rh  Rh10  1  0.750000  0.281812  0.128329  1
  Rh  Rh11  1  0.250000  0.739132  0.892131  1
