# generated using pymatgen
data_Y13Ho3Cd4IrPd3
_symmetry_space_group_name_H-M   'P 1'
_cell_length_a   9.72703426
_cell_length_b   9.70822015
_cell_length_c   9.70824300
_cell_angle_alpha   60.00011334
_cell_angle_beta   60.06397622
_cell_angle_gamma   60.06370478
_symmetry_Int_Tables_number   1
_chemical_formula_structural   Y13Ho3Cd4IrPd3
_chemical_formula_sum   'Y13 Ho3 Cd4 Ir1 Pd3'
_cell_volume   648.88012735
_cell_formula_units_Z   1
loop_
 _symmetry_equiv_pos_site_id
 _symmetry_equiv_pos_as_xyz
  1  'x, y, z'
loop_
 _atom_site_type_symbol
 _atom_site_label
 _atom_site_symmetry_multiplicity
 _atom_site_fract_x
 _atom_site_fract_y
 _atom_site_fract_z
 _atom_site_occupancy
  Y  Y0  1  0.936800  0.354401  0.354401  1
  Y  Y1  1  0.807441  0.188307  0.188306  1
  Y  Y2  1  0.189911  0.810551  0.810547  1
  Y  Y3  1  0.189910  0.810552  0.188988  1
  Y  Y4  1  0.807439  0.188306  0.815949  1
  Y  Y5  1  0.189910  0.188987  0.810551  1
  Y  Y6  1  0.807439  0.815947  0.188306  1
  Y  Y7  1  0.934039  0.566196  0.566197  1
  Y  Y8  1  0.567189  0.934929  0.934929  1
  Y  Y9  1  0.567189  0.934930  0.562956  1
  Y  Y10  1  0.934040  0.566195  0.933570  1
  Y  Y11  1  0.567190  0.562954  0.934929  1
  Y  Y12  1  0.934039  0.933570  0.566195  1
  Ho  Ho13  1  0.355866  0.349204  0.349201  1
  Ho  Ho14  1  0.355863  0.349205  0.945728  1
  Ho  Ho15  1  0.355867  0.945728  0.349202  1
  Cd  Cd16  1  0.581482  0.582030  0.582031  1
  Cd  Cd17  1  0.581482  0.582030  0.254458  1
  Cd  Cd18  1  0.581482  0.254457  0.582031  1
  Cd  Cd19  1  0.255564  0.581479  0.581480  1
  Ir  Ir20  1  0.568525  0.143825  0.143826  1
  Pd  Pd21  1  0.143777  0.144617  0.144620  1
  Pd  Pd22  1  0.143777  0.144619  0.566984  1
  Pd  Pd23  1  0.143780  0.566982  0.144618  1
