# generated using pymatgen
data_Tm20Ru5Rh7
_symmetry_space_group_name_H-M   'P 1'
_cell_length_a   10.71726760
_cell_length_b   10.71726706
_cell_length_c   6.34004400
_cell_angle_alpha   89.98104844
_cell_angle_beta   89.98104763
_cell_angle_gamma   90.11966189
_symmetry_Int_Tables_number   1
_chemical_formula_structural   Tm20Ru5Rh7
_chemical_formula_sum   'Tm20 Ru5 Rh7'
_cell_volume   728.21463855
_cell_formula_units_Z   1
loop_
 _symmetry_equiv_pos_site_id
 _symmetry_equiv_pos_as_xyz
  1  'x, y, z'
loop_
 _atom_site_type_symbol
 _atom_site_label
 _atom_site_symmetry_multiplicity
 _atom_site_fract_x
 _atom_site_fract_y
 _atom_site_fract_z
 _atom_site_occupancy
  Tm  Tm0  1  0.294756  0.086112  0.375550  1
  Tm  Tm1  1  0.293842  0.913814  0.876185  1
  Tm  Tm2  1  0.707089  0.087039  0.876688  1
  Tm  Tm3  1  0.706945  0.915581  0.374320  1
  Tm  Tm4  1  0.586148  0.794663  0.875641  1
  Tm  Tm5  1  0.588257  0.205814  0.375606  1
  Tm  Tm6  1  0.413891  0.794417  0.375592  1
  Tm  Tm7  1  0.413907  0.205596  0.875377  1
  Tm  Tm8  1  0.205337  0.413852  0.624359  1
  Tm  Tm9  1  0.205583  0.586109  0.124408  1
  Tm  Tm10  1  0.794186  0.411743  0.124394  1
  Tm  Tm11  1  0.794404  0.586093  0.624623  1
  Tm  Tm12  1  0.913888  0.705244  0.124450  1
  Tm  Tm13  1  0.912961  0.292911  0.623312  1
  Tm  Tm14  1  0.086186  0.706158  0.623815  1
  Tm  Tm15  1  0.084419  0.293055  0.125680  1
  Tm  Tm16  1  0.999479  0.001160  0.499266  1
  Tm  Tm17  1  0.998840  0.000521  0.000734  1
  Tm  Tm18  1  0.500080  0.500316  0.000117  1
  Tm  Tm19  1  0.499684  0.499920  0.499883  1
  Ru  Ru20  1  0.847786  0.152214  0.250000  1
  Ru  Ru21  1  0.499890  0.000124  0.122992  1
  Ru  Ru22  1  0.499453  0.999818  0.623389  1
  Ru  Ru23  1  0.000182  0.500547  0.876611  1
  Ru  Ru24  1  0.999876  0.500110  0.377008  1
  Rh  Rh25  1  0.847061  0.846220  0.749977  1
  Rh  Rh26  1  0.153780  0.152939  0.750023  1
  Rh  Rh27  1  0.152707  0.847293  0.250000  1
  Rh  Rh28  1  0.651268  0.348732  0.750000  1
  Rh  Rh29  1  0.652730  0.652198  0.249427  1
  Rh  Rh30  1  0.347802  0.347270  0.250573  1
  Rh  Rh31  1  0.347583  0.652417  0.750000  1
