# generated using pymatgen
data_LaTb5ErCoI12
_symmetry_space_group_name_H-M   'P 1'
_cell_length_a   9.80991449
_cell_length_b   9.80624915
_cell_length_c   9.80447229
_cell_angle_alpha   106.32608960
_cell_angle_beta   106.34749293
_cell_angle_gamma   106.37416375
_symmetry_Int_Tables_number   1
_chemical_formula_structural   LaTb5ErCoI12
_chemical_formula_sum   'La1 Tb5 Er1 Co1 I12'
_cell_volume   799.01904904
_cell_formula_units_Z   1
loop_
 _symmetry_equiv_pos_site_id
 _symmetry_equiv_pos_as_xyz
  1  'x, y, z'
loop_
 _atom_site_type_symbol
 _atom_site_label
 _atom_site_symmetry_multiplicity
 _atom_site_fract_x
 _atom_site_fract_y
 _atom_site_fract_z
 _atom_site_occupancy
  La  La0  1  0.995269  0.995308  0.995435  1
  Tb  Tb1  1  0.784418  0.517375  0.589741  1
  Tb  Tb2  1  0.589108  0.784650  0.517722  1
  Tb  Tb3  1  0.481236  0.409297  0.214253  1
  Tb  Tb4  1  0.214767  0.481494  0.410225  1
  Tb  Tb5  1  0.409330  0.214757  0.481942  1
  Er  Er6  1  0.516814  0.587630  0.780773  1
  Co  Co7  1  0.499678  0.499650  0.499734  1
  I  I8  1  0.276025  0.822380  0.426303  1
  I  I9  1  0.426846  0.277995  0.822760  1
  I  I10  1  0.822128  0.426280  0.276081  1
  I  I11  1  0.722828  0.176554  0.572557  1
  I  I12  1  0.572255  0.722502  0.175762  1
  I  I13  1  0.178092  0.572785  0.723804  1
  I  I14  1  0.044055  0.122798  0.349455  1
  I  I15  1  0.349384  0.044056  0.122769  1
  I  I16  1  0.122906  0.349520  0.044131  1
  I  I17  1  0.953904  0.874596  0.643308  1
  I  I18  1  0.642862  0.952414  0.874758  1
  I  I19  1  0.873463  0.643325  0.953854  1
