# generated using pymatgen
data_Er4MgNi2Ag
_symmetry_space_group_name_H-M   'P 1'
_cell_length_a   8.40022554
_cell_length_b   8.40022475
_cell_length_c   8.40022510
_cell_angle_alpha   127.93571726
_cell_angle_beta   127.93571818
_cell_angle_gamma   76.72919171
_symmetry_Int_Tables_number   1
_chemical_formula_structural   Er4MgNi2Ag
_chemical_formula_sum   'Er8 Mg2 Ni4 Ag2'
_cell_volume   358.07481629
_cell_formula_units_Z   2
loop_
 _symmetry_equiv_pos_site_id
 _symmetry_equiv_pos_as_xyz
  1  'x, y, z'
loop_
 _atom_site_type_symbol
 _atom_site_label
 _atom_site_symmetry_multiplicity
 _atom_site_fract_x
 _atom_site_fract_y
 _atom_site_fract_z
 _atom_site_occupancy
  Er  Er0  1  0.799096  0.299096  0.836172  1
  Er  Er1  1  0.200904  0.700904  0.163828  1
  Er  Er2  1  0.462924  0.962924  0.163828  1
  Er  Er3  1  0.299096  0.462924  0.500000  1
  Er  Er4  1  0.037076  0.200904  0.500000  1
  Er  Er5  1  0.537076  0.037076  0.836172  1
  Er  Er6  1  0.700904  0.537076  0.500000  1
  Er  Er7  1  0.962924  0.799096  0.500000  1
  Mg  Mg8  1  0.000000  0.000000  0.000000  1
  Mg  Mg9  1  0.500000  0.500000  0.000000  1
  Ni  Ni10  1  0.125154  0.625154  0.750308  1
  Ni  Ni11  1  0.874846  0.374846  0.249692  1
  Ni  Ni12  1  0.625154  0.874846  0.500000  1
  Ni  Ni13  1  0.374846  0.125154  0.500000  1
  Ag  Ag14  1  0.250000  0.250000  0.000000  1
  Ag  Ag15  1  0.750000  0.750000  0.000000  1
