# generated using pymatgen
data_ZnGa3Pd20
_symmetry_space_group_name_H-M   'P 1'
_cell_length_a   4.02593100
_cell_length_b   8.24633081
_cell_length_c   11.00480966
_cell_angle_alpha   90.49780123
_cell_angle_beta   90.00000000
_cell_angle_gamma   90.00000000
_symmetry_Int_Tables_number   1
_chemical_formula_structural   ZnGa3Pd20
_chemical_formula_sum   'Zn1 Ga3 Pd20'
_cell_volume   365.33663461
_cell_formula_units_Z   1
loop_
 _symmetry_equiv_pos_site_id
 _symmetry_equiv_pos_as_xyz
  1  'x, y, z'
loop_
 _atom_site_type_symbol
 _atom_site_label
 _atom_site_symmetry_multiplicity
 _atom_site_fract_x
 _atom_site_fract_y
 _atom_site_fract_z
 _atom_site_occupancy
  Zn  Zn0  1  0.750000  0.387844  0.420854  1
  Ga  Ga1  1  0.750000  0.116685  0.918003  1
  Ga  Ga2  1  0.250000  0.610502  0.578012  1
  Ga  Ga3  1  0.250000  0.883397  0.082138  1
  Pd  Pd4  1  0.250000  0.217881  0.042603  1
  Pd  Pd5  1  0.750000  0.713588  0.204412  1
  Pd  Pd6  1  0.250000  0.547646  0.332186  1
  Pd  Pd7  1  0.750000  0.455414  0.666917  1
  Pd  Pd8  1  0.250000  0.955480  0.835419  1
  Pd  Pd9  1  0.250000  0.286581  0.795605  1
  Pd  Pd10  1  0.750000  0.721349  0.457355  1
  Pd  Pd11  1  0.250000  0.568883  0.069626  1
  Pd  Pd12  1  0.250000  0.929297  0.570379  1
  Pd  Pd13  1  0.750000  0.786227  0.704527  1
  Pd  Pd14  1  0.750000  0.384008  0.181422  1
  Pd  Pd15  1  0.750000  0.068355  0.429963  1
  Pd  Pd16  1  0.250000  0.276394  0.544545  1
  Pd  Pd17  1  0.750000  0.781615  0.957413  1
  Pd  Pd18  1  0.250000  0.215991  0.296668  1
  Pd  Pd19  1  0.750000  0.045004  0.165418  1
  Pd  Pd20  1  0.250000  0.615684  0.816564  1
  Pd  Pd21  1  0.750000  0.431320  0.930081  1
  Pd  Pd22  1  0.250000  0.886176  0.317222  1
  Pd  Pd23  1  0.750000  0.114677  0.682666  1
