# generated using pymatgen
data_Ca2InPtRh
_symmetry_space_group_name_H-M   'P 1'
_cell_length_a   5.88677450
_cell_length_b   5.88677404
_cell_length_c   8.16184696
_cell_angle_alpha   77.13156105
_cell_angle_beta   77.13156355
_cell_angle_gamma   57.73686499
_symmetry_Int_Tables_number   1
_chemical_formula_structural   Ca2InPtRh
_chemical_formula_sum   'Ca4 In2 Pt2 Rh2'
_cell_volume   231.30860091
_cell_formula_units_Z   2
loop_
 _symmetry_equiv_pos_site_id
 _symmetry_equiv_pos_as_xyz
  1  'x, y, z'
loop_
 _atom_site_type_symbol
 _atom_site_label
 _atom_site_symmetry_multiplicity
 _atom_site_fract_x
 _atom_site_fract_y
 _atom_site_fract_z
 _atom_site_occupancy
  Ca  Ca0  1  0.498491  0.795132  0.352382  1
  Ca  Ca1  1  0.204868  0.501509  0.147618  1
  Ca  Ca2  1  0.499786  0.202219  0.647446  1
  Ca  Ca3  1  0.797781  0.500214  0.852554  1
  In  In4  1  0.868801  0.131199  0.250000  1
  In  In5  1  0.141180  0.858820  0.750000  1
  Pt  Pt6  1  0.709270  0.006999  0.006071  1
  Pt  Pt7  1  0.993001  0.290730  0.493929  1
  Rh  Rh8  1  0.279848  0.993026  0.991556  1
  Rh  Rh9  1  0.006974  0.720152  0.508444  1
