# generated using pymatgen
data_CaNd2Ni6B2Ir
_symmetry_space_group_name_H-M   'P 1'
_cell_length_a   7.84003774
_cell_length_b   7.84003667
_cell_length_c   7.84003654
_cell_angle_alpha   38.65402254
_cell_angle_beta   38.65403368
_cell_angle_gamma   38.65402498
_symmetry_Int_Tables_number   1
_chemical_formula_structural   CaNd2Ni6B2Ir
_chemical_formula_sum   'Ca1 Nd2 Ni6 B2 Ir1'
_cell_volume   168.97077915
_cell_formula_units_Z   1
loop_
 _symmetry_equiv_pos_site_id
 _symmetry_equiv_pos_as_xyz
  1  'x, y, z'
loop_
 _atom_site_type_symbol
 _atom_site_label
 _atom_site_symmetry_multiplicity
 _atom_site_fract_x
 _atom_site_fract_y
 _atom_site_fract_z
 _atom_site_occupancy
  Ca  Ca0  1  0.500000  0.500000  0.500000  1
  Nd  Nd1  1  0.643825  0.643825  0.643825  1
  Nd  Nd2  1  0.356175  0.356175  0.356175  1
  Ni  Ni3  1  0.569646  0.059906  0.059906  1
  Ni  Ni4  1  0.059906  0.059906  0.569646  1
  Ni  Ni5  1  0.059906  0.569646  0.059906  1
  Ni  Ni6  1  0.940094  0.430354  0.940094  1
  Ni  Ni7  1  0.940094  0.940094  0.430354  1
  Ni  Ni8  1  0.430354  0.940094  0.940094  1
  B  B9  1  0.830964  0.830964  0.830964  1
  B  B10  1  0.169036  0.169036  0.169036  1
  Ir  Ir11  1  0.000000  0.000000  0.000000  1
