# generated using pymatgen
data_Ho5Sc3Re11Si16Mo
_symmetry_space_group_name_H-M   'P 1'
_cell_length_a   6.72392750
_cell_length_b   6.73496668
_cell_length_c   12.63957032
_cell_angle_alpha   90.47329289
_cell_angle_beta   89.82781336
_cell_angle_gamma   89.88795911
_symmetry_Int_Tables_number   1
_chemical_formula_structural   Ho5Sc3Re11Si16Mo
_chemical_formula_sum   'Ho5 Sc3 Re11 Si16 Mo1'
_cell_volume   572.36511153
_cell_formula_units_Z   1
loop_
 _symmetry_equiv_pos_site_id
 _symmetry_equiv_pos_as_xyz
  1  'x, y, z'
loop_
 _atom_site_type_symbol
 _atom_site_label
 _atom_site_symmetry_multiplicity
 _atom_site_fract_x
 _atom_site_fract_y
 _atom_site_fract_z
 _atom_site_occupancy
  Ho  Ho0  1  0.006983  0.663325  0.031266  1
  Ho  Ho1  1  0.993600  0.334873  0.531274  1
  Ho  Ho2  1  0.338048  0.992328  0.468739  1
  Ho  Ho3  1  0.164948  0.495011  0.782129  1
  Ho  Ho4  1  0.838688  0.505406  0.278717  1
  Sc  Sc5  1  0.490802  0.156005  0.219357  1
  Sc  Sc6  1  0.510526  0.842423  0.719398  1
  Sc  Sc7  1  0.660073  0.010746  0.970623  1
  Re  Re8  1  0.169388  0.837329  0.247746  1
  Re  Re9  1  0.339276  0.329762  0.002381  1
  Re  Re10  1  0.018964  0.812806  0.634578  1
  Re  Re11  1  0.981983  0.181513  0.126595  1
  Re  Re12  1  0.807971  0.012743  0.367311  1
  Re  Re13  1  0.312694  0.479480  0.380044  1
  Re  Re14  1  0.678691  0.521033  0.880517  1
  Re  Re15  1  0.488450  0.316174  0.622961  1
  Re  Re16  1  0.524349  0.696663  0.111524  1
  Re  Re17  1  0.181695  0.983345  0.869304  1
  Re  Re18  1  0.828969  0.161370  0.752905  1
  Si  Si19  1  0.022152  0.724429  0.438498  1
  Si  Si20  1  0.614456  0.301096  0.431321  1
  Si  Si21  1  0.385085  0.705102  0.931023  1
  Si  Si22  1  0.200349  0.113667  0.684520  1
  Si  Si23  1  0.305652  0.618185  0.568872  1
  Si  Si24  1  0.690924  0.379104  0.067349  1
  Si  Si25  1  0.800580  0.889771  0.181282  1
  Si  Si26  1  0.115417  0.193389  0.314229  1
  Si  Si27  1  0.971005  0.276909  0.936847  1
  Si  Si28  1  0.723492  0.019618  0.565363  1
  Si  Si29  1  0.239393  0.478208  0.186694  1
  Si  Si30  1  0.776708  0.527156  0.689979  1
  Si  Si31  1  0.477021  0.214770  0.816323  1
  Si  Si32  1  0.518786  0.773349  0.307531  1
  Si  Si33  1  0.284696  0.980442  0.062278  1
  Si  Si34  1  0.874499  0.808291  0.818396  1
  Mo  Mo35  1  0.663688  0.664179  0.502126  1
