# generated using pymatgen
data_TbYFe3Ni7P6
_symmetry_space_group_name_H-M   'P 1'
_cell_length_a   3.70476000
_cell_length_b   10.30416400
_cell_length_c   11.91166900
_cell_angle_alpha   90.00000000
_cell_angle_beta   90.00000000
_cell_angle_gamma   90.00000000
_symmetry_Int_Tables_number   1
_chemical_formula_structural   TbYFe3Ni7P6
_chemical_formula_sum   'Tb2 Y2 Fe6 Ni14 P12'
_cell_volume   454.72146770
_cell_formula_units_Z   2
loop_
 _symmetry_equiv_pos_site_id
 _symmetry_equiv_pos_as_xyz
  1  'x, y, z'
loop_
 _atom_site_type_symbol
 _atom_site_label
 _atom_site_symmetry_multiplicity
 _atom_site_fract_x
 _atom_site_fract_y
 _atom_site_fract_z
 _atom_site_occupancy
  Tb  Tb0  1  0.750000  0.423774  0.295686  1
  Tb  Tb1  1  0.750000  0.076226  0.795686  1
  Y  Y2  1  0.250000  0.581162  0.704571  1
  Y  Y3  1  0.250000  0.918838  0.204571  1
  Fe  Fe4  1  0.250000  0.874535  0.700956  1
  Fe  Fe5  1  0.250000  0.625465  0.200956  1
  Fe  Fe6  1  0.250000  0.461083  0.931197  1
  Fe  Fe7  1  0.250000  0.038917  0.431197  1
  Fe  Fe8  1  0.750000  0.534711  0.067375  1
  Fe  Fe9  1  0.750000  0.965289  0.567375  1
  Ni  Ni10  1  0.250000  0.710732  0.991446  1
  Ni  Ni11  1  0.250000  0.789268  0.491446  1
  Ni  Ni12  1  0.750000  0.283594  0.002176  1
  Ni  Ni13  1  0.750000  0.216406  0.502176  1
  Ni  Ni14  1  0.250000  0.409668  0.488600  1
  Ni  Ni15  1  0.250000  0.090332  0.988600  1
  Ni  Ni16  1  0.750000  0.593631  0.514648  1
  Ni  Ni17  1  0.750000  0.906369  0.014648  1
  Ni  Ni18  1  0.250000  0.227023  0.175955  1
  Ni  Ni19  1  0.250000  0.272977  0.675955  1
  Ni  Ni20  1  0.750000  0.773576  0.827973  1
  Ni  Ni21  1  0.750000  0.726424  0.327973  1
  Ni  Ni22  1  0.750000  0.124852  0.296961  1
  Ni  Ni23  1  0.750000  0.375148  0.796961  1
  P  P24  1  0.250000  0.431107  0.112758  1
  P  P25  1  0.250000  0.068893  0.612758  1
  P  P26  1  0.750000  0.570685  0.888810  1
  P  P27  1  0.750000  0.929315  0.388810  1
  P  P28  1  0.250000  0.266498  0.868595  1
  P  P29  1  0.250000  0.233502  0.368595  1
  P  P30  1  0.750000  0.727035  0.135762  1
  P  P31  1  0.750000  0.772965  0.635762  1
  P  P32  1  0.250000  0.607097  0.389675  1
  P  P33  1  0.250000  0.892903  0.889675  1
  P  P34  1  0.750000  0.395777  0.606859  1
  P  P35  1  0.750000  0.104223  0.106859  1
