# generated using pymatgen
data_Nd2CuGePd13
_symmetry_space_group_name_H-M   'P 1'
_cell_length_a   8.96283049
_cell_length_b   8.96348200
_cell_length_c   7.18287112
_cell_angle_alpha   90.00000000
_cell_angle_beta   90.13733342
_cell_angle_gamma   90.00000000
_symmetry_Int_Tables_number   1
_chemical_formula_structural   Nd2CuGePd13
_chemical_formula_sum   'Nd4 Cu2 Ge2 Pd26'
_cell_volume   577.05706145
_cell_formula_units_Z   2
loop_
 _symmetry_equiv_pos_site_id
 _symmetry_equiv_pos_as_xyz
  1  'x, y, z'
loop_
 _atom_site_type_symbol
 _atom_site_label
 _atom_site_symmetry_multiplicity
 _atom_site_fract_x
 _atom_site_fract_y
 _atom_site_fract_z
 _atom_site_occupancy
  Nd  Nd0  1  0.506346  0.000000  0.934794  1
  Nd  Nd1  1  0.993654  0.500000  0.065206  1
  Nd  Nd2  1  0.002752  0.000000  0.499392  1
  Nd  Nd3  1  0.497248  0.500000  0.500608  1
  Cu  Cu4  1  0.250000  0.750000  0.000000  1
  Cu  Cu5  1  0.250000  0.250000  0.000000  1
  Ge  Ge6  1  0.500505  0.000000  0.449294  1
  Ge  Ge7  1  0.999495  0.500000  0.550706  1
  Pd  Pd8  1  0.329046  0.830004  0.623394  1
  Pd  Pd9  1  0.329046  0.169996  0.623394  1
  Pd  Pd10  1  0.669491  0.829343  0.623243  1
  Pd  Pd11  1  0.669491  0.170657  0.623243  1
  Pd  Pd12  1  0.170954  0.669996  0.376606  1
  Pd  Pd13  1  0.170954  0.330004  0.376606  1
  Pd  Pd14  1  0.830509  0.670657  0.376757  1
  Pd  Pd15  1  0.830509  0.329343  0.376757  1
  Pd  Pd16  1  0.495304  0.765826  0.251266  1
  Pd  Pd17  1  0.495304  0.234174  0.251266  1
  Pd  Pd18  1  0.267810  0.000000  0.250013  1
  Pd  Pd19  1  0.735735  0.000000  0.253307  1
  Pd  Pd20  1  0.004696  0.734174  0.748734  1
  Pd  Pd21  1  0.004696  0.265826  0.748734  1
  Pd  Pd22  1  0.232190  0.500000  0.749987  1
  Pd  Pd23  1  0.764265  0.500000  0.746693  1
  Pd  Pd24  1  0.493093  0.345740  0.862459  1
  Pd  Pd25  1  0.493093  0.654260  0.862459  1
  Pd  Pd26  1  0.854352  0.000000  0.855786  1
  Pd  Pd27  1  0.162586  0.000000  0.867058  1
  Pd  Pd28  1  0.006907  0.154260  0.137541  1
  Pd  Pd29  1  0.006907  0.845740  0.137541  1
  Pd  Pd30  1  0.645648  0.500000  0.144214  1
  Pd  Pd31  1  0.337414  0.500000  0.132942  1
  Pd  Pd32  1  0.750000  0.750000  0.000000  1
  Pd  Pd33  1  0.750000  0.250000  0.000000  1
