# generated using pymatgen
data_Ca5PaSi24IrRu7
_symmetry_space_group_name_H-M   'P 1'
_cell_length_a   10.13945475
_cell_length_b   10.13947237
_cell_length_c   8.18551000
_cell_angle_alpha   90.00342684
_cell_angle_beta   90.00341194
_cell_angle_gamma   132.43864512
_symmetry_Int_Tables_number   1
_chemical_formula_structural   Ca5PaSi24IrRu7
_chemical_formula_sum   'Ca5 Pa1 Si24 Ir1 Ru7'
_cell_volume   621.05816211
_cell_formula_units_Z   1
loop_
 _symmetry_equiv_pos_site_id
 _symmetry_equiv_pos_as_xyz
  1  'x, y, z'
loop_
 _atom_site_type_symbol
 _atom_site_label
 _atom_site_symmetry_multiplicity
 _atom_site_fract_x
 _atom_site_fract_y
 _atom_site_fract_z
 _atom_site_occupancy
  Ca  Ca0  1  0.000038  0.999961  0.999999  1
  Ca  Ca1  1  0.001551  0.501159  0.249620  1
  Ca  Ca2  1  0.498844  0.998449  0.750380  1
  Ca  Ca3  1  0.997848  0.497554  0.749626  1
  Ca  Ca4  1  0.502447  0.002151  0.250376  1
  Pa  Pa5  1  0.499295  0.500706  0.499999  1
  Si  Si6  1  0.294884  0.705115  0.000000  1
  Si  Si7  1  0.792945  0.207056  0.500000  1
  Si  Si8  1  0.707141  0.292859  0.000000  1
  Si  Si9  1  0.208224  0.791777  0.500001  1
  Si  Si10  1  0.835851  0.837500  0.329923  1
  Si  Si11  1  0.162501  0.164150  0.670076  1
  Si  Si12  1  0.668365  0.670896  0.836162  1
  Si  Si13  1  0.329103  0.331634  0.163837  1
  Si  Si14  1  0.622652  0.388130  0.225089  1
  Si  Si15  1  0.611870  0.377348  0.774911  1
  Si  Si16  1  0.113069  0.879733  0.724554  1
  Si  Si17  1  0.120268  0.886932  0.275446  1
  Si  Si18  1  0.377838  0.612746  0.775960  1
  Si  Si19  1  0.387252  0.622161  0.224040  1
  Si  Si20  1  0.889278  0.122789  0.270942  1
  Si  Si21  1  0.877211  0.110722  0.729057  1
  Si  Si22  1  0.840769  0.608714  0.002758  1
  Si  Si23  1  0.391285  0.159230  0.997241  1
  Si  Si24  1  0.893094  0.658355  0.502705  1
  Si  Si25  1  0.341646  0.106907  0.497295  1
  Si  Si26  1  0.153799  0.386575  0.996027  1
  Si  Si27  1  0.613424  0.846200  0.003974  1
  Si  Si28  1  0.105600  0.340010  0.496991  1
  Si  Si29  1  0.659990  0.894400  0.503009  1
  Ir  Ir30  1  0.167962  0.832038  0.000000  1
  Ru  Ru31  1  0.665604  0.334398  0.500000  1
  Ru  Ru32  1  0.831361  0.168638  0.000000  1
  Ru  Ru33  1  0.335022  0.664977  0.500000  1
  Ru  Ru34  1  0.623795  0.623245  0.129659  1
  Ru  Ru35  1  0.376755  0.376205  0.870342  1
  Ru  Ru36  1  0.870768  0.869350  0.622859  1
  Ru  Ru37  1  0.130652  0.129234  0.377141  1
