# generated using pymatgen
data_Zr8Ta12SiGe15
_symmetry_space_group_name_H-M   'P 1'
_cell_length_a   6.84734599
_cell_length_b   6.95901604
_cell_length_c   13.31592200
_cell_angle_alpha   90.00000000
_cell_angle_beta   90.00000000
_cell_angle_gamma   89.89284826
_symmetry_Int_Tables_number   1
_chemical_formula_structural   Zr8Ta12SiGe15
_chemical_formula_sum   'Zr8 Ta12 Si1 Ge15'
_cell_volume   634.51310150
_cell_formula_units_Z   1
loop_
 _symmetry_equiv_pos_site_id
 _symmetry_equiv_pos_as_xyz
  1  'x, y, z'
loop_
 _atom_site_type_symbol
 _atom_site_label
 _atom_site_symmetry_multiplicity
 _atom_site_fract_x
 _atom_site_fract_y
 _atom_site_fract_z
 _atom_site_occupancy
  Zr  Zr0  1  0.489089  0.671085  0.592440  1
  Zr  Zr1  1  0.988726  0.825348  0.908085  1
  Zr  Zr2  1  0.511251  0.326016  0.091046  1
  Zr  Zr3  1  0.012033  0.174079  0.408536  1
  Zr  Zr4  1  0.511251  0.326016  0.408954  1
  Zr  Zr5  1  0.012033  0.174079  0.091464  1
  Zr  Zr6  1  0.489089  0.671085  0.907560  1
  Zr  Zr7  1  0.988726  0.825348  0.591915  1
  Ta  Ta8  1  0.654611  0.169034  0.625938  1
  Ta  Ta9  1  0.162972  0.335279  0.874339  1
  Ta  Ta10  1  0.341080  0.834784  0.124764  1
  Ta  Ta11  1  0.840759  0.665504  0.375481  1
  Ta  Ta12  1  0.341080  0.834784  0.375236  1
  Ta  Ta13  1  0.840759  0.665504  0.124519  1
  Ta  Ta14  1  0.654611  0.169034  0.874062  1
  Ta  Ta15  1  0.162972  0.335279  0.625661  1
  Ta  Ta16  1  0.832371  0.489251  0.750000  1
  Ta  Ta17  1  0.335817  0.012567  0.750000  1
  Ta  Ta18  1  0.164073  0.510419  0.250000  1
  Ta  Ta19  1  0.664351  0.989769  0.250000  1
  Si  Si20  1  0.459684  0.385969  0.750000  1
  Ge  Ge21  1  0.682356  0.961466  0.460643  1
  Ge  Ge22  1  0.182417  0.539398  0.039977  1
  Ge  Ge23  1  0.317154  0.038125  0.960023  1
  Ge  Ge24  1  0.819058  0.460227  0.540167  1
  Ge  Ge25  1  0.317154  0.038125  0.539977  1
  Ge  Ge26  1  0.819058  0.460227  0.959833  1
  Ge  Ge27  1  0.682356  0.961466  0.039357  1
  Ge  Ge28  1  0.182417  0.539398  0.460023  1
  Ge  Ge29  1  0.960575  0.112985  0.750000  1
  Ge  Ge30  1  0.538632  0.612392  0.250000  1
  Ge  Ge31  1  0.038213  0.887778  0.250000  1
  Ge  Ge32  1  0.692945  0.850316  0.750000  1
  Ge  Ge33  1  0.195748  0.647870  0.750000  1
  Ge  Ge34  1  0.307431  0.150687  0.250000  1
  Ge  Ge35  1  0.807147  0.349307  0.250000  1
