# generated using pymatgen
data_Th2Al3SiAu2
_symmetry_space_group_name_H-M   'P 1'
_cell_length_a   9.44423602
_cell_length_b   9.44423600
_cell_length_c   4.28535800
_cell_angle_alpha   90.00000000
_cell_angle_beta   90.00000000
_cell_angle_gamma   153.95423196
_symmetry_Int_Tables_number   1
_chemical_formula_structural   Th2Al3SiAu2
_chemical_formula_sum   'Th2 Al3 Si1 Au2'
_cell_volume   167.83143041
_cell_formula_units_Z   1
loop_
 _symmetry_equiv_pos_site_id
 _symmetry_equiv_pos_as_xyz
  1  'x, y, z'
loop_
 _atom_site_type_symbol
 _atom_site_label
 _atom_site_symmetry_multiplicity
 _atom_site_fract_x
 _atom_site_fract_y
 _atom_site_fract_z
 _atom_site_occupancy
  Th  Th0  1  0.902375  0.097625  0.750000  1
  Th  Th1  1  0.095531  0.904469  0.250000  1
  Al  Al2  1  0.250380  0.749620  0.750000  1
  Al  Al3  1  0.750349  0.249651  0.250000  1
  Al  Al4  1  0.533578  0.466422  0.750000  1
  Si  Si5  1  0.466801  0.533199  0.250000  1
  Au  Au6  1  0.669610  0.330390  0.750000  1
  Au  Au7  1  0.331376  0.668624  0.250000  1
