# generated using pymatgen
data_Y3(B3Rh4)2
_symmetry_space_group_name_H-M   'P 1'
_cell_length_a   9.98546621
_cell_length_b   9.16529210
_cell_length_c   5.55513297
_cell_angle_alpha   81.44237738
_cell_angle_beta   65.18181708
_cell_angle_gamma   33.37580461
_symmetry_Int_Tables_number   1
_chemical_formula_structural   Y3(B3Rh4)2
_chemical_formula_sum   'Y3 B6 Rh8'
_cell_volume   232.22060367
_cell_formula_units_Z   1
loop_
 _symmetry_equiv_pos_site_id
 _symmetry_equiv_pos_as_xyz
  1  'x, y, z'
loop_
 _atom_site_type_symbol
 _atom_site_label
 _atom_site_symmetry_multiplicity
 _atom_site_fract_x
 _atom_site_fract_y
 _atom_site_fract_z
 _atom_site_occupancy
  Y  Y0  1  0.318952  0.318952  0.681048  1
  Y  Y1  1  0.681048  0.681048  0.318952  1
  Y  Y2  1  0.500000  0.500000  0.500000  1
  B  B3  1  0.672557  0.980677  0.019323  1
  B  B4  1  0.980677  0.672557  0.327443  1
  B  B5  1  0.327443  0.019323  0.980677  1
  B  B6  1  0.019323  0.327443  0.672557  1
  B  B7  1  0.169011  0.830989  0.169011  1
  B  B8  1  0.830989  0.169011  0.830989  1
  Rh  Rh9  1  0.586039  0.586039  0.913961  1
  Rh  Rh10  1  0.914545  0.914545  0.085455  1
  Rh  Rh11  1  0.413961  0.413961  0.086039  1
  Rh  Rh12  1  0.086039  0.086039  0.413961  1
  Rh  Rh13  1  0.913961  0.913961  0.586039  1
  Rh  Rh14  1  0.250000  0.250000  0.250000  1
  Rh  Rh15  1  0.085455  0.085455  0.914545  1
  Rh  Rh16  1  0.750000  0.750000  0.750000  1
