# generated using pymatgen
data_Nd8C8Cl5
_symmetry_space_group_name_H-M   'P 1'
_cell_length_a   16.99347300
_cell_length_b   6.77904404
_cell_length_c   7.65431084
_cell_angle_alpha   76.08545933
_cell_angle_beta   90.00000000
_cell_angle_gamma   90.00000000
_symmetry_Int_Tables_number   1
_chemical_formula_structural   Nd8C8Cl5
_chemical_formula_sum   'Nd16 C16 Cl10'
_cell_volume   855.89760006
_cell_formula_units_Z   2
loop_
 _symmetry_equiv_pos_site_id
 _symmetry_equiv_pos_as_xyz
  1  'x, y, z'
loop_
 _atom_site_type_symbol
 _atom_site_label
 _atom_site_symmetry_multiplicity
 _atom_site_fract_x
 _atom_site_fract_y
 _atom_site_fract_z
 _atom_site_occupancy
  Nd  Nd0  1  0.070455  0.876346  0.149262  1
  Nd  Nd1  1  0.570455  0.623654  0.850738  1
  Nd  Nd2  1  0.929545  0.123654  0.850738  1
  Nd  Nd3  1  0.429545  0.376346  0.149262  1
  Nd  Nd4  1  0.951050  0.384112  0.224256  1
  Nd  Nd5  1  0.451050  0.115888  0.775744  1
  Nd  Nd6  1  0.048950  0.615888  0.775744  1
  Nd  Nd7  1  0.548950  0.884112  0.224256  1
  Nd  Nd8  1  0.195524  0.375991  0.072086  1
  Nd  Nd9  1  0.695524  0.124009  0.927914  1
  Nd  Nd10  1  0.804476  0.624009  0.927914  1
  Nd  Nd11  1  0.304476  0.875991  0.072086  1
  Nd  Nd12  1  0.173396  0.101809  0.700572  1
  Nd  Nd13  1  0.673396  0.398191  0.299428  1
  Nd  Nd14  1  0.826604  0.898191  0.299428  1
  Nd  Nd15  1  0.326604  0.601809  0.700572  1
  C  C16  1  0.037938  0.277105  0.021043  1
  C  C17  1  0.537938  0.222895  0.978957  1
  C  C18  1  0.962062  0.722895  0.978957  1
  C  C19  1  0.462062  0.777105  0.021043  1
  C  C20  1  0.159860  0.764806  0.951274  1
  C  C21  1  0.659860  0.735194  0.048726  1
  C  C22  1  0.840140  0.235194  0.048726  1
  C  C23  1  0.340140  0.264806  0.951274  1
  C  C24  1  0.085817  0.220861  0.901216  1
  C  C25  1  0.585817  0.279139  0.098784  1
  C  C26  1  0.914183  0.779139  0.098784  1
  C  C27  1  0.414183  0.720861  0.901216  1
  C  C28  1  0.284754  0.216447  0.840845  1
  C  C29  1  0.784754  0.283553  0.159155  1
  C  C30  1  0.715246  0.783553  0.159155  1
  C  C31  1  0.215246  0.716447  0.840845  1
  Cl  Cl32  1  0.202617  0.984626  0.347933  1
  Cl  Cl33  1  0.702617  0.515374  0.652067  1
  Cl  Cl34  1  0.797383  0.015374  0.652067  1
  Cl  Cl35  1  0.297383  0.484626  0.347933  1
  Cl  Cl36  1  0.096449  0.481365  0.414129  1
  Cl  Cl37  1  0.596449  0.018635  0.585871  1
  Cl  Cl38  1  0.903551  0.518635  0.585871  1
  Cl  Cl39  1  0.403551  0.981365  0.414129  1
  Cl  Cl40  1  0.000000  0.000000  0.500000  1
  Cl  Cl41  1  0.500000  0.500000  0.500000  1
