# generated using pymatgen
data_Nd2Y4PtBr10
_symmetry_space_group_name_H-M   'P 1'
_cell_length_a   7.41508518
_cell_length_b   9.33670057
_cell_length_c   9.53868736
_cell_angle_alpha   107.98191704
_cell_angle_beta   96.16388496
_cell_angle_gamma   105.86971658
_symmetry_Int_Tables_number   1
_chemical_formula_structural   Nd2Y4PtBr10
_chemical_formula_sum   'Nd2 Y4 Pt1 Br10'
_cell_volume   590.76402613
_cell_formula_units_Z   1
loop_
 _symmetry_equiv_pos_site_id
 _symmetry_equiv_pos_as_xyz
  1  'x, y, z'
loop_
 _atom_site_type_symbol
 _atom_site_label
 _atom_site_symmetry_multiplicity
 _atom_site_fract_x
 _atom_site_fract_y
 _atom_site_fract_z
 _atom_site_occupancy
  Nd  Nd0  1  0.868116  0.951225  0.250782  1
  Nd  Nd1  1  0.131884  0.048775  0.749218  1
  Y  Y2  1  0.026233  0.699319  0.905374  1
  Y  Y3  1  0.973767  0.300681  0.094626  1
  Y  Y4  1  0.637315  0.862159  0.825192  1
  Y  Y5  1  0.362685  0.137841  0.174808  1
  Pt  Pt6  1  0.000000  0.000000  0.000000  1
  Br  Br7  1  0.648200  0.547582  0.730519  1
  Br  Br8  1  0.351800  0.452418  0.269481  1
  Br  Br9  1  0.739133  0.916127  0.552345  1
  Br  Br10  1  0.260867  0.083873  0.447655  1
  Br  Br11  1  0.917619  0.624604  0.166898  1
  Br  Br12  1  0.082381  0.375396  0.833102  1
  Br  Br13  1  0.554186  0.176367  0.919839  1
  Br  Br14  1  0.445814  0.823633  0.080161  1
  Br  Br15  1  0.219745  0.738044  0.659641  1
  Br  Br16  1  0.780255  0.261956  0.340359  1
