# generated using pymatgen
data_Pr9Y(RuRh)2
_symmetry_space_group_name_H-M   'P 1'
_cell_length_a   6.63527009
_cell_length_b   7.36819837
_cell_length_c   9.03151822
_cell_angle_alpha   96.26714178
_cell_angle_beta   111.55164509
_cell_angle_gamma   89.99999575
_symmetry_Int_Tables_number   1
_chemical_formula_structural   Pr9Y(RuRh)2
_chemical_formula_sum   'Pr9 Y1 Ru2 Rh2'
_cell_volume   407.84207076
_cell_formula_units_Z   1
loop_
 _symmetry_equiv_pos_site_id
 _symmetry_equiv_pos_as_xyz
  1  'x, y, z'
loop_
 _atom_site_type_symbol
 _atom_site_label
 _atom_site_symmetry_multiplicity
 _atom_site_fract_x
 _atom_site_fract_y
 _atom_site_fract_z
 _atom_site_occupancy
  Pr  Pr0  1  0.986898  0.920836  0.186321  1
  Pr  Pr1  1  0.800577  0.579164  0.813679  1
  Pr  Pr2  1  0.018402  0.085648  0.816673  1
  Pr  Pr3  1  0.201729  0.414352  0.183327  1
  Pr  Pr4  1  0.640795  0.814226  0.428988  1
  Pr  Pr5  1  0.211807  0.685774  0.571012  1
  Pr  Pr6  1  0.354851  0.188547  0.568272  1
  Pr  Pr7  1  0.786579  0.311453  0.431728  1
  Pr  Pr8  1  0.428500  0.750000  0.000000  1
  Y  Y9  1  0.569683  0.250000  0.000000  1
  Ru  Ru10  1  0.183105  0.425237  0.779393  1
  Ru  Ru11  1  0.403712  0.074763  0.220607  1
  Rh  Rh12  1  0.816682  0.572765  0.220002  1
  Rh  Rh13  1  0.596681  0.927235  0.779998  1
