# generated using pymatgen
data_NdDy2Ta(Co4P3)2
_symmetry_space_group_name_H-M   'P 1'
_cell_length_a   3.73044400
_cell_length_b   10.66550700
_cell_length_c   12.37329300
_cell_angle_alpha   90.00000000
_cell_angle_beta   90.00000000
_cell_angle_gamma   90.00000000
_symmetry_Int_Tables_number   1
_chemical_formula_structural   NdDy2Ta(Co4P3)2
_chemical_formula_sum   'Nd2 Dy4 Ta2 Co16 P12'
_cell_volume   492.29715632
_cell_formula_units_Z   2
loop_
 _symmetry_equiv_pos_site_id
 _symmetry_equiv_pos_as_xyz
  1  'x, y, z'
loop_
 _atom_site_type_symbol
 _atom_site_label
 _atom_site_symmetry_multiplicity
 _atom_site_fract_x
 _atom_site_fract_y
 _atom_site_fract_z
 _atom_site_occupancy
  Nd  Nd0  1  0.000000  0.500000  0.527644  1
  Nd  Nd1  1  0.500000  0.000000  0.472356  1
  Dy  Dy2  1  0.500000  0.820291  0.204018  1
  Dy  Dy3  1  0.500000  0.179709  0.204018  1
  Dy  Dy4  1  0.000000  0.679709  0.795982  1
  Dy  Dy5  1  0.000000  0.320291  0.795982  1
  Ta  Ta6  1  0.500000  0.500000  0.154560  1
  Ta  Ta7  1  0.000000  0.000000  0.845440  1
  Co  Co8  1  0.500000  0.500000  0.705632  1
  Co  Co9  1  0.000000  0.000000  0.294368  1
  Co  Co10  1  0.000000  0.500000  0.987211  1
  Co  Co11  1  0.500000  0.000000  0.012789  1
  Co  Co12  1  0.500000  0.332396  0.992428  1
  Co  Co13  1  0.500000  0.667604  0.992428  1
  Co  Co14  1  0.000000  0.167604  0.007572  1
  Co  Co15  1  0.000000  0.832396  0.007572  1
  Co  Co16  1  0.500000  0.294988  0.431108  1
  Co  Co17  1  0.500000  0.705012  0.431108  1
  Co  Co18  1  0.000000  0.205012  0.568892  1
  Co  Co19  1  0.000000  0.794988  0.568892  1
  Co  Co20  1  0.500000  0.878324  0.707466  1
  Co  Co21  1  0.500000  0.121676  0.707466  1
  Co  Co22  1  0.000000  0.621676  0.292534  1
  Co  Co23  1  0.000000  0.378324  0.292534  1
  P  P24  1  0.500000  0.500000  0.883470  1
  P  P25  1  0.000000  0.000000  0.116530  1
  P  P26  1  0.500000  0.500000  0.352390  1
  P  P27  1  0.000000  0.000000  0.647610  1
  P  P28  1  0.500000  0.307404  0.617044  1
  P  P29  1  0.500000  0.692596  0.617044  1
  P  P30  1  0.000000  0.192596  0.382956  1
  P  P31  1  0.000000  0.807404  0.382956  1
  P  P32  1  0.500000  0.841248  0.893403  1
  P  P33  1  0.500000  0.158752  0.893403  1
  P  P34  1  0.000000  0.658752  0.106597  1
  P  P35  1  0.000000  0.341248  0.106597  1
