# generated using pymatgen
data_Y6Tm11Lu3(Cd3Os)2
_symmetry_space_group_name_H-M   'P 1'
_cell_length_a   9.49747041
_cell_length_b   9.49878507
_cell_length_c   9.75377949
_cell_angle_alpha   90.00000122
_cell_angle_beta   89.98192625
_cell_angle_gamma   120.00457158
_symmetry_Int_Tables_number   1
_chemical_formula_structural   Y6Tm11Lu3(Cd3Os)2
_chemical_formula_sum   'Y6 Tm11 Lu3 Cd6 Os2'
_cell_volume   762.00801139
_cell_formula_units_Z   1
loop_
 _symmetry_equiv_pos_site_id
 _symmetry_equiv_pos_as_xyz
  1  'x, y, z'
loop_
 _atom_site_type_symbol
 _atom_site_label
 _atom_site_symmetry_multiplicity
 _atom_site_fract_x
 _atom_site_fract_y
 _atom_site_fract_z
 _atom_site_occupancy
  Y  Y0  1  0.539459  0.461461  0.249697  1
  Y  Y1  1  0.539459  0.077997  0.249697  1
  Y  Y2  1  0.921349  0.460675  0.249800  1
  Y  Y3  1  0.460391  0.539339  0.750207  1
  Y  Y4  1  0.460391  0.921052  0.750207  1
  Y  Y5  1  0.077694  0.538847  0.750201  1
  Tm  Tm6  1  0.209943  0.790243  0.440504  1
  Tm  Tm7  1  0.209943  0.419701  0.440504  1
  Tm  Tm8  1  0.580553  0.790277  0.440294  1
  Tm  Tm9  1  0.789948  0.209535  0.559342  1
  Tm  Tm10  1  0.789948  0.580412  0.559342  1
  Tm  Tm11  1  0.419650  0.209825  0.559306  1
  Tm  Tm12  1  0.789759  0.209290  0.940737  1
  Tm  Tm13  1  0.789759  0.580468  0.940737  1
  Tm  Tm14  1  0.419345  0.209672  0.940690  1
  Tm  Tm15  1  0.210437  0.790276  0.059436  1
  Tm  Tm16  1  0.210437  0.420162  0.059436  1
  Lu  Lu17  1  0.000156  0.000078  0.500320  1
  Lu  Lu18  1  0.999382  0.999691  0.000160  1
  Lu  Lu19  1  0.580518  0.790259  0.058793  1
  Cd  Cd20  1  0.887004  0.113173  0.250047  1
  Cd  Cd21  1  0.887004  0.773832  0.250047  1
  Cd  Cd22  1  0.226754  0.113378  0.250066  1
  Cd  Cd23  1  0.113178  0.886966  0.750330  1
  Cd  Cd24  1  0.113178  0.226213  0.750330  1
  Cd  Cd25  1  0.773231  0.886615  0.750048  1
  Os  Os26  1  0.334371  0.667186  0.249692  1
  Os  Os27  1  0.666758  0.333379  0.750029  1
