# generated using pymatgen
data_Sr2Si7Pd12
_symmetry_space_group_name_H-M   'P 1'
_cell_length_a   10.16917600
_cell_length_b   10.16917535
_cell_length_c   3.86861600
_cell_angle_alpha   90.00000000
_cell_angle_beta   90.00000000
_cell_angle_gamma   120.00000212
_symmetry_Int_Tables_number   1
_chemical_formula_structural   Sr2Si7Pd12
_chemical_formula_sum   'Sr2 Si7 Pd12'
_cell_volume   346.46370550
_cell_formula_units_Z   1
loop_
 _symmetry_equiv_pos_site_id
 _symmetry_equiv_pos_as_xyz
  1  'x, y, z'
loop_
 _atom_site_type_symbol
 _atom_site_label
 _atom_site_symmetry_multiplicity
 _atom_site_fract_x
 _atom_site_fract_y
 _atom_site_fract_z
 _atom_site_occupancy
  Sr  Sr0  1  0.666667  0.333333  0.249220  1
  Sr  Sr1  1  0.000000  0.000000  0.748314  1
  Si  Si2  1  0.333333  0.666667  0.468823  1
  Si  Si3  1  0.735000  0.779386  0.249293  1
  Si  Si4  1  0.044386  0.265000  0.249293  1
  Si  Si5  1  0.220614  0.955614  0.249293  1
  Si  Si6  1  0.931876  0.554779  0.748985  1
  Si  Si7  1  0.622904  0.068124  0.748985  1
  Si  Si8  1  0.445221  0.377096  0.748985  1
  Pd  Pd9  1  0.770275  0.045854  0.248738  1
  Pd  Pd10  1  0.275579  0.229725  0.248738  1
  Pd  Pd11  1  0.954146  0.724421  0.248738  1
  Pd  Pd12  1  0.896332  0.286210  0.749139  1
  Pd  Pd13  1  0.389877  0.103668  0.749139  1
  Pd  Pd14  1  0.713790  0.610123  0.749139  1
  Pd  Pd15  1  0.478312  0.554017  0.249607  1
  Pd  Pd16  1  0.075703  0.521688  0.249607  1
  Pd  Pd17  1  0.445983  0.924297  0.249607  1
  Pd  Pd18  1  0.191438  0.776815  0.749291  1
  Pd  Pd19  1  0.585377  0.808562  0.749291  1
  Pd  Pd20  1  0.223185  0.414623  0.749291  1
