# generated using pymatgen
data_HoTmHgPd2
_symmetry_space_group_name_H-M   'P 1'
_cell_length_a   7.75477100
_cell_length_b   7.75477030
_cell_length_c   3.62706100
_cell_angle_alpha   90.00000000
_cell_angle_beta   90.00000000
_cell_angle_gamma   89.81075174
_symmetry_Int_Tables_number   1
_chemical_formula_structural   HoTmHgPd2
_chemical_formula_sum   'Ho2 Tm2 Hg2 Pd4'
_cell_volume   218.11744739
_cell_formula_units_Z   2
loop_
 _symmetry_equiv_pos_site_id
 _symmetry_equiv_pos_as_xyz
  1  'x, y, z'
loop_
 _atom_site_type_symbol
 _atom_site_label
 _atom_site_symmetry_multiplicity
 _atom_site_fract_x
 _atom_site_fract_y
 _atom_site_fract_z
 _atom_site_occupancy
  Ho  Ho0  1  0.671350  0.171350  0.500000  1
  Ho  Ho1  1  0.328650  0.828650  0.500000  1
  Tm  Tm2  1  0.170803  0.329197  0.500000  1
  Tm  Tm3  1  0.829197  0.670803  0.500000  1
  Hg  Hg4  1  0.000000  0.000000  0.000000  1
  Hg  Hg5  1  0.500000  0.500000  0.000000  1
  Pd  Pd6  1  0.127377  0.627377  0.000000  1
  Pd  Pd7  1  0.872623  0.372623  0.000000  1
  Pd  Pd8  1  0.629525  0.870475  0.000000  1
  Pd  Pd9  1  0.370475  0.129525  0.000000  1
