# generated using pymatgen
data_Cs2HgBi2S5
_symmetry_space_group_name_H-M   'P 1'
_cell_length_a   15.99475400
_cell_length_b   4.21622000
_cell_length_c   18.66368500
_cell_angle_alpha   90.00000000
_cell_angle_beta   90.00000000
_cell_angle_gamma   90.00000000
_symmetry_Int_Tables_number   1
_chemical_formula_structural   Cs2HgBi2S5
_chemical_formula_sum   'Cs8 Hg4 Bi8 S20'
_cell_volume   1258.63042273
_cell_formula_units_Z   4
loop_
 _symmetry_equiv_pos_site_id
 _symmetry_equiv_pos_as_xyz
  1  'x, y, z'
loop_
 _atom_site_type_symbol
 _atom_site_label
 _atom_site_symmetry_multiplicity
 _atom_site_fract_x
 _atom_site_fract_y
 _atom_site_fract_z
 _atom_site_occupancy
  Cs  Cs0  1  0.965052  0.250001  0.112286  1
  Cs  Cs1  1  0.494056  0.750001  0.127238  1
  Cs  Cs2  1  0.994056  0.750001  0.372762  1
  Cs  Cs3  1  0.465053  0.250001  0.387714  1
  Cs  Cs4  1  0.534948  0.750001  0.612286  1
  Cs  Cs5  1  0.005944  0.250001  0.627238  1
  Cs  Cs6  1  0.505944  0.250001  0.872762  1
  Cs  Cs7  1  0.034948  0.750001  0.887714  1
  Hg  Hg8  1  0.711569  0.250001  0.144826  1
  Hg  Hg9  1  0.211569  0.250001  0.355174  1
  Hg  Hg10  1  0.788431  0.750001  0.644826  1
  Hg  Hg11  1  0.288431  0.750001  0.855174  1
  Bi  Bi12  1  0.254850  0.250001  0.018105  1
  Bi  Bi13  1  0.207796  0.750001  0.195631  1
  Bi  Bi14  1  0.707796  0.750001  0.304370  1
  Bi  Bi15  1  0.754850  0.250001  0.481895  1
  Bi  Bi16  1  0.245150  0.750001  0.518105  1
  Bi  Bi17  1  0.292204  0.250001  0.695630  1
  Bi  Bi18  1  0.792204  0.250001  0.804370  1
  Bi  Bi19  1  0.745150  0.750001  0.981895  1
  S  S20  1  0.636139  0.250001  0.022583  1
  S  S21  1  0.138854  0.750001  0.061600  1
  S  S22  1  0.317572  0.250001  0.146983  1
  S  S23  1  0.802388  0.750001  0.162726  1
  S  S24  1  0.104404  0.250001  0.247647  1
  S  S25  1  0.604404  0.250001  0.252353  1
  S  S26  1  0.302388  0.750001  0.337274  1
  S  S27  1  0.817572  0.250001  0.353017  1
  S  S28  1  0.638854  0.750001  0.438400  1
  S  S29  1  0.136139  0.250001  0.477416  1
  S  S30  1  0.863861  0.750001  0.522583  1
  S  S31  1  0.361146  0.250001  0.561600  1
  S  S32  1  0.182428  0.750001  0.646983  1
  S  S33  1  0.697612  0.250001  0.662726  1
  S  S34  1  0.395596  0.750001  0.747647  1
  S  S35  1  0.895596  0.750001  0.752354  1
  S  S36  1  0.197612  0.250001  0.837274  1
  S  S37  1  0.682428  0.750001  0.853017  1
  S  S38  1  0.861146  0.250001  0.938400  1
  S  S39  1  0.363861  0.750001  0.977417  1
