# generated using pymatgen
data_Hf5Fe15(CoP3)4
_symmetry_space_group_name_H-M   'P 1'
_cell_length_a   11.73199400
_cell_length_b   11.73199550
_cell_length_c   3.60977300
_cell_angle_alpha   90.00000000
_cell_angle_beta   90.00000000
_cell_angle_gamma   120.00000140
_symmetry_Int_Tables_number   1
_chemical_formula_structural   Hf5Fe15(CoP3)4
_chemical_formula_sum   'Hf5 Fe15 Co4 P12'
_cell_volume   430.28304947
_cell_formula_units_Z   1
loop_
 _symmetry_equiv_pos_site_id
 _symmetry_equiv_pos_as_xyz
  1  'x, y, z'
loop_
 _atom_site_type_symbol
 _atom_site_label
 _atom_site_symmetry_multiplicity
 _atom_site_fract_x
 _atom_site_fract_y
 _atom_site_fract_z
 _atom_site_occupancy
  Hf  Hf0  1  0.333333  0.666667  0.500000  1
  Hf  Hf1  1  0.666667  0.333333  0.500000  1
  Hf  Hf2  1  0.811012  0.999376  0.000000  1
  Hf  Hf3  1  0.000624  0.811636  0.000000  1
  Hf  Hf4  1  0.188364  0.188988  0.000000  1
  Fe  Fe5  1  0.623898  0.802681  0.500000  1
  Fe  Fe6  1  0.197319  0.821217  0.500000  1
  Fe  Fe7  1  0.178783  0.376102  0.500000  1
  Fe  Fe8  1  0.378585  0.183070  0.500000  1
  Fe  Fe9  1  0.804484  0.621415  0.500000  1
  Fe  Fe10  1  0.816930  0.195516  0.500000  1
  Fe  Fe11  1  0.282857  0.001387  0.000000  1
  Fe  Fe12  1  0.998613  0.281470  0.000000  1
  Fe  Fe13  1  0.718530  0.717143  0.000000  1
  Fe  Fe14  1  0.445540  0.002369  0.500000  1
  Fe  Fe15  1  0.997631  0.443171  0.500000  1
  Fe  Fe16  1  0.556829  0.554460  0.500000  1
  Fe  Fe17  1  0.513613  0.874132  0.000000  1
  Fe  Fe18  1  0.125868  0.639481  0.000000  1
  Fe  Fe19  1  0.360519  0.486387  0.000000  1
  Co  Co20  1  0.487657  0.362360  0.000000  1
  Co  Co21  1  0.874703  0.512343  0.000000  1
  Co  Co22  1  0.637640  0.125297  0.000000  1
  Co  Co23  1  0.000000  0.000000  0.500000  1
  P  P24  1  0.180112  0.001197  0.500000  1
  P  P25  1  0.998803  0.178915  0.500000  1
  P  P26  1  0.821085  0.819888  0.500000  1
  P  P27  1  0.519345  0.687182  0.000000  1
  P  P28  1  0.312818  0.832164  0.000000  1
  P  P29  1  0.167836  0.480655  0.000000  1
  P  P30  1  0.479953  0.168204  0.000000  1
  P  P31  1  0.688251  0.520047  0.000000  1
  P  P32  1  0.831796  0.311749  0.000000  1
  P  P33  1  0.632313  0.997011  0.500000  1
  P  P34  1  0.002989  0.635303  0.500000  1
  P  P35  1  0.364697  0.367687  0.500000  1
