# generated using pymatgen
data_La2Zn20IrRh
_symmetry_space_group_name_H-M   'P 1'
_cell_length_a   8.30866241
_cell_length_b   8.25508525
_cell_length_c   8.39303107
_cell_angle_alpha   99.53809279
_cell_angle_beta   100.14948084
_cell_angle_gamma   130.86879307
_symmetry_Int_Tables_number   1
_chemical_formula_structural   La2Zn20IrRh
_chemical_formula_sum   'La2 Zn20 Ir1 Rh1'
_cell_volume   396.80600606
_cell_formula_units_Z   1
loop_
 _symmetry_equiv_pos_site_id
 _symmetry_equiv_pos_as_xyz
  1  'x, y, z'
loop_
 _atom_site_type_symbol
 _atom_site_label
 _atom_site_symmetry_multiplicity
 _atom_site_fract_x
 _atom_site_fract_y
 _atom_site_fract_z
 _atom_site_occupancy
  La  La0  1  0.252246  0.752309  0.506555  1
  La  La1  1  0.997754  0.997691  0.993445  1
  Zn  Zn2  1  0.902980  0.571391  0.087588  1
  Zn  Zn3  1  0.428810  0.513355  0.329423  1
  Zn  Zn4  1  0.487898  0.573222  0.672355  1
  Zn  Zn5  1  0.429954  0.105824  0.920505  1
  Zn  Zn6  1  0.762102  0.176778  0.827645  1
  Zn  Zn7  1  0.490914  0.814622  0.920941  1
  Zn  Zn8  1  0.507220  0.507435  0.015129  1
  Zn  Zn9  1  0.759086  0.935378  0.579059  1
  Zn  Zn10  1  0.742780  0.242565  0.484871  1
  Zn  Zn11  1  0.065561  0.650394  0.827486  1
  Zn  Zn12  1  0.125000  0.375000  0.750000  1
  Zn  Zn13  1  0.347020  0.178609  0.412412  1
  Zn  Zn14  1  0.820046  0.644176  0.579495  1
  Zn  Zn15  1  0.900952  0.817129  0.329298  1
  Zn  Zn16  1  0.184439  0.099606  0.672514  1
  Zn  Zn17  1  0.064731  0.233189  0.412673  1
  Zn  Zn18  1  0.349048  0.932871  0.170702  1
  Zn  Zn19  1  0.821190  0.236645  0.170577  1
  Zn  Zn20  1  0.185269  0.516811  0.087327  1
  Zn  Zn21  1  0.625000  0.375000  0.750000  1
  Ir  Ir22  1  0.625000  0.375000  0.250000  1
  Rh  Rh23  1  0.625000  0.875000  0.250000  1
