# generated using pymatgen
data_FeHg2(PO3)4
_symmetry_space_group_name_H-M   'P 1'
_cell_length_a   5.38101240
_cell_length_b   7.53143862
_cell_length_c   10.34084387
_cell_angle_alpha   108.92515818
_cell_angle_beta   109.99060818
_cell_angle_gamma   113.41078256
_symmetry_Int_Tables_number   1
_chemical_formula_structural   FeHg2(PO3)4
_chemical_formula_sum   'Fe1 Hg2 P4 O12'
_cell_volume   305.66018598
_cell_formula_units_Z   1
loop_
 _symmetry_equiv_pos_site_id
 _symmetry_equiv_pos_as_xyz
  1  'x, y, z'
loop_
 _atom_site_type_symbol
 _atom_site_label
 _atom_site_symmetry_multiplicity
 _atom_site_fract_x
 _atom_site_fract_y
 _atom_site_fract_z
 _atom_site_occupancy
  Fe  Fe0  1  0.000000  0.000000  0.000000  1
  Hg  Hg1  1  0.558892  0.663594  0.473725  1
  Hg  Hg2  1  0.441108  0.336406  0.526275  1
  P  P3  1  0.303128  0.816192  0.232578  1
  P  P4  1  0.738024  0.340046  0.084946  1
  P  P5  1  0.261976  0.659954  0.915054  1
  P  P6  1  0.696872  0.183808  0.767422  1
  O  O7  1  0.594807  0.897715  0.390268  1
  O  O8  1  0.338135  0.688055  0.089374  1
  O  O9  1  0.748456  0.005437  0.775946  1
  O  O10  1  0.987710  0.616102  0.205492  1
  O  O11  1  0.095975  0.770740  0.873150  1
  O  O12  1  0.556333  0.713986  0.910230  1
  O  O13  1  0.443667  0.286014  0.089770  1
  O  O14  1  0.904025  0.229260  0.126850  1
  O  O15  1  0.012290  0.383898  0.794508  1
  O  O16  1  0.251544  0.994563  0.224054  1
  O  O17  1  0.661865  0.311945  0.910626  1
  O  O18  1  0.405193  0.102285  0.609732  1
