# generated using pymatgen
data_PrY3Ir2(RhO7)2
_symmetry_space_group_name_H-M   'P 1'
_cell_length_a   7.32689057
_cell_length_b   7.32320404
_cell_length_c   7.32320376
_cell_angle_alpha   59.45243137
_cell_angle_beta   59.39717647
_cell_angle_gamma   59.39718135
_symmetry_Int_Tables_number   1
_chemical_formula_structural   PrY3Ir2(RhO7)2
_chemical_formula_sum   'Pr1 Y3 Ir2 Rh2 O14'
_cell_volume   274.15289102
_cell_formula_units_Z   1
loop_
 _symmetry_equiv_pos_site_id
 _symmetry_equiv_pos_as_xyz
  1  'x, y, z'
loop_
 _atom_site_type_symbol
 _atom_site_label
 _atom_site_symmetry_multiplicity
 _atom_site_fract_x
 _atom_site_fract_y
 _atom_site_fract_z
 _atom_site_occupancy
  Pr  Pr0  1  0.125000  0.125000  0.125000  1
  Y  Y1  1  0.625000  0.125000  0.125000  1
  Y  Y2  1  0.125000  0.625000  0.125000  1
  Y  Y3  1  0.125000  0.125000  0.625000  1
  Ir  Ir4  1  0.125000  0.625000  0.625000  1
  Ir  Ir5  1  0.625000  0.625000  0.625000  1
  Rh  Rh6  1  0.625000  0.125000  0.625000  1
  Rh  Rh7  1  0.625000  0.625000  0.125000  1
  O  O8  1  0.713967  0.707050  0.292446  1
  O  O9  1  0.287829  0.293164  0.699019  1
  O  O10  1  0.713967  0.292446  0.707050  1
  O  O11  1  0.287829  0.699019  0.293164  1
  O  O12  1  0.292875  0.707580  0.707580  1
  O  O13  1  0.705525  0.286366  0.286366  1
  O  O14  1  0.536033  0.542950  0.957554  1
  O  O15  1  0.962171  0.956836  0.550981  1
  O  O16  1  0.536033  0.957554  0.542950  1
  O  O17  1  0.962171  0.550981  0.956836  1
  O  O18  1  0.957125  0.542420  0.542420  1
  O  O19  1  0.544475  0.963634  0.963634  1
  O  O20  1  0.252689  0.254761  0.254761  1
  O  O21  1  0.997311  0.995239  0.995239  1
