# generated using pymatgen
data_KEr(NbCl3)6
_symmetry_space_group_name_H-M   'P 1'
_cell_length_a   10.18558131
_cell_length_b   10.18558138
_cell_length_c   10.18558241
_cell_angle_alpha   55.34433699
_cell_angle_beta   55.34433410
_cell_angle_gamma   55.34433907
_symmetry_Int_Tables_number   1
_chemical_formula_structural   KEr(NbCl3)6
_chemical_formula_sum   'K1 Er1 Nb6 Cl18'
_cell_volume   666.38552006
_cell_formula_units_Z   1
loop_
 _symmetry_equiv_pos_site_id
 _symmetry_equiv_pos_as_xyz
  1  'x, y, z'
loop_
 _atom_site_type_symbol
 _atom_site_label
 _atom_site_symmetry_multiplicity
 _atom_site_fract_x
 _atom_site_fract_y
 _atom_site_fract_z
 _atom_site_occupancy
  K  K0  1  0.221557  0.221557  0.221557  1
  Er  Er1  1  0.498503  0.498503  0.498503  1
  Nb  Nb2  1  0.799522  0.150036  0.911755  1
  Nb  Nb3  1  0.911755  0.799522  0.150036  1
  Nb  Nb4  1  0.150036  0.911755  0.799522  1
  Nb  Nb5  1  0.201716  0.850337  0.087092  1
  Nb  Nb6  1  0.087092  0.201716  0.850337  1
  Nb  Nb7  1  0.850337  0.087092  0.201716  1
  Cl  Cl8  1  0.862759  0.414943  0.725280  1
  Cl  Cl9  1  0.725280  0.862759  0.414943  1
  Cl  Cl10  1  0.414943  0.725280  0.862759  1
  Cl  Cl11  1  0.136993  0.584308  0.276062  1
  Cl  Cl12  1  0.276062  0.136993  0.584308  1
  Cl  Cl13  1  0.584308  0.276062  0.136993  1
  Cl  Cl14  1  0.530410  0.343809  0.802824  1
  Cl  Cl15  1  0.802824  0.530410  0.343809  1
  Cl  Cl16  1  0.343809  0.802824  0.530410  1
  Cl  Cl17  1  0.465373  0.657468  0.200325  1
  Cl  Cl18  1  0.200325  0.465373  0.657468  1
  Cl  Cl19  1  0.657468  0.200325  0.465373  1
  Cl  Cl20  1  0.659933  0.939169  0.072447  1
  Cl  Cl21  1  0.072447  0.659933  0.939169  1
  Cl  Cl22  1  0.939169  0.072447  0.659933  1
  Cl  Cl23  1  0.340639  0.061280  0.926600  1
  Cl  Cl24  1  0.926600  0.340639  0.061280  1
  Cl  Cl25  1  0.061280  0.926600  0.340639  1
