# generated using pymatgen
data_Dy2MnSi5Ru2
_symmetry_space_group_name_H-M   'P 1'
_cell_length_a   5.44786698
_cell_length_b   8.26163157
_cell_length_c   8.26163279
_cell_angle_alpha   71.98476236
_cell_angle_beta   70.74889235
_cell_angle_gamma   70.74888981
_symmetry_Int_Tables_number   1
_chemical_formula_structural   Dy2MnSi5Ru2
_chemical_formula_sum   'Dy4 Mn2 Si10 Ru4'
_cell_volume   322.91979776
_cell_formula_units_Z   2
loop_
 _symmetry_equiv_pos_site_id
 _symmetry_equiv_pos_as_xyz
  1  'x, y, z'
loop_
 _atom_site_type_symbol
 _atom_site_label
 _atom_site_symmetry_multiplicity
 _atom_site_fract_x
 _atom_site_fract_y
 _atom_site_fract_z
 _atom_site_occupancy
  Dy  Dy0  1  0.865587  0.866827  0.402002  1
  Dy  Dy1  1  0.134413  0.133173  0.597998  1
  Dy  Dy2  1  0.365587  0.402002  0.866827  1
  Dy  Dy3  1  0.634413  0.597998  0.133173  1
  Mn  Mn4  1  0.250000  0.000000  0.000000  1
  Mn  Mn5  1  0.750000  0.000000  0.000000  1
  Si  Si6  1  0.250000  0.500000  0.500000  1
  Si  Si7  1  0.750000  0.500000  0.500000  1
  Si  Si8  1  0.044814  0.205186  0.205186  1
  Si  Si9  1  0.455186  0.794814  0.794814  1
  Si  Si10  1  0.955186  0.794814  0.794814  1
  Si  Si11  1  0.544814  0.205186  0.205186  1
  Si  Si12  1  0.595856  0.072978  0.735310  1
  Si  Si13  1  0.404144  0.927022  0.264690  1
  Si  Si14  1  0.095856  0.735310  0.072978  1
  Si  Si15  1  0.904144  0.264690  0.927022  1
  Ru  Ru16  1  0.646459  0.261443  0.445636  1
  Ru  Ru17  1  0.353541  0.738557  0.554364  1
  Ru  Ru18  1  0.146459  0.445636  0.261443  1
  Ru  Ru19  1  0.853541  0.554364  0.738557  1
