# generated using pymatgen
data_Hf18CrFeCoRe7
_symmetry_space_group_name_H-M   'P 1'
_cell_length_a   8.55804400
_cell_length_b   8.55804392
_cell_length_c   8.41644700
_cell_angle_alpha   90.00000000
_cell_angle_beta   90.00000000
_cell_angle_gamma   119.99999256
_symmetry_Int_Tables_number   1
_chemical_formula_structural   Hf18CrFeCoRe7
_chemical_formula_sum   'Hf18 Cr1 Fe1 Co1 Re7'
_cell_volume   533.83676902
_cell_formula_units_Z   1
loop_
 _symmetry_equiv_pos_site_id
 _symmetry_equiv_pos_as_xyz
  1  'x, y, z'
loop_
 _atom_site_type_symbol
 _atom_site_label
 _atom_site_symmetry_multiplicity
 _atom_site_fract_x
 _atom_site_fract_y
 _atom_site_fract_z
 _atom_site_occupancy
  Hf  Hf0  1  0.199088  0.800912  0.441856  1
  Hf  Hf1  1  0.199088  0.398178  0.441856  1
  Hf  Hf2  1  0.601822  0.800912  0.441856  1
  Hf  Hf3  1  0.801486  0.198514  0.558109  1
  Hf  Hf4  1  0.801486  0.602971  0.558109  1
  Hf  Hf5  1  0.397029  0.198514  0.558109  1
  Hf  Hf6  1  0.800627  0.199373  0.940964  1
  Hf  Hf7  1  0.800627  0.601254  0.940964  1
  Hf  Hf8  1  0.398746  0.199373  0.940964  1
  Hf  Hf9  1  0.200119  0.799881  0.059062  1
  Hf  Hf10  1  0.200119  0.400238  0.059062  1
  Hf  Hf11  1  0.599762  0.799881  0.059062  1
  Hf  Hf12  1  0.540918  0.459082  0.249960  1
  Hf  Hf13  1  0.540918  0.081834  0.249960  1
  Hf  Hf14  1  0.918166  0.459082  0.249960  1
  Hf  Hf15  1  0.458681  0.541319  0.750082  1
  Hf  Hf16  1  0.458681  0.917363  0.750082  1
  Hf  Hf17  1  0.082637  0.541319  0.750082  1
  Cr  Cr18  1  0.000000  0.000000  0.499451  1
  Fe  Fe19  1  0.333333  0.666667  0.250274  1
  Co  Co20  1  0.666667  0.333333  0.749921  1
  Re  Re21  1  0.890155  0.109845  0.254379  1
  Re  Re22  1  0.890155  0.780311  0.254379  1
  Re  Re23  1  0.219689  0.109845  0.254379  1
  Re  Re24  1  0.109873  0.890127  0.745600  1
  Re  Re25  1  0.109873  0.219744  0.745600  1
  Re  Re26  1  0.780256  0.890127  0.745600  1
  Re  Re27  1  0.000000  0.000000  0.000317  1
