# generated using pymatgen
data_Li3TbPr2Pt3
_symmetry_space_group_name_H-M   'P 1'
_cell_length_a   7.37717200
_cell_length_b   7.31131692
_cell_length_c   4.13728300
_cell_angle_alpha   90.00000000
_cell_angle_beta   90.00000000
_cell_angle_gamma   120.30249286
_symmetry_Int_Tables_number   1
_chemical_formula_structural   Li3TbPr2Pt3
_chemical_formula_sum   'Li3 Tb1 Pr2 Pt3'
_cell_volume   192.66352923
_cell_formula_units_Z   1
loop_
 _symmetry_equiv_pos_site_id
 _symmetry_equiv_pos_as_xyz
  1  'x, y, z'
loop_
 _atom_site_type_symbol
 _atom_site_label
 _atom_site_symmetry_multiplicity
 _atom_site_fract_x
 _atom_site_fract_y
 _atom_site_fract_z
 _atom_site_occupancy
  Li  Li0  1  0.229199  0.999982  0.500000  1
  Li  Li1  1  0.997647  0.230455  0.500000  1
  Li  Li2  1  0.767247  0.769612  0.500000  1
  Tb  Tb3  1  0.594592  0.999986  0.000000  1
  Pr  Pr4  1  0.002100  0.591860  0.000000  1
  Pr  Pr5  1  0.410268  0.408119  0.000000  1
  Pt  Pt6  1  0.344078  0.679180  0.500000  1
  Pt  Pt7  1  0.664852  0.320783  0.500000  1
  Pt  Pt8  1  0.990018  0.000021  0.000000  1
