# generated using pymatgen
data_Er4TmBi3C
_symmetry_space_group_name_H-M   'P 1'
_cell_length_a   9.07787511
_cell_length_b   9.08032464
_cell_length_c   6.43462000
_cell_angle_alpha   90.00000000
_cell_angle_beta   90.00000000
_cell_angle_gamma   120.00892224
_symmetry_Int_Tables_number   1
_chemical_formula_structural   Er4TmBi3C
_chemical_formula_sum   'Er8 Tm2 Bi6 C2'
_cell_volume   459.30382558
_cell_formula_units_Z   2
loop_
 _symmetry_equiv_pos_site_id
 _symmetry_equiv_pos_as_xyz
  1  'x, y, z'
loop_
 _atom_site_type_symbol
 _atom_site_label
 _atom_site_symmetry_multiplicity
 _atom_site_fract_x
 _atom_site_fract_y
 _atom_site_fract_z
 _atom_site_occupancy
  Er  Er0  1  0.666659  0.333324  0.000042  1
  Er  Er1  1  0.333341  0.666665  0.000042  1
  Er  Er2  1  0.333341  0.666665  0.499958  1
  Er  Er3  1  0.666659  0.333324  0.499958  1
  Er  Er4  1  0.000000  0.206487  0.750000  1
  Er  Er5  1  0.206692  0.206598  0.250000  1
  Er  Er6  1  0.793308  0.999906  0.250000  1
  Er  Er7  1  0.000000  0.793286  0.250000  1
  Tm  Tm8  1  0.794429  0.794362  0.750000  1
  Tm  Tm9  1  0.205571  0.999934  0.750000  1
  Bi  Bi10  1  0.401730  0.401563  0.750000  1
  Bi  Bi11  1  0.598270  0.999833  0.750000  1
  Bi  Bi12  1  0.000000  0.598646  0.750000  1
  Bi  Bi13  1  0.598380  0.598395  0.250000  1
  Bi  Bi14  1  0.401620  0.000016  0.250000  1
  Bi  Bi15  1  0.000000  0.401618  0.250000  1
  C  C16  1  0.000000  0.999690  0.999390  1
  C  C17  1  0.000000  0.999690  0.500610  1
