# generated using pymatgen
data_VFeCo(CuO2)3
_symmetry_space_group_name_H-M   'P 1'
_cell_length_a   5.28617414
_cell_length_b   5.28888790
_cell_length_c   11.62520782
_cell_angle_alpha   94.00469670
_cell_angle_beta   85.90419247
_cell_angle_gamma   59.56889988
_symmetry_Int_Tables_number   1
_chemical_formula_structural   VFeCo(CuO2)3
_chemical_formula_sum   'V2 Fe2 Co2 Cu6 O12'
_cell_volume   277.39503178
_cell_formula_units_Z   2
loop_
 _symmetry_equiv_pos_site_id
 _symmetry_equiv_pos_as_xyz
  1  'x, y, z'
loop_
 _atom_site_type_symbol
 _atom_site_label
 _atom_site_symmetry_multiplicity
 _atom_site_fract_x
 _atom_site_fract_y
 _atom_site_fract_z
 _atom_site_occupancy
  V  V0  1  0.582851  0.082966  0.249995  1
  V  V1  1  0.083376  0.583382  0.749988  1
  Fe  Fe2  1  0.250686  0.750599  0.250003  1
  Fe  Fe3  1  0.750646  0.250541  0.749982  1
  Co  Co4  1  0.916564  0.416577  0.250009  1
  Co  Co5  1  0.417333  0.917231  0.749996  1
  Cu  Cu6  1  0.171269  0.165270  0.501101  1
  Cu  Cu7  1  0.838869  0.838580  0.500113  1
  Cu  Cu8  1  0.493682  0.491800  0.499934  1
  Cu  Cu9  1  0.665158  0.671189  0.998866  1
  Cu  Cu10  1  0.338342  0.339093  0.000024  1
  Cu  Cu11  1  0.992153  0.993665  0.000020  1
  O  O12  1  0.241834  0.099305  0.340536  1
  O  O13  1  0.728717  0.611675  0.838007  1
  O  O14  1  0.599596  0.742071  0.159445  1
  O  O15  1  0.111912  0.228921  0.661976  1
  O  O16  1  0.543421  0.435940  0.339851  1
  O  O17  1  0.043603  0.938209  0.840096  1
  O  O18  1  0.879508  0.799191  0.339776  1
  O  O19  1  0.375873  0.301107  0.839936  1
  O  O20  1  0.299422  0.379750  0.160233  1
  O  O21  1  0.800540  0.876229  0.660204  1
  O  O22  1  0.936192  0.043657  0.160125  1
  O  O23  1  0.438451  0.543052  0.659782  1
