# generated using pymatgen
data_Pr2Nd3Al2Ru3
_symmetry_space_group_name_H-M   'P 1'
_cell_length_a   8.58448681
_cell_length_b   8.58448574
_cell_length_c   8.58448600
_cell_angle_alpha   109.47121889
_cell_angle_beta   109.47121635
_cell_angle_gamma   109.47122746
_symmetry_Int_Tables_number   1
_chemical_formula_structural   Pr2Nd3Al2Ru3
_chemical_formula_sum   'Pr4 Nd6 Al4 Ru6'
_cell_volume   486.99109852
_cell_formula_units_Z   2
loop_
 _symmetry_equiv_pos_site_id
 _symmetry_equiv_pos_as_xyz
  1  'x, y, z'
loop_
 _atom_site_type_symbol
 _atom_site_label
 _atom_site_symmetry_multiplicity
 _atom_site_fract_x
 _atom_site_fract_y
 _atom_site_fract_z
 _atom_site_occupancy
  Pr  Pr0  1  0.214369  0.214369  0.214369  1
  Pr  Pr1  1  0.500000  0.000000  0.285631  1
  Pr  Pr2  1  0.285631  0.500000  0.000000  1
  Pr  Pr3  1  0.000000  0.285631  0.500000  1
  Nd  Nd4  1  0.250000  0.684546  0.434546  1
  Nd  Nd5  1  0.750000  0.815454  0.065454  1
  Nd  Nd6  1  0.434546  0.250000  0.684546  1
  Nd  Nd7  1  0.684546  0.434546  0.250000  1
  Nd  Nd8  1  0.065454  0.750000  0.815454  1
  Nd  Nd9  1  0.815454  0.065454  0.750000  1
  Al  Al10  1  0.590695  0.590695  0.590695  1
  Al  Al11  1  0.500000  0.000000  0.909305  1
  Al  Al12  1  0.909305  0.500000  0.000000  1
  Al  Al13  1  0.000000  0.909305  0.500000  1
  Ru  Ru14  1  0.250000  0.117343  0.867343  1
  Ru  Ru15  1  0.750000  0.382657  0.632657  1
  Ru  Ru16  1  0.867342  0.250000  0.117343  1
  Ru  Ru17  1  0.117343  0.867342  0.250000  1
  Ru  Ru18  1  0.632657  0.750000  0.382657  1
  Ru  Ru19  1  0.382657  0.632657  0.750000  1
