# generated using pymatgen
data_Ba3Si2Pd7
_symmetry_space_group_name_H-M   'P 1'
_cell_length_a   8.92717179
_cell_length_b   8.92717039
_cell_length_c   8.92717201
_cell_angle_alpha   39.44649347
_cell_angle_beta   39.44650020
_cell_angle_gamma   39.44650914
_symmetry_Int_Tables_number   1
_chemical_formula_structural   Ba3Si2Pd7
_chemical_formula_sum   'Ba3 Si2 Pd7'
_cell_volume   258.49758028
_cell_formula_units_Z   1
loop_
 _symmetry_equiv_pos_site_id
 _symmetry_equiv_pos_as_xyz
  1  'x, y, z'
loop_
 _atom_site_type_symbol
 _atom_site_label
 _atom_site_symmetry_multiplicity
 _atom_site_fract_x
 _atom_site_fract_y
 _atom_site_fract_z
 _atom_site_occupancy
  Ba  Ba0  1  0.357038  0.357038  0.357038  1
  Ba  Ba1  1  0.500000  0.500000  0.500000  1
  Ba  Ba2  1  0.642962  0.642962  0.642962  1
  Si  Si3  1  0.169071  0.169071  0.169071  1
  Si  Si4  1  0.830929  0.830929  0.830929  1
  Pd  Pd5  1  0.000000  0.000000  0.000000  1
  Pd  Pd6  1  0.574702  0.065221  0.065220  1
  Pd  Pd7  1  0.065221  0.574702  0.065220  1
  Pd  Pd8  1  0.934779  0.934779  0.425299  1
  Pd  Pd9  1  0.065221  0.065221  0.574701  1
  Pd  Pd10  1  0.934779  0.425298  0.934780  1
  Pd  Pd11  1  0.425298  0.934779  0.934780  1
