# generated using pymatgen
data_Dy14Y6Cd5InNi2
_symmetry_space_group_name_H-M   'P 1'
_cell_length_a   9.66013904
_cell_length_b   9.66013944
_cell_length_c   9.74625700
_cell_angle_alpha   90.00000000
_cell_angle_beta   90.00000000
_cell_angle_gamma   120.11223116
_symmetry_Int_Tables_number   1
_chemical_formula_structural   Dy14Y6Cd5InNi2
_chemical_formula_sum   'Dy14 Y6 Cd5 In1 Ni2'
_cell_volume   786.76132270
_cell_formula_units_Z   1
loop_
 _symmetry_equiv_pos_site_id
 _symmetry_equiv_pos_as_xyz
  1  'x, y, z'
loop_
 _atom_site_type_symbol
 _atom_site_label
 _atom_site_symmetry_multiplicity
 _atom_site_fract_x
 _atom_site_fract_y
 _atom_site_fract_z
 _atom_site_occupancy
  Dy  Dy0  1  0.001751  0.998249  0.501552  1
  Dy  Dy1  1  0.001751  0.998249  0.998448  1
  Dy  Dy2  1  0.210341  0.789659  0.436903  1
  Dy  Dy3  1  0.210077  0.420137  0.436284  1
  Dy  Dy4  1  0.579863  0.789923  0.436284  1
  Dy  Dy5  1  0.789714  0.210286  0.562986  1
  Dy  Dy6  1  0.789320  0.579110  0.564243  1
  Dy  Dy7  1  0.420890  0.210680  0.564243  1
  Dy  Dy8  1  0.789714  0.210286  0.937014  1
  Dy  Dy9  1  0.789320  0.579110  0.935757  1
  Dy  Dy10  1  0.420890  0.210680  0.935757  1
  Dy  Dy11  1  0.210341  0.789659  0.063097  1
  Dy  Dy12  1  0.210077  0.420137  0.063716  1
  Dy  Dy13  1  0.579863  0.789923  0.063716  1
  Y  Y14  1  0.542996  0.457004  0.250000  1
  Y  Y15  1  0.540111  0.087400  0.250000  1
  Y  Y16  1  0.912600  0.459889  0.250000  1
  Y  Y17  1  0.456135  0.543865  0.750000  1
  Y  Y18  1  0.456568  0.912559  0.750000  1
  Y  Y19  1  0.087441  0.543432  0.750000  1
  Cd  Cd20  1  0.884911  0.768734  0.250000  1
  Cd  Cd21  1  0.231266  0.115089  0.250000  1
  Cd  Cd22  1  0.116271  0.883729  0.750000  1
  Cd  Cd23  1  0.115133  0.231135  0.750000  1
  Cd  Cd24  1  0.768865  0.884867  0.750000  1
  In  In25  1  0.884177  0.115823  0.250000  1
  Ni  Ni26  1  0.332758  0.667242  0.250000  1
  Ni  Ni27  1  0.666860  0.333140  0.750000  1
