# generated using pymatgen
data_Na2AcSn4
_symmetry_space_group_name_H-M   'P 1'
_cell_length_a   6.63759869
_cell_length_b   6.69954207
_cell_length_c   10.30875354
_cell_angle_alpha   108.96220605
_cell_angle_beta   95.14040846
_cell_angle_gamma   89.99999070
_symmetry_Int_Tables_number   1
_chemical_formula_structural   Na2AcSn4
_chemical_formula_sum   'Na4 Ac2 Sn8'
_cell_volume   431.59173207
_cell_formula_units_Z   2
loop_
 _symmetry_equiv_pos_site_id
 _symmetry_equiv_pos_as_xyz
  1  'x, y, z'
loop_
 _atom_site_type_symbol
 _atom_site_label
 _atom_site_symmetry_multiplicity
 _atom_site_fract_x
 _atom_site_fract_y
 _atom_site_fract_z
 _atom_site_occupancy
  Na  Na0  1  0.698844  0.802292  0.403498  1
  Na  Na1  1  0.198844  0.601206  0.403499  1
  Na  Na2  1  0.801157  0.398793  0.596501  1
  Na  Na3  1  0.301157  0.197709  0.596502  1
  Ac  Ac4  1  0.750000  0.780204  0.000000  1
  Ac  Ac5  1  0.250001  0.219797  0.000000  1
  Sn  Sn6  1  0.777999  0.374118  0.151803  1
  Sn  Sn7  1  0.277999  0.777684  0.151803  1
  Sn  Sn8  1  0.509223  0.183359  0.305261  1
  Sn  Sn9  1  0.009223  0.121902  0.305262  1
  Sn  Sn10  1  0.990778  0.878097  0.694738  1
  Sn  Sn11  1  0.490778  0.816641  0.694739  1
  Sn  Sn12  1  0.722000  0.222315  0.848197  1
  Sn  Sn13  1  0.222000  0.625882  0.848197  1
