# generated using pymatgen
data_SrNi9Ge2P3
_symmetry_space_group_name_H-M   'P 1'
_cell_length_a   6.81736100
_cell_length_b   6.81736091
_cell_length_c   10.39749300
_cell_angle_alpha   90.00000000
_cell_angle_beta   90.00000000
_cell_angle_gamma   119.99999557
_symmetry_Int_Tables_number   1
_chemical_formula_structural   SrNi9Ge2P3
_chemical_formula_sum   'Sr2 Ni18 Ge4 P6'
_cell_volume   418.49653425
_cell_formula_units_Z   2
loop_
 _symmetry_equiv_pos_site_id
 _symmetry_equiv_pos_as_xyz
  1  'x, y, z'
loop_
 _atom_site_type_symbol
 _atom_site_label
 _atom_site_symmetry_multiplicity
 _atom_site_fract_x
 _atom_site_fract_y
 _atom_site_fract_z
 _atom_site_occupancy
  Sr  Sr0  1  0.000000  0.000000  0.000000  1
  Sr  Sr1  1  0.000000  0.000000  0.500000  1
  Ni  Ni2  1  0.539416  0.078832  0.118398  1
  Ni  Ni3  1  0.460584  0.539416  0.618398  1
  Ni  Ni4  1  0.078832  0.539416  0.618398  1
  Ni  Ni5  1  0.921168  0.460584  0.118398  1
  Ni  Ni6  1  0.539416  0.460584  0.118398  1
  Ni  Ni7  1  0.460584  0.921168  0.881602  1
  Ni  Ni8  1  0.460584  0.539416  0.881602  1
  Ni  Ni9  1  0.460584  0.921168  0.618398  1
  Ni  Ni10  1  0.078832  0.539416  0.881602  1
  Ni  Ni11  1  0.921168  0.460584  0.381602  1
  Ni  Ni12  1  0.539416  0.078832  0.381602  1
  Ni  Ni13  1  0.539416  0.460584  0.381602  1
  Ni  Ni14  1  0.196476  0.392951  0.250000  1
  Ni  Ni15  1  0.803524  0.196476  0.750000  1
  Ni  Ni16  1  0.392951  0.196476  0.750000  1
  Ni  Ni17  1  0.607049  0.803524  0.250000  1
  Ni  Ni18  1  0.196476  0.803524  0.250000  1
  Ni  Ni19  1  0.803524  0.607049  0.750000  1
  Ge  Ge20  1  0.333333  0.666667  0.064508  1
  Ge  Ge21  1  0.666667  0.333333  0.564508  1
  Ge  Ge22  1  0.666667  0.333333  0.935492  1
  Ge  Ge23  1  0.333333  0.666667  0.435492  1
  P  P24  1  0.832083  0.664167  0.250000  1
  P  P25  1  0.167917  0.832083  0.750000  1
  P  P26  1  0.664167  0.832083  0.750000  1
  P  P27  1  0.335833  0.167917  0.250000  1
  P  P28  1  0.832083  0.167917  0.250000  1
  P  P29  1  0.167917  0.335833  0.750000  1
