# generated using pymatgen
data_Sm3Ho(Lu4Bi3)4
_symmetry_space_group_name_H-M   'P 1'
_cell_length_a   8.19921970
_cell_length_b   9.39655100
_cell_length_c   11.90864800
_cell_angle_alpha   90.00000000
_cell_angle_beta   89.94558479
_cell_angle_gamma   90.00000000
_symmetry_Int_Tables_number   1
_chemical_formula_structural   Sm3Ho(Lu4Bi3)4
_chemical_formula_sum   'Sm3 Ho1 Lu16 Bi12'
_cell_volume   917.49406007
_cell_formula_units_Z   1
loop_
 _symmetry_equiv_pos_site_id
 _symmetry_equiv_pos_as_xyz
  1  'x, y, z'
loop_
 _atom_site_type_symbol
 _atom_site_label
 _atom_site_symmetry_multiplicity
 _atom_site_fract_x
 _atom_site_fract_y
 _atom_site_fract_z
 _atom_site_occupancy
  Sm  Sm0  1  0.186080  0.250000  0.781777  1
  Sm  Sm1  1  0.814560  0.750000  0.218560  1
  Sm  Sm2  1  0.314415  0.750000  0.281253  1
  Ho  Ho3  1  0.686675  0.250000  0.717687  1
  Lu  Lu4  1  0.024028  0.250000  0.511072  1
  Lu  Lu5  1  0.975774  0.750000  0.490133  1
  Lu  Lu6  1  0.476433  0.750000  0.010122  1
  Lu  Lu7  1  0.523726  0.250000  0.989054  1
  Lu  Lu8  1  0.355212  0.250000  0.281978  1
  Lu  Lu9  1  0.644956  0.750000  0.718617  1
  Lu  Lu10  1  0.144969  0.750000  0.781166  1
  Lu  Lu11  1  0.854330  0.250000  0.218531  1
  Lu  Lu12  1  0.192511  0.067342  0.061071  1
  Lu  Lu13  1  0.807171  0.932698  0.938566  1
  Lu  Lu14  1  0.306421  0.932586  0.561248  1
  Lu  Lu15  1  0.807171  0.567302  0.938566  1
  Lu  Lu16  1  0.693443  0.067423  0.439034  1
  Lu  Lu17  1  0.192511  0.432658  0.061071  1
  Lu  Lu18  1  0.693443  0.432577  0.439034  1
  Lu  Lu19  1  0.306421  0.567414  0.561248  1
  Bi  Bi20  1  0.405755  0.250000  0.540376  1
  Bi  Bi21  1  0.596280  0.750000  0.461656  1
  Bi  Bi22  1  0.097041  0.750000  0.038114  1
  Bi  Bi23  1  0.901750  0.250000  0.960776  1
  Bi  Bi24  1  0.066441  0.007873  0.327748  1
  Bi  Bi25  1  0.930995  0.993929  0.672941  1
  Bi  Bi26  1  0.435959  0.993924  0.826227  1
  Bi  Bi27  1  0.930995  0.506071  0.672941  1
  Bi  Bi28  1  0.566066  0.007463  0.172730  1
  Bi  Bi29  1  0.066441  0.492127  0.327748  1
  Bi  Bi30  1  0.566066  0.492537  0.172730  1
  Bi  Bi31  1  0.435959  0.506076  0.826227  1
