# generated using pymatgen
data_Tb2DyTl(SbO4)4
_symmetry_space_group_name_H-M   'P 1'
_cell_length_a   5.41756692
_cell_length_b   7.69990318
_cell_length_c   7.60296178
_cell_angle_alpha   80.41713836
_cell_angle_beta   89.63027479
_cell_angle_gamma   92.29710510
_symmetry_Int_Tables_number   1
_chemical_formula_structural   Tb2DyTl(SbO4)4
_chemical_formula_sum   'Tb2 Dy1 Tl1 Sb4 O16'
_cell_volume   312.45091948
_cell_formula_units_Z   1
loop_
 _symmetry_equiv_pos_site_id
 _symmetry_equiv_pos_as_xyz
  1  'x, y, z'
loop_
 _atom_site_type_symbol
 _atom_site_label
 _atom_site_symmetry_multiplicity
 _atom_site_fract_x
 _atom_site_fract_y
 _atom_site_fract_z
 _atom_site_occupancy
  Tb  Tb0  1  0.261572  0.129501  0.613062  1
  Tb  Tb1  1  0.738064  0.866667  0.388933  1
  Dy  Dy2  1  0.788797  0.839179  0.890535  1
  Tl  Tl3  1  0.220044  0.162190  0.114447  1
  Sb  Sb4  1  0.245418  0.667468  0.194652  1
  Sb  Sb5  1  0.756798  0.334837  0.804405  1
  Sb  Sb6  1  0.726350  0.337357  0.307766  1
  Sb  Sb7  1  0.275817  0.662358  0.693399  1
  O  O8  1  0.084963  0.435816  0.691519  1
  O  O9  1  0.917750  0.565145  0.308334  1
  O  O10  1  0.606809  0.327445  0.560985  1
  O  O11  1  0.389536  0.675649  0.440107  1
  O  O12  1  0.868312  0.327405  0.058767  1
  O  O13  1  0.133234  0.670882  0.940844  1
  O  O14  1  0.410626  0.437913  0.197856  1
  O  O15  1  0.598141  0.566391  0.803626  1
  O  O16  1  0.042882  0.887093  0.170506  1
  O  O17  1  0.935520  0.113145  0.809212  1
  O  O18  1  0.508782  0.112727  0.329661  1
  O  O19  1  0.494374  0.885620  0.677274  1
  O  O20  1  0.452714  0.184344  0.877570  1
  O  O21  1  0.543273  0.812806  0.124402  1
  O  O22  1  0.987396  0.167620  0.382734  1
  O  O23  1  0.012830  0.830442  0.619404  1
