# generated using pymatgen
data_TbDy2(YC2)5
_symmetry_space_group_name_H-M   'P 1'
_cell_length_a   3.68994100
_cell_length_b   6.60758078
_cell_length_c   11.96554571
_cell_angle_alpha   91.15941367
_cell_angle_beta   90.00000000
_cell_angle_gamma   90.00000000
_symmetry_Int_Tables_number   1
_chemical_formula_structural   TbDy2(YC2)5
_chemical_formula_sum   'Tb1 Dy2 Y5 C10'
_cell_volume   291.67922006
_cell_formula_units_Z   1
loop_
 _symmetry_equiv_pos_site_id
 _symmetry_equiv_pos_as_xyz
  1  'x, y, z'
loop_
 _atom_site_type_symbol
 _atom_site_label
 _atom_site_symmetry_multiplicity
 _atom_site_fract_x
 _atom_site_fract_y
 _atom_site_fract_z
 _atom_site_occupancy
  Tb  Tb0  1  0.500000  0.396242  0.302847  1
  Dy  Dy1  1  0.500000  0.890737  0.195371  1
  Dy  Dy2  1  0.500000  0.603305  0.696942  1
  Y  Y3  1  0.000000  0.256603  0.542663  1
  Y  Y4  1  0.000000  0.745884  0.457648  1
  Y  Y5  1  0.000000  0.754308  0.956090  1
  Y  Y6  1  0.000000  0.242495  0.043360  1
  Y  Y7  1  0.500000  0.108989  0.804040  1
  C  C8  1  0.500000  0.502184  0.500777  1
  C  C9  1  0.500000  0.997553  0.000128  1
  C  C10  1  0.000000  0.364293  0.736476  1
  C  C11  1  0.000000  0.638290  0.264234  1
  C  C12  1  0.000000  0.855409  0.760350  1
  C  C13  1  0.000000  0.141556  0.238099  1
  C  C14  1  0.000000  0.387721  0.847603  1
  C  C15  1  0.000000  0.609873  0.153417  1
  C  C16  1  0.000000  0.080933  0.343284  1
  C  C17  1  0.000000  0.923629  0.656668  1
