# generated using pymatgen
data_Ce5Si12Ir19
_symmetry_space_group_name_H-M   'P 1'
_cell_length_a   12.91211200
_cell_length_b   12.91211199
_cell_length_c   4.00071600
_cell_angle_alpha   90.00000000
_cell_angle_beta   90.00000000
_cell_angle_gamma   120.00000002
_symmetry_Int_Tables_number   1
_chemical_formula_structural   Ce5Si12Ir19
_chemical_formula_sum   'Ce5 Si12 Ir19'
_cell_volume   577.64753365
_cell_formula_units_Z   1
loop_
 _symmetry_equiv_pos_site_id
 _symmetry_equiv_pos_as_xyz
  1  'x, y, z'
loop_
 _atom_site_type_symbol
 _atom_site_label
 _atom_site_symmetry_multiplicity
 _atom_site_fract_x
 _atom_site_fract_y
 _atom_site_fract_z
 _atom_site_occupancy
  Ce  Ce0  1  0.333333  0.666667  0.500000  1
  Ce  Ce1  1  0.666667  0.333333  0.500000  1
  Ce  Ce2  1  0.000000  0.815294  0.000000  1
  Ce  Ce3  1  0.184706  0.184706  0.000000  1
  Ce  Ce4  1  0.815294  0.000000  0.000000  1
  Si  Si5  1  0.000000  0.631509  0.500000  1
  Si  Si6  1  0.368491  0.368491  0.500000  1
  Si  Si7  1  0.631509  0.000000  0.500000  1
  Si  Si8  1  0.519714  0.687755  0.000000  1
  Si  Si9  1  0.312245  0.831959  0.000000  1
  Si  Si10  1  0.168041  0.480286  0.000000  1
  Si  Si11  1  0.480286  0.168041  0.000000  1
  Si  Si12  1  0.687755  0.519714  0.000000  1
  Si  Si13  1  0.831959  0.312245  0.000000  1
  Si  Si14  1  0.000000  0.182565  0.500000  1
  Si  Si15  1  0.817435  0.817435  0.500000  1
  Si  Si16  1  0.182565  0.000000  0.500000  1
  Ir  Ir17  1  0.512516  0.874025  0.000000  1
  Ir  Ir18  1  0.125975  0.638491  0.000000  1
  Ir  Ir19  1  0.361509  0.487484  0.000000  1
  Ir  Ir20  1  0.487484  0.361509  0.000000  1
  Ir  Ir21  1  0.874025  0.512516  0.000000  1
  Ir  Ir22  1  0.638491  0.125975  0.000000  1
  Ir  Ir23  1  0.000000  0.447638  0.500000  1
  Ir  Ir24  1  0.552362  0.552362  0.500000  1
  Ir  Ir25  1  0.447638  0.000000  0.500000  1
  Ir  Ir26  1  0.000000  0.283882  0.000000  1
  Ir  Ir27  1  0.716118  0.716118  0.000000  1
  Ir  Ir28  1  0.283882  0.000000  0.000000  1
  Ir  Ir29  1  0.623017  0.804884  0.500000  1
  Ir  Ir30  1  0.195116  0.818132  0.500000  1
  Ir  Ir31  1  0.181868  0.376983  0.500000  1
  Ir  Ir32  1  0.376983  0.181868  0.500000  1
  Ir  Ir33  1  0.804884  0.623017  0.500000  1
  Ir  Ir34  1  0.818132  0.195116  0.500000  1
  Ir  Ir35  1  0.000000  0.000000  0.500000  1
