# generated using pymatgen
data_Li4TbEr3O8
_symmetry_space_group_name_H-M   'P 1'
_cell_length_a   3.36539600
_cell_length_b   5.28852913
_cell_length_c   11.14716429
_cell_angle_alpha   90.02584025
_cell_angle_beta   90.00000000
_cell_angle_gamma   90.00000000
_symmetry_Int_Tables_number   1
_chemical_formula_structural   Li4TbEr3O8
_chemical_formula_sum   'Li4 Tb1 Er3 O8'
_cell_volume   198.39715172
_cell_formula_units_Z   1
loop_
 _symmetry_equiv_pos_site_id
 _symmetry_equiv_pos_as_xyz
  1  'x, y, z'
loop_
 _atom_site_type_symbol
 _atom_site_label
 _atom_site_symmetry_multiplicity
 _atom_site_fract_x
 _atom_site_fract_y
 _atom_site_fract_z
 _atom_site_occupancy
  Li  Li0  1  0.250000  0.097648  0.565523  1
  Li  Li1  1  0.750000  0.904039  0.431662  1
  Li  Li2  1  0.750000  0.596347  0.934062  1
  Li  Li3  1  0.250000  0.403271  0.069543  1
  Tb  Tb4  1  0.250000  0.046747  0.859072  1
  Er  Er5  1  0.250000  0.455238  0.359284  1
  Er  Er6  1  0.750000  0.545959  0.638239  1
  Er  Er7  1  0.750000  0.954570  0.141633  1
  O  O8  1  0.250000  0.310926  0.703473  1
  O  O9  1  0.750000  0.690135  0.293380  1
  O  O10  1  0.750000  0.802758  0.792907  1
  O  O11  1  0.250000  0.189441  0.208222  1
  O  O12  1  0.250000  0.758987  0.029115  1
  O  O13  1  0.750000  0.241927  0.975901  1
  O  O14  1  0.750000  0.260621  0.472036  1
  O  O15  1  0.250000  0.741385  0.525950  1
