# generated using pymatgen
data_RbLi2TmBi2
_symmetry_space_group_name_H-M   'P 1'
_cell_length_a   4.84723200
_cell_length_b   4.84723246
_cell_length_c   9.07058800
_cell_angle_alpha   90.00000000
_cell_angle_beta   90.00000000
_cell_angle_gamma   120.00001053
_symmetry_Int_Tables_number   1
_chemical_formula_structural   RbLi2TmBi2
_chemical_formula_sum   'Rb1 Li2 Tm1 Bi2'
_cell_volume   184.56684174
_cell_formula_units_Z   1
loop_
 _symmetry_equiv_pos_site_id
 _symmetry_equiv_pos_as_xyz
  1  'x, y, z'
loop_
 _atom_site_type_symbol
 _atom_site_label
 _atom_site_symmetry_multiplicity
 _atom_site_fract_x
 _atom_site_fract_y
 _atom_site_fract_z
 _atom_site_occupancy
  Rb  Rb0  1  0.000000  0.000000  0.500000  1
  Li  Li1  1  0.666667  0.333333  0.171688  1
  Li  Li2  1  0.333333  0.666667  0.828312  1
  Tm  Tm3  1  0.000000  0.000000  0.000000  1
  Bi  Bi4  1  0.666667  0.333333  0.809828  1
  Bi  Bi5  1  0.333333  0.666667  0.190172  1
