# generated using pymatgen
data_Tb6Ho3Er7(CdIr)4
_symmetry_space_group_name_H-M   'P 1'
_cell_length_a   9.61098961
_cell_length_b   9.61195855
_cell_length_c   9.61195900
_cell_angle_alpha   59.99999501
_cell_angle_beta   59.99665999
_cell_angle_gamma   59.99666100
_symmetry_Int_Tables_number   1
_chemical_formula_structural   Tb6Ho3Er7(CdIr)4
_chemical_formula_sum   'Tb6 Ho3 Er7 Cd4 Ir4'
_cell_volume   627.84865596
_cell_formula_units_Z   1
loop_
 _symmetry_equiv_pos_site_id
 _symmetry_equiv_pos_as_xyz
  1  'x, y, z'
loop_
 _atom_site_type_symbol
 _atom_site_label
 _atom_site_symmetry_multiplicity
 _atom_site_fract_x
 _atom_site_fract_y
 _atom_site_fract_z
 _atom_site_occupancy
  Tb  Tb0  1  0.188667  0.811304  0.811304  1
  Tb  Tb1  1  0.811435  0.188592  0.188592  1
  Tb  Tb2  1  0.811435  0.188592  0.811382  1
  Tb  Tb3  1  0.188667  0.811304  0.188724  1
  Tb  Tb4  1  0.811435  0.811382  0.188592  1
  Tb  Tb5  1  0.188667  0.188724  0.811304  1
  Ho  Ho6  1  0.598959  0.598985  0.598985  1
  Ho  Ho7  1  0.598959  0.598985  0.203072  1
  Ho  Ho8  1  0.598959  0.203072  0.598985  1
  Er  Er9  1  0.203656  0.598782  0.598782  1
  Er  Er10  1  0.061503  0.438625  0.438625  1
  Er  Er11  1  0.438446  0.061442  0.061442  1
  Er  Er12  1  0.438446  0.061442  0.438670  1
  Er  Er13  1  0.061503  0.438625  0.061247  1
  Er  Er14  1  0.438446  0.438670  0.061442  1
  Er  Er15  1  0.061503  0.061247  0.438625  1
  Cd  Cd16  1  0.830849  0.830682  0.830682  1
  Cd  Cd17  1  0.830849  0.830682  0.507788  1
  Cd  Cd18  1  0.830849  0.507788  0.830682  1
  Cd  Cd19  1  0.507769  0.830744  0.830744  1
  Ir  Ir20  1  0.391124  0.391772  0.391772  1
  Ir  Ir21  1  0.391124  0.391772  0.825332  1
  Ir  Ir22  1  0.391124  0.825332  0.391772  1
  Ir  Ir23  1  0.825628  0.391457  0.391457  1
