# generated using pymatgen
data_LiTb2Y2Al17Pt6
_symmetry_space_group_name_H-M   'P 1'
_cell_length_a   7.60675205
_cell_length_b   7.60675110
_cell_length_c   9.47688900
_cell_angle_alpha   90.00000000
_cell_angle_beta   90.00000000
_cell_angle_gamma   119.47420137
_symmetry_Int_Tables_number   1
_chemical_formula_structural   LiTb2Y2Al17Pt6
_chemical_formula_sum   'Li1 Tb2 Y2 Al17 Pt6'
_cell_volume   477.38812856
_cell_formula_units_Z   1
loop_
 _symmetry_equiv_pos_site_id
 _symmetry_equiv_pos_as_xyz
  1  'x, y, z'
loop_
 _atom_site_type_symbol
 _atom_site_label
 _atom_site_symmetry_multiplicity
 _atom_site_fract_x
 _atom_site_fract_y
 _atom_site_fract_z
 _atom_site_occupancy
  Li  Li0  1  0.128335  0.128335  0.250000  1
  Tb  Tb1  1  0.007497  0.329688  0.750000  1
  Tb  Tb2  1  0.329688  0.007498  0.750000  1
  Y  Y3  1  0.995148  0.666216  0.250000  1
  Y  Y4  1  0.666216  0.995148  0.250000  1
  Al  Al5  1  0.867364  0.867364  0.750000  1
  Al  Al6  1  0.001398  0.327817  0.080932  1
  Al  Al7  1  0.000899  0.665369  0.923416  1
  Al  Al8  1  0.000899  0.665369  0.576584  1
  Al  Al9  1  0.327817  0.001398  0.419068  1
  Al  Al10  1  0.001398  0.327817  0.419068  1
  Al  Al11  1  0.665369  0.000899  0.576584  1
  Al  Al12  1  0.665369  0.000899  0.923416  1
  Al  Al13  1  0.327817  0.001398  0.080932  1
  Al  Al14  1  0.334269  0.334269  0.548838  1
  Al  Al15  1  0.671297  0.671296  0.438968  1
  Al  Al16  1  0.671297  0.671296  0.061032  1
  Al  Al17  1  0.334269  0.334269  0.951162  1
  Al  Al18  1  0.340352  0.541567  0.250000  1
  Al  Al19  1  0.659236  0.452515  0.750000  1
  Al  Al20  1  0.541567  0.340351  0.250000  1
  Al  Al21  1  0.452515  0.659236  0.750000  1
  Pt  Pt22  1  0.674958  0.329945  0.000400  1
  Pt  Pt23  1  0.329945  0.674958  0.000399  1
  Pt  Pt24  1  0.329945  0.674958  0.499601  1
  Pt  Pt25  1  0.674958  0.329945  0.499600  1
  Pt  Pt26  1  0.000090  0.000090  0.993613  1
  Pt  Pt27  1  0.000090  0.000090  0.506387  1
