# generated using pymatgen
data_Ba6YErIn2O12
_symmetry_space_group_name_H-M   'P 1'
_cell_length_a   7.30958731
_cell_length_b   7.30958828
_cell_length_c   7.30958849
_cell_angle_alpha   93.01879680
_cell_angle_beta   93.01879661
_cell_angle_gamma   93.01881432
_symmetry_Int_Tables_number   1
_chemical_formula_structural   Ba6YErIn2O12
_chemical_formula_sum   'Ba6 Y1 Er1 In2 O12'
_cell_volume   388.86639928
_cell_formula_units_Z   1
loop_
 _symmetry_equiv_pos_site_id
 _symmetry_equiv_pos_as_xyz
  1  'x, y, z'
loop_
 _atom_site_type_symbol
 _atom_site_label
 _atom_site_symmetry_multiplicity
 _atom_site_fract_x
 _atom_site_fract_y
 _atom_site_fract_z
 _atom_site_occupancy
  Ba  Ba0  1  0.250000  0.887950  0.612050  1
  Ba  Ba1  1  0.887950  0.612050  0.250000  1
  Ba  Ba2  1  0.750000  0.111597  0.388403  1
  Ba  Ba3  1  0.388403  0.750000  0.111597  1
  Ba  Ba4  1  0.111597  0.388403  0.750000  1
  Ba  Ba5  1  0.612050  0.250000  0.887950  1
  Y  Y6  1  0.250000  0.250000  0.250000  1
  Er  Er7  1  0.750000  0.750000  0.750000  1
  In  In8  1  0.500467  0.500467  0.500467  1
  In  In9  1  0.999533  0.999533  0.999533  1
  O  O10  1  0.600079  0.790848  0.470175  1
  O  O11  1  0.470175  0.600079  0.790848  1
  O  O12  1  0.790848  0.470175  0.600079  1
  O  O13  1  0.899921  0.029825  0.709152  1
  O  O14  1  0.709152  0.899921  0.029825  1
  O  O15  1  0.029825  0.709152  0.899921  1
  O  O16  1  0.401960  0.209810  0.532636  1
  O  O17  1  0.532636  0.401960  0.209810  1
  O  O18  1  0.209810  0.532636  0.401960  1
  O  O19  1  0.098040  0.967364  0.290190  1
  O  O20  1  0.967364  0.290190  0.098040  1
  O  O21  1  0.290190  0.098040  0.967364  1
