# generated using pymatgen
data_Rb3Lu(AsS2)6
_symmetry_space_group_name_H-M   'P 1'
_cell_length_a   9.43275300
_cell_length_b   9.43275349
_cell_length_c   7.91798300
_cell_angle_alpha   90.00000000
_cell_angle_beta   90.00000000
_cell_angle_gamma   120.00000180
_symmetry_Int_Tables_number   1
_chemical_formula_structural   Rb3Lu(AsS2)6
_chemical_formula_sum   'Rb3 Lu1 As6 S12'
_cell_volume   610.12965780
_cell_formula_units_Z   1
loop_
 _symmetry_equiv_pos_site_id
 _symmetry_equiv_pos_as_xyz
  1  'x, y, z'
loop_
 _atom_site_type_symbol
 _atom_site_label
 _atom_site_symmetry_multiplicity
 _atom_site_fract_x
 _atom_site_fract_y
 _atom_site_fract_z
 _atom_site_occupancy
  Rb  Rb0  1  0.000000  0.000000  0.000000  1
  Rb  Rb1  1  0.333333  0.666667  0.855225  1
  Rb  Rb2  1  0.666667  0.333333  0.144775  1
  Lu  Lu3  1  0.000000  0.000000  0.500000  1
  As  As4  1  0.284239  0.833693  0.384666  1
  As  As5  1  0.166307  0.450546  0.384666  1
  As  As6  1  0.549454  0.715761  0.384666  1
  As  As7  1  0.715761  0.166307  0.615334  1
  As  As8  1  0.833693  0.549454  0.615334  1
  As  As9  1  0.450546  0.284239  0.615334  1
  S  S10  1  0.249602  0.039356  0.301708  1
  S  S11  1  0.960644  0.210247  0.301708  1
  S  S12  1  0.789753  0.750398  0.301708  1
  S  S13  1  0.750398  0.960644  0.698292  1
  S  S14  1  0.039356  0.789753  0.698292  1
  S  S15  1  0.210247  0.249602  0.698292  1
  S  S16  1  0.520517  0.906406  0.225329  1
  S  S17  1  0.093594  0.614110  0.225329  1
  S  S18  1  0.385890  0.479483  0.225329  1
  S  S19  1  0.479483  0.093594  0.774671  1
  S  S20  1  0.906406  0.385890  0.774671  1
  S  S21  1  0.614110  0.520517  0.774671  1
