# generated using pymatgen
data_La12Ho2Zn2NiPd3
_symmetry_space_group_name_H-M   'P 1'
_cell_length_a   3.84647000
_cell_length_b   12.44788122
_cell_length_c   12.44788149
_cell_angle_alpha   90.56405128
_cell_angle_beta   90.00000000
_cell_angle_gamma   90.00000000
_symmetry_Int_Tables_number   1
_chemical_formula_structural   La12Ho2Zn2NiPd3
_chemical_formula_sum   'La12 Ho2 Zn2 Ni1 Pd3'
_cell_volume   595.98068475
_cell_formula_units_Z   1
loop_
 _symmetry_equiv_pos_site_id
 _symmetry_equiv_pos_as_xyz
  1  'x, y, z'
loop_
 _atom_site_type_symbol
 _atom_site_label
 _atom_site_symmetry_multiplicity
 _atom_site_fract_x
 _atom_site_fract_y
 _atom_site_fract_z
 _atom_site_occupancy
  La  La0  1  0.000000  0.322787  0.823320  1
  La  La1  1  0.000000  0.676680  0.177213  1
  La  La2  1  0.000000  0.177504  0.322496  1
  La  La3  1  0.000000  0.821354  0.678646  1
  La  La4  1  0.500000  0.560386  0.709399  1
  La  La5  1  0.500000  0.443238  0.298534  1
  La  La6  1  0.500000  0.942177  0.199082  1
  La  La7  1  0.500000  0.055687  0.799483  1
  La  La8  1  0.500000  0.700517  0.444313  1
  La  La9  1  0.500000  0.300918  0.557823  1
  La  La10  1  0.500000  0.201466  0.056762  1
  La  La11  1  0.500000  0.790601  0.939614  1
  Ho  Ho12  1  0.500000  0.999787  0.500213  1
  Ho  Ho13  1  0.500000  0.504166  0.995834  1
  Zn  Zn14  1  0.000000  0.501614  0.503319  1
  Zn  Zn15  1  0.000000  0.996681  0.998386  1
  Ni  Ni16  1  0.000000  0.626628  0.873372  1
  Pd  Pd17  1  0.000000  0.126131  0.625865  1
  Pd  Pd18  1  0.000000  0.874135  0.373869  1
  Pd  Pd19  1  0.000000  0.377543  0.122457  1
