# generated using pymatgen
data_Ho2AlGaIr2
_symmetry_space_group_name_H-M   'P 1'
_cell_length_a   4.24541300
_cell_length_b   6.85545087
_cell_length_c   7.88932735
_cell_angle_alpha   89.86597531
_cell_angle_beta   90.00000000
_cell_angle_gamma   90.00000000
_symmetry_Int_Tables_number   1
_chemical_formula_structural   Ho2AlGaIr2
_chemical_formula_sum   'Ho4 Al2 Ga2 Ir4'
_cell_volume   229.61209283
_cell_formula_units_Z   2
loop_
 _symmetry_equiv_pos_site_id
 _symmetry_equiv_pos_as_xyz
  1  'x, y, z'
loop_
 _atom_site_type_symbol
 _atom_site_label
 _atom_site_symmetry_multiplicity
 _atom_site_fract_x
 _atom_site_fract_y
 _atom_site_fract_z
 _atom_site_occupancy
  Ho  Ho0  1  0.250000  0.533015  0.184680  1
  Ho  Ho1  1  0.750000  0.466985  0.815320  1
  Ho  Ho2  1  0.750000  0.968997  0.679661  1
  Ho  Ho3  1  0.250000  0.031003  0.320339  1
  Al  Al4  1  0.750000  0.860295  0.061635  1
  Al  Al5  1  0.250000  0.139705  0.938365  1
  Ga  Ga6  1  0.250000  0.646458  0.564469  1
  Ga  Ga7  1  0.750000  0.353542  0.435531  1
  Ir  Ir8  1  0.250000  0.767083  0.883838  1
  Ir  Ir9  1  0.750000  0.232917  0.116162  1
  Ir  Ir10  1  0.750000  0.735805  0.376506  1
  Ir  Ir11  1  0.250000  0.264195  0.623494  1
