# generated using pymatgen
data_Hf5Sc11(NiRh)4
_symmetry_space_group_name_H-M   'P 1'
_cell_length_a   8.67538722
_cell_length_b   8.66774234
_cell_length_c   8.66774321
_cell_angle_alpha   60.11241516
_cell_angle_beta   59.97082700
_cell_angle_gamma   59.97083067
_symmetry_Int_Tables_number   1
_chemical_formula_structural   Hf5Sc11(NiRh)4
_chemical_formula_sum   'Hf5 Sc11 Ni4 Rh4'
_cell_volume   461.06435823
_cell_formula_units_Z   1
loop_
 _symmetry_equiv_pos_site_id
 _symmetry_equiv_pos_as_xyz
  1  'x, y, z'
loop_
 _atom_site_type_symbol
 _atom_site_label
 _atom_site_symmetry_multiplicity
 _atom_site_fract_x
 _atom_site_fract_y
 _atom_site_fract_z
 _atom_site_occupancy
  Hf  Hf0  1  0.109524  0.115412  0.115412  1
  Hf  Hf1  1  0.116322  0.113817  0.653538  1
  Hf  Hf2  1  0.659653  0.115412  0.115412  1
  Hf  Hf3  1  0.116322  0.653538  0.113817  1
  Hf  Hf4  1  0.941646  0.558354  0.558354  1
  Sc  Sc5  1  0.558604  0.941396  0.941396  1
  Sc  Sc6  1  0.562987  0.937128  0.563028  1
  Sc  Sc7  1  0.562987  0.563028  0.937128  1
  Sc  Sc8  1  0.936856  0.563028  0.937128  1
  Sc  Sc9  1  0.936856  0.937128  0.563028  1
  Sc  Sc10  1  0.686042  0.314119  0.686801  1
  Sc  Sc11  1  0.313039  0.686801  0.314119  1
  Sc  Sc12  1  0.314200  0.685800  0.685800  1
  Sc  Sc13  1  0.686042  0.686801  0.314119  1
  Sc  Sc14  1  0.684645  0.315355  0.315355  1
  Sc  Sc15  1  0.313039  0.314119  0.686801  1
  Ni  Ni16  1  0.903288  0.902223  0.902223  1
  Ni  Ni17  1  0.903571  0.894555  0.298302  1
  Ni  Ni18  1  0.903571  0.298302  0.894555  1
  Ni  Ni19  1  0.292264  0.902223  0.902223  1
  Rh  Rh20  1  0.333723  0.337293  0.337293  1
  Rh  Rh21  1  0.336562  0.334238  0.992638  1
  Rh  Rh22  1  0.991693  0.337293  0.337293  1
  Rh  Rh23  1  0.336562  0.992638  0.334238  1
