# generated using pymatgen
data_Tm4Rh3AuO14
_symmetry_space_group_name_H-M   'P 1'
_cell_length_a   7.18116787
_cell_length_b   7.20957820
_cell_length_c   7.20957800
_cell_angle_alpha   60.00000093
_cell_angle_beta   59.86904348
_cell_angle_gamma   59.86904271
_symmetry_Int_Tables_number   1
_chemical_formula_structural   Tm4Rh3AuO14
_chemical_formula_sum   'Tm4 Rh3 Au1 O14'
_cell_volume   263.41305565
_cell_formula_units_Z   1
loop_
 _symmetry_equiv_pos_site_id
 _symmetry_equiv_pos_as_xyz
  1  'x, y, z'
loop_
 _atom_site_type_symbol
 _atom_site_label
 _atom_site_symmetry_multiplicity
 _atom_site_fract_x
 _atom_site_fract_y
 _atom_site_fract_z
 _atom_site_occupancy
  Tm  Tm0  1  0.625000  0.125000  0.125000  1
  Tm  Tm1  1  0.125000  0.125000  0.125000  1
  Tm  Tm2  1  0.125000  0.625000  0.125000  1
  Tm  Tm3  1  0.125000  0.125000  0.625000  1
  Rh  Rh4  1  0.625000  0.625000  0.125000  1
  Rh  Rh5  1  0.625000  0.625000  0.625000  1
  Rh  Rh6  1  0.625000  0.125000  0.625000  1
  Au  Au7  1  0.125000  0.625000  0.625000  1
  O  O8  1  0.715365  0.285213  0.285213  1
  O  O9  1  0.715365  0.714209  0.285213  1
  O  O10  1  0.283273  0.719048  0.278631  1
  O  O11  1  0.000915  0.999695  0.999695  1
  O  O12  1  0.715365  0.285213  0.714209  1
  O  O13  1  0.966727  0.530952  0.530952  1
  O  O14  1  0.283273  0.719048  0.719048  1
  O  O15  1  0.534635  0.964787  0.535791  1
  O  O16  1  0.249085  0.250305  0.250305  1
  O  O17  1  0.966727  0.530952  0.971369  1
  O  O18  1  0.534635  0.535791  0.964787  1
  O  O19  1  0.966727  0.971369  0.530952  1
  O  O20  1  0.534635  0.964787  0.964787  1
  O  O21  1  0.283273  0.278631  0.719048  1
