# generated using pymatgen
data_Ho4LuRuRh
_symmetry_space_group_name_H-M   'P 1'
_cell_length_a   6.34796792
_cell_length_b   7.19795230
_cell_length_c   8.47152435
_cell_angle_alpha   96.67224121
_cell_angle_beta   112.46115800
_cell_angle_gamma   89.98025119
_symmetry_Int_Tables_number   1
_chemical_formula_structural   Ho4LuRuRh
_chemical_formula_sum   'Ho8 Lu2 Ru2 Rh2'
_cell_volume   354.88721983
_cell_formula_units_Z   2
loop_
 _symmetry_equiv_pos_site_id
 _symmetry_equiv_pos_as_xyz
  1  'x, y, z'
loop_
 _atom_site_type_symbol
 _atom_site_label
 _atom_site_symmetry_multiplicity
 _atom_site_fract_x
 _atom_site_fract_y
 _atom_site_fract_z
 _atom_site_occupancy
  Ho  Ho0  1  0.523162  0.081854  0.816690  1
  Ho  Ho1  1  0.476838  0.918146  0.183310  1
  Ho  Ho2  1  0.710029  0.415829  0.186745  1
  Ho  Ho3  1  0.289971  0.584171  0.813255  1
  Ho  Ho4  1  0.288078  0.310900  0.433587  1
  Ho  Ho5  1  0.711922  0.689100  0.566413  1
  Ho  Ho6  1  0.857507  0.185154  0.564088  1
  Ho  Ho7  1  0.142493  0.814846  0.435912  1
  Lu  Lu8  1  0.074933  0.248009  0.998979  1
  Lu  Lu9  1  0.925067  0.751991  0.001021  1
  Ru  Ru10  1  0.104533  0.925381  0.784485  1
  Ru  Ru11  1  0.895467  0.074619  0.215515  1
  Rh  Rh12  1  0.321948  0.572690  0.221013  1
  Rh  Rh13  1  0.678052  0.427310  0.778987  1
