# generated using pymatgen
data_Sc3Si2Tc2GeOs
_symmetry_space_group_name_H-M   'P 1'
_cell_length_a   7.00318116
_cell_length_b   6.97670295
_cell_length_c   3.40757100
_cell_angle_alpha   90.00000000
_cell_angle_beta   90.00000000
_cell_angle_gamma   119.82278695
_symmetry_Int_Tables_number   1
_chemical_formula_structural   Sc3Si2Tc2GeOs
_chemical_formula_sum   'Sc3 Si2 Tc2 Ge1 Os1'
_cell_volume   144.44213484
_cell_formula_units_Z   1
loop_
 _symmetry_equiv_pos_site_id
 _symmetry_equiv_pos_as_xyz
  1  'x, y, z'
loop_
 _atom_site_type_symbol
 _atom_site_label
 _atom_site_symmetry_multiplicity
 _atom_site_fract_x
 _atom_site_fract_y
 _atom_site_fract_z
 _atom_site_occupancy
  Sc  Sc0  1  0.391920  0.390276  0.500000  1
  Sc  Sc1  1  0.610432  0.003363  0.500000  1
  Sc  Sc2  1  0.997486  0.604396  0.500000  1
  Si  Si3  1  0.664639  0.334064  0.000000  1
  Si  Si4  1  0.000098  0.998020  0.500000  1
  Tc  Tc5  1  0.746763  0.741640  0.000000  1
  Tc  Tc6  1  0.258810  0.006015  0.000000  1
  Ge  Ge7  1  0.335777  0.669805  0.000000  1
  Os  Os8  1  0.994074  0.252420  0.000000  1
