# generated using pymatgen
data_SmY2Si2BRh6
_symmetry_space_group_name_H-M   'P 1'
_cell_length_a   5.55325000
_cell_length_b   5.55324950
_cell_length_c   14.66378800
_cell_angle_alpha   90.00000000
_cell_angle_beta   90.00000000
_cell_angle_gamma   120.00000296
_symmetry_Int_Tables_number   1
_chemical_formula_structural   SmY2Si2BRh6
_chemical_formula_sum   'Sm2 Y4 Si4 B2 Rh12'
_cell_volume   391.62571762
_cell_formula_units_Z   2
loop_
 _symmetry_equiv_pos_site_id
 _symmetry_equiv_pos_as_xyz
  1  'x, y, z'
loop_
 _atom_site_type_symbol
 _atom_site_label
 _atom_site_symmetry_multiplicity
 _atom_site_fract_x
 _atom_site_fract_y
 _atom_site_fract_z
 _atom_site_occupancy
  Sm  Sm0  1  0.666667  0.333333  0.750000  1
  Sm  Sm1  1  0.333333  0.666667  0.250000  1
  Y  Y2  1  0.666667  0.333333  0.971003  1
  Y  Y3  1  0.666667  0.333333  0.528997  1
  Y  Y4  1  0.333333  0.666667  0.042170  1
  Y  Y5  1  0.333333  0.666667  0.457830  1
  Si  Si6  1  0.000000  0.000000  0.488887  1
  Si  Si7  1  0.000000  0.000000  0.750000  1
  Si  Si8  1  0.333333  0.666667  0.750000  1
  Si  Si9  1  0.000000  0.000000  0.011113  1
  B  B10  1  0.666667  0.333333  0.250000  1
  B  B11  1  0.000000  0.000000  0.250000  1
  Rh  Rh12  1  0.166174  0.332349  0.873807  1
  Rh  Rh13  1  0.166174  0.332349  0.626193  1
  Rh  Rh14  1  0.667651  0.833826  0.873807  1
  Rh  Rh15  1  0.332082  0.166041  0.351385  1
  Rh  Rh16  1  0.833959  0.667918  0.351385  1
  Rh  Rh17  1  0.833959  0.166041  0.351385  1
  Rh  Rh18  1  0.833959  0.166041  0.148615  1
  Rh  Rh19  1  0.332082  0.166041  0.148615  1
  Rh  Rh20  1  0.667651  0.833826  0.626193  1
  Rh  Rh21  1  0.166174  0.833826  0.626193  1
  Rh  Rh22  1  0.833959  0.667918  0.148615  1
  Rh  Rh23  1  0.166174  0.833826  0.873807  1
