# generated using pymatgen
data_Er8Si12PdPt3
_symmetry_space_group_name_H-M   'P 1'
_cell_length_a   8.17033100
_cell_length_b   8.17033144
_cell_length_c   7.80814600
_cell_angle_alpha   90.00000000
_cell_angle_beta   90.00000000
_cell_angle_gamma   119.99999417
_symmetry_Int_Tables_number   1
_chemical_formula_structural   Er8Si12PdPt3
_chemical_formula_sum   'Er8 Si12 Pd1 Pt3'
_cell_volume   451.39621004
_cell_formula_units_Z   1
loop_
 _symmetry_equiv_pos_site_id
 _symmetry_equiv_pos_as_xyz
  1  'x, y, z'
loop_
 _atom_site_type_symbol
 _atom_site_label
 _atom_site_symmetry_multiplicity
 _atom_site_fract_x
 _atom_site_fract_y
 _atom_site_fract_z
 _atom_site_occupancy
  Er  Er0  1  0.512357  0.024714  0.250045  1
  Er  Er1  1  0.488278  0.976555  0.749865  1
  Er  Er2  1  0.975286  0.487643  0.250045  1
  Er  Er3  1  0.023445  0.511722  0.749865  1
  Er  Er4  1  0.512357  0.487643  0.250045  1
  Er  Er5  1  0.488278  0.511722  0.749865  1
  Er  Er6  1  0.000000  0.000000  0.250331  1
  Er  Er7  1  0.000000  0.000000  0.749564  1
  Si  Si8  1  0.165406  0.330812  0.002160  1
  Si  Si9  1  0.834477  0.668954  0.998150  1
  Si  Si10  1  0.669188  0.834594  0.002160  1
  Si  Si11  1  0.834591  0.669181  0.501852  1
  Si  Si12  1  0.331046  0.165523  0.998150  1
  Si  Si13  1  0.165345  0.330690  0.498350  1
  Si  Si14  1  0.165406  0.834594  0.002160  1
  Si  Si15  1  0.330819  0.165409  0.501852  1
  Si  Si16  1  0.834477  0.165523  0.998150  1
  Si  Si17  1  0.669310  0.834655  0.498350  1
  Si  Si18  1  0.834591  0.165409  0.501852  1
  Si  Si19  1  0.165345  0.834655  0.498350  1
  Pd  Pd20  1  0.333333  0.666667  0.456555  1
  Pt  Pt21  1  0.333333  0.666667  0.041914  1
  Pt  Pt22  1  0.666667  0.333333  0.956913  1
  Pt  Pt23  1  0.666667  0.333333  0.543457  1
