# generated using pymatgen
data_TmHf3Np2F22
_symmetry_space_group_name_H-M   'P 1'
_cell_length_a   8.43090375
_cell_length_b   8.43090504
_cell_length_c   8.44563800
_cell_angle_alpha   124.65659284
_cell_angle_beta   106.53281906
_cell_angle_gamma   98.35395306
_symmetry_Int_Tables_number   1
_chemical_formula_structural   TmHf3Np2F22
_chemical_formula_sum   'Tm1 Hf3 Np2 F22'
_cell_volume   436.01522909
_cell_formula_units_Z   1
loop_
 _symmetry_equiv_pos_site_id
 _symmetry_equiv_pos_as_xyz
  1  'x, y, z'
loop_
 _atom_site_type_symbol
 _atom_site_label
 _atom_site_symmetry_multiplicity
 _atom_site_fract_x
 _atom_site_fract_y
 _atom_site_fract_z
 _atom_site_occupancy
  Tm  Tm0  1  0.679476  0.636074  0.315549  1
  Hf  Hf1  1  0.318076  0.365959  0.684035  1
  Hf  Hf2  1  0.180643  0.866796  0.047440  1
  Hf  Hf3  1  0.819163  0.135460  0.954622  1
  Np  Np4  1  0.749033  0.250510  0.500103  1
  Np  Np5  1  0.249592  0.751070  0.500103  1
  F  F6  1  0.707141  0.913813  0.345400  1
  F  F7  1  0.292829  0.101840  0.653212  1
  F  F8  1  0.551370  0.360382  0.653212  1
  F  F9  1  0.947338  0.605815  0.814363  1
  F  F10  1  0.431587  0.638259  0.345400  1
  F  F11  1  0.056825  0.392089  0.186909  1
  F  F12  1  0.794820  0.130085  0.186909  1
  F  F13  1  0.208547  0.867024  0.814363  1
  F  F14  1  0.491283  0.493290  0.984573  1
  F  F15  1  0.003867  0.001037  0.004903  1
  F  F16  1  0.783522  0.880002  0.663525  1
  F  F17  1  0.221239  0.129121  0.350360  1
  F  F18  1  0.276355  0.630153  0.906508  1
  F  F19  1  0.720990  0.360981  0.081970  1
  F  F20  1  0.968943  0.740160  0.421943  1
  F  F21  1  0.047966  0.262201  0.582639  1
  F  F22  1  0.320437  0.534672  0.582639  1
  F  F23  1  0.176551  0.761026  0.211971  1
  F  F24  1  0.681781  0.452999  0.421943  1
  F  F25  1  0.824541  0.241580  0.786720  1
  F  F26  1  0.545140  0.962179  0.786720  1
  F  F27  1  0.450945  0.035419  0.211971  1
