# generated using pymatgen
data_TbSm7(GeI6)2
_symmetry_space_group_name_H-M   'P 1'
_cell_length_a   4.29537100
_cell_length_b   14.29244543
_cell_length_c   15.09575769
_cell_angle_alpha   89.85873422
_cell_angle_beta   90.00000000
_cell_angle_gamma   90.00000000
_symmetry_Int_Tables_number   1
_chemical_formula_structural   TbSm7(GeI6)2
_chemical_formula_sum   'Tb1 Sm7 Ge2 I12'
_cell_volume   926.74621175
_cell_formula_units_Z   1
loop_
 _symmetry_equiv_pos_site_id
 _symmetry_equiv_pos_as_xyz
  1  'x, y, z'
loop_
 _atom_site_type_symbol
 _atom_site_label
 _atom_site_symmetry_multiplicity
 _atom_site_fract_x
 _atom_site_fract_y
 _atom_site_fract_z
 _atom_site_occupancy
  Tb  Tb0  1  0.000000  0.388315  0.074747  1
  Sm  Sm1  1  0.500000  0.115706  0.345758  1
  Sm  Sm2  1  0.500000  0.884664  0.653911  1
  Sm  Sm3  1  0.500000  0.614479  0.153687  1
  Sm  Sm4  1  0.500000  0.384478  0.846869  1
  Sm  Sm5  1  0.000000  0.113254  0.575647  1
  Sm  Sm6  1  0.000000  0.886934  0.423879  1
  Sm  Sm7  1  0.000000  0.612198  0.924726  1
  Ge  Ge8  1  0.500000  0.000133  0.499738  1
  Ge  Ge9  1  0.500000  0.498585  0.000863  1
  I  I10  1  0.500000  0.249328  0.160796  1
  I  I11  1  0.500000  0.754536  0.838189  1
  I  I12  1  0.500000  0.744338  0.337970  1
  I  I13  1  0.500000  0.254873  0.662574  1
  I  I14  1  0.000000  0.258871  0.414238  1
  I  I15  1  0.000000  0.741483  0.585511  1
  I  I16  1  0.000000  0.758003  0.085340  1
  I  I17  1  0.000000  0.242190  0.917836  1
  I  I18  1  0.000000  0.999577  0.240132  1
  I  I19  1  0.000000  0.001147  0.759244  1
  I  I20  1  0.000000  0.495820  0.257105  1
  I  I21  1  0.000000  0.501087  0.741241  1
