# generated using pymatgen
data_Hf4Fe9Ni11P12
_symmetry_space_group_name_H-M   'P 1'
_cell_length_a   3.62413600
_cell_length_b   10.09652226
_cell_length_c   11.77218941
_cell_angle_alpha   90.02813179
_cell_angle_beta   90.00000000
_cell_angle_gamma   90.00000000
_symmetry_Int_Tables_number   1
_chemical_formula_structural   Hf4Fe9Ni11P12
_chemical_formula_sum   'Hf4 Fe9 Ni11 P12'
_cell_volume   430.75812967
_cell_formula_units_Z   1
loop_
 _symmetry_equiv_pos_site_id
 _symmetry_equiv_pos_as_xyz
  1  'x, y, z'
loop_
 _atom_site_type_symbol
 _atom_site_label
 _atom_site_symmetry_multiplicity
 _atom_site_fract_x
 _atom_site_fract_y
 _atom_site_fract_z
 _atom_site_occupancy
  Hf  Hf0  1  0.250000  0.573686  0.709459  1
  Hf  Hf1  1  0.250000  0.924144  0.210102  1
  Hf  Hf2  1  0.750000  0.427468  0.290278  1
  Hf  Hf3  1  0.750000  0.073328  0.790409  1
  Fe  Fe4  1  0.750000  0.731064  0.329779  1
  Fe  Fe5  1  0.250000  0.869053  0.702819  1
  Fe  Fe6  1  0.250000  0.630025  0.202317  1
  Fe  Fe7  1  0.750000  0.131457  0.297843  1
  Fe  Fe8  1  0.750000  0.368382  0.796387  1
  Fe  Fe9  1  0.250000  0.459747  0.929976  1
  Fe  Fe10  1  0.250000  0.040197  0.430355  1
  Fe  Fe11  1  0.750000  0.539901  0.069013  1
  Fe  Fe12  1  0.750000  0.961017  0.569921  1
  Ni  Ni13  1  0.250000  0.716999  0.995049  1
  Ni  Ni14  1  0.250000  0.786729  0.493205  1
  Ni  Ni15  1  0.750000  0.281991  0.005747  1
  Ni  Ni16  1  0.750000  0.216648  0.506256  1
  Ni  Ni17  1  0.250000  0.412156  0.480838  1
  Ni  Ni18  1  0.250000  0.088285  0.981509  1
  Ni  Ni19  1  0.750000  0.590385  0.518200  1
  Ni  Ni20  1  0.750000  0.909699  0.018986  1
  Ni  Ni21  1  0.250000  0.230179  0.171052  1
  Ni  Ni22  1  0.250000  0.269434  0.670826  1
  Ni  Ni23  1  0.750000  0.768565  0.828236  1
  P  P24  1  0.250000  0.435345  0.115473  1
  P  P25  1  0.250000  0.064595  0.615470  1
  P  P26  1  0.750000  0.563989  0.884098  1
  P  P27  1  0.750000  0.933098  0.384611  1
  P  P28  1  0.250000  0.261941  0.862580  1
  P  P29  1  0.250000  0.238311  0.362447  1
  P  P30  1  0.750000  0.736677  0.141073  1
  P  P31  1  0.750000  0.762586  0.637036  1
  P  P32  1  0.250000  0.606973  0.386208  1
  P  P33  1  0.250000  0.896211  0.887538  1
  P  P34  1  0.750000  0.397934  0.611766  1
  P  P35  1  0.750000  0.101800  0.113137  1
