# generated using pymatgen
data_Mg2Sc(Co3B2)3
_symmetry_space_group_name_H-M   'P 1'
_cell_length_a   5.66823148
_cell_length_b   5.66823236
_cell_length_c   5.66823154
_cell_angle_alpha   95.70866837
_cell_angle_beta   95.70867779
_cell_angle_gamma   95.70868232
_symmetry_Int_Tables_number   1
_chemical_formula_structural   Mg2Sc(Co3B2)3
_chemical_formula_sum   'Mg2 Sc1 Co9 B6'
_cell_volume   179.20851815
_cell_formula_units_Z   1
loop_
 _symmetry_equiv_pos_site_id
 _symmetry_equiv_pos_as_xyz
  1  'x, y, z'
loop_
 _atom_site_type_symbol
 _atom_site_label
 _atom_site_symmetry_multiplicity
 _atom_site_fract_x
 _atom_site_fract_y
 _atom_site_fract_z
 _atom_site_occupancy
  Mg  Mg0  1  0.995060  0.995060  0.995060  1
  Mg  Mg1  1  0.673880  0.673880  0.673880  1
  Sc  Sc2  1  0.327570  0.327570  0.327570  1
  Co  Co3  1  0.997037  0.997037  0.499579  1
  Co  Co4  1  0.499579  0.997037  0.997037  1
  Co  Co5  1  0.997037  0.499579  0.997037  1
  Co  Co6  1  0.704142  0.205608  0.704142  1
  Co  Co7  1  0.704142  0.704142  0.205608  1
  Co  Co8  1  0.205608  0.704142  0.704142  1
  Co  Co9  1  0.294275  0.802010  0.294275  1
  Co  Co10  1  0.294275  0.294275  0.802010  1
  Co  Co11  1  0.802010  0.294275  0.294275  1
  B  B12  1  0.613592  0.388083  0.001018  1
  B  B13  1  0.001018  0.613592  0.388083  1
  B  B14  1  0.388083  0.001018  0.613592  1
  B  B15  1  0.001018  0.388083  0.613592  1
  B  B16  1  0.613592  0.001018  0.388083  1
  B  B17  1  0.388083  0.613592  0.001018  1
