# generated using pymatgen
data_BaYb5(TcH7)2
_symmetry_space_group_name_H-M   'P 1'
_cell_length_a   5.10772100
_cell_length_b   5.10771976
_cell_length_c   12.81867600
_cell_angle_alpha   90.00000000
_cell_angle_beta   90.00000000
_cell_angle_gamma   120.00000154
_symmetry_Int_Tables_number   1
_chemical_formula_structural   BaYb5(TcH7)2
_chemical_formula_sum   'Ba1 Yb5 Tc2 H14'
_cell_volume   289.61964950
_cell_formula_units_Z   1
loop_
 _symmetry_equiv_pos_site_id
 _symmetry_equiv_pos_as_xyz
  1  'x, y, z'
loop_
 _atom_site_type_symbol
 _atom_site_label
 _atom_site_symmetry_multiplicity
 _atom_site_fract_x
 _atom_site_fract_y
 _atom_site_fract_z
 _atom_site_occupancy
  Ba  Ba0  1  0.000000  0.000000  0.250000  1
  Yb  Yb1  1  0.000000  0.000000  0.750000  1
  Yb  Yb2  1  0.333333  0.666667  0.452264  1
  Yb  Yb3  1  0.666667  0.333333  0.572619  1
  Yb  Yb4  1  0.666667  0.333333  0.927381  1
  Yb  Yb5  1  0.333333  0.666667  0.047736  1
  Tc  Tc6  1  0.000000  0.000000  0.513897  1
  Tc  Tc7  1  0.000000  0.000000  0.986103  1
  H  H8  1  0.333333  0.666667  0.250000  1
  H  H9  1  0.666667  0.333333  0.750000  1
  H  H10  1  0.162320  0.837680  0.902782  1
  H  H11  1  0.162320  0.324639  0.902782  1
  H  H12  1  0.675361  0.837680  0.902782  1
  H  H13  1  0.836816  0.163184  0.069721  1
  H  H14  1  0.836816  0.673634  0.069721  1
  H  H15  1  0.326366  0.163184  0.069721  1
  H  H16  1  0.836816  0.163184  0.430279  1
  H  H17  1  0.836816  0.673634  0.430279  1
  H  H18  1  0.326366  0.163184  0.430279  1
  H  H19  1  0.162320  0.837680  0.597218  1
  H  H20  1  0.162320  0.324639  0.597218  1
  H  H21  1  0.675361  0.837680  0.597218  1
