# generated using pymatgen
data_AlCu3Sn5(RhS8)2
_symmetry_space_group_name_H-M   'P 1'
_cell_length_a   7.35229100
_cell_length_b   7.27585674
_cell_length_c   10.33797831
_cell_angle_alpha   90.11641725
_cell_angle_beta   90.00000000
_cell_angle_gamma   90.00000000
_symmetry_Int_Tables_number   1
_chemical_formula_structural   AlCu3Sn5(RhS8)2
_chemical_formula_sum   'Al1 Cu3 Sn5 Rh2 S16'
_cell_volume   553.02090357
_cell_formula_units_Z   1
loop_
 _symmetry_equiv_pos_site_id
 _symmetry_equiv_pos_as_xyz
  1  'x, y, z'
loop_
 _atom_site_type_symbol
 _atom_site_label
 _atom_site_symmetry_multiplicity
 _atom_site_fract_x
 _atom_site_fract_y
 _atom_site_fract_z
 _atom_site_occupancy
  Al  Al0  1  0.000000  0.252895  0.745122  1
  Cu  Cu1  1  0.000000  0.000829  0.126981  1
  Cu  Cu2  1  0.500000  0.498265  0.630812  1
  Cu  Cu3  1  0.500000  0.000367  0.865366  1
  Sn  Sn4  1  0.500000  0.740771  0.252385  1
  Sn  Sn5  1  0.758775  0.008620  0.505304  1
  Sn  Sn6  1  0.248855  0.495105  0.997033  1
  Sn  Sn7  1  0.241225  0.008620  0.505304  1
  Sn  Sn8  1  0.751145  0.495105  0.997033  1
  Rh  Rh9  1  0.500000  0.247173  0.245899  1
  Rh  Rh10  1  0.000000  0.755111  0.752192  1
  S  S11  1  0.000000  0.261559  0.512498  1
  S  S12  1  0.500000  0.748908  0.998060  1
  S  S13  1  0.000000  0.756769  0.521911  1
  S  S14  1  0.500000  0.246271  0.012955  1
  S  S15  1  0.224419  0.001609  0.752433  1
  S  S16  1  0.729543  0.476528  0.244718  1
  S  S17  1  0.775581  0.001609  0.752433  1
  S  S18  1  0.270457  0.476528  0.244718  1
  S  S19  1  0.500000  0.756535  0.502961  1
  S  S20  1  0.000000  0.245157  0.984525  1
  S  S21  1  0.500000  0.249998  0.482502  1
  S  S22  1  0.000000  0.745861  0.986412  1
  S  S23  1  0.265779  0.010089  0.252851  1
  S  S24  1  0.776107  0.504815  0.749869  1
  S  S25  1  0.734221  0.010089  0.252851  1
  S  S26  1  0.223893  0.504815  0.749869  1
