# generated using pymatgen
data_DyPa7Ti3Si16W9
_symmetry_space_group_name_H-M   'P 1'
_cell_length_a   6.91119735
_cell_length_b   6.90234952
_cell_length_c   13.03608857
_cell_angle_alpha   90.12100701
_cell_angle_beta   90.03693301
_cell_angle_gamma   89.83809140
_symmetry_Int_Tables_number   1
_chemical_formula_structural   DyPa7Ti3Si16W9
_chemical_formula_sum   'Dy1 Pa7 Ti3 Si16 W9'
_cell_volume   621.86305091
_cell_formula_units_Z   1
loop_
 _symmetry_equiv_pos_site_id
 _symmetry_equiv_pos_as_xyz
  1  'x, y, z'
loop_
 _atom_site_type_symbol
 _atom_site_label
 _atom_site_symmetry_multiplicity
 _atom_site_fract_x
 _atom_site_fract_y
 _atom_site_fract_z
 _atom_site_occupancy
  Dy  Dy0  1  0.337621  0.995306  0.470066  1
  Pa  Pa1  1  0.001311  0.665328  0.028078  1
  Pa  Pa2  1  0.995846  0.339458  0.528617  1
  Pa  Pa3  1  0.665513  0.000330  0.972130  1
  Pa  Pa4  1  0.168555  0.498999  0.776826  1
  Pa  Pa5  1  0.831783  0.503947  0.280170  1
  Pa  Pa6  1  0.499189  0.168788  0.220987  1
  Pa  Pa7  1  0.505546  0.832644  0.720725  1
  Ti  Ti8  1  0.835668  0.163171  0.748258  1
  Ti  Ti9  1  0.161107  0.834444  0.249888  1
  Ti  Ti10  1  0.333998  0.335075  0.999909  1
  Si  Si11  1  0.027380  0.723758  0.438610  1
  Si  Si12  1  0.972556  0.281495  0.936010  1
  Si  Si13  1  0.719859  0.026506  0.561410  1
  Si  Si14  1  0.214192  0.472734  0.186697  1
  Si  Si15  1  0.785612  0.528575  0.685547  1
  Si  Si16  1  0.470840  0.213310  0.813964  1
  Si  Si17  1  0.526734  0.783842  0.314548  1
  Si  Si18  1  0.280809  0.972390  0.063264  1
  Si  Si19  1  0.798315  0.879029  0.181872  1
  Si  Si20  1  0.302092  0.620375  0.567164  1
  Si  Si21  1  0.700232  0.381843  0.067344  1
  Si  Si22  1  0.615479  0.299623  0.433878  1
  Si  Si23  1  0.381153  0.699798  0.932546  1
  Si  Si24  1  0.120458  0.200540  0.317796  1
  Si  Si25  1  0.202091  0.118497  0.680804  1
  Si  Si26  1  0.879791  0.797920  0.818368  1
  W  W27  1  0.321037  0.495092  0.380184  1
  W  W28  1  0.822312  0.008484  0.369289  1
  W  W29  1  0.992914  0.177381  0.130618  1
  W  W30  1  0.008093  0.819320  0.632931  1
  W  W31  1  0.495459  0.325877  0.624500  1
  W  W32  1  0.177905  0.992460  0.869043  1
  W  W33  1  0.669899  0.663087  0.499535  1
  W  W34  1  0.502668  0.679017  0.121026  1
  W  W35  1  0.675986  0.501556  0.877392  1
