# generated using pymatgen
data_Ho10Bi3P2Pb3
_symmetry_space_group_name_H-M   'P 1'
_cell_length_a   9.15110500
_cell_length_b   9.15110590
_cell_length_c   6.73401300
_cell_angle_alpha   90.00000000
_cell_angle_beta   90.00000000
_cell_angle_gamma   120.00001482
_symmetry_Int_Tables_number   1
_chemical_formula_structural   Ho10Bi3P2Pb3
_chemical_formula_sum   'Ho10 Bi3 P2 Pb3'
_cell_volume   488.37299028
_cell_formula_units_Z   1
loop_
 _symmetry_equiv_pos_site_id
 _symmetry_equiv_pos_as_xyz
  1  'x, y, z'
loop_
 _atom_site_type_symbol
 _atom_site_label
 _atom_site_symmetry_multiplicity
 _atom_site_fract_x
 _atom_site_fract_y
 _atom_site_fract_z
 _atom_site_occupancy
  Ho  Ho0  1  0.763339  0.763339  0.750000  1
  Ho  Ho1  1  0.236661  0.000000  0.750000  1
  Ho  Ho2  1  0.000000  0.236661  0.750000  1
  Ho  Ho3  1  0.237139  0.237139  0.250000  1
  Ho  Ho4  1  0.762861  0.000000  0.250000  1
  Ho  Ho5  1  0.000000  0.762861  0.250000  1
  Ho  Ho6  1  0.666667  0.333333  0.002562  1
  Ho  Ho7  1  0.333333  0.666667  0.002562  1
  Ho  Ho8  1  0.333333  0.666667  0.497438  1
  Ho  Ho9  1  0.666667  0.333333  0.497438  1
  Bi  Bi10  1  0.400092  0.400092  0.750000  1
  Bi  Bi11  1  0.599908  0.000000  0.750000  1
  Bi  Bi12  1  0.000000  0.599908  0.750000  1
  P  P13  1  0.000000  0.000000  0.999167  1
  P  P14  1  0.000000  0.000000  0.500833  1
  Pb  Pb15  1  0.600941  0.600941  0.250000  1
  Pb  Pb16  1  0.399059  0.000000  0.250000  1
  Pb  Pb17  1  0.000000  0.399059  0.250000  1
