# generated using pymatgen
data_AgCl26
_symmetry_space_group_name_H-M   'P 1'
_cell_length_a   10.39974547
_cell_length_b   13.67156570
_cell_length_c   8.87404100
_cell_angle_alpha   87.38399975
_cell_angle_beta   57.02700383
_cell_angle_gamma   76.57114338
_symmetry_Int_Tables_number   1
_chemical_formula_structural   AgCl26
_chemical_formula_sum   'Ag1 Cl26'
_cell_volume   1024.49577258
_cell_formula_units_Z   1
loop_
 _symmetry_equiv_pos_site_id
 _symmetry_equiv_pos_as_xyz
  1  'x, y, z'
loop_
 _atom_site_type_symbol
 _atom_site_label
 _atom_site_symmetry_multiplicity
 _atom_site_fract_x
 _atom_site_fract_y
 _atom_site_fract_z
 _atom_site_occupancy
  Ag  Ag0  1  0.000000  0.000000  0.000000  1
  Cl  Cl1  1  0.848452  0.747402  0.528804  1
  Cl  Cl2  1  0.347639  0.702655  0.472120  1
  Cl  Cl3  1  0.652361  0.297345  0.527880  1
  Cl  Cl4  1  0.151548  0.252598  0.471196  1
  Cl  Cl5  1  0.994254  0.375567  0.058256  1
  Cl  Cl6  1  0.294018  0.474181  0.052649  1
  Cl  Cl7  1  0.705982  0.525819  0.947351  1
  Cl  Cl8  1  0.005746  0.624433  0.941744  1
  Cl  Cl9  1  0.500000  0.000000  0.500000  1
  Cl  Cl10  1  0.000000  0.000000  0.500000  1
  Cl  Cl11  1  0.966381  0.072624  0.279220  1
  Cl  Cl12  1  0.307233  0.165979  0.238662  1
  Cl  Cl13  1  0.692767  0.834021  0.761338  1
  Cl  Cl14  1  0.033619  0.927376  0.720780  1
  Cl  Cl15  1  0.096602  0.527608  0.296280  1
  Cl  Cl16  1  0.426416  0.566523  0.338093  1
  Cl  Cl17  1  0.573584  0.433477  0.661907  1
  Cl  Cl18  1  0.903398  0.472392  0.703720  1
  Cl  Cl19  1  0.709524  0.976527  0.199834  1
  Cl  Cl20  1  0.241284  0.812841  0.113058  1
  Cl  Cl21  1  0.758716  0.187159  0.886942  1
  Cl  Cl22  1  0.290476  0.023473  0.800166  1
  Cl  Cl23  1  0.338274  0.739454  0.871443  1
  Cl  Cl24  1  0.875682  0.763040  0.070280  1
  Cl  Cl25  1  0.124318  0.236960  0.929720  1
  Cl  Cl26  1  0.661726  0.260546  0.128557  1
