# generated using pymatgen
data_PrNi3B
_symmetry_space_group_name_H-M   'P 1'
_cell_length_a   6.00295650
_cell_length_b   6.00295667
_cell_length_c   6.00295654
_cell_angle_alpha   131.28870026
_cell_angle_beta   106.78361698
_cell_angle_gamma   92.94564469
_symmetry_Int_Tables_number   1
_chemical_formula_structural   PrNi3B
_chemical_formula_sum   'Pr2 Ni6 B2'
_cell_volume   146.55359349
_cell_formula_units_Z   2
loop_
 _symmetry_equiv_pos_site_id
 _symmetry_equiv_pos_as_xyz
  1  'x, y, z'
loop_
 _atom_site_type_symbol
 _atom_site_label
 _atom_site_symmetry_multiplicity
 _atom_site_fract_x
 _atom_site_fract_y
 _atom_site_fract_z
 _atom_site_occupancy
  Pr  Pr0  1  0.818578  0.568578  0.250000  1
  Pr  Pr1  1  0.181422  0.431422  0.750000  1
  Ni  Ni2  1  0.324194  0.500000  0.324194  1
  Ni  Ni3  1  0.675806  0.500000  0.675806  1
  Ni  Ni4  1  0.675806  0.000000  0.175806  1
  Ni  Ni5  1  0.324194  0.000000  0.824194  1
  Ni  Ni6  1  0.000000  0.000000  0.000000  1
  Ni  Ni7  1  0.500000  0.000000  0.500000  1
  B  B8  1  0.381368  0.131368  0.250000  1
  B  B9  1  0.618632  0.868632  0.750000  1
