# generated using pymatgen
data_Er12Fe2OsPb2
_symmetry_space_group_name_H-M   'P 1'
_cell_length_a   8.34482274
_cell_length_b   8.34476570
_cell_length_c   8.34482173
_cell_angle_alpha   108.70524576
_cell_angle_beta   108.70477956
_cell_angle_gamma   111.01503480
_symmetry_Int_Tables_number   1
_chemical_formula_structural   Er12Fe2OsPb2
_chemical_formula_sum   'Er12 Fe2 Os1 Pb2'
_cell_volume   447.08252184
_cell_formula_units_Z   1
loop_
 _symmetry_equiv_pos_site_id
 _symmetry_equiv_pos_as_xyz
  1  'x, y, z'
loop_
 _atom_site_type_symbol
 _atom_site_label
 _atom_site_symmetry_multiplicity
 _atom_site_fract_x
 _atom_site_fract_y
 _atom_site_fract_z
 _atom_site_occupancy
  Er  Er0  1  0.308742  0.308746  0.617490  1
  Er  Er1  1  0.691258  0.691254  0.382510  1
  Er  Er2  1  0.308745  0.691254  0.999996  1
  Er  Er3  1  0.691255  0.308746  0.000004  1
  Er  Er4  1  0.428268  0.193241  0.235025  1
  Er  Er5  1  0.571732  0.806759  0.764975  1
  Er  Er6  1  0.958214  0.193241  0.764972  1
  Er  Er7  1  0.193242  0.958219  0.764979  1
  Er  Er8  1  0.041786  0.806759  0.235028  1
  Er  Er9  1  0.806758  0.041781  0.235021  1
  Er  Er10  1  0.193248  0.428273  0.235026  1
  Er  Er11  1  0.806752  0.571727  0.764974  1
  Fe  Fe12  1  0.385754  0.385754  0.000000  1
  Fe  Fe13  1  0.614246  0.614246  0.000000  1
  Os  Os14  1  0.000000  0.000000  0.000000  1
  Pb  Pb15  1  0.500000  0.000000  0.500000  1
  Pb  Pb16  1  0.000000  0.500000  0.500000  1
