# generated using pymatgen
data_Th8Sc12Si15Ag
_symmetry_space_group_name_H-M   'P 1'
_cell_length_a   7.35224774
_cell_length_b   7.52930350
_cell_length_c   14.12099300
_cell_angle_alpha   90.00000000
_cell_angle_beta   90.00000000
_cell_angle_gamma   89.52426847
_symmetry_Int_Tables_number   1
_chemical_formula_structural   Th8Sc12Si15Ag
_chemical_formula_sum   'Th8 Sc12 Si15 Ag1'
_cell_volume   781.67316540
_cell_formula_units_Z   1
loop_
 _symmetry_equiv_pos_site_id
 _symmetry_equiv_pos_as_xyz
  1  'x, y, z'
loop_
 _atom_site_type_symbol
 _atom_site_label
 _atom_site_symmetry_multiplicity
 _atom_site_fract_x
 _atom_site_fract_y
 _atom_site_fract_z
 _atom_site_occupancy
  Th  Th0  1  0.004888  0.685888  0.592311  1
  Th  Th1  1  0.997195  0.322910  0.405323  1
  Th  Th2  1  0.495193  0.177425  0.403131  1
  Th  Th3  1  0.997195  0.322910  0.094677  1
  Th  Th4  1  0.504420  0.822174  0.594894  1
  Th  Th5  1  0.004888  0.685888  0.907689  1
  Th  Th6  1  0.504420  0.822174  0.905106  1
  Th  Th7  1  0.495193  0.177425  0.096869  1
  Sc  Sc8  1  0.174874  0.996292  0.750000  1
  Sc  Sc9  1  0.822368  0.001506  0.250000  1
  Sc  Sc10  1  0.321327  0.498694  0.250000  1
  Sc  Sc11  1  0.676244  0.502780  0.750000  1
  Sc  Sc12  1  0.358631  0.331348  0.622822  1
  Sc  Sc13  1  0.649647  0.669537  0.373206  1
  Sc  Sc14  1  0.150560  0.830840  0.375186  1
  Sc  Sc15  1  0.649647  0.669537  0.126794  1
  Sc  Sc16  1  0.837025  0.159897  0.620482  1
  Sc  Sc17  1  0.358631  0.331348  0.877178  1
  Sc  Sc18  1  0.837025  0.159897  0.879518  1
  Sc  Sc19  1  0.150560  0.830840  0.124814  1
  Si  Si20  1  0.948301  0.620045  0.250000  1
  Si  Si21  1  0.445044  0.879776  0.250000  1
  Si  Si22  1  0.549185  0.116012  0.750000  1
  Si  Si23  1  0.306701  0.628294  0.750000  1
  Si  Si24  1  0.698121  0.375220  0.250000  1
  Si  Si25  1  0.194371  0.122549  0.250000  1
  Si  Si26  1  0.802456  0.874940  0.750000  1
  Si  Si27  1  0.181846  0.045445  0.543030  1
  Si  Si28  1  0.817353  0.956926  0.455026  1
  Si  Si29  1  0.323283  0.541506  0.457710  1
  Si  Si30  1  0.817353  0.956926  0.044974  1
  Si  Si31  1  0.684207  0.459447  0.542076  1
  Si  Si32  1  0.181846  0.045445  0.956970  1
  Si  Si33  1  0.684207  0.459447  0.957924  1
  Si  Si34  1  0.323283  0.541506  0.042290  1
  Ag  Ag35  1  0.052516  0.377207  0.750000  1
