# generated using pymatgen
data_Zr6Zn18SiPd5
_symmetry_space_group_name_H-M   'P 1'
_cell_length_a   8.81672728
_cell_length_b   8.81672638
_cell_length_c   8.81672711
_cell_angle_alpha   59.78788945
_cell_angle_beta   59.78788346
_cell_angle_gamma   59.78788705
_symmetry_Int_Tables_number   1
_chemical_formula_structural   Zr6Zn18SiPd5
_chemical_formula_sum   'Zr6 Zn18 Si1 Pd5'
_cell_volume   482.29278801
_cell_formula_units_Z   1
loop_
 _symmetry_equiv_pos_site_id
 _symmetry_equiv_pos_as_xyz
  1  'x, y, z'
loop_
 _atom_site_type_symbol
 _atom_site_label
 _atom_site_symmetry_multiplicity
 _atom_site_fract_x
 _atom_site_fract_y
 _atom_site_fract_z
 _atom_site_occupancy
  Zr  Zr0  1  0.717140  0.287269  0.287269  1
  Zr  Zr1  1  0.282860  0.712731  0.712731  1
  Zr  Zr2  1  0.287269  0.717140  0.287269  1
  Zr  Zr3  1  0.712731  0.282860  0.712731  1
  Zr  Zr4  1  0.287269  0.287269  0.717140  1
  Zr  Zr5  1  0.712731  0.712731  0.282860  1
  Zn  Zn6  1  0.122622  0.122622  0.632272  1
  Zn  Zn7  1  0.122622  0.632272  0.122622  1
  Zn  Zn8  1  0.877378  0.877378  0.367728  1
  Zn  Zn9  1  0.877378  0.367728  0.877378  1
  Zn  Zn10  1  0.632272  0.122622  0.122622  1
  Zn  Zn11  1  0.367728  0.877378  0.877378  1
  Zn  Zn12  1  0.500000  0.000000  0.000000  1
  Zn  Zn13  1  0.000000  0.500000  0.000000  1
  Zn  Zn14  1  0.000000  0.000000  0.500000  1
  Zn  Zn15  1  0.338974  0.338974  0.338974  1
  Zn  Zn16  1  0.661026  0.661026  0.661026  1
  Zn  Zn17  1  0.333637  0.333637  0.995326  1
  Zn  Zn18  1  0.333637  0.995326  0.333637  1
  Zn  Zn19  1  0.666363  0.666363  0.004674  1
  Zn  Zn20  1  0.666363  0.004674  0.666363  1
  Zn  Zn21  1  0.995326  0.333637  0.333637  1
  Zn  Zn22  1  0.004674  0.666363  0.666363  1
  Zn  Zn23  1  0.000000  0.000000  0.000000  1
  Si  Si24  1  0.500000  0.500000  0.500000  1
  Pd  Pd25  1  0.118755  0.118755  0.118755  1
  Pd  Pd26  1  0.881245  0.881245  0.881245  1
  Pd  Pd27  1  0.000000  0.500000  0.500000  1
  Pd  Pd28  1  0.500000  0.000000  0.500000  1
  Pd  Pd29  1  0.500000  0.500000  0.000000  1
