# generated using pymatgen
data_Yb2Dy(LuRu)2
_symmetry_space_group_name_H-M   'P 1'
_cell_length_a   6.37156961
_cell_length_b   7.19450144
_cell_length_c   8.42480334
_cell_angle_alpha   97.52195179
_cell_angle_beta   111.88202966
_cell_angle_gamma   89.72622435
_symmetry_Int_Tables_number   1
_chemical_formula_structural   Yb2Dy(LuRu)2
_chemical_formula_sum   'Yb4 Dy2 Lu4 Ru4'
_cell_volume   354.88046084
_cell_formula_units_Z   2
loop_
 _symmetry_equiv_pos_site_id
 _symmetry_equiv_pos_as_xyz
  1  'x, y, z'
loop_
 _atom_site_type_symbol
 _atom_site_label
 _atom_site_symmetry_multiplicity
 _atom_site_fract_x
 _atom_site_fract_y
 _atom_site_fract_z
 _atom_site_occupancy
  Yb  Yb0  1  0.522954  0.079251  0.816719  1
  Yb  Yb1  1  0.477046  0.920749  0.183281  1
  Yb  Yb2  1  0.706396  0.420733  0.183352  1
  Yb  Yb3  1  0.293604  0.579267  0.816648  1
  Dy  Dy4  1  0.302892  0.313974  0.433127  1
  Dy  Dy5  1  0.697108  0.686026  0.566873  1
  Lu  Lu6  1  0.871177  0.183611  0.567495  1
  Lu  Lu7  1  0.128823  0.816389  0.432505  1
  Lu  Lu8  1  0.067891  0.249720  0.998328  1
  Lu  Lu9  1  0.932109  0.750280  0.001672  1
  Ru  Ru10  1  0.311167  0.575772  0.228984  1
  Ru  Ru11  1  0.688833  0.424228  0.771016  1
  Ru  Ru12  1  0.083917  0.925768  0.769317  1
  Ru  Ru13  1  0.916083  0.074232  0.230683  1
