# generated using pymatgen
data_Tm2CoNi(BN)2
_symmetry_space_group_name_H-M   'P 1'
_cell_length_a   3.44992000
_cell_length_b   3.44992000
_cell_length_c   7.42895800
_cell_angle_alpha   90.00000000
_cell_angle_beta   90.00000000
_cell_angle_gamma   90.00000000
_symmetry_Int_Tables_number   1
_chemical_formula_structural   Tm2CoNi(BN)2
_chemical_formula_sum   'Tm2 Co1 Ni1 B2 N2'
_cell_volume   88.41907186
_cell_formula_units_Z   1
loop_
 _symmetry_equiv_pos_site_id
 _symmetry_equiv_pos_as_xyz
  1  'x, y, z'
loop_
 _atom_site_type_symbol
 _atom_site_label
 _atom_site_symmetry_multiplicity
 _atom_site_fract_x
 _atom_site_fract_y
 _atom_site_fract_z
 _atom_site_occupancy
  Tm  Tm0  1  0.500001  0.000000  0.165611  1
  Tm  Tm1  1  0.000000  0.500001  0.834389  1
  Co  Co2  1  0.500001  0.500001  0.500000  1
  Ni  Ni3  1  0.000000  0.000000  0.500000  1
  B  B4  1  0.000000  0.500001  0.343269  1
  B  B5  1  0.500001  0.000000  0.656730  1
  N  N6  1  0.000000  0.500001  0.143220  1
  N  N7  1  0.500001  0.000000  0.856780  1
