# generated using pymatgen
data_Ta3Ti4Nb3(Ga3B)2
_symmetry_space_group_name_H-M   'P 1'
_cell_length_a   7.76960532
_cell_length_b   7.76476937
_cell_length_c   5.30498500
_cell_angle_alpha   90.00000000
_cell_angle_beta   90.00000000
_cell_angle_gamma   120.05353318
_symmetry_Int_Tables_number   1
_chemical_formula_structural   Ta3Ti4Nb3(Ga3B)2
_chemical_formula_sum   'Ta3 Ti4 Nb3 Ga6 B2'
_cell_volume   277.01786908
_cell_formula_units_Z   1
loop_
 _symmetry_equiv_pos_site_id
 _symmetry_equiv_pos_as_xyz
  1  'x, y, z'
loop_
 _atom_site_type_symbol
 _atom_site_label
 _atom_site_symmetry_multiplicity
 _atom_site_fract_x
 _atom_site_fract_y
 _atom_site_fract_z
 _atom_site_occupancy
  Ta  Ta0  1  0.999162  0.759536  0.750000  1
  Ta  Ta1  1  0.760682  0.759940  0.250000  1
  Ta  Ta2  1  0.239884  0.239964  0.750000  1
  Ti  Ti3  1  0.333360  0.666383  0.999410  1
  Ti  Ti4  1  0.666649  0.334224  0.999422  1
  Ti  Ti5  1  0.666649  0.334224  0.500578  1
  Ti  Ti6  1  0.333360  0.666383  0.500590  1
  Nb  Nb7  1  0.240409  0.000198  0.250000  1
  Nb  Nb8  1  0.759032  0.999335  0.750000  1
  Nb  Nb9  1  0.000840  0.240674  0.250000  1
  Ga  Ga10  1  0.599614  0.000151  0.250000  1
  Ga  Ga11  1  0.400954  0.000055  0.750000  1
  Ga  Ga12  1  0.000081  0.598833  0.250000  1
  Ga  Ga13  1  0.999842  0.400689  0.750000  1
  Ga  Ga14  1  0.401062  0.401025  0.250000  1
  Ga  Ga15  1  0.598465  0.598572  0.750000  1
  B  B16  1  0.999977  0.999906  0.000124  1
  B  B17  1  0.999977  0.999906  0.499876  1
