# generated using pymatgen
data_Sr3PrY4(Si3Pd)4
_symmetry_space_group_name_H-M   'P 1'
_cell_length_a   8.27954700
_cell_length_b   8.27954693
_cell_length_c   8.45941000
_cell_angle_alpha   90.00000000
_cell_angle_beta   90.00000000
_cell_angle_gamma   120.00024179
_symmetry_Int_Tables_number   1
_chemical_formula_structural   Sr3PrY4(Si3Pd)4
_chemical_formula_sum   'Sr3 Pr1 Y4 Si12 Pd4'
_cell_volume   502.20703911
_cell_formula_units_Z   1
loop_
 _symmetry_equiv_pos_site_id
 _symmetry_equiv_pos_as_xyz
  1  'x, y, z'
loop_
 _atom_site_type_symbol
 _atom_site_label
 _atom_site_symmetry_multiplicity
 _atom_site_fract_x
 _atom_site_fract_y
 _atom_site_fract_z
 _atom_site_occupancy
  Sr  Sr0  1  0.500513  0.499488  0.250000  1
  Sr  Sr1  1  0.998976  0.499487  0.250000  1
  Sr  Sr2  1  0.500512  0.001025  0.250000  1
  Pr  Pr3  1  0.000000  0.000000  0.250000  1
  Y  Y4  1  0.499619  0.500382  0.750000  1
  Y  Y5  1  0.000763  0.500382  0.750000  1
  Y  Y6  1  0.499619  0.999236  0.750000  1
  Y  Y7  1  0.000000  0.000000  0.750000  1
  Si  Si8  1  0.835652  0.164348  0.983937  1
  Si  Si9  1  0.164278  0.835722  0.983531  1
  Si  Si10  1  0.328697  0.164348  0.983936  1
  Si  Si11  1  0.164278  0.835722  0.516469  1
  Si  Si12  1  0.671443  0.835722  0.983531  1
  Si  Si13  1  0.835652  0.164348  0.516063  1
  Si  Si14  1  0.835652  0.671303  0.983936  1
  Si  Si15  1  0.671443  0.835722  0.516469  1
  Si  Si16  1  0.164278  0.328557  0.983531  1
  Si  Si17  1  0.328697  0.164348  0.516064  1
  Si  Si18  1  0.164278  0.328557  0.516469  1
  Si  Si19  1  0.835652  0.671303  0.516064  1
  Pd  Pd20  1  0.666666  0.333334  0.972085  1
  Pd  Pd21  1  0.333334  0.666666  0.975714  1
  Pd  Pd22  1  0.333334  0.666666  0.524286  1
  Pd  Pd23  1  0.666666  0.333334  0.527915  1
