# generated using pymatgen
data_Ba11Mo4O23
_symmetry_space_group_name_H-M   'P 1'
_cell_length_a   12.53655594
_cell_length_b   12.68726510
_cell_length_c   12.58846000
_cell_angle_alpha   60.58159693
_cell_angle_beta   58.53443535
_cell_angle_gamma   59.19497934
_symmetry_Int_Tables_number   1
_chemical_formula_structural   Ba11Mo4O23
_chemical_formula_sum   'Ba22 Mo8 O46'
_cell_volume   1396.71897854
_cell_formula_units_Z   2
loop_
 _symmetry_equiv_pos_site_id
 _symmetry_equiv_pos_as_xyz
  1  'x, y, z'
loop_
 _atom_site_type_symbol
 _atom_site_label
 _atom_site_symmetry_multiplicity
 _atom_site_fract_x
 _atom_site_fract_y
 _atom_site_fract_z
 _atom_site_occupancy
  Ba  Ba0  1  0.259019  0.214925  0.218566  1
  Ba  Ba1  1  0.137200  0.155436  0.606434  1
  Ba  Ba2  1  0.119841  0.598973  0.145793  1
  Ba  Ba3  1  0.617503  0.174785  0.135143  1
  Ba  Ba4  1  0.344162  0.390295  0.388730  1
  Ba  Ba5  1  0.119980  0.588316  0.634830  1
  Ba  Ba6  1  0.254378  0.786077  0.239883  1
  Ba  Ba7  1  0.275862  0.206149  0.794511  1
  Ba  Ba8  1  0.956945  0.833316  0.835177  1
  Ba  Ba9  1  0.633520  0.157249  0.532107  1
  Ba  Ba10  1  0.635290  0.551218  0.156050  1
  Ba  Ba11  1  0.344224  0.454118  0.851040  1
  Ba  Ba12  1  0.335141  0.841251  0.478698  1
  Ba  Ba13  1  0.025016  0.159748  0.178713  1
  Ba  Ba14  1  0.694510  0.793466  0.206210  1
  Ba  Ba15  1  0.857671  0.411224  0.373907  1
  Ba  Ba16  1  0.728179  0.224873  0.770035  1
  Ba  Ba17  1  0.634295  0.618366  0.609690  1
  Ba  Ba18  1  0.357903  0.845964  0.843688  1
  Ba  Ba19  1  0.842642  0.860743  0.378513  1
  Ba  Ba20  1  0.849734  0.413897  0.850438  1
  Ba  Ba21  1  0.728190  0.799797  0.762634  1
  Mo  Mo22  1  0.993745  0.990464  0.005919  1
  Mo  Mo23  1  0.493970  0.002225  0.996670  1
  Mo  Mo24  1  0.491000  0.003370  0.491375  1
  Mo  Mo25  1  0.482392  0.515056  0.999317  1
  Mo  Mo26  1  0.488959  0.498347  0.505027  1
  Mo  Mo27  1  0.988735  0.497383  0.002362  1
  Mo  Mo28  1  0.989280  0.503714  0.501284  1
  Mo  Mo29  1  0.984420  0.005850  0.506836  1
  O  O30  1  0.119104  0.388281  0.392113  1
  O  O31  1  0.505012  0.140235  0.006654  1
  O  O32  1  0.083833  0.393869  0.627354  1
  O  O33  1  0.102314  0.610368  0.404256  1
  O  O34  1  0.359310  0.418569  0.080578  1
  O  O35  1  0.397798  0.097351  0.366047  1
  O  O36  1  0.335995  0.647891  0.083233  1
  O  O37  1  0.383131  0.145988  0.568965  1
  O  O38  1  0.540722  0.408451  0.149689  1
  O  O39  1  0.624963  0.085349  0.368712  1
  O  O40  1  0.402713  0.369463  0.595355  1
  O  O41  1  0.399574  0.583243  0.377303  1
  O  O42  1  0.334904  0.606462  0.615097  1
  O  O43  1  0.641314  0.391839  0.394252  1
  O  O44  1  0.086639  0.851469  0.945287  1
  O  O45  1  0.477309  0.855877  0.142321  1
  O  O46  1  0.575205  0.413767  0.635640  1
  O  O47  1  0.576039  0.625792  0.415790  1
  O  O48  1  0.350528  0.928256  0.617659  1
  O  O49  1  0.429320  0.612774  0.845471  1
  O  O50  1  0.886480  0.389078  0.059462  1
  O  O51  1  0.887724  0.032357  0.408174  1
  O  O52  1  0.685231  0.922904  0.946081  1
  O  O53  1  0.814296  0.085185  0.627117  1
  O  O54  1  0.842332  0.590591  0.130573  1
  O  O55  1  0.077232  0.977913  0.610868  1
  O  O56  1  0.063737  0.379447  0.139016  1
  O  O57  1  0.015233  0.169911  0.393248  1
  O  O58  1  0.092518  0.602903  0.944344  1
  O  O59  1  0.624257  0.388023  0.908000  1
  O  O60  1  0.591962  0.859740  0.419011  1
  O  O61  1  0.302250  0.085937  0.050037  1
  O  O62  1  0.602036  0.611621  0.925356  1
  O  O63  1  0.588162  0.902574  0.612567  1
  O  O64  1  0.893033  0.609687  0.379019  1
  O  O65  1  0.875110  0.393849  0.602594  1
  O  O66  1  0.873977  0.141867  0.929532  1
  O  O67  1  0.841964  0.933739  0.131249  1
  O  O68  1  0.501518  0.007066  0.841892  1
  O  O69  1  0.858617  0.616066  0.614279  1
  O  O70  1  0.036262  0.956651  0.143913  1
  O  O71  1  0.130804  0.066956  0.879427  1
  O  O72  1  0.907998  0.620427  0.870098  1
  O  O73  1  0.967741  0.834415  0.615221  1
  O  O74  1  0.136282  0.406542  0.876390  1
  O  O75  1  0.155411  0.928661  0.380981  1
