# generated using pymatgen
data_BiMo2O7F
_symmetry_space_group_name_H-M   'P 1'
_cell_length_a   6.77758800
_cell_length_b   4.52435379
_cell_length_c   11.61838050
_cell_angle_alpha   89.58238051
_cell_angle_beta   90.00000000
_cell_angle_gamma   90.00000000
_symmetry_Int_Tables_number   1
_chemical_formula_structural   BiMo2O7F
_chemical_formula_sum   'Bi2 Mo4 O14 F2'
_cell_volume   356.25894879
_cell_formula_units_Z   2
loop_
 _symmetry_equiv_pos_site_id
 _symmetry_equiv_pos_as_xyz
  1  'x, y, z'
loop_
 _atom_site_type_symbol
 _atom_site_label
 _atom_site_symmetry_multiplicity
 _atom_site_fract_x
 _atom_site_fract_y
 _atom_site_fract_z
 _atom_site_occupancy
  Bi  Bi0  1  0.809183  0.000000  0.750000  1
  Bi  Bi1  1  0.190817  0.000000  0.250000  1
  Mo  Mo2  1  0.337246  0.898753  0.594849  1
  Mo  Mo3  1  0.337246  0.101247  0.905151  1
  Mo  Mo4  1  0.662754  0.101247  0.405151  1
  Mo  Mo5  1  0.662754  0.898753  0.094849  1
  O  O6  1  0.343228  0.517426  0.597253  1
  O  O7  1  0.343228  0.482574  0.902747  1
  O  O8  1  0.656772  0.482574  0.402747  1
  O  O9  1  0.656772  0.517426  0.097253  1
  O  O10  1  0.086638  0.988003  0.623808  1
  O  O11  1  0.086638  0.011997  0.876192  1
  O  O12  1  0.913362  0.011997  0.376192  1
  O  O13  1  0.913362  0.988003  0.123808  1
  O  O14  1  0.643837  0.002097  0.565569  1
  O  O15  1  0.643837  0.997903  0.934431  1
  O  O16  1  0.356163  0.997903  0.434431  1
  O  O17  1  0.356163  0.002097  0.065569  1
  O  O18  1  0.437480  0.000000  0.750000  1
  O  O19  1  0.562520  0.000000  0.250000  1
  F  F20  1  0.802672  0.500000  0.750000  1
  F  F21  1  0.197328  0.500000  0.250000  1
