# generated using pymatgen
data_Tb2DyIn3Ag2Ir
_symmetry_space_group_name_H-M   'P 1'
_cell_length_a   7.92204747
_cell_length_b   7.92446759
_cell_length_c   3.83485700
_cell_angle_alpha   90.00000000
_cell_angle_beta   90.00000000
_cell_angle_gamma   120.02944244
_symmetry_Int_Tables_number   1
_chemical_formula_structural   Tb2DyIn3Ag2Ir
_chemical_formula_sum   'Tb2 Dy1 In3 Ag2 Ir1'
_cell_volume   208.42913013
_cell_formula_units_Z   1
loop_
 _symmetry_equiv_pos_site_id
 _symmetry_equiv_pos_as_xyz
  1  'x, y, z'
loop_
 _atom_site_type_symbol
 _atom_site_label
 _atom_site_symmetry_multiplicity
 _atom_site_fract_x
 _atom_site_fract_y
 _atom_site_fract_z
 _atom_site_occupancy
  Tb  Tb0  1  0.576529  0.607563  0.000000  1
  Tb  Tb1  1  0.392290  0.968922  0.000000  1
  Dy  Dy2  1  0.031491  0.423668  0.000000  1
  In  In3  1  0.994154  0.729189  0.500000  1
  In  In4  1  0.270501  0.264854  0.500000  1
  In  In5  1  0.735350  0.005994  0.500000  1
  Ag  Ag6  1  0.999999  0.000152  0.000000  1
  Ag  Ag7  1  0.666950  0.333408  0.500000  1
  Ir  Ir8  1  0.332735  0.666252  0.500000  1
