# generated using pymatgen
data_Nd6Al24Ru2PtRh5
_symmetry_space_group_name_H-M   'P 1'
_cell_length_a   8.94045600
_cell_length_b   8.93526134
_cell_length_c   9.63713289
_cell_angle_alpha   89.96427037
_cell_angle_beta   90.00000000
_cell_angle_gamma   120.01924073
_symmetry_Int_Tables_number   1
_chemical_formula_structural   Nd6Al24Ru2PtRh5
_chemical_formula_sum   'Nd6 Al24 Ru2 Pt1 Rh5'
_cell_volume   666.59348007
_cell_formula_units_Z   1
loop_
 _symmetry_equiv_pos_site_id
 _symmetry_equiv_pos_as_xyz
  1  'x, y, z'
loop_
 _atom_site_type_symbol
 _atom_site_label
 _atom_site_symmetry_multiplicity
 _atom_site_fract_x
 _atom_site_fract_y
 _atom_site_fract_z
 _atom_site_occupancy
  Nd  Nd0  1  0.190087  0.380173  0.249961  1
  Nd  Nd1  1  0.809913  0.619827  0.750039  1
  Nd  Nd2  1  0.620956  0.810599  0.250309  1
  Nd  Nd3  1  0.379044  0.189401  0.749691  1
  Nd  Nd4  1  0.189644  0.810599  0.250309  1
  Nd  Nd5  1  0.810356  0.189401  0.749691  1
  Al  Al6  1  0.333317  0.666635  0.022292  1
  Al  Al7  1  0.666683  0.333365  0.977708  1
  Al  Al8  1  0.668364  0.336727  0.523509  1
  Al  Al9  1  0.331636  0.663273  0.476491  1
  Al  Al10  1  0.163090  0.326180  0.574700  1
  Al  Al11  1  0.836910  0.673820  0.425300  1
  Al  Al12  1  0.674320  0.834576  0.575044  1
  Al  Al13  1  0.836858  0.673716  0.074500  1
  Al  Al14  1  0.325680  0.165424  0.424956  1
  Al  Al15  1  0.163142  0.326284  0.925500  1
  Al  Al16  1  0.160256  0.834576  0.575044  1
  Al  Al17  1  0.326260  0.163596  0.074739  1
  Al  Al18  1  0.839744  0.165424  0.424956  1
  Al  Al19  1  0.673740  0.836404  0.925261  1
  Al  Al20  1  0.837337  0.163596  0.074739  1
  Al  Al21  1  0.162663  0.836404  0.925261  1
  Al  Al22  1  0.564249  0.128499  0.247395  1
  Al  Al23  1  0.435751  0.871501  0.752605  1
  Al  Al24  1  0.873853  0.437472  0.250455  1
  Al  Al25  1  0.126147  0.562528  0.749545  1
  Al  Al26  1  0.563618  0.437472  0.250455  1
  Al  Al27  1  0.436382  0.562528  0.749545  1
  Al  Al28  1  0.000189  0.000380  0.249891  1
  Al  Al29  1  0.999811  0.999620  0.750109  1
  Ru  Ru30  1  0.000000  0.000000  0.000000  1
  Ru  Ru31  1  0.000000  0.000000  0.500000  1
  Pt  Pt32  1  0.500000  0.000000  0.500000  1
  Rh  Rh33  1  0.500000  0.000000  0.000000  1
  Rh  Rh34  1  0.000000  0.500000  0.000000  1
  Rh  Rh35  1  0.500000  0.500000  0.000000  1
  Rh  Rh36  1  0.000000  0.500000  0.500000  1
  Rh  Rh37  1  0.500000  0.500000  0.500000  1
