# generated using pymatgen
data_La6CeNdH24
_symmetry_space_group_name_H-M   'P 1'
_cell_length_a   7.01055000
_cell_length_b   7.01055000
_cell_length_c   7.01055000
_cell_angle_alpha   90.00000000
_cell_angle_beta   90.00000000
_cell_angle_gamma   90.00000000
_symmetry_Int_Tables_number   1
_chemical_formula_structural   La6CeNdH24
_chemical_formula_sum   'La6 Ce1 Nd1 H24'
_cell_volume   344.55318853
_cell_formula_units_Z   1
loop_
 _symmetry_equiv_pos_site_id
 _symmetry_equiv_pos_as_xyz
  1  'x, y, z'
loop_
 _atom_site_type_symbol
 _atom_site_label
 _atom_site_symmetry_multiplicity
 _atom_site_fract_x
 _atom_site_fract_y
 _atom_site_fract_z
 _atom_site_occupancy
  La  La0  1  0.249538  0.000000  0.500000  1
  La  La1  1  0.750462  0.000000  0.500000  1
  La  La2  1  0.000000  0.500000  0.249538  1
  La  La3  1  0.000000  0.500000  0.750462  1
  La  La4  1  0.500000  0.750462  0.000000  1
  La  La5  1  0.500000  0.249538  0.000000  1
  Ce  Ce6  1  0.500000  0.500000  0.500000  1
  Nd  Nd7  1  0.000000  0.000000  0.000000  1
  H  H8  1  0.000000  0.154163  0.305047  1
  H  H9  1  0.500000  0.200926  0.653268  1
  H  H10  1  0.500000  0.799074  0.346732  1
  H  H11  1  0.799074  0.653268  0.500000  1
  H  H12  1  0.200926  0.653268  0.500000  1
  H  H13  1  0.346732  0.500000  0.799074  1
  H  H14  1  0.653268  0.500000  0.799074  1
  H  H15  1  0.305047  0.000000  0.154163  1
  H  H16  1  0.154163  0.305047  0.000000  1
  H  H17  1  0.845837  0.694953  0.000000  1
  H  H18  1  0.305047  0.000000  0.845837  1
  H  H19  1  0.845837  0.305047  0.000000  1
  H  H20  1  0.694953  0.000000  0.154163  1
  H  H21  1  0.694953  0.000000  0.845837  1
  H  H22  1  0.154163  0.694953  0.000000  1
  H  H23  1  0.000000  0.845837  0.694953  1
  H  H24  1  0.000000  0.154163  0.694953  1
  H  H25  1  0.000000  0.845837  0.305047  1
  H  H26  1  0.653268  0.500000  0.200926  1
  H  H27  1  0.346732  0.500000  0.200926  1
  H  H28  1  0.799074  0.346732  0.500000  1
  H  H29  1  0.200926  0.346732  0.500000  1
  H  H30  1  0.500000  0.799074  0.653268  1
  H  H31  1  0.500000  0.200926  0.346732  1
