# generated using pymatgen
data_KMn(FeSb4)3
_symmetry_space_group_name_H-M   'P 1'
_cell_length_a   8.05403936
_cell_length_b   8.05403887
_cell_length_c   8.05403922
_cell_angle_alpha   109.57483562
_cell_angle_beta   109.57483429
_cell_angle_gamma   109.57483571
_symmetry_Int_Tables_number   1
_chemical_formula_structural   KMn(FeSb4)3
_chemical_formula_sum   'K1 Mn1 Fe3 Sb12'
_cell_volume   400.62865701
_cell_formula_units_Z   1
loop_
 _symmetry_equiv_pos_site_id
 _symmetry_equiv_pos_as_xyz
  1  'x, y, z'
loop_
 _atom_site_type_symbol
 _atom_site_label
 _atom_site_symmetry_multiplicity
 _atom_site_fract_x
 _atom_site_fract_y
 _atom_site_fract_z
 _atom_site_occupancy
  K  K0  1  0.000000  0.000000  0.000000  1
  Mn  Mn1  1  0.500000  0.500000  0.500000  1
  Fe  Fe2  1  0.500000  0.000000  0.000000  1
  Fe  Fe3  1  0.000000  0.500000  0.000000  1
  Fe  Fe4  1  0.000000  0.000000  0.500000  1
  Sb  Sb5  1  0.848233  0.665747  0.499354  1
  Sb  Sb6  1  0.151767  0.334253  0.500646  1
  Sb  Sb7  1  0.162875  0.666379  0.828052  1
  Sb  Sb8  1  0.837125  0.333621  0.171948  1
  Sb  Sb9  1  0.665747  0.499354  0.848233  1
  Sb  Sb10  1  0.334253  0.500646  0.151767  1
  Sb  Sb11  1  0.666379  0.828052  0.162875  1
  Sb  Sb12  1  0.333621  0.171948  0.837125  1
  Sb  Sb13  1  0.499354  0.848233  0.665747  1
  Sb  Sb14  1  0.500646  0.151767  0.334253  1
  Sb  Sb15  1  0.171948  0.837125  0.333621  1
  Sb  Sb16  1  0.828052  0.162875  0.666379  1
