# generated using pymatgen
data_Rb4Li2DyInSb4
_symmetry_space_group_name_H-M   'P 1'
_cell_length_a   11.14377660
_cell_length_b   11.14377560
_cell_length_c   7.13576500
_cell_angle_alpha   90.00000000
_cell_angle_beta   90.00000000
_cell_angle_gamma   101.38058340
_symmetry_Int_Tables_number   1
_chemical_formula_structural   Rb4Li2DyInSb4
_chemical_formula_sum   'Rb8 Li4 Dy2 In2 Sb8'
_cell_volume   868.72271299
_cell_formula_units_Z   2
loop_
 _symmetry_equiv_pos_site_id
 _symmetry_equiv_pos_as_xyz
  1  'x, y, z'
loop_
 _atom_site_type_symbol
 _atom_site_label
 _atom_site_symmetry_multiplicity
 _atom_site_fract_x
 _atom_site_fract_y
 _atom_site_fract_z
 _atom_site_occupancy
  Rb  Rb0  1  0.572577  0.927423  0.750000  1
  Rb  Rb1  1  0.927423  0.572577  0.250000  1
  Rb  Rb2  1  0.422988  0.077012  0.250000  1
  Rb  Rb3  1  0.077012  0.422988  0.750000  1
  Rb  Rb4  1  0.670465  0.324667  0.774510  1
  Rb  Rb5  1  0.829535  0.175333  0.274510  1
  Rb  Rb6  1  0.324667  0.670465  0.225490  1
  Rb  Rb7  1  0.175333  0.829535  0.725490  1
  Li  Li8  1  0.618676  0.618676  0.000000  1
  Li  Li9  1  0.881324  0.881324  0.500000  1
  Li  Li10  1  0.378229  0.378229  0.000000  1
  Li  Li11  1  0.121771  0.121771  0.500000  1
  Dy  Dy12  1  0.873308  0.873308  0.000000  1
  Dy  Dy13  1  0.626692  0.626692  0.500000  1
  In  In14  1  0.131052  0.131052  0.000000  1
  In  In15  1  0.368948  0.368948  0.500000  1
  Sb  Sb16  1  0.346106  0.153894  0.750000  1
  Sb  Sb17  1  0.153894  0.346106  0.250000  1
  Sb  Sb18  1  0.652243  0.847757  0.250000  1
  Sb  Sb19  1  0.847757  0.652243  0.750000  1
  Sb  Sb20  1  0.907629  0.099975  0.762787  1
  Sb  Sb21  1  0.592371  0.400025  0.262787  1
  Sb  Sb22  1  0.099975  0.907629  0.237213  1
  Sb  Sb23  1  0.400025  0.592371  0.737213  1
