# generated using pymatgen
data_HoLu3OsWC4
_symmetry_space_group_name_H-M   'P 1'
_cell_length_a   5.00822900
_cell_length_b   6.52978815
_cell_length_c   9.73688660
_cell_angle_alpha   88.91564983
_cell_angle_beta   90.00000000
_cell_angle_gamma   90.00000000
_symmetry_Int_Tables_number   1
_chemical_formula_structural   HoLu3OsWC4
_chemical_formula_sum   'Ho2 Lu6 Os2 W2 C8'
_cell_volume   318.36520854
_cell_formula_units_Z   2
loop_
 _symmetry_equiv_pos_site_id
 _symmetry_equiv_pos_as_xyz
  1  'x, y, z'
loop_
 _atom_site_type_symbol
 _atom_site_label
 _atom_site_symmetry_multiplicity
 _atom_site_fract_x
 _atom_site_fract_y
 _atom_site_fract_z
 _atom_site_occupancy
  Ho  Ho0  1  0.750000  0.968651  0.716331  1
  Ho  Ho1  1  0.250000  0.031349  0.283669  1
  Lu  Lu2  1  0.250000  0.675845  0.558437  1
  Lu  Lu3  1  0.750000  0.324155  0.441563  1
  Lu  Lu4  1  0.750000  0.826502  0.059409  1
  Lu  Lu5  1  0.250000  0.173498  0.940591  1
  Lu  Lu6  1  0.250000  0.540076  0.219301  1
  Lu  Lu7  1  0.750000  0.459924  0.780699  1
  Os  Os8  1  0.750000  0.778603  0.369134  1
  Os  Os9  1  0.250000  0.221397  0.630866  1
  W  W10  1  0.250000  0.714213  0.870125  1
  W  W11  1  0.750000  0.285787  0.129875  1
  C  C12  1  0.250000  0.448391  0.759024  1
  C  C13  1  0.750000  0.551609  0.240976  1
  C  C14  1  0.750000  0.048325  0.260156  1
  C  C15  1  0.250000  0.951675  0.739844  1
  C  C16  1  0.250000  0.827213  0.057260  1
  C  C17  1  0.750000  0.172787  0.942740  1
  C  C18  1  0.750000  0.668785  0.552940  1
  C  C19  1  0.250000  0.331215  0.447060  1
