# generated using pymatgen
data_Hf5P12IrRu18
_symmetry_space_group_name_H-M   'P 1'
_cell_length_a   12.41176400
_cell_length_b   12.41176493
_cell_length_c   3.89426600
_cell_angle_alpha   90.00000000
_cell_angle_beta   90.00000000
_cell_angle_gamma   119.99999753
_symmetry_Int_Tables_number   1
_chemical_formula_structural   Hf5P12IrRu18
_chemical_formula_sum   'Hf5 P12 Ir1 Ru18'
_cell_volume   519.54516352
_cell_formula_units_Z   1
loop_
 _symmetry_equiv_pos_site_id
 _symmetry_equiv_pos_as_xyz
  1  'x, y, z'
loop_
 _atom_site_type_symbol
 _atom_site_label
 _atom_site_symmetry_multiplicity
 _atom_site_fract_x
 _atom_site_fract_y
 _atom_site_fract_z
 _atom_site_occupancy
  Hf  Hf0  1  0.333333  0.666667  0.000000  1
  Hf  Hf1  1  0.666667  0.333333  0.000000  1
  Hf  Hf2  1  0.808024  0.000000  0.500000  1
  Hf  Hf3  1  0.000000  0.808024  0.500000  1
  Hf  Hf4  1  0.191976  0.191976  0.500000  1
  P  P5  1  0.180906  0.000000  0.000000  1
  P  P6  1  0.000000  0.180906  0.000000  1
  P  P7  1  0.819094  0.819094  0.000000  1
  P  P8  1  0.172269  0.479840  0.500000  1
  P  P9  1  0.520160  0.692429  0.500000  1
  P  P10  1  0.307571  0.827731  0.500000  1
  P  P11  1  0.692429  0.520160  0.500000  1
  P  P12  1  0.827731  0.307571  0.500000  1
  P  P13  1  0.479840  0.172269  0.500000  1
  P  P14  1  0.630738  0.000000  0.000000  1
  P  P15  1  0.000000  0.630738  0.000000  1
  P  P16  1  0.369262  0.369262  0.000000  1
  Ir  Ir17  1  0.000000  0.000000  0.000000  1
  Ru  Ru18  1  0.445322  0.000000  0.000000  1
  Ru  Ru19  1  0.000000  0.445322  0.000000  1
  Ru  Ru20  1  0.554678  0.554678  0.000000  1
  Ru  Ru21  1  0.364677  0.494217  0.500000  1
  Ru  Ru22  1  0.505783  0.870460  0.500000  1
  Ru  Ru23  1  0.129540  0.635323  0.500000  1
  Ru  Ru24  1  0.870460  0.505783  0.500000  1
  Ru  Ru25  1  0.635323  0.129540  0.500000  1
  Ru  Ru26  1  0.494217  0.364677  0.500000  1
  Ru  Ru27  1  0.184165  0.373141  0.000000  1
  Ru  Ru28  1  0.626859  0.811025  0.000000  1
  Ru  Ru29  1  0.188975  0.815835  0.000000  1
  Ru  Ru30  1  0.811025  0.626859  0.000000  1
  Ru  Ru31  1  0.815835  0.188975  0.000000  1
  Ru  Ru32  1  0.373141  0.184165  0.000000  1
  Ru  Ru33  1  0.278648  0.000000  0.500000  1
  Ru  Ru34  1  0.000000  0.278648  0.500000  1
  Ru  Ru35  1  0.721352  0.721352  0.500000  1
