# generated using pymatgen
data_PrSmCo17Si8Os
_symmetry_space_group_name_H-M   'P 1'
_cell_length_a   7.95555262
_cell_length_b   8.00727441
_cell_length_c   7.97685629
_cell_angle_alpha   121.88656387
_cell_angle_beta   121.66347736
_cell_angle_gamma   86.97243586
_symmetry_Int_Tables_number   1
_chemical_formula_structural   PrSmCo17Si8Os
_chemical_formula_sum   'Pr1 Sm1 Co17 Si8 Os1'
_cell_volume   349.07453412
_cell_formula_units_Z   1
loop_
 _symmetry_equiv_pos_site_id
 _symmetry_equiv_pos_as_xyz
  1  'x, y, z'
loop_
 _atom_site_type_symbol
 _atom_site_label
 _atom_site_symmetry_multiplicity
 _atom_site_fract_x
 _atom_site_fract_y
 _atom_site_fract_z
 _atom_site_occupancy
  Pr  Pr0  1  0.248922  0.249806  0.999032  1
  Sm  Sm1  1  0.749824  0.750875  0.000920  1
  Co  Co2  1  0.448320  0.949446  0.758560  1
  Co  Co3  1  0.188959  0.691720  0.241437  1
  Co  Co4  1  0.548186  0.042975  0.236168  1
  Co  Co5  1  0.947300  0.190818  0.499083  1
  Co  Co6  1  0.197931  0.928463  0.128853  1
  Co  Co7  1  0.800319  0.069200  0.870345  1
  Co  Co8  1  0.430404  0.699298  0.129576  1
  Co  Co9  1  0.569528  0.300100  0.871132  1
  Co  Co10  1  0.701149  0.573105  0.264146  1
  Co  Co11  1  0.300543  0.430488  0.732240  1
  Co  Co12  1  0.936522  0.808568  0.735821  1
  Co  Co13  1  0.312453  0.549991  0.500949  1
  Co  Co14  1  0.810874  0.307489  0.763710  1
  Co  Co15  1  0.002798  0.502478  0.499937  1
  Co  Co16  1  0.500022  0.000560  0.499984  1
  Co  Co17  1  0.067884  0.197773  0.267778  1
  Co  Co18  1  0.051252  0.810873  0.499064  1
  Si  Si19  1  0.291291  0.789107  0.835084  1
  Si  Si20  1  0.052945  0.546644  0.842642  1
  Si  Si21  1  0.541680  0.716841  0.500657  1
  Si  Si22  1  0.790408  0.953348  0.499058  1
  Si  Si23  1  0.444977  0.285013  0.500621  1
  Si  Si24  1  0.955444  0.454902  0.164970  1
  Si  Si25  1  0.711072  0.203239  0.157717  1
  Si  Si26  1  0.208792  0.046436  0.499041  1
  Os  Os27  1  0.690203  0.450445  0.501473  1
