# generated using pymatgen
data_Nb4TcP4Ru3
_symmetry_space_group_name_H-M   'P 1'
_cell_length_a   3.77176000
_cell_length_b   6.36827036
_cell_length_c   7.22971140
_cell_angle_alpha   89.96174052
_cell_angle_beta   90.00000000
_cell_angle_gamma   90.00000000
_symmetry_Int_Tables_number   1
_chemical_formula_structural   Nb4TcP4Ru3
_chemical_formula_sum   'Nb4 Tc1 P4 Ru3'
_cell_volume   173.65464616
_cell_formula_units_Z   1
loop_
 _symmetry_equiv_pos_site_id
 _symmetry_equiv_pos_as_xyz
  1  'x, y, z'
loop_
 _atom_site_type_symbol
 _atom_site_label
 _atom_site_symmetry_multiplicity
 _atom_site_fract_x
 _atom_site_fract_y
 _atom_site_fract_z
 _atom_site_occupancy
  Nb  Nb0  1  0.250000  0.025181  0.825781  1
  Nb  Nb1  1  0.250000  0.523355  0.671803  1
  Nb  Nb2  1  0.750000  0.977680  0.173305  1
  Nb  Nb3  1  0.750000  0.473674  0.327972  1
  Tc  Tc4  1  0.250000  0.147470  0.440294  1
  P  P5  1  0.250000  0.272773  0.123391  1
  P  P6  1  0.250000  0.771438  0.375159  1
  P  P7  1  0.750000  0.729344  0.876445  1
  P  P8  1  0.750000  0.228780  0.625034  1
  Ru  Ru9  1  0.250000  0.647752  0.060618  1
  Ru  Ru10  1  0.750000  0.849541  0.561705  1
  Ru  Ru11  1  0.750000  0.353013  0.938494  1
