# generated using pymatgen
data_Fe3Co2SbO8
_symmetry_space_group_name_H-M   'P 1'
_cell_length_a   6.10263223
_cell_length_b   6.11480972
_cell_length_c   10.89182841
_cell_angle_alpha   73.68126692
_cell_angle_beta   90.39077785
_cell_angle_gamma   59.93204788
_symmetry_Int_Tables_number   1
_chemical_formula_structural   Fe3Co2SbO8
_chemical_formula_sum   'Fe6 Co4 Sb2 O16'
_cell_volume   332.20575606
_cell_formula_units_Z   2
loop_
 _symmetry_equiv_pos_site_id
 _symmetry_equiv_pos_as_xyz
  1  'x, y, z'
loop_
 _atom_site_type_symbol
 _atom_site_label
 _atom_site_symmetry_multiplicity
 _atom_site_fract_x
 _atom_site_fract_y
 _atom_site_fract_z
 _atom_site_occupancy
  Fe  Fe0  1  0.250000  0.500000  0.750000  1
  Fe  Fe1  1  0.750000  0.000000  0.250000  1
  Fe  Fe2  1  0.250000  0.500000  0.250000  1
  Fe  Fe3  1  0.750000  0.500000  0.250000  1
  Fe  Fe4  1  0.250000  0.000000  0.750000  1
  Fe  Fe5  1  0.750000  0.500000  0.750000  1
  Co  Co6  1  0.686102  0.133620  0.547504  1
  Co  Co7  1  0.813898  0.866380  0.952496  1
  Co  Co8  1  0.187143  0.132248  0.047634  1
  Co  Co9  1  0.312858  0.867752  0.452366  1
  Sb  Sb10  1  0.500525  0.500367  0.000030  1
  Sb  Sb11  1  0.999475  0.499633  0.499971  1
  O  O12  1  0.625010  0.253517  0.353113  1
  O  O13  1  0.125026  0.268873  0.853301  1
  O  O14  1  0.874989  0.746484  0.146887  1
  O  O15  1  0.374973  0.731127  0.646699  1
  O  O16  1  0.398787  0.256694  0.120800  1
  O  O17  1  0.882564  0.273660  0.614703  1
  O  O18  1  0.849707  0.251815  0.120772  1
  O  O19  1  0.348915  0.277403  0.620745  1
  O  O20  1  0.382830  0.728505  0.114871  1
  O  O21  1  0.898195  0.724120  0.621104  1
  O  O22  1  0.650293  0.748185  0.379228  1
  O  O23  1  0.151085  0.722596  0.879255  1
  O  O24  1  0.117170  0.271495  0.385129  1
  O  O25  1  0.601806  0.275880  0.878896  1
  O  O26  1  0.101213  0.743306  0.379201  1
  O  O27  1  0.617435  0.726340  0.885297  1
