# generated using pymatgen
data_Fe2Sb2P6PbO24
_symmetry_space_group_name_H-M   'P 1'
_cell_length_a   8.37915609
_cell_length_b   8.37915672
_cell_length_c   9.10411307
_cell_angle_alpha   117.39905370
_cell_angle_beta   62.60094619
_cell_angle_gamma   120.00000503
_symmetry_Int_Tables_number   1
_chemical_formula_structural   Fe2Sb2P6PbO24
_chemical_formula_sum   'Fe2 Sb2 P6 Pb1 O24'
_cell_volume   468.94512970
_cell_formula_units_Z   1
loop_
 _symmetry_equiv_pos_site_id
 _symmetry_equiv_pos_as_xyz
  1  'x, y, z'
loop_
 _atom_site_type_symbol
 _atom_site_label
 _atom_site_symmetry_multiplicity
 _atom_site_fract_x
 _atom_site_fract_y
 _atom_site_fract_z
 _atom_site_occupancy
  Fe  Fe0  1  0.851411  0.148589  0.445767  1
  Fe  Fe1  1  0.148589  0.851411  0.554233  1
  Sb  Sb2  1  0.650632  0.349367  0.048103  1
  Sb  Sb3  1  0.349367  0.650632  0.951897  1
  P  P4  1  0.250852  0.040840  0.250563  1
  P  P5  1  0.959160  0.460577  0.250563  1
  P  P6  1  0.539423  0.749147  0.250563  1
  P  P7  1  0.460577  0.250853  0.749436  1
  P  P8  1  0.040840  0.539423  0.749436  1
  P  P9  1  0.749147  0.959160  0.749436  1
  Pb  Pb10  1  0.000000  0.000000  0.000000  1
  O  O11  1  0.154906  0.469815  0.094753  1
  O  O12  1  0.530185  0.779843  0.094753  1
  O  O13  1  0.220157  0.845094  0.094753  1
  O  O14  1  0.466396  0.180115  0.199648  1
  O  O15  1  0.819886  0.485930  0.199648  1
  O  O16  1  0.514071  0.533604  0.199648  1
  O  O17  1  0.112211  0.120578  0.266349  1
  O  O18  1  0.879423  0.257983  0.266349  1
  O  O19  1  0.742017  0.887789  0.266349  1
  O  O20  1  0.213606  0.009269  0.415442  1
  O  O21  1  0.990730  0.619778  0.415442  1
  O  O22  1  0.380221  0.786394  0.415442  1
  O  O23  1  0.619778  0.213606  0.584559  1
  O  O24  1  0.009269  0.380222  0.584559  1
  O  O25  1  0.786393  0.990730  0.584559  1
  O  O26  1  0.257982  0.112211  0.733651  1
  O  O27  1  0.120578  0.742018  0.733651  1
  O  O28  1  0.887789  0.879423  0.733651  1
  O  O29  1  0.485930  0.466397  0.800352  1
  O  O30  1  0.180116  0.514071  0.800352  1
  O  O31  1  0.533603  0.819885  0.800352  1
  O  O32  1  0.779843  0.154906  0.905248  1
  O  O33  1  0.469814  0.220157  0.905248  1
  O  O34  1  0.845094  0.530186  0.905248  1
