# generated using pymatgen
data_HoTm2Ga5Ir
_symmetry_space_group_name_H-M   'P 1'
_cell_length_a   6.91096600
_cell_length_b   6.91114776
_cell_length_c   4.24454900
_cell_angle_alpha   90.00000000
_cell_angle_beta   90.00000000
_cell_angle_gamma   119.99913001
_symmetry_Int_Tables_number   1
_chemical_formula_structural   HoTm2Ga5Ir
_chemical_formula_sum   'Ho1 Tm2 Ga5 Ir1'
_cell_volume   175.57186611
_cell_formula_units_Z   1
loop_
 _symmetry_equiv_pos_site_id
 _symmetry_equiv_pos_as_xyz
  1  'x, y, z'
loop_
 _atom_site_type_symbol
 _atom_site_label
 _atom_site_symmetry_multiplicity
 _atom_site_fract_x
 _atom_site_fract_y
 _atom_site_fract_z
 _atom_site_occupancy
  Ho  Ho0  1  0.588448  0.000000  0.000000  1
  Tm  Tm1  1  0.999875  0.589091  0.000000  1
  Tm  Tm2  1  0.410783  0.410909  0.000000  1
  Ga  Ga3  1  0.237107  0.000000  0.500000  1
  Ga  Ga4  1  0.000122  0.237232  0.500000  1
  Ga  Ga5  1  0.762890  0.762768  0.500000  1
  Ga  Ga6  1  0.333080  0.666239  0.500000  1
  Ga  Ga7  1  0.666842  0.333761  0.500000  1
  Ir  Ir8  1  0.000852  0.000000  0.000000  1
