# generated using pymatgen
data_Li2Er3HfIr3
_symmetry_space_group_name_H-M   'P 1'
_cell_length_a   7.22270391
_cell_length_b   7.22270392
_cell_length_c   3.98810100
_cell_angle_alpha   90.00000000
_cell_angle_beta   90.00000000
_cell_angle_gamma   120.24394978
_symmetry_Int_Tables_number   1
_chemical_formula_structural   Li2Er3HfIr3
_chemical_formula_sum   'Li2 Er3 Hf1 Ir3'
_cell_volume   179.73123717
_cell_formula_units_Z   1
loop_
 _symmetry_equiv_pos_site_id
 _symmetry_equiv_pos_as_xyz
  1  'x, y, z'
loop_
 _atom_site_type_symbol
 _atom_site_label
 _atom_site_symmetry_multiplicity
 _atom_site_fract_x
 _atom_site_fract_y
 _atom_site_fract_z
 _atom_site_occupancy
  Li  Li0  1  0.247273  0.997925  0.000000  1
  Li  Li1  1  0.997925  0.247273  0.000000  1
  Er  Er2  1  0.391109  0.391109  0.500000  1
  Er  Er3  1  0.584791  0.009872  0.500000  1
  Er  Er4  1  0.009872  0.584791  0.500000  1
  Hf  Hf5  1  0.755062  0.755062  0.000000  1
  Ir  Ir6  1  0.674353  0.354614  0.000000  1
  Ir  Ir7  1  0.354614  0.674353  0.000000  1
  Ir  Ir8  1  0.985001  0.985001  0.500000  1
