# generated using pymatgen
data_Y10Si16Ge
_symmetry_space_group_name_H-M   'P 1'
_cell_length_a   11.05297494
_cell_length_b   11.04022944
_cell_length_c   11.05297390
_cell_angle_alpha   144.71559259
_cell_angle_beta   135.74981029
_cell_angle_gamma   57.84124356
_symmetry_Int_Tables_number   1
_chemical_formula_structural   Y10Si16Ge
_chemical_formula_sum   'Y10 Si16 Ge1'
_cell_volume   539.02531066
_cell_formula_units_Z   1
loop_
 _symmetry_equiv_pos_site_id
 _symmetry_equiv_pos_as_xyz
  1  'x, y, z'
loop_
 _atom_site_type_symbol
 _atom_site_label
 _atom_site_symmetry_multiplicity
 _atom_site_fract_x
 _atom_site_fract_y
 _atom_site_fract_z
 _atom_site_occupancy
  Y  Y0  1  0.755369  0.759816  0.515563  1
  Y  Y1  1  0.448738  0.963910  0.013448  1
  Y  Y2  1  0.848330  0.367495  0.016008  1
  Y  Y3  1  0.950463  0.963910  0.515172  1
  Y  Y4  1  0.151537  0.166748  0.519341  1
  Y  Y5  1  0.351486  0.367495  0.519164  1
  Y  Y6  1  0.244253  0.759816  0.004448  1
  Y  Y7  1  0.548567  0.561893  0.509043  1
  Y  Y8  1  0.052849  0.561893  0.013326  1
  Y  Y9  1  0.647408  0.166748  0.015212  1
  Si  Si10  1  0.199402  0.577479  0.378075  1
  Si  Si11  1  0.000178  0.081539  0.081361  1
  Si  Si12  1  0.698945  0.290059  0.591114  1
  Si  Si13  1  0.800719  0.180200  0.379482  1
  Si  Si14  1  0.895730  0.504804  0.609073  1
  Si  Si15  1  0.417672  0.872526  0.454855  1
  Si  Si16  1  0.104324  0.713114  0.608790  1
  Si  Si17  1  0.300780  0.896422  0.595642  1
  Si  Si18  1  0.581475  0.037884  0.456409  1
  Si  Si19  1  0.999874  0.430965  0.431091  1
  Si  Si20  1  0.880600  0.843188  0.962589  1
  Si  Si21  1  0.399822  0.500423  0.100601  1
  Si  Si22  1  0.120286  0.084755  0.964469  1
  Si  Si23  1  0.285634  0.241108  0.955475  1
  Si  Si24  1  0.499620  0.387780  0.888160  1
  Si  Si25  1  0.598678  0.701628  0.102950  1
  Ge  Ge26  1  0.717260  0.677898  0.960638  1
