# generated using pymatgen
data_Mn3(SeF)2
_symmetry_space_group_name_H-M   'P 1'
_cell_length_a   7.17250225
_cell_length_b   7.17250258
_cell_length_c   7.17250300
_cell_angle_alpha   109.47121898
_cell_angle_beta   109.47121993
_cell_angle_gamma   109.47122039
_symmetry_Int_Tables_number   1
_chemical_formula_structural   Mn3(SeF)2
_chemical_formula_sum   'Mn6 Se4 F4'
_cell_volume   284.04704022
_cell_formula_units_Z   2
loop_
 _symmetry_equiv_pos_site_id
 _symmetry_equiv_pos_as_xyz
  1  'x, y, z'
loop_
 _atom_site_type_symbol
 _atom_site_label
 _atom_site_symmetry_multiplicity
 _atom_site_fract_x
 _atom_site_fract_y
 _atom_site_fract_z
 _atom_site_occupancy
  Mn  Mn0  1  0.749999  0.814991  0.064991  1
  Mn  Mn1  1  0.685010  0.435009  0.250000  1
  Mn  Mn2  1  0.250000  0.685010  0.435009  1
  Mn  Mn3  1  0.435009  0.250000  0.685010  1
  Mn  Mn4  1  0.814991  0.064991  0.749999  1
  Mn  Mn5  1  0.064991  0.749999  0.814991  1
  Se  Se6  1  0.955818  0.499999  0.000000  1
  Se  Se7  1  0.000000  0.955818  0.499999  1
  Se  Se8  1  0.544182  0.544182  0.544182  1
  Se  Se9  1  0.499999  0.000000  0.955818  1
  F  F10  1  0.497616  0.500000  0.000000  1
  F  F11  1  0.002384  0.002384  0.002384  1
  F  F12  1  0.500000  0.000000  0.497616  1
  F  F13  1  0.000000  0.497616  0.500000  1
