# generated using pymatgen
data_Eu3YH10
_symmetry_space_group_name_H-M   'P 1'
_cell_length_a   6.59722357
_cell_length_b   6.59722419
_cell_length_c   6.59722293
_cell_angle_alpha   131.10472844
_cell_angle_beta   131.11143820
_cell_angle_gamma   71.64142006
_symmetry_Int_Tables_number   1
_chemical_formula_structural   Eu3YH10
_chemical_formula_sum   'Eu3 Y1 H10'
_cell_volume   159.49215747
_cell_formula_units_Z   1
loop_
 _symmetry_equiv_pos_site_id
 _symmetry_equiv_pos_as_xyz
  1  'x, y, z'
loop_
 _atom_site_type_symbol
 _atom_site_label
 _atom_site_symmetry_multiplicity
 _atom_site_fract_x
 _atom_site_fract_y
 _atom_site_fract_z
 _atom_site_occupancy
  Eu  Eu0  1  0.764634  0.764634  0.000000  1
  Eu  Eu1  1  0.986354  0.486354  0.500000  1
  Eu  Eu2  1  0.236977  0.236977  0.000000  1
  Y  Y3  1  0.515962  0.015962  0.500000  1
  H  H4  1  0.380095  0.391904  0.530659  1
  H  H5  1  0.861244  0.849436  0.469341  1
  H  H6  1  0.592102  0.120474  0.953953  1
  H  H7  1  0.166521  0.638149  0.046047  1
  H  H8  1  0.380095  0.849436  0.988191  1
  H  H9  1  0.861244  0.391904  0.011809  1
  H  H10  1  0.592102  0.638149  0.471628  1
  H  H11  1  0.166521  0.120474  0.528372  1
  H  H12  1  0.745446  0.245446  0.500000  1
  H  H13  1  0.000702  0.000702  0.000000  1
