# generated using pymatgen
data_Li4Tb3ErPt4
_symmetry_space_group_name_H-M   'P 1'
_cell_length_a   4.00590500
_cell_length_b   7.07113132
_cell_length_c   8.39942349
_cell_angle_alpha   90.16092103
_cell_angle_beta   90.00000000
_cell_angle_gamma   90.00000000
_symmetry_Int_Tables_number   1
_chemical_formula_structural   Li4Tb3ErPt4
_chemical_formula_sum   'Li4 Tb3 Er1 Pt4'
_cell_volume   237.92348568
_cell_formula_units_Z   1
loop_
 _symmetry_equiv_pos_site_id
 _symmetry_equiv_pos_as_xyz
  1  'x, y, z'
loop_
 _atom_site_type_symbol
 _atom_site_label
 _atom_site_symmetry_multiplicity
 _atom_site_fract_x
 _atom_site_fract_y
 _atom_site_fract_z
 _atom_site_occupancy
  Li  Li0  1  0.250000  0.629978  0.560828  1
  Li  Li1  1  0.250000  0.132014  0.939327  1
  Li  Li2  1  0.750000  0.369453  0.440581  1
  Li  Li3  1  0.750000  0.867970  0.059513  1
  Tb  Tb4  1  0.250000  0.042340  0.317410  1
  Tb  Tb5  1  0.250000  0.541934  0.181672  1
  Tb  Tb6  1  0.750000  0.958777  0.683919  1
  Er  Er7  1  0.750000  0.457725  0.817904  1
  Pt  Pt8  1  0.250000  0.251037  0.623856  1
  Pt  Pt9  1  0.250000  0.745139  0.877130  1
  Pt  Pt10  1  0.750000  0.751988  0.378652  1
  Pt  Pt11  1  0.750000  0.251647  0.119207  1
