# generated using pymatgen
data_Zr4TiBPb3
_symmetry_space_group_name_H-M   'P 1'
_cell_length_a   8.63135400
_cell_length_b   8.63135364
_cell_length_c   5.81775400
_cell_angle_alpha   90.00000000
_cell_angle_beta   90.00000000
_cell_angle_gamma   119.99999370
_symmetry_Int_Tables_number   1
_chemical_formula_structural   Zr4TiBPb3
_chemical_formula_sum   'Zr8 Ti2 B2 Pb6'
_cell_volume   375.35642356
_cell_formula_units_Z   2
loop_
 _symmetry_equiv_pos_site_id
 _symmetry_equiv_pos_as_xyz
  1  'x, y, z'
loop_
 _atom_site_type_symbol
 _atom_site_label
 _atom_site_symmetry_multiplicity
 _atom_site_fract_x
 _atom_site_fract_y
 _atom_site_fract_z
 _atom_site_occupancy
  Zr  Zr0  1  0.333333  0.666667  0.500000  1
  Zr  Zr1  1  0.666667  0.333333  0.500000  1
  Zr  Zr2  1  0.774546  0.774546  0.748179  1
  Zr  Zr3  1  0.225454  0.000000  0.748179  1
  Zr  Zr4  1  0.000000  0.225454  0.748179  1
  Zr  Zr5  1  0.225454  0.225454  0.251821  1
  Zr  Zr6  1  0.774546  0.000000  0.251821  1
  Zr  Zr7  1  0.000000  0.774546  0.251821  1
  Ti  Ti8  1  0.666667  0.333333  0.000000  1
  Ti  Ti9  1  0.333333  0.666667  0.000000  1
  B  B10  1  0.000000  0.000000  0.000000  1
  B  B11  1  0.000000  0.000000  0.500000  1
  Pb  Pb12  1  0.400959  0.400959  0.758513  1
  Pb  Pb13  1  0.599041  0.000000  0.758513  1
  Pb  Pb14  1  0.000000  0.599041  0.758513  1
  Pb  Pb15  1  0.599041  0.599041  0.241487  1
  Pb  Pb16  1  0.400959  0.000000  0.241487  1
  Pb  Pb17  1  0.000000  0.400959  0.241487  1
