# generated using pymatgen
data_YZn3PdAu
_symmetry_space_group_name_H-M   'P 1'
_cell_length_a   5.23606329
_cell_length_b   5.23606415
_cell_length_c   5.24710132
_cell_angle_alpha   60.06955225
_cell_angle_beta   60.06954761
_cell_angle_gamma   59.99998522
_symmetry_Int_Tables_number   1
_chemical_formula_structural   YZn3PdAu
_chemical_formula_sum   'Y1 Zn3 Pd1 Au1'
_cell_volume   101.82865361
_cell_formula_units_Z   1
loop_
 _symmetry_equiv_pos_site_id
 _symmetry_equiv_pos_as_xyz
  1  'x, y, z'
loop_
 _atom_site_type_symbol
 _atom_site_label
 _atom_site_symmetry_multiplicity
 _atom_site_fract_x
 _atom_site_fract_y
 _atom_site_fract_z
 _atom_site_occupancy
  Y  Y0  1  0.998794  0.998794  0.003617  1
  Zn  Zn1  1  0.624149  0.130956  0.620746  1
  Zn  Zn2  1  0.130956  0.624149  0.620746  1
  Zn  Zn3  1  0.624149  0.624149  0.620746  1
  Pd  Pd4  1  0.627534  0.627534  0.117400  1
  Au  Au5  1  0.244418  0.244418  0.266747  1
