# generated using pymatgen
data_Ho10Bi4OsPt
_symmetry_space_group_name_H-M   'P 1'
_cell_length_a   7.99032662
_cell_length_b   9.01445200
_cell_length_c   12.43462302
_cell_angle_alpha   90.00000000
_cell_angle_beta   90.36830147
_cell_angle_gamma   90.00000000
_symmetry_Int_Tables_number   1
_chemical_formula_structural   Ho10Bi4OsPt
_chemical_formula_sum   'Ho20 Bi8 Os2 Pt2'
_cell_volume   895.62769280
_cell_formula_units_Z   2
loop_
 _symmetry_equiv_pos_site_id
 _symmetry_equiv_pos_as_xyz
  1  'x, y, z'
loop_
 _atom_site_type_symbol
 _atom_site_label
 _atom_site_symmetry_multiplicity
 _atom_site_fract_x
 _atom_site_fract_y
 _atom_site_fract_z
 _atom_site_occupancy
  Ho  Ho0  1  0.832345  0.750000  0.784844  1
  Ho  Ho1  1  0.167655  0.250000  0.215156  1
  Ho  Ho2  1  0.343868  0.250000  0.703545  1
  Ho  Ho3  1  0.656132  0.750000  0.296455  1
  Ho  Ho4  1  0.378725  0.750000  0.695060  1
  Ho  Ho5  1  0.621275  0.250000  0.304940  1
  Ho  Ho6  1  0.875430  0.250000  0.807555  1
  Ho  Ho7  1  0.124570  0.750000  0.192445  1
  Ho  Ho8  1  0.943600  0.750000  0.502911  1
  Ho  Ho9  1  0.056400  0.250000  0.497089  1
  Ho  Ho10  1  0.451097  0.250000  0.000284  1
  Ho  Ho11  1  0.548903  0.750000  0.999716  1
  Ho  Ho12  1  0.675046  0.043104  0.563301  1
  Ho  Ho13  1  0.324954  0.956896  0.436699  1
  Ho  Ho14  1  0.179127  0.956790  0.932434  1
  Ho  Ho15  1  0.324954  0.543104  0.436699  1
  Ho  Ho16  1  0.820873  0.043210  0.067566  1
  Ho  Ho17  1  0.675046  0.456896  0.563301  1
  Ho  Ho18  1  0.820873  0.456790  0.067566  1
  Ho  Ho19  1  0.179127  0.543210  0.932434  1
  Bi  Bi20  1  0.570337  0.488695  0.828902  1
  Bi  Bi21  1  0.429663  0.511305  0.171098  1
  Bi  Bi22  1  0.067487  0.507707  0.674387  1
  Bi  Bi23  1  0.429663  0.988695  0.171098  1
  Bi  Bi24  1  0.932513  0.492293  0.325613  1
  Bi  Bi25  1  0.570337  0.011305  0.828902  1
  Bi  Bi26  1  0.932513  0.007707  0.325613  1
  Bi  Bi27  1  0.067487  0.992293  0.674387  1
  Os  Os28  1  0.577058  0.750000  0.513651  1
  Os  Os29  1  0.422942  0.250000  0.486349  1
  Pt  Pt30  1  0.073257  0.250000  0.993218  1
  Pt  Pt31  1  0.926743  0.750000  0.006782  1
