# generated using pymatgen
data_Yb4ZrIr2
_symmetry_space_group_name_H-M   'P 1'
_cell_length_a   6.54053113
_cell_length_b   7.10691459
_cell_length_c   8.55151379
_cell_angle_alpha   97.38686654
_cell_angle_beta   112.48362756
_cell_angle_gamma   89.99999898
_symmetry_Int_Tables_number   1
_chemical_formula_structural   Yb4ZrIr2
_chemical_formula_sum   'Yb8 Zr2 Ir4'
_cell_volume   363.71261182
_cell_formula_units_Z   2
loop_
 _symmetry_equiv_pos_site_id
 _symmetry_equiv_pos_as_xyz
  1  'x, y, z'
loop_
 _atom_site_type_symbol
 _atom_site_label
 _atom_site_symmetry_multiplicity
 _atom_site_fract_x
 _atom_site_fract_y
 _atom_site_fract_z
 _atom_site_occupancy
  Yb  Yb0  1  0.968238  0.927401  0.170047  1
  Yb  Yb1  1  0.798190  0.572599  0.829953  1
  Yb  Yb2  1  0.031762  0.072599  0.829953  1
  Yb  Yb3  1  0.201810  0.427401  0.170047  1
  Yb  Yb4  1  0.635636  0.814736  0.430862  1
  Yb  Yb5  1  0.204774  0.685264  0.569138  1
  Yb  Yb6  1  0.364364  0.185264  0.569138  1
  Yb  Yb7  1  0.795226  0.314736  0.430862  1
  Zr  Zr8  1  0.444939  0.750000  0.000000  1
  Zr  Zr9  1  0.555061  0.250000  0.000000  1
  Ir  Ir10  1  0.792951  0.567053  0.195386  1
  Ir  Ir11  1  0.597565  0.932947  0.804614  1
  Ir  Ir12  1  0.207050  0.432947  0.804614  1
  Ir  Ir13  1  0.402435  0.067053  0.195386  1
