# generated using pymatgen
data_Hf9NiMo3W
_symmetry_space_group_name_H-M   'P 1'
_cell_length_a   8.47521100
_cell_length_b   8.68098771
_cell_length_c   8.68103027
_cell_angle_alpha   119.99823230
_cell_angle_beta   90.00000000
_cell_angle_gamma   90.00000000
_symmetry_Int_Tables_number   1
_chemical_formula_structural   Hf9NiMo3W
_chemical_formula_sum   'Hf18 Ni2 Mo6 W2'
_cell_volume   553.13265488
_cell_formula_units_Z   2
loop_
 _symmetry_equiv_pos_site_id
 _symmetry_equiv_pos_as_xyz
  1  'x, y, z'
loop_
 _atom_site_type_symbol
 _atom_site_label
 _atom_site_symmetry_multiplicity
 _atom_site_fract_x
 _atom_site_fract_y
 _atom_site_fract_z
 _atom_site_occupancy
  Hf  Hf0  1  0.557145  0.800047  0.600085  1
  Hf  Hf1  1  0.557139  0.800059  0.199940  1
  Hf  Hf2  1  0.557141  0.399915  0.199952  1
  Hf  Hf3  1  0.442855  0.199953  0.399915  1
  Hf  Hf4  1  0.442861  0.199941  0.800060  1
  Hf  Hf5  1  0.442859  0.600085  0.800048  1
  Hf  Hf6  1  0.057145  0.199953  0.399915  1
  Hf  Hf7  1  0.057139  0.199941  0.800060  1
  Hf  Hf8  1  0.057141  0.600085  0.800048  1
  Hf  Hf9  1  0.942855  0.800047  0.600085  1
  Hf  Hf10  1  0.942861  0.800059  0.199940  1
  Hf  Hf11  1  0.942859  0.399915  0.199952  1
  Hf  Hf12  1  0.750000  0.457374  0.914751  1
  Hf  Hf13  1  0.750000  0.457377  0.542627  1
  Hf  Hf14  1  0.750000  0.085249  0.542628  1
  Hf  Hf15  1  0.250000  0.542626  0.085249  1
  Hf  Hf16  1  0.250000  0.542623  0.457373  1
  Hf  Hf17  1  0.250000  0.914751  0.457372  1
  Ni  Ni18  1  0.750000  0.666674  0.333325  1
  Ni  Ni19  1  0.250000  0.333326  0.666675  1
  Mo  Mo20  1  0.750000  0.112282  0.224514  1
  Mo  Mo21  1  0.750000  0.112275  0.887724  1
  Mo  Mo22  1  0.750000  0.775483  0.887716  1
  Mo  Mo23  1  0.250000  0.887718  0.775486  1
  Mo  Mo24  1  0.250000  0.887725  0.112276  1
  Mo  Mo25  1  0.250000  0.224517  0.112284  1
  W  W26  1  0.500000  0.000000  0.000000  1
  W  W27  1  0.000000  0.000000  0.000000  1
