# generated using pymatgen
data_Er3TmOsRu7
_symmetry_space_group_name_H-M   'P 1'
_cell_length_a   5.30125929
_cell_length_b   5.22172420
_cell_length_c   8.85486200
_cell_angle_alpha   90.00096422
_cell_angle_beta   89.99816254
_cell_angle_gamma   120.27918707
_symmetry_Int_Tables_number   1
_chemical_formula_structural   Er3TmOsRu7
_chemical_formula_sum   'Er3 Tm1 Os1 Ru7'
_cell_volume   211.67848969
_cell_formula_units_Z   1
loop_
 _symmetry_equiv_pos_site_id
 _symmetry_equiv_pos_as_xyz
  1  'x, y, z'
loop_
 _atom_site_type_symbol
 _atom_site_label
 _atom_site_symmetry_multiplicity
 _atom_site_fract_x
 _atom_site_fract_y
 _atom_site_fract_z
 _atom_site_occupancy
  Er  Er0  1  0.668128  0.335853  0.566726  1
  Er  Er1  1  0.333525  0.667454  0.432785  1
  Er  Er2  1  0.333541  0.667439  0.067102  1
  Tm  Tm3  1  0.668176  0.335939  0.933282  1
  Os  Os4  1  0.167126  0.334551  0.750273  1
  Ru  Ru5  1  0.003975  0.007486  0.499651  1
  Ru  Ru6  1  0.003981  0.007468  0.000193  1
  Ru  Ru7  1  0.169015  0.822486  0.750233  1
  Ru  Ru8  1  0.652928  0.822319  0.750198  1
  Ru  Ru9  1  0.828411  0.656463  0.249855  1
  Ru  Ru10  1  0.828834  0.170999  0.249858  1
  Ru  Ru11  1  0.342359  0.171544  0.249844  1
