# generated using pymatgen
data_Tb4Co9B4Os
_symmetry_space_group_name_H-M   'P 1'
_cell_length_a   5.09669800
_cell_length_b   5.09669718
_cell_length_c   20.16879100
_cell_angle_alpha   90.00000000
_cell_angle_beta   90.00000000
_cell_angle_gamma   120.00000530
_symmetry_Int_Tables_number   1
_chemical_formula_structural   Tb4Co9B4Os
_chemical_formula_sum   'Tb8 Co18 B8 Os2'
_cell_volume   453.72029498
_cell_formula_units_Z   2
loop_
 _symmetry_equiv_pos_site_id
 _symmetry_equiv_pos_as_xyz
  1  'x, y, z'
loop_
 _atom_site_type_symbol
 _atom_site_label
 _atom_site_symmetry_multiplicity
 _atom_site_fract_x
 _atom_site_fract_y
 _atom_site_fract_z
 _atom_site_occupancy
  Tb  Tb0  1  0.666667  0.333333  0.824601  1
  Tb  Tb1  1  0.666667  0.333333  0.977193  1
  Tb  Tb2  1  0.333333  0.666667  0.477193  1
  Tb  Tb3  1  0.333333  0.666667  0.022807  1
  Tb  Tb4  1  0.333333  0.666667  0.175399  1
  Tb  Tb5  1  0.666667  0.333333  0.522807  1
  Tb  Tb6  1  0.666667  0.333333  0.675399  1
  Tb  Tb7  1  0.333333  0.666667  0.324601  1
  Co  Co8  1  0.164075  0.328148  0.892508  1
  Co  Co9  1  0.164075  0.835925  0.607492  1
  Co  Co10  1  0.835925  0.164075  0.392508  1
  Co  Co11  1  0.333897  0.166949  0.250000  1
  Co  Co12  1  0.328148  0.164075  0.392508  1
  Co  Co13  1  0.835925  0.671852  0.107492  1
  Co  Co14  1  0.835925  0.671852  0.392508  1
  Co  Co15  1  0.833051  0.666103  0.250000  1
  Co  Co16  1  0.671852  0.835925  0.607492  1
  Co  Co17  1  0.666103  0.833051  0.750000  1
  Co  Co18  1  0.835925  0.164075  0.107492  1
  Co  Co19  1  0.671852  0.835925  0.892508  1
  Co  Co20  1  0.166949  0.333897  0.750000  1
  Co  Co21  1  0.166949  0.833051  0.750000  1
  Co  Co22  1  0.833051  0.166949  0.250000  1
  Co  Co23  1  0.328148  0.164075  0.107492  1
  Co  Co24  1  0.164075  0.835925  0.892508  1
  Co  Co25  1  0.164075  0.328148  0.607492  1
  B  B26  1  0.333333  0.666667  0.823273  1
  B  B27  1  0.333333  0.666667  0.676727  1
  B  B28  1  0.666667  0.333333  0.323273  1
  B  B29  1  0.000000  0.000000  0.822094  1
  B  B30  1  0.666667  0.333333  0.176727  1
  B  B31  1  0.000000  0.000000  0.677906  1
  B  B32  1  0.000000  0.000000  0.322094  1
  B  B33  1  0.000000  0.000000  0.177906  1
  Os  Os34  1  0.000000  0.000000  0.000000  1
  Os  Os35  1  0.000000  0.000000  0.500000  1
