# generated using pymatgen
data_Rb2Cu3(PO3)8
_symmetry_space_group_name_H-M   'P 1'
_cell_length_a   7.36002816
_cell_length_b   8.29871845
_cell_length_c   9.96574266
_cell_angle_alpha   68.40794202
_cell_angle_beta   69.95142319
_cell_angle_gamma   80.72937851
_symmetry_Int_Tables_number   1
_chemical_formula_structural   Rb2Cu3(PO3)8
_chemical_formula_sum   'Rb2 Cu3 P8 O24'
_cell_volume   531.25912791
_cell_formula_units_Z   1
loop_
 _symmetry_equiv_pos_site_id
 _symmetry_equiv_pos_as_xyz
  1  'x, y, z'
loop_
 _atom_site_type_symbol
 _atom_site_label
 _atom_site_symmetry_multiplicity
 _atom_site_fract_x
 _atom_site_fract_y
 _atom_site_fract_z
 _atom_site_occupancy
  Rb  Rb0  1  0.725773  0.165974  0.953396  1
  Rb  Rb1  1  0.274227  0.834026  0.046604  1
  Cu  Cu2  1  0.000000  0.500000  0.000000  1
  Cu  Cu3  1  0.634808  0.054954  0.596802  1
  Cu  Cu4  1  0.365192  0.945046  0.403198  1
  P  P5  1  0.624021  0.384526  0.290404  1
  P  P6  1  0.375979  0.615474  0.709596  1
  P  P7  1  0.270526  0.342069  0.231355  1
  P  P8  1  0.729474  0.657931  0.768645  1
  P  P9  1  0.062304  0.196080  0.560062  1
  P  P10  1  0.937696  0.803920  0.439938  1
  P  P11  1  0.263296  0.262745  0.757407  1
  P  P12  1  0.736704  0.737255  0.242593  1
  O  O13  1  0.451694  0.446938  0.212273  1
  O  O14  1  0.548306  0.553062  0.787727  1
  O  O15  1  0.118420  0.341333  0.391292  1
  O  O16  1  0.881580  0.658667  0.608708  1
  O  O17  1  0.140895  0.287076  0.646015  1
  O  O18  1  0.859105  0.712924  0.353985  1
  O  O19  1  0.368782  0.446019  0.671675  1
  O  O20  1  0.631218  0.553981  0.328325  1
  O  O21  1  0.810087  0.350020  0.178247  1
  O  O22  1  0.189913  0.649980  0.821753  1
  O  O23  1  0.546741  0.239449  0.436326  1
  O  O24  1  0.453259  0.760551  0.563674  1
  O  O25  1  0.191404  0.465011  0.108927  1
  O  O26  1  0.808596  0.534989  0.891073  1
  O  O27  1  0.337231  0.160859  0.229767  1
  O  O28  1  0.662769  0.839141  0.770233  1
  O  O29  1  0.172501  0.027264  0.557119  1
  O  O30  1  0.827499  0.972736  0.442881  1
  O  O31  1  0.847441  0.197503  0.627784  1
  O  O32  1  0.152559  0.802497  0.372216  1
  O  O33  1  0.129641  0.246651  0.913201  1
  O  O34  1  0.870359  0.753349  0.086799  1
  O  O35  1  0.417675  0.118131  0.752863  1
  O  O36  1  0.582325  0.881869  0.247137  1
