# generated using pymatgen
data_SmSb(TeO4)2
_symmetry_space_group_name_H-M   'P 1'
_cell_length_a   6.96491734
_cell_length_b   6.96491714
_cell_length_c   10.32176296
_cell_angle_alpha   66.36799737
_cell_angle_beta   66.36799714
_cell_angle_gamma   48.75588245
_symmetry_Int_Tables_number   1
_chemical_formula_structural   SmSb(TeO4)2
_chemical_formula_sum   'Sm2 Sb2 Te4 O16'
_cell_volume   338.06642878
_cell_formula_units_Z   2
loop_
 _symmetry_equiv_pos_site_id
 _symmetry_equiv_pos_as_xyz
  1  'x, y, z'
loop_
 _atom_site_type_symbol
 _atom_site_label
 _atom_site_symmetry_multiplicity
 _atom_site_fract_x
 _atom_site_fract_y
 _atom_site_fract_z
 _atom_site_occupancy
  Sm  Sm0  1  0.431320  0.568680  0.750000  1
  Sm  Sm1  1  0.568680  0.431320  0.250000  1
  Sb  Sb2  1  0.000000  0.000000  0.500000  1
  Sb  Sb3  1  0.000000  0.000000  0.000000  1
  Te  Te4  1  0.696398  0.876735  0.853094  1
  Te  Te5  1  0.876735  0.696398  0.353094  1
  Te  Te6  1  0.123265  0.303602  0.646906  1
  Te  Te7  1  0.303602  0.123265  0.146906  1
  O  O8  1  0.992625  0.794026  0.907520  1
  O  O9  1  0.794026  0.992625  0.407520  1
  O  O10  1  0.346729  0.861841  0.869449  1
  O  O11  1  0.786994  0.572632  0.586389  1
  O  O12  1  0.851132  0.309079  0.835126  1
  O  O13  1  0.861841  0.346729  0.369449  1
  O  O14  1  0.572632  0.786994  0.086389  1
  O  O15  1  0.309079  0.851132  0.335126  1
  O  O16  1  0.690921  0.148868  0.664874  1
  O  O17  1  0.427368  0.213006  0.913611  1
  O  O18  1  0.138159  0.653271  0.630551  1
  O  O19  1  0.148868  0.690921  0.164874  1
  O  O20  1  0.213006  0.427368  0.413611  1
  O  O21  1  0.653271  0.138159  0.130551  1
  O  O22  1  0.205974  0.007375  0.592480  1
  O  O23  1  0.007375  0.205974  0.092480  1
