# generated using pymatgen
data_HoEr4Tm11InAg3Rh4
_symmetry_space_group_name_H-M   'P 1'
_cell_length_a   9.48420053
_cell_length_b   9.48285971
_cell_length_c   9.46925209
_cell_angle_alpha   59.66450449
_cell_angle_beta   59.62063938
_cell_angle_gamma   59.68609894
_symmetry_Int_Tables_number   1
_chemical_formula_structural   HoEr4Tm11InAg3Rh4
_chemical_formula_sum   'Ho1 Er4 Tm11 In1 Ag3 Rh4'
_cell_volume   597.50757047
_cell_formula_units_Z   1
loop_
 _symmetry_equiv_pos_site_id
 _symmetry_equiv_pos_as_xyz
  1  'x, y, z'
loop_
 _atom_site_type_symbol
 _atom_site_label
 _atom_site_symmetry_multiplicity
 _atom_site_fract_x
 _atom_site_fract_y
 _atom_site_fract_z
 _atom_site_occupancy
  Ho  Ho0  1  0.063402  0.063627  0.438538  1
  Er  Er1  1  0.435765  0.062426  0.438131  1
  Er  Er2  1  0.061371  0.435060  0.069544  1
  Er  Er3  1  0.052366  0.647618  0.650093  1
  Er  Er4  1  0.435366  0.435012  0.068004  1
  Tm  Tm5  1  0.647685  0.052601  0.649745  1
  Tm  Tm6  1  0.189279  0.813837  0.187775  1
  Tm  Tm7  1  0.190317  0.190277  0.811611  1
  Tm  Tm8  1  0.812374  0.812443  0.187828  1
  Tm  Tm9  1  0.435954  0.060820  0.068248  1
  Tm  Tm10  1  0.813590  0.188980  0.188174  1
  Tm  Tm11  1  0.062629  0.436197  0.438269  1
  Tm  Tm12  1  0.809654  0.189849  0.812379  1
  Tm  Tm13  1  0.189658  0.809886  0.812980  1
  Tm  Tm14  1  0.649049  0.648494  0.051395  1
  Tm  Tm15  1  0.648120  0.647736  0.648950  1
  In  In16  1  0.420776  0.421131  0.737973  1
  Ag  Ag17  1  0.418504  0.418100  0.414827  1
  Ag  Ag18  1  0.748938  0.417590  0.414753  1
  Ag  Ag19  1  0.418157  0.749170  0.413620  1
  Rh  Rh20  1  0.855734  0.856111  0.428572  1
  Rh  Rh21  1  0.856733  0.858639  0.856993  1
  Rh  Rh22  1  0.428459  0.856783  0.855693  1
  Rh  Rh23  1  0.856125  0.427612  0.855906  1
