# generated using pymatgen
data_Dy5Ho7(CoTc)2
_symmetry_space_group_name_H-M   'P 1'
_cell_length_a   6.29190514
_cell_length_b   7.18231007
_cell_length_c   9.18380718
_cell_angle_alpha   89.98989578
_cell_angle_beta   89.97998749
_cell_angle_gamma   89.98693648
_symmetry_Int_Tables_number   1
_chemical_formula_structural   Dy5Ho7(CoTc)2
_chemical_formula_sum   'Dy5 Ho7 Co2 Tc2'
_cell_volume   415.02000263
_cell_formula_units_Z   1
loop_
 _symmetry_equiv_pos_site_id
 _symmetry_equiv_pos_as_xyz
  1  'x, y, z'
loop_
 _atom_site_type_symbol
 _atom_site_label
 _atom_site_symmetry_multiplicity
 _atom_site_fract_x
 _atom_site_fract_y
 _atom_site_fract_z
 _atom_site_occupancy
  Dy  Dy0  1  0.668145  0.173375  0.063753  1
  Dy  Dy1  1  0.370931  0.546939  0.250060  1
  Dy  Dy2  1  0.143427  0.040579  0.250088  1
  Dy  Dy3  1  0.871064  0.953053  0.749940  1
  Dy  Dy4  1  0.643362  0.459391  0.749937  1
  Ho  Ho5  1  0.823248  0.681473  0.433221  1
  Ho  Ho6  1  0.323156  0.818476  0.933166  1
  Ho  Ho7  1  0.168128  0.326730  0.563801  1
  Ho  Ho8  1  0.668127  0.173280  0.436306  1
  Ho  Ho9  1  0.168111  0.326753  0.936131  1
  Ho  Ho10  1  0.323211  0.818554  0.566794  1
  Ho  Ho11  1  0.823317  0.681401  0.066802  1
  Co  Co12  1  0.540621  0.885483  0.250056  1
  Co  Co13  1  0.040661  0.614444  0.750018  1
  Tc  Tc14  1  0.962363  0.391084  0.250066  1
  Tc  Tc15  1  0.462129  0.108985  0.749861  1
