# generated using pymatgen
data_RbMnAsO4
_symmetry_space_group_name_H-M   'P 1'
_cell_length_a   5.79790300
_cell_length_b   9.30386242
_cell_length_c   9.57880229
_cell_angle_alpha   90.34889833
_cell_angle_beta   90.00000000
_cell_angle_gamma   90.00000000
_symmetry_Int_Tables_number   1
_chemical_formula_structural   RbMnAsO4
_chemical_formula_sum   'Rb4 Mn4 As4 O16'
_cell_volume   516.69871597
_cell_formula_units_Z   4
loop_
 _symmetry_equiv_pos_site_id
 _symmetry_equiv_pos_as_xyz
  1  'x, y, z'
loop_
 _atom_site_type_symbol
 _atom_site_label
 _atom_site_symmetry_multiplicity
 _atom_site_fract_x
 _atom_site_fract_y
 _atom_site_fract_z
 _atom_site_occupancy
  Rb  Rb0  1  0.781098  0.501545  0.683607  1
  Rb  Rb1  1  0.281098  0.498455  0.316393  1
  Rb  Rb2  1  0.268568  0.991628  0.196843  1
  Rb  Rb3  1  0.768568  0.008372  0.803157  1
  Mn  Mn4  1  0.792682  0.677549  0.092187  1
  Mn  Mn5  1  0.292682  0.322451  0.907813  1
  Mn  Mn6  1  0.745028  0.171906  0.425583  1
  Mn  Mn7  1  0.245028  0.828094  0.574417  1
  As  As8  1  0.788808  0.304288  0.098935  1
  As  As9  1  0.288808  0.695712  0.901065  1
  As  As10  1  0.254750  0.198629  0.572960  1
  As  As11  1  0.754750  0.801371  0.427040  1
  O  O12  1  0.199207  0.183151  0.748952  1
  O  O13  1  0.699207  0.816849  0.251048  1
  O  O14  1  0.032039  0.288421  0.491691  1
  O  O15  1  0.532039  0.711579  0.508309  1
  O  O16  1  0.507074  0.291691  0.542563  1
  O  O17  1  0.007074  0.708309  0.457437  1
  O  O18  1  0.291717  0.032343  0.496246  1
  O  O19  1  0.791717  0.967657  0.503754  1
  O  O20  1  0.643034  0.286024  0.942171  1
  O  O21  1  0.143034  0.713976  0.057829  1
  O  O22  1  0.079848  0.270888  0.074055  1
  O  O23  1  0.579848  0.729112  0.925945  1
  O  O24  1  0.247343  0.526584  0.830972  1
  O  O25  1  0.747343  0.473416  0.169028  1
  O  O26  1  0.181703  0.820641  0.786130  1
  O  O27  1  0.681703  0.179359  0.213870  1
