# generated using pymatgen
data_La14CuIrRh4
_symmetry_space_group_name_H-M   'P 1'
_cell_length_a   6.58625185
_cell_length_b   10.29885135
_cell_length_c   10.30565500
_cell_angle_alpha   120.18351205
_cell_angle_beta   89.81359977
_cell_angle_gamma   90.12804766
_symmetry_Int_Tables_number   1
_chemical_formula_structural   La14CuIrRh4
_chemical_formula_sum   'La14 Cu1 Ir1 Rh4'
_cell_volume   604.26144636
_cell_formula_units_Z   1
loop_
 _symmetry_equiv_pos_site_id
 _symmetry_equiv_pos_as_xyz
  1  'x, y, z'
loop_
 _atom_site_type_symbol
 _atom_site_label
 _atom_site_symmetry_multiplicity
 _atom_site_fract_x
 _atom_site_fract_y
 _atom_site_fract_z
 _atom_site_occupancy
  La  La0  1  0.475563  0.333401  0.665288  1
  La  La1  1  0.970334  0.664552  0.335463  1
  La  La2  1  0.245792  0.123458  0.876634  1
  La  La3  1  0.243999  0.745344  0.865887  1
  La  La4  1  0.245317  0.135071  0.257057  1
  La  La5  1  0.733761  0.877048  0.126449  1
  La  La6  1  0.743725  0.248346  0.126759  1
  La  La7  1  0.743197  0.874237  0.751091  1
  La  La8  1  0.437881  0.542482  0.456673  1
  La  La9  1  0.438975  0.928860  0.468489  1
  La  La10  1  0.439139  0.529719  0.070796  1
  La  La11  1  0.930522  0.459889  0.539386  1
  La  La12  1  0.937542  0.077939  0.541269  1
  La  La13  1  0.939860  0.458988  0.922238  1
  Cu  Cu14  1  0.192012  0.810955  0.187124  1
  Ir  Ir15  1  0.693240  0.184691  0.375126  1
  Rh  Rh16  1  0.198914  0.377309  0.184966  1
  Rh  Rh17  1  0.198562  0.814282  0.623921  1
  Rh  Rh18  1  0.696563  0.188428  0.812545  1
  Rh  Rh19  1  0.697106  0.625001  0.812838  1
