# generated using pymatgen
data_Nb12VGa8Co3C4
_symmetry_space_group_name_H-M   'P 1'
_cell_length_a   8.25313911
_cell_length_b   8.25313932
_cell_length_c   8.25313858
_cell_angle_alpha   59.92598966
_cell_angle_beta   59.92598961
_cell_angle_gamma   59.92598456
_symmetry_Int_Tables_number   1
_chemical_formula_structural   Nb12VGa8Co3C4
_chemical_formula_sum   'Nb12 V1 Ga8 Co3 C4'
_cell_volume   396.83755727
_cell_formula_units_Z   1
loop_
 _symmetry_equiv_pos_site_id
 _symmetry_equiv_pos_as_xyz
  1  'x, y, z'
loop_
 _atom_site_type_symbol
 _atom_site_label
 _atom_site_symmetry_multiplicity
 _atom_site_fract_x
 _atom_site_fract_y
 _atom_site_fract_z
 _atom_site_occupancy
  Nb  Nb0  1  0.691884  0.308038  0.691884  1
  Nb  Nb1  1  0.941962  0.558116  0.558116  1
  Nb  Nb2  1  0.547320  0.946865  0.946865  1
  Nb  Nb3  1  0.946865  0.547320  0.946865  1
  Nb  Nb4  1  0.558116  0.558116  0.941962  1
  Nb  Nb5  1  0.946865  0.946865  0.547320  1
  Nb  Nb6  1  0.691884  0.691884  0.308038  1
  Nb  Nb7  1  0.308038  0.691884  0.691884  1
  Nb  Nb8  1  0.702680  0.303135  0.303135  1
  Nb  Nb9  1  0.303135  0.303135  0.702680  1
  Nb  Nb10  1  0.558116  0.941962  0.558116  1
  Nb  Nb11  1  0.303135  0.702680  0.303135  1
  V  V12  1  0.125000  0.125000  0.125000  1
  Ga  Ga13  1  0.335349  0.335349  0.335349  1
  Ga  Ga14  1  0.251259  0.912135  0.912135  1
  Ga  Ga15  1  0.912135  0.251259  0.912135  1
  Ga  Ga16  1  0.912135  0.912135  0.251259  1
  Ga  Ga17  1  0.337865  0.998741  0.337865  1
  Ga  Ga18  1  0.337865  0.337865  0.998741  1
  Ga  Ga19  1  0.998741  0.337865  0.337865  1
  Ga  Ga20  1  0.914651  0.914651  0.914651  1
  Co  Co21  1  0.625000  0.125000  0.125000  1
  Co  Co22  1  0.125000  0.625000  0.125000  1
  Co  Co23  1  0.125000  0.125000  0.625000  1
  C  C24  1  0.625000  0.625000  0.625000  1
  C  C25  1  0.125000  0.625000  0.625000  1
  C  C26  1  0.625000  0.125000  0.625000  1
  C  C27  1  0.625000  0.625000  0.125000  1
