# generated using pymatgen
data_Nd4Gd5YIr4
_symmetry_space_group_name_H-M   'P 1'
_cell_length_a   6.57339957
_cell_length_b   7.23580261
_cell_length_c   8.84786100
_cell_angle_alpha   96.93997450
_cell_angle_beta   111.76526826
_cell_angle_gamma   90.13293154
_symmetry_Int_Tables_number   1
_chemical_formula_structural   Nd4Gd5YIr4
_chemical_formula_sum   'Nd4 Gd5 Y1 Ir4'
_cell_volume   387.46612045
_cell_formula_units_Z   1
loop_
 _symmetry_equiv_pos_site_id
 _symmetry_equiv_pos_as_xyz
  1  'x, y, z'
loop_
 _atom_site_type_symbol
 _atom_site_label
 _atom_site_symmetry_multiplicity
 _atom_site_fract_x
 _atom_site_fract_y
 _atom_site_fract_z
 _atom_site_occupancy
  Nd  Nd0  1  0.979715  0.921141  0.189314  1
  Nd  Nd1  1  0.789999  0.578136  0.811256  1
  Nd  Nd2  1  0.020095  0.077843  0.811025  1
  Nd  Nd3  1  0.212222  0.422729  0.189734  1
  Gd  Gd4  1  0.206358  0.686821  0.562503  1
  Gd  Gd5  1  0.358061  0.187277  0.565604  1
  Gd  Gd6  1  0.793380  0.312942  0.435517  1
  Gd  Gd7  1  0.428319  0.750729  0.000972  1
  Gd  Gd8  1  0.569689  0.249930  0.999633  1
  Y  Y9  1  0.642860  0.812733  0.435081  1
  Ir  Ir10  1  0.813892  0.573325  0.226428  1
  Ir  Ir11  1  0.588139  0.925698  0.774195  1
  Ir  Ir12  1  0.185455  0.426856  0.772728  1
  Ir  Ir13  1  0.411817  0.073840  0.226008  1
