# generated using pymatgen
data_LuPu4W2C7
_symmetry_space_group_name_H-M   'P 1'
_cell_length_a   8.45554353
_cell_length_b   8.45554422
_cell_length_c   3.39694400
_cell_angle_alpha   90.00000000
_cell_angle_beta   90.00000000
_cell_angle_gamma   124.99437670
_symmetry_Int_Tables_number   1
_chemical_formula_structural   LuPu4W2C7
_chemical_formula_sum   'Lu1 Pu4 W2 C7'
_cell_volume   198.96003273
_cell_formula_units_Z   1
loop_
 _symmetry_equiv_pos_site_id
 _symmetry_equiv_pos_as_xyz
  1  'x, y, z'
loop_
 _atom_site_type_symbol
 _atom_site_label
 _atom_site_symmetry_multiplicity
 _atom_site_fract_x
 _atom_site_fract_y
 _atom_site_fract_z
 _atom_site_occupancy
  Lu  Lu0  1  0.500000  0.500000  0.000000  1
  Pu  Pu1  1  0.059319  0.317451  0.500000  1
  Pu  Pu2  1  0.940681  0.682549  0.500000  1
  Pu  Pu3  1  0.682549  0.940681  0.500000  1
  Pu  Pu4  1  0.317451  0.059319  0.500000  1
  W  W5  1  0.709198  0.290802  0.000000  1
  W  W6  1  0.290802  0.709198  0.000000  1
  C  C7  1  0.621228  0.378772  0.500000  1
  C  C8  1  0.378772  0.621228  0.500000  1
  C  C9  1  0.000000  0.000000  0.000000  1
  C  C10  1  0.175154  0.175154  0.000000  1
  C  C11  1  0.824846  0.824846  0.000000  1
  C  C12  1  0.000000  0.500000  0.000000  1
  C  C13  1  0.500000  0.000000  0.000000  1
