# generated using pymatgen
data_Ca3TmIr8
_symmetry_space_group_name_H-M   'P 1'
_cell_length_a   5.34862534
_cell_length_b   5.34858526
_cell_length_c   8.73463981
_cell_angle_alpha   90.00010252
_cell_angle_beta   89.99879218
_cell_angle_gamma   59.99970845
_symmetry_Int_Tables_number   1
_chemical_formula_structural   Ca3TmIr8
_chemical_formula_sum   'Ca3 Tm1 Ir8'
_cell_volume   216.39910342
_cell_formula_units_Z   1
loop_
 _symmetry_equiv_pos_site_id
 _symmetry_equiv_pos_as_xyz
  1  'x, y, z'
loop_
 _atom_site_type_symbol
 _atom_site_label
 _atom_site_symmetry_multiplicity
 _atom_site_fract_x
 _atom_site_fract_y
 _atom_site_fract_z
 _atom_site_occupancy
  Ca  Ca0  1  0.666698  0.666649  0.428245  1
  Ca  Ca1  1  0.666720  0.666638  0.068539  1
  Ca  Ca2  1  0.333288  0.333358  0.936623  1
  Tm  Tm3  1  0.333341  0.333329  0.568906  1
  Ir  Ir4  1  0.000010  0.999993  0.499326  1
  Ir  Ir5  1  0.000002  0.999998  0.000032  1
  Ir  Ir6  1  0.829450  0.341108  0.747279  1
  Ir  Ir7  1  0.341082  0.829461  0.747270  1
  Ir  Ir8  1  0.829447  0.829446  0.747278  1
  Ir  Ir9  1  0.170553  0.658900  0.252163  1
  Ir  Ir10  1  0.658859  0.170572  0.252173  1
  Ir  Ir11  1  0.170552  0.170549  0.252164  1
