# generated using pymatgen
data_AcNd(GePt)4
_symmetry_space_group_name_H-M   'P 1'
_cell_length_a   4.45150185
_cell_length_b   4.45078300
_cell_length_c   10.11974143
_cell_angle_alpha   90.00000000
_cell_angle_beta   89.92487571
_cell_angle_gamma   90.00000000
_symmetry_Int_Tables_number   1
_chemical_formula_structural   AcNd(GePt)4
_chemical_formula_sum   'Ac1 Nd1 Ge4 Pt4'
_cell_volume   200.49891256
_cell_formula_units_Z   1
loop_
 _symmetry_equiv_pos_site_id
 _symmetry_equiv_pos_as_xyz
  1  'x, y, z'
loop_
 _atom_site_type_symbol
 _atom_site_label
 _atom_site_symmetry_multiplicity
 _atom_site_fract_x
 _atom_site_fract_y
 _atom_site_fract_z
 _atom_site_occupancy
  Ac  Ac0  1  0.254149  0.000000  0.747668  1
  Nd  Nd1  1  0.755157  0.500000  0.251854  1
  Ge  Ge2  1  0.251551  0.000000  0.130741  1
  Ge  Ge3  1  0.750600  0.500000  0.874881  1
  Ge  Ge4  1  0.257794  0.500000  0.495081  1
  Ge  Ge5  1  0.757862  0.000000  0.495005  1
  Pt  Pt6  1  0.258173  0.000000  0.373791  1
  Pt  Pt7  1  0.757480  0.500000  0.622118  1
  Pt  Pt8  1  0.249547  0.500000  0.004369  1
  Pt  Pt9  1  0.751687  0.000000  0.004491  1
