# generated using pymatgen
data_YTmPa(InPt)3
_symmetry_space_group_name_H-M   'P 1'
_cell_length_a   7.62964622
_cell_length_b   7.61087295
_cell_length_c   3.94699700
_cell_angle_alpha   90.00000000
_cell_angle_beta   90.00000000
_cell_angle_gamma   120.24958921
_symmetry_Int_Tables_number   1
_chemical_formula_structural   YTmPa(InPt)3
_chemical_formula_sum   'Y1 Tm1 Pa1 In3 Pt3'
_cell_volume   197.98784804
_cell_formula_units_Z   1
loop_
 _symmetry_equiv_pos_site_id
 _symmetry_equiv_pos_as_xyz
  1  'x, y, z'
loop_
 _atom_site_type_symbol
 _atom_site_label
 _atom_site_symmetry_multiplicity
 _atom_site_fract_x
 _atom_site_fract_y
 _atom_site_fract_z
 _atom_site_occupancy
  Y  Y0  1  0.592934  0.595489  0.500000  1
  Tm  Tm1  1  0.997865  0.404188  0.500000  1
  Pa  Pa2  1  0.410841  0.999924  0.500000  1
  In  In3  1  0.755846  0.000859  0.000000  1
  In  In4  1  0.256315  0.271139  0.000000  1
  In  In5  1  0.986161  0.728312  0.000000  1
  Pt  Pt6  1  0.016782  0.001516  0.500000  1
  Pt  Pt7  1  0.649865  0.311681  0.000000  1
  Pt  Pt8  1  0.333391  0.686892  0.000000  1
