# generated using pymatgen
data_La3CeIn2Rh3
_symmetry_space_group_name_H-M   'P 1'
_cell_length_a   7.64402980
_cell_length_b   7.43964872
_cell_length_c   4.40881800
_cell_angle_alpha   90.00000000
_cell_angle_beta   90.00000000
_cell_angle_gamma   119.11939897
_symmetry_Int_Tables_number   1
_chemical_formula_structural   La3CeIn2Rh3
_chemical_formula_sum   'La3 Ce1 In2 Rh3'
_cell_volume   219.03490691
_cell_formula_units_Z   1
loop_
 _symmetry_equiv_pos_site_id
 _symmetry_equiv_pos_as_xyz
  1  'x, y, z'
loop_
 _atom_site_type_symbol
 _atom_site_label
 _atom_site_symmetry_multiplicity
 _atom_site_fract_x
 _atom_site_fract_y
 _atom_site_fract_z
 _atom_site_occupancy
  La  La0  1  0.000000  0.615035  0.500000  1
  La  La1  1  0.559193  0.974352  0.500000  1
  La  La2  1  0.440807  0.415160  0.500000  1
  Ce  Ce3  1  0.000000  0.262884  0.000000  1
  In  In4  1  0.246053  0.003161  0.000000  1
  In  In5  1  0.753947  0.757108  0.000000  1
  Rh  Rh6  1  0.000000  0.004711  0.500000  1
  Rh  Rh7  1  0.677724  0.322657  0.000000  1
  Rh  Rh8  1  0.322276  0.644933  0.000000  1
