# generated using pymatgen
data_Tb16Ho4Fe3CoBi8
_symmetry_space_group_name_H-M   'P 1'
_cell_length_a   8.01656574
_cell_length_b   8.93558736
_cell_length_c   12.46108122
_cell_angle_alpha   89.94024709
_cell_angle_beta   90.07022141
_cell_angle_gamma   89.99128997
_symmetry_Int_Tables_number   1
_chemical_formula_structural   Tb16Ho4Fe3CoBi8
_chemical_formula_sum   'Tb16 Ho4 Fe3 Co1 Bi8'
_cell_volume   892.62001862
_cell_formula_units_Z   1
loop_
 _symmetry_equiv_pos_site_id
 _symmetry_equiv_pos_as_xyz
  1  'x, y, z'
loop_
 _atom_site_type_symbol
 _atom_site_label
 _atom_site_symmetry_multiplicity
 _atom_site_fract_x
 _atom_site_fract_y
 _atom_site_fract_z
 _atom_site_occupancy
  Tb  Tb0  1  0.849646  0.750341  0.800699  1
  Tb  Tb1  1  0.151030  0.249844  0.199491  1
  Tb  Tb2  1  0.349591  0.249480  0.700120  1
  Tb  Tb3  1  0.648438  0.750062  0.302174  1
  Tb  Tb4  1  0.383721  0.750582  0.687436  1
  Tb  Tb5  1  0.613524  0.249290  0.312933  1
  Tb  Tb6  1  0.884956  0.249580  0.811432  1
  Tb  Tb7  1  0.116683  0.750668  0.187474  1
  Tb  Tb8  1  0.947657  0.750630  0.504018  1
  Tb  Tb9  1  0.056277  0.249482  0.494981  1
  Tb  Tb10  1  0.448166  0.249345  0.995892  1
  Tb  Tb11  1  0.551391  0.750308  0.004600  1
  Tb  Tb12  1  0.823128  0.040342  0.063750  1
  Tb  Tb13  1  0.674391  0.465992  0.562981  1
  Tb  Tb14  1  0.822747  0.461163  0.063640  1
  Tb  Tb15  1  0.175349  0.531680  0.936921  1
  Ho  Ho16  1  0.672650  0.035532  0.562940  1
  Ho  Ho17  1  0.325750  0.962988  0.437170  1
  Ho  Ho18  1  0.173358  0.967335  0.937018  1
  Ho  Ho19  1  0.325216  0.535526  0.437086  1
  Fe  Fe20  1  0.567941  0.749782  0.509115  1
  Fe  Fe21  1  0.430426  0.249506  0.491912  1
  Fe  Fe22  1  0.070640  0.250237  0.990727  1
  Co  Co23  1  0.937666  0.750594  0.006933  1
  Bi  Bi24  1  0.572842  0.493515  0.826477  1
  Bi  Bi25  1  0.427777  0.507311  0.173786  1
  Bi  Bi26  1  0.072289  0.507274  0.672347  1
  Bi  Bi27  1  0.427738  0.992295  0.173763  1
  Bi  Bi28  1  0.927698  0.493243  0.326622  1
  Bi  Bi29  1  0.572262  0.006407  0.826381  1
  Bi  Bi30  1  0.927685  0.006977  0.326518  1
  Bi  Bi31  1  0.071365  0.992691  0.672664  1
