# generated using pymatgen
data_ErSc4Ta3Ru8
_symmetry_space_group_name_H-M   'P 1'
_cell_length_a   6.39804000
_cell_length_b   4.54445600
_cell_length_c   9.11988700
_cell_angle_alpha   90.00000000
_cell_angle_beta   90.00265633
_cell_angle_gamma   90.00000000
_symmetry_Int_Tables_number   1
_chemical_formula_structural   ErSc4Ta3Ru8
_chemical_formula_sum   'Er1 Sc4 Ta3 Ru8'
_cell_volume   265.16628906
_cell_formula_units_Z   1
loop_
 _symmetry_equiv_pos_site_id
 _symmetry_equiv_pos_as_xyz
  1  'x, y, z'
loop_
 _atom_site_type_symbol
 _atom_site_label
 _atom_site_symmetry_multiplicity
 _atom_site_fract_x
 _atom_site_fract_y
 _atom_site_fract_z
 _atom_site_occupancy
  Er  Er0  1  0.249756  0.250000  0.125017  1
  Sc  Sc1  1  0.750067  0.250000  0.124999  1
  Sc  Sc2  1  0.250045  0.750000  0.376964  1
  Sc  Sc3  1  0.749982  0.250000  0.624999  1
  Sc  Sc4  1  0.249958  0.750000  0.873079  1
  Ta  Ta5  1  0.750034  0.750000  0.374235  1
  Ta  Ta6  1  0.249965  0.250000  0.625013  1
  Ta  Ta7  1  0.749980  0.750000  0.875750  1
  Ru  Ru8  1  0.513604  0.750000  0.124943  1
  Ru  Ru9  1  0.986496  0.750000  0.124928  1
  Ru  Ru10  1  0.506216  0.250000  0.384453  1
  Ru  Ru11  1  0.993909  0.250000  0.384454  1
  Ru  Ru12  1  0.000765  0.750000  0.625029  1
  Ru  Ru13  1  0.499226  0.750000  0.625055  1
  Ru  Ru14  1  0.993755  0.250000  0.865544  1
  Ru  Ru15  1  0.506242  0.250000  0.865535  1
