# generated using pymatgen
data_Tm5Be3P9Ir19
_symmetry_space_group_name_H-M   'P 1'
_cell_length_a   12.61154300
_cell_length_b   12.61154221
_cell_length_c   3.93430100
_cell_angle_alpha   90.00000000
_cell_angle_beta   90.00000000
_cell_angle_gamma   119.99999944
_symmetry_Int_Tables_number   1
_chemical_formula_structural   Tm5Be3P9Ir19
_chemical_formula_sum   'Tm5 Be3 P9 Ir19'
_cell_volume   541.91932744
_cell_formula_units_Z   1
loop_
 _symmetry_equiv_pos_site_id
 _symmetry_equiv_pos_as_xyz
  1  'x, y, z'
loop_
 _atom_site_type_symbol
 _atom_site_label
 _atom_site_symmetry_multiplicity
 _atom_site_fract_x
 _atom_site_fract_y
 _atom_site_fract_z
 _atom_site_occupancy
  Tm  Tm0  1  0.666667  0.333333  0.000000  1
  Tm  Tm1  1  0.333333  0.666667  0.000000  1
  Tm  Tm2  1  0.815394  0.808846  0.500000  1
  Tm  Tm3  1  0.191154  0.006548  0.500000  1
  Tm  Tm4  1  0.993452  0.184606  0.500000  1
  Be  Be5  1  0.683043  0.162694  0.500000  1
  Be  Be6  1  0.837306  0.520349  0.500000  1
  Be  Be7  1  0.479651  0.316957  0.500000  1
  P  P8  1  0.178237  0.696272  0.500000  1
  P  P9  1  0.518035  0.821763  0.500000  1
  P  P10  1  0.303728  0.481965  0.500000  1
  P  P11  1  0.640024  0.627184  0.000000  1
  P  P12  1  0.372816  0.012839  0.000000  1
  P  P13  1  0.987161  0.359976  0.000000  1
  P  P14  1  0.178494  0.181184  0.000000  1
  P  P15  1  0.818816  0.997311  0.000000  1
  P  P16  1  0.002689  0.821506  0.000000  1
  Ir  Ir17  1  0.802045  0.175545  0.000000  1
  Ir  Ir18  1  0.824455  0.626500  0.000000  1
  Ir  Ir19  1  0.373500  0.197955  0.000000  1
  Ir  Ir20  1  0.190379  0.813401  0.000000  1
  Ir  Ir21  1  0.623021  0.809621  0.000000  1
  Ir  Ir22  1  0.186599  0.376979  0.000000  1
  Ir  Ir23  1  0.455201  0.446432  0.000000  1
  Ir  Ir24  1  0.553568  0.008768  0.000000  1
  Ir  Ir25  1  0.991232  0.544799  0.000000  1
  Ir  Ir26  1  0.279905  0.287299  0.500000  1
  Ir  Ir27  1  0.712701  0.992606  0.500000  1
  Ir  Ir28  1  0.007394  0.720095  0.500000  1
  Ir  Ir29  1  0.870602  0.354300  0.500000  1
  Ir  Ir30  1  0.645700  0.516303  0.500000  1
  Ir  Ir31  1  0.483697  0.129398  0.500000  1
  Ir  Ir32  1  0.369265  0.870251  0.500000  1
  Ir  Ir33  1  0.500988  0.630735  0.500000  1
  Ir  Ir34  1  0.129749  0.499012  0.500000  1
  Ir  Ir35  1  0.000000  0.000000  0.000000  1
