# generated using pymatgen
data_Er3TlIn3AgIr
_symmetry_space_group_name_H-M   'P 1'
_cell_length_a   7.93015900
_cell_length_b   7.93015775
_cell_length_c   3.87310100
_cell_angle_alpha   90.00000000
_cell_angle_beta   90.00000000
_cell_angle_gamma   119.99999380
_symmetry_Int_Tables_number   1
_chemical_formula_structural   Er3TlIn3AgIr
_chemical_formula_sum   'Er3 Tl1 In3 Ag1 Ir1'
_cell_volume   210.93721270
_cell_formula_units_Z   1
loop_
 _symmetry_equiv_pos_site_id
 _symmetry_equiv_pos_as_xyz
  1  'x, y, z'
loop_
 _atom_site_type_symbol
 _atom_site_label
 _atom_site_symmetry_multiplicity
 _atom_site_fract_x
 _atom_site_fract_y
 _atom_site_fract_z
 _atom_site_occupancy
  Er  Er0  1  0.425277  0.386704  0.500000  1
  Er  Er1  1  0.613296  0.038574  0.500000  1
  Er  Er2  1  0.961426  0.574723  0.500000  1
  Tl  Tl3  1  0.333333  0.666667  0.000000  1
  In  In4  1  0.740362  0.734341  0.000000  1
  In  In5  1  0.265659  0.006021  0.000000  1
  In  In6  1  0.993979  0.259638  0.000000  1
  Ag  Ag7  1  0.000000  0.000000  0.500000  1
  Ir  Ir8  1  0.666667  0.333333  0.000000  1
