# generated using pymatgen
data_Ce4NdLu(SnRu2)2
_symmetry_space_group_name_H-M   'P 1'
_cell_length_a   6.58099581
_cell_length_b   6.58099538
_cell_length_c   10.17369343
_cell_angle_alpha   75.15885277
_cell_angle_beta   75.15885491
_cell_angle_gamma   43.67379520
_symmetry_Int_Tables_number   1
_chemical_formula_structural   Ce4NdLu(SnRu2)2
_chemical_formula_sum   'Ce4 Nd1 Lu1 Sn2 Ru4'
_cell_volume   292.45596606
_cell_formula_units_Z   1
loop_
 _symmetry_equiv_pos_site_id
 _symmetry_equiv_pos_as_xyz
  1  'x, y, z'
loop_
 _atom_site_type_symbol
 _atom_site_label
 _atom_site_symmetry_multiplicity
 _atom_site_fract_x
 _atom_site_fract_y
 _atom_site_fract_z
 _atom_site_occupancy
  Ce  Ce0  1  0.142395  0.142395  0.587686  1
  Ce  Ce1  1  0.857536  0.857536  0.413869  1
  Ce  Ce2  1  0.854748  0.854748  0.911727  1
  Ce  Ce3  1  0.145746  0.145746  0.087731  1
  Nd  Nd4  1  0.427333  0.427333  0.148383  1
  Lu  Lu5  1  0.415605  0.415605  0.651873  1
  Sn  Sn6  1  0.583370  0.583370  0.838325  1
  Sn  Sn7  1  0.583015  0.583015  0.355233  1
  Ru  Ru8  1  0.792642  0.792642  0.152492  1
  Ru  Ru9  1  0.199232  0.199232  0.348716  1
  Ru  Ru10  1  0.196791  0.196791  0.848746  1
  Ru  Ru11  1  0.801589  0.801589  0.655222  1
