# generated using pymatgen
data_NdY5(TmAu2)2
_symmetry_space_group_name_H-M   'P 1'
_cell_length_a   4.96188500
_cell_length_b   7.20895404
_cell_length_c   8.94469075
_cell_angle_alpha   89.72144524
_cell_angle_beta   90.00000000
_cell_angle_gamma   90.00000000
_symmetry_Int_Tables_number   1
_chemical_formula_structural   NdY5(TmAu2)2
_chemical_formula_sum   'Nd1 Y5 Tm2 Au4'
_cell_volume   319.94781515
_cell_formula_units_Z   1
loop_
 _symmetry_equiv_pos_site_id
 _symmetry_equiv_pos_as_xyz
  1  'x, y, z'
loop_
 _atom_site_type_symbol
 _atom_site_label
 _atom_site_symmetry_multiplicity
 _atom_site_fract_x
 _atom_site_fract_y
 _atom_site_fract_z
 _atom_site_occupancy
  Nd  Nd0  1  0.250000  0.990043  0.326672  1
  Y  Y1  1  0.750000  0.149879  0.080420  1
  Y  Y2  1  0.750000  0.650198  0.417286  1
  Y  Y3  1  0.250000  0.488058  0.171096  1
  Y  Y4  1  0.750000  0.512963  0.819213  1
  Y  Y5  1  0.750000  0.013283  0.681194  1
  Tm  Tm6  1  0.250000  0.852604  0.920833  1
  Tm  Tm7  1  0.250000  0.352853  0.579503  1
  Au  Au8  1  0.250000  0.249582  0.896004  1
  Au  Au9  1  0.250000  0.747108  0.608090  1
  Au  Au10  1  0.750000  0.744112  0.091262  1
  Au  Au11  1  0.750000  0.249318  0.408427  1
