# generated using pymatgen
data_Tb3In4RuRh
_symmetry_space_group_name_H-M   'P 1'
_cell_length_a   7.92079200
_cell_length_b   7.92079192
_cell_length_c   3.81901800
_cell_angle_alpha   90.00000000
_cell_angle_beta   90.00000000
_cell_angle_gamma   120.00000033
_symmetry_Int_Tables_number   1
_chemical_formula_structural   Tb3In4RuRh
_chemical_formula_sum   'Tb3 In4 Ru1 Rh1'
_cell_volume   207.50069183
_cell_formula_units_Z   1
loop_
 _symmetry_equiv_pos_site_id
 _symmetry_equiv_pos_as_xyz
  1  'x, y, z'
loop_
 _atom_site_type_symbol
 _atom_site_label
 _atom_site_symmetry_multiplicity
 _atom_site_fract_x
 _atom_site_fract_y
 _atom_site_fract_z
 _atom_site_occupancy
  Tb  Tb0  1  0.381902  0.419220  0.500000  1
  Tb  Tb1  1  0.037318  0.618099  0.500000  1
  Tb  Tb2  1  0.580780  0.962682  0.500000  1
  In  In3  1  0.003632  0.256999  0.000000  1
  In  In4  1  0.666667  0.333334  0.000000  1
  In  In5  1  0.743000  0.746633  0.000000  1
  In  In6  1  0.253368  0.996368  0.000000  1
  Ru  Ru7  1  0.333334  0.666667  0.000000  1
  Rh  Rh8  1  0.000000  0.000000  0.500000  1
