# generated using pymatgen
data_YbSm2Si6(Pd3Pt)5
_symmetry_space_group_name_H-M   'P 1'
_cell_length_a   8.74029367
_cell_length_b   8.74967836
_cell_length_c   8.75643100
_cell_angle_alpha   59.97453143
_cell_angle_beta   59.93896998
_cell_angle_gamma   59.83366135
_symmetry_Int_Tables_number   1
_chemical_formula_structural   YbSm2Si6(Pd3Pt)5
_chemical_formula_sum   'Yb1 Sm2 Si6 Pd15 Pt5'
_cell_volume   472.60436875
_cell_formula_units_Z   1
loop_
 _symmetry_equiv_pos_site_id
 _symmetry_equiv_pos_as_xyz
  1  'x, y, z'
loop_
 _atom_site_type_symbol
 _atom_site_label
 _atom_site_symmetry_multiplicity
 _atom_site_fract_x
 _atom_site_fract_y
 _atom_site_fract_z
 _atom_site_occupancy
  Yb  Yb0  1  0.999947  0.000110  0.999971  1
  Sm  Sm1  1  0.250479  0.250469  0.249526  1
  Sm  Sm2  1  0.749016  0.750333  0.750325  1
  Si  Si3  1  0.732179  0.267308  0.266168  1
  Si  Si4  1  0.268686  0.731694  0.732747  1
  Si  Si5  1  0.268686  0.731694  0.266873  1
  Si  Si6  1  0.732180  0.267307  0.734345  1
  Si  Si7  1  0.267252  0.266469  0.733140  1
  Si  Si8  1  0.731793  0.732852  0.267677  1
  Pd  Pd9  1  0.618903  0.151101  0.614999  1
  Pd  Pd10  1  0.848777  0.381350  0.384937  1
  Pd  Pd11  1  0.149536  0.617054  0.616705  1
  Pd  Pd12  1  0.344472  0.000433  0.999818  1
  Pd  Pd13  1  0.654851  0.000932  0.000246  1
  Pd  Pd14  1  0.999413  0.345652  0.655573  1
  Pd  Pd15  1  0.999761  0.656064  0.344549  1
  Pd  Pd16  1  0.999413  0.345651  0.999362  1
  Pd  Pd17  1  0.654851  0.000932  0.343972  1
  Pd  Pd18  1  0.999761  0.656064  0.999626  1
  Pd  Pd19  1  0.344472  0.000434  0.655277  1
  Pd  Pd20  1  0.000091  0.000895  0.344487  1
  Pd  Pd21  1  0.000091  0.000894  0.654528  1
  Pd  Pd22  1  0.655732  0.345352  0.999459  1
  Pd  Pd23  1  0.344628  0.656969  0.999202  1
  Pt  Pt24  1  0.383588  0.383887  0.387594  1
  Pt  Pt25  1  0.617981  0.614233  0.613655  1
  Pt  Pt26  1  0.383588  0.383887  0.844932  1
  Pt  Pt27  1  0.381893  0.845749  0.386180  1
  Pt  Pt28  1  0.617982  0.614233  0.154130  1
