# generated using pymatgen
data_DyYCrCo11As7
_symmetry_space_group_name_H-M   'P 1'
_cell_length_a   3.74699900
_cell_length_b   9.36326504
_cell_length_c   9.37974697
_cell_angle_alpha   119.80588926
_cell_angle_beta   90.00000000
_cell_angle_gamma   90.00000000
_symmetry_Int_Tables_number   1
_chemical_formula_structural   DyYCrCo11As7
_chemical_formula_sum   'Dy1 Y1 Cr1 Co11 As7'
_cell_volume   285.54779108
_cell_formula_units_Z   1
loop_
 _symmetry_equiv_pos_site_id
 _symmetry_equiv_pos_as_xyz
  1  'x, y, z'
loop_
 _atom_site_type_symbol
 _atom_site_label
 _atom_site_symmetry_multiplicity
 _atom_site_fract_x
 _atom_site_fract_y
 _atom_site_fract_z
 _atom_site_occupancy
  Dy  Dy0  1  0.500000  0.331639  0.665749  1
  Y  Y1  1  0.000000  0.668099  0.337334  1
  Cr  Cr2  1  0.500000  0.780943  0.897735  1
  Co  Co3  1  0.000000  0.567959  0.941127  1
  Co  Co4  1  0.000000  0.373159  0.430503  1
  Co  Co5  1  0.000000  0.058526  0.625521  1
  Co  Co6  1  0.500000  0.122744  0.222646  1
  Co  Co7  1  0.500000  0.098447  0.875338  1
  Co  Co8  1  0.000000  0.878785  0.157231  1
  Co  Co9  1  0.000000  0.278651  0.122128  1
  Co  Co10  1  0.000000  0.845314  0.724616  1
  Co  Co11  1  0.500000  0.949007  0.381729  1
  Co  Co12  1  0.500000  0.430980  0.049869  1
  Co  Co13  1  0.500000  0.618314  0.567053  1
  As  As14  1  0.000000  0.003758  0.002663  1
  As  As15  1  0.500000  0.706169  0.117014  1
  As  As16  1  0.500000  0.404270  0.290960  1
  As  As17  1  0.500000  0.887513  0.595549  1
  As  As18  1  0.000000  0.587395  0.702583  1
  As  As19  1  0.000000  0.114825  0.408634  1
  As  As20  1  0.000000  0.293502  0.884017  1
