# generated using pymatgen
data_Y2Pa6Si8Pd3Pt5
_symmetry_space_group_name_H-M   'P 1'
_cell_length_a   4.24488100
_cell_length_b   7.30617699
_cell_length_c   15.15096392
_cell_angle_alpha   89.79453790
_cell_angle_beta   90.00000000
_cell_angle_gamma   90.00000000
_symmetry_Int_Tables_number   1
_chemical_formula_structural   Y2Pa6Si8Pd3Pt5
_chemical_formula_sum   'Y2 Pa6 Si8 Pd3 Pt5'
_cell_volume   469.88672990
_cell_formula_units_Z   1
loop_
 _symmetry_equiv_pos_site_id
 _symmetry_equiv_pos_as_xyz
  1  'x, y, z'
loop_
 _atom_site_type_symbol
 _atom_site_label
 _atom_site_symmetry_multiplicity
 _atom_site_fract_x
 _atom_site_fract_y
 _atom_site_fract_z
 _atom_site_occupancy
  Y  Y0  1  0.000000  0.274272  0.999922  1
  Y  Y1  1  0.500000  0.727515  0.500529  1
  Pa  Pa2  1  0.000000  0.283189  0.500227  1
  Pa  Pa3  1  0.500000  0.714979  0.999730  1
  Pa  Pa4  1  0.000000  0.221339  0.247064  1
  Pa  Pa5  1  0.500000  0.778373  0.252873  1
  Pa  Pa6  1  0.000000  0.218882  0.752432  1
  Pa  Pa7  1  0.500000  0.780580  0.747555  1
  Si  Si8  1  0.000000  0.917956  0.624865  1
  Si  Si9  1  0.500000  0.081695  0.874952  1
  Si  Si10  1  0.000000  0.918503  0.375175  1
  Si  Si11  1  0.500000  0.081468  0.125036  1
  Si  Si12  1  0.000000  0.591736  0.145093  1
  Si  Si13  1  0.500000  0.408478  0.357157  1
  Si  Si14  1  0.000000  0.592190  0.856268  1
  Si  Si15  1  0.500000  0.408090  0.644486  1
  Pd  Pd16  1  0.000000  0.580580  0.367362  1
  Pd  Pd17  1  0.500000  0.419403  0.863777  1
  Pd  Pd18  1  0.000000  0.580236  0.634080  1
  Pt  Pt19  1  0.500000  0.084333  0.599626  1
  Pt  Pt20  1  0.000000  0.916176  0.900266  1
  Pt  Pt21  1  0.500000  0.084575  0.400209  1
  Pt  Pt22  1  0.000000  0.914912  0.099390  1
  Pt  Pt23  1  0.500000  0.420542  0.131923  1
