# generated using pymatgen
data_HfSc5(GaPt)6
_symmetry_space_group_name_H-M   'P 1'
_cell_length_a   7.25713000
_cell_length_b   7.25746947
_cell_length_c   6.94216900
_cell_angle_alpha   90.00000000
_cell_angle_beta   90.00000000
_cell_angle_gamma   119.99469336
_symmetry_Int_Tables_number   1
_chemical_formula_structural   HfSc5(GaPt)6
_chemical_formula_sum   'Hf1 Sc5 Ga6 Pt6'
_cell_volume   316.66433661
_cell_formula_units_Z   1
loop_
 _symmetry_equiv_pos_site_id
 _symmetry_equiv_pos_as_xyz
  1  'x, y, z'
loop_
 _atom_site_type_symbol
 _atom_site_label
 _atom_site_symmetry_multiplicity
 _atom_site_fract_x
 _atom_site_fract_y
 _atom_site_fract_z
 _atom_site_occupancy
  Hf  Hf0  1  0.009347  0.603487  0.750000  1
  Sc  Sc1  1  0.404485  0.397110  0.250000  1
  Sc  Sc2  1  0.597305  0.991926  0.750000  1
  Sc  Sc3  1  0.394561  0.402864  0.750000  1
  Sc  Sc4  1  0.991024  0.595894  0.250000  1
  Sc  Sc5  1  0.603841  0.009657  0.250000  1
  Ga  Ga6  1  0.272580  0.003134  0.001896  1
  Ga  Ga7  1  0.272580  0.003134  0.498104  1
  Ga  Ga8  1  0.999698  0.266831  0.501844  1
  Ga  Ga9  1  0.999698  0.266831  0.998156  1
  Ga  Ga10  1  0.727459  0.730140  0.002112  1
  Ga  Ga11  1  0.727459  0.730140  0.497888  1
  Pt  Pt12  1  0.670078  0.336290  0.512990  1
  Pt  Pt13  1  0.999947  0.992241  0.750000  1
  Pt  Pt14  1  0.670078  0.336290  0.987010  1
  Pt  Pt15  1  0.329956  0.666437  0.007771  1
  Pt  Pt16  1  0.329956  0.666437  0.492229  1
  Pt  Pt17  1  0.999948  0.001156  0.250000  1
