# generated using pymatgen
data_Nd8Dy12Bi7Pb9
_symmetry_space_group_name_H-M   'P 1'
_cell_length_a   8.34695284
_cell_length_b   8.32955545
_cell_length_c   15.66665300
_cell_angle_alpha   90.13556381
_cell_angle_beta   90.07335166
_cell_angle_gamma   89.98959108
_symmetry_Int_Tables_number   1
_chemical_formula_structural   Nd8Dy12Bi7Pb9
_chemical_formula_sum   'Nd8 Dy12 Bi7 Pb9'
_cell_volume   1089.24212615
_cell_formula_units_Z   1
loop_
 _symmetry_equiv_pos_site_id
 _symmetry_equiv_pos_as_xyz
  1  'x, y, z'
loop_
 _atom_site_type_symbol
 _atom_site_label
 _atom_site_symmetry_multiplicity
 _atom_site_fract_x
 _atom_site_fract_y
 _atom_site_fract_z
 _atom_site_occupancy
  Nd  Nd0  1  0.465768  0.673168  0.600264  1
  Nd  Nd1  1  0.968383  0.825826  0.899714  1
  Nd  Nd2  1  0.531468  0.325830  0.100628  1
  Nd  Nd3  1  0.031167  0.176945  0.399516  1
  Nd  Nd4  1  0.527920  0.326646  0.400235  1
  Nd  Nd5  1  0.031276  0.175589  0.100383  1
  Nd  Nd6  1  0.468386  0.675254  0.899466  1
  Nd  Nd7  1  0.970606  0.822969  0.599470  1
  Dy  Dy8  1  0.634947  0.156579  0.625256  1
  Dy  Dy9  1  0.134831  0.343086  0.875046  1
  Dy  Dy10  1  0.365967  0.843348  0.124925  1
  Dy  Dy11  1  0.869317  0.656312  0.374755  1
  Dy  Dy12  1  0.363466  0.840230  0.375330  1
  Dy  Dy13  1  0.865033  0.657101  0.124837  1
  Dy  Dy14  1  0.634877  0.156646  0.874557  1
  Dy  Dy15  1  0.135335  0.344495  0.624313  1
  Dy  Dy16  1  0.800873  0.499744  0.749928  1
  Dy  Dy17  1  0.300800  0.999742  0.749693  1
  Dy  Dy18  1  0.198990  0.500550  0.252150  1
  Dy  Dy19  1  0.698935  0.999974  0.250704  1
  Bi  Bi20  1  0.709738  0.961964  0.455661  1
  Bi  Bi21  1  0.209705  0.538024  0.044637  1
  Bi  Bi22  1  0.290711  0.037731  0.955603  1
  Bi  Bi23  1  0.790964  0.461837  0.543887  1
  Bi  Bi24  1  0.290993  0.037613  0.544458  1
  Bi  Bi25  1  0.790194  0.462093  0.955605  1
  Bi  Bi26  1  0.709671  0.963026  0.044314  1
  Pb  Pb27  1  0.209449  0.537629  0.456529  1
  Pb  Pb28  1  0.439546  0.370342  0.750274  1
  Pb  Pb29  1  0.940030  0.129536  0.749640  1
  Pb  Pb30  1  0.561259  0.629830  0.249640  1
  Pb  Pb31  1  0.060610  0.871266  0.249103  1
  Pb  Pb32  1  0.658928  0.848495  0.749594  1
  Pb  Pb33  1  0.157965  0.650796  0.750450  1
  Pb  Pb34  1  0.341216  0.150230  0.249825  1
  Pb  Pb35  1  0.840677  0.349558  0.249611  1
