# generated using pymatgen
data_Dy5Ti2P12Ir6Rh11
_symmetry_space_group_name_H-M   'P 1'
_cell_length_a   12.65903726
_cell_length_b   12.81448384
_cell_length_c   3.92414000
_cell_angle_alpha   90.00000000
_cell_angle_beta   90.00000000
_cell_angle_gamma   119.70427674
_symmetry_Int_Tables_number   1
_chemical_formula_structural   Dy5Ti2P12Ir6Rh11
_chemical_formula_sum   'Dy5 Ti2 P12 Ir6 Rh11'
_cell_volume   552.92137451
_cell_formula_units_Z   1
loop_
 _symmetry_equiv_pos_site_id
 _symmetry_equiv_pos_as_xyz
  1  'x, y, z'
loop_
 _atom_site_type_symbol
 _atom_site_label
 _atom_site_symmetry_multiplicity
 _atom_site_fract_x
 _atom_site_fract_y
 _atom_site_fract_z
 _atom_site_occupancy
  Dy  Dy0  1  0.329984  0.660460  0.500000  1
  Dy  Dy1  1  0.669872  0.339220  0.500000  1
  Dy  Dy2  1  0.999394  0.810042  0.000000  1
  Dy  Dy3  1  0.188562  0.189660  0.000000  1
  Dy  Dy4  1  0.810323  0.000678  0.000000  1
  Ti  Ti5  1  0.999064  0.445167  0.500000  1
  Ti  Ti6  1  0.553198  0.555961  0.500000  1
  P  P7  1  0.001125  0.638529  0.500000  1
  P  P8  1  0.362885  0.361214  0.500000  1
  P  P9  1  0.639158  0.000011  0.500000  1
  P  P10  1  0.514438  0.681773  0.000000  1
  P  P11  1  0.312311  0.827697  0.000000  1
  P  P12  1  0.162647  0.481150  0.000000  1
  P  P13  1  0.484669  0.173048  0.000000  1
  P  P14  1  0.682825  0.519546  0.000000  1
  P  P15  1  0.832080  0.317225  0.000000  1
  P  P16  1  0.999272  0.175629  0.500000  1
  P  P17  1  0.824899  0.824573  0.500000  1
  P  P18  1  0.182508  0.999218  0.500000  1
  Ir  Ir19  1  0.997891  0.279502  0.000000  1
  Ir  Ir20  1  0.718426  0.721554  0.000000  1
  Ir  Ir21  1  0.286427  0.000095  0.000000  1
  Ir  Ir22  1  0.804908  0.627936  0.500000  1
  Ir  Ir23  1  0.817696  0.194637  0.500000  1
  Ir  Ir24  1  0.004355  0.000851  0.500000  1
  Rh  Rh25  1  0.506956  0.863664  0.000000  1
  Rh  Rh26  1  0.126594  0.642885  0.000000  1
  Rh  Rh27  1  0.354360  0.487584  0.000000  1
  Rh  Rh28  1  0.484669  0.358292  0.000000  1
  Rh  Rh29  1  0.866086  0.510421  0.000000  1
  Rh  Rh30  1  0.641822  0.134507  0.000000  1
  Rh  Rh31  1  0.457394  0.999804  0.500000  1
  Rh  Rh32  1  0.623884  0.806043  0.500000  1
  Rh  Rh33  1  0.201605  0.821857  0.500000  1
  Rh  Rh34  1  0.176970  0.371595  0.500000  1
  Rh  Rh35  1  0.380744  0.177972  0.500000  1
