# generated using pymatgen
data_Y20Ir9Os2Rh
_symmetry_space_group_name_H-M   'P 1'
_cell_length_a   10.91022400
_cell_length_b   10.91022400
_cell_length_c   6.44013900
_cell_angle_alpha   90.00000000
_cell_angle_beta   90.00000000
_cell_angle_gamma   90.00000000
_symmetry_Int_Tables_number   1
_chemical_formula_structural   Y20Ir9Os2Rh
_chemical_formula_sum   'Y20 Ir9 Os2 Rh1'
_cell_volume   766.58898657
_cell_formula_units_Z   1
loop_
 _symmetry_equiv_pos_site_id
 _symmetry_equiv_pos_as_xyz
  1  'x, y, z'
loop_
 _atom_site_type_symbol
 _atom_site_label
 _atom_site_symmetry_multiplicity
 _atom_site_fract_x
 _atom_site_fract_y
 _atom_site_fract_z
 _atom_site_occupancy
  Y  Y0  1  0.292377  0.087334  0.380895  1
  Y  Y1  1  0.292009  0.912755  0.876014  1
  Y  Y2  1  0.707991  0.087245  0.876014  1
  Y  Y3  1  0.707623  0.912666  0.380895  1
  Y  Y4  1  0.587245  0.792009  0.876014  1
  Y  Y5  1  0.587334  0.207623  0.380895  1
  Y  Y6  1  0.412666  0.792377  0.380895  1
  Y  Y7  1  0.412755  0.207991  0.876014  1
  Y  Y8  1  0.207671  0.412804  0.623856  1
  Y  Y9  1  0.207224  0.587339  0.119897  1
  Y  Y10  1  0.792776  0.412661  0.119897  1
  Y  Y11  1  0.792329  0.587196  0.623856  1
  Y  Y12  1  0.912661  0.707224  0.119897  1
  Y  Y13  1  0.912804  0.292329  0.623856  1
  Y  Y14  1  0.087196  0.707671  0.623856  1
  Y  Y15  1  0.087339  0.292776  0.119897  1
  Y  Y16  1  0.000000  0.000000  0.499679  1
  Y  Y17  1  0.000000  0.000000  0.000121  1
  Y  Y18  1  0.500000  0.500000  0.000121  1
  Y  Y19  1  0.500000  0.500000  0.499679  1
  Ir  Ir20  1  0.847124  0.152608  0.249576  1
  Ir  Ir21  1  0.846991  0.847308  0.749598  1
  Ir  Ir22  1  0.153009  0.152692  0.749598  1
  Ir  Ir23  1  0.152876  0.847392  0.249576  1
  Ir  Ir24  1  0.652692  0.346991  0.749598  1
  Ir  Ir25  1  0.652608  0.652876  0.249576  1
  Ir  Ir26  1  0.347392  0.347124  0.249576  1
  Ir  Ir27  1  0.347308  0.653009  0.749598  1
  Ir  Ir28  1  0.000000  0.500000  0.376625  1
  Os  Os29  1  0.500000  0.000000  0.625186  1
  Os  Os30  1  0.000000  0.500000  0.875354  1
  Rh  Rh31  1  0.500000  0.000000  0.123890  1
