# generated using pymatgen
data_Zn(BrO3)2
_symmetry_space_group_name_H-M   'P 1'
_cell_length_a   5.62587969
_cell_length_b   10.57474025
_cell_length_c   10.62582519
_cell_angle_alpha   119.18929877
_cell_angle_beta   89.96069211
_cell_angle_gamma   90.04043631
_symmetry_Int_Tables_number   1
_chemical_formula_structural   Zn(BrO3)2
_chemical_formula_sum   'Zn4 Br8 O24'
_cell_volume   551.87850047
_cell_formula_units_Z   4
loop_
 _symmetry_equiv_pos_site_id
 _symmetry_equiv_pos_as_xyz
  1  'x, y, z'
loop_
 _atom_site_type_symbol
 _atom_site_label
 _atom_site_symmetry_multiplicity
 _atom_site_fract_x
 _atom_site_fract_y
 _atom_site_fract_z
 _atom_site_occupancy
  Zn  Zn0  1  0.646537  0.236716  0.493262  1
  Zn  Zn1  1  0.145516  0.263057  0.006010  1
  Zn  Zn2  1  0.645188  0.736859  0.994244  1
  Zn  Zn3  1  0.146152  0.763328  0.506645  1
  Br  Br4  1  0.259233  0.416065  0.348936  1
  Br  Br5  1  0.758913  0.583849  0.651089  1
  Br  Br6  1  0.257173  0.915578  0.849385  1
  Br  Br7  1  0.756557  0.084255  0.150668  1
  Br  Br8  1  0.783685  0.085969  0.688475  1
  Br  Br9  1  0.283770  0.914221  0.311557  1
  Br  Br10  1  0.284400  0.413466  0.810755  1
  Br  Br11  1  0.783963  0.586518  0.189179  1
  O  O12  1  0.425706  0.885595  0.963521  1
  O  O13  1  0.925658  0.114505  0.036789  1
  O  O14  1  0.369074  0.801592  0.683008  1
  O  O15  1  0.867965  0.198380  0.317153  1
  O  O16  1  0.368618  0.301445  0.182067  1
  O  O17  1  0.868666  0.698090  0.817892  1
  O  O18  1  0.927462  0.227081  0.825151  1
  O  O19  1  0.427620  0.773225  0.174892  1
  O  O20  1  0.927155  0.933706  0.660955  1
  O  O21  1  0.427270  0.066360  0.338664  1
  O  O22  1  0.356727  0.080200  0.879741  1
  O  O23  1  0.856777  0.919824  0.120269  1
  O  O24  1  0.427136  0.272513  0.673282  1
  O  O25  1  0.926740  0.727474  0.326661  1
  O  O26  1  0.355318  0.396157  0.957243  1
  O  O27  1  0.855218  0.603860  0.042740  1
  O  O28  1  0.428836  0.565691  0.838604  1
  O  O29  1  0.928270  0.434354  0.161134  1
  O  O30  1  0.358830  0.580609  0.379187  1
  O  O31  1  0.858321  0.419442  0.621059  1
  O  O32  1  0.430235  0.385878  0.462018  1
  O  O33  1  0.930345  0.614012  0.537965  1
  O  O34  1  0.854901  0.102450  0.541546  1
  O  O35  1  0.355665  0.897678  0.458250  1
