# generated using pymatgen
data_Ho2Er6Ga12Ir3Au
_symmetry_space_group_name_H-M   'P 1'
_cell_length_a   7.05916500
_cell_length_b   8.84362036
_cell_length_c   8.84362000
_cell_angle_alpha   119.99999864
_cell_angle_beta   90.00000000
_cell_angle_gamma   90.00000000
_symmetry_Int_Tables_number   1
_chemical_formula_structural   Ho2Er6Ga12Ir3Au
_chemical_formula_sum   'Ho2 Er6 Ga12 Ir3 Au1'
_cell_volume   478.12795319
_cell_formula_units_Z   1
loop_
 _symmetry_equiv_pos_site_id
 _symmetry_equiv_pos_as_xyz
  1  'x, y, z'
loop_
 _atom_site_type_symbol
 _atom_site_label
 _atom_site_symmetry_multiplicity
 _atom_site_fract_x
 _atom_site_fract_y
 _atom_site_fract_z
 _atom_site_occupancy
  Ho  Ho0  1  0.757600  0.000000  0.000000  1
  Ho  Ho1  1  0.251145  0.000000  0.000000  1
  Er  Er2  1  0.748282  0.471271  0.528729  1
  Er  Er3  1  0.244162  0.518306  0.481694  1
  Er  Er4  1  0.748282  0.057459  0.528729  1
  Er  Er5  1  0.244162  0.963387  0.481694  1
  Er  Er6  1  0.748282  0.471271  0.942541  1
  Er  Er7  1  0.244162  0.518306  0.036613  1
  Ga  Ga8  1  0.948162  0.829501  0.170499  1
  Ga  Ga9  1  0.046949  0.168667  0.831333  1
  Ga  Ga10  1  0.948162  0.340999  0.170499  1
  Ga  Ga11  1  0.452003  0.168520  0.831480  1
  Ga  Ga12  1  0.046949  0.662663  0.831333  1
  Ga  Ga13  1  0.548416  0.836201  0.163799  1
  Ga  Ga14  1  0.948162  0.829501  0.659001  1
  Ga  Ga15  1  0.452003  0.662960  0.831480  1
  Ga  Ga16  1  0.046949  0.168667  0.337337  1
  Ga  Ga17  1  0.548416  0.327598  0.163799  1
  Ga  Ga18  1  0.452003  0.168520  0.337040  1
  Ga  Ga19  1  0.548416  0.836201  0.672402  1
  Ir  Ir20  1  0.981470  0.666667  0.333333  1
  Ir  Ir21  1  0.032414  0.333333  0.666667  1
  Ir  Ir22  1  0.467270  0.333333  0.666667  1
  Au  Au23  1  0.546176  0.666667  0.333333  1
