# generated using pymatgen
data_Ho8Ni2AgHg
_symmetry_space_group_name_H-M   'P 1'
_cell_length_a   9.40896919
_cell_length_b   9.40896959
_cell_length_c   9.41072100
_cell_angle_alpha   59.99384579
_cell_angle_beta   59.99384439
_cell_angle_gamma   60.25052581
_symmetry_Int_Tables_number   1
_chemical_formula_structural   Ho8Ni2AgHg
_chemical_formula_sum   'Ho16 Ni4 Ag2 Hg2'
_cell_volume   590.15620580
_cell_formula_units_Z   2
loop_
 _symmetry_equiv_pos_site_id
 _symmetry_equiv_pos_as_xyz
  1  'x, y, z'
loop_
 _atom_site_type_symbol
 _atom_site_label
 _atom_site_symmetry_multiplicity
 _atom_site_fract_x
 _atom_site_fract_y
 _atom_site_fract_z
 _atom_site_occupancy
  Ho  Ho0  1  0.349367  0.349367  0.348198  1
  Ho  Ho1  1  0.349367  0.349367  0.953068  1
  Ho  Ho2  1  0.353834  0.944662  0.350752  1
  Ho  Ho3  1  0.944662  0.353834  0.350752  1
  Ho  Ho4  1  0.811463  0.189507  0.189008  1
  Ho  Ho5  1  0.189507  0.811463  0.810021  1
  Ho  Ho6  1  0.189507  0.811463  0.189008  1
  Ho  Ho7  1  0.811463  0.189507  0.810021  1
  Ho  Ho8  1  0.189261  0.189261  0.810739  1
  Ho  Ho9  1  0.811318  0.811318  0.188682  1
  Ho  Ho10  1  0.939027  0.563722  0.563558  1
  Ho  Ho11  1  0.563722  0.939027  0.933693  1
  Ho  Ho12  1  0.563722  0.939027  0.563558  1
  Ho  Ho13  1  0.939027  0.563722  0.933693  1
  Ho  Ho14  1  0.564649  0.564649  0.935351  1
  Ho  Ho15  1  0.937208  0.937208  0.562792  1
  Ni  Ni16  1  0.142702  0.142702  0.145819  1
  Ni  Ni17  1  0.142702  0.142702  0.568778  1
  Ni  Ni18  1  0.141611  0.572939  0.142725  1
  Ni  Ni19  1  0.572939  0.141611  0.142725  1
  Ag  Ag20  1  0.580417  0.249579  0.585003  1
  Ag  Ag21  1  0.249579  0.580417  0.585003  1
  Hg  Hg22  1  0.581474  0.581474  0.587438  1
  Hg  Hg23  1  0.581474  0.581474  0.249614  1
