# generated using pymatgen
data_TbCe2Dy2CoBi2
_symmetry_space_group_name_H-M   'P 1'
_cell_length_a   7.96087700
_cell_length_b   9.06611700
_cell_length_c   12.25349500
_cell_angle_alpha   90.00000000
_cell_angle_beta   90.00000000
_cell_angle_gamma   90.00000000
_symmetry_Int_Tables_number   1
_chemical_formula_structural   TbCe2Dy2CoBi2
_chemical_formula_sum   'Tb4 Ce8 Dy8 Co4 Bi8'
_cell_volume   884.38671721
_cell_formula_units_Z   4
loop_
 _symmetry_equiv_pos_site_id
 _symmetry_equiv_pos_as_xyz
  1  'x, y, z'
loop_
 _atom_site_type_symbol
 _atom_site_label
 _atom_site_symmetry_multiplicity
 _atom_site_fract_x
 _atom_site_fract_y
 _atom_site_fract_z
 _atom_site_occupancy
  Tb  Tb0  1  0.837895  0.750000  0.791395  1
  Tb  Tb1  1  0.162105  0.250000  0.208605  1
  Tb  Tb2  1  0.337895  0.250000  0.708605  1
  Tb  Tb3  1  0.662105  0.750000  0.291395  1
  Ce  Ce4  1  0.654826  0.012496  0.550993  1
  Ce  Ce5  1  0.345174  0.987504  0.449007  1
  Ce  Ce6  1  0.154826  0.987504  0.949007  1
  Ce  Ce7  1  0.345174  0.512496  0.449007  1
  Ce  Ce8  1  0.845174  0.012496  0.050993  1
  Ce  Ce9  1  0.654826  0.487504  0.550993  1
  Ce  Ce10  1  0.845174  0.487504  0.050993  1
  Ce  Ce11  1  0.154826  0.512496  0.949007  1
  Dy  Dy12  1  0.367481  0.750000  0.701508  1
  Dy  Dy13  1  0.632519  0.250000  0.298492  1
  Dy  Dy14  1  0.867481  0.250000  0.798492  1
  Dy  Dy15  1  0.132519  0.750000  0.201508  1
  Dy  Dy16  1  0.979264  0.750000  0.500102  1
  Dy  Dy17  1  0.020736  0.250000  0.499898  1
  Dy  Dy18  1  0.479264  0.250000  0.999898  1
  Dy  Dy19  1  0.520736  0.750000  0.000102  1
  Co  Co20  1  0.630170  0.750000  0.539170  1
  Co  Co21  1  0.369830  0.250000  0.460830  1
  Co  Co22  1  0.130170  0.250000  0.960830  1
  Co  Co23  1  0.869830  0.750000  0.039170  1
  Bi  Bi24  1  0.567225  0.494038  0.825793  1
  Bi  Bi25  1  0.432775  0.505962  0.174207  1
  Bi  Bi26  1  0.067225  0.505962  0.674207  1
  Bi  Bi27  1  0.432775  0.994038  0.174207  1
  Bi  Bi28  1  0.932775  0.494038  0.325793  1
  Bi  Bi29  1  0.567225  0.005962  0.825793  1
  Bi  Bi30  1  0.932775  0.005962  0.325793  1
  Bi  Bi31  1  0.067225  0.994038  0.674207  1
