# generated using pymatgen
data_Yb2YEr(Ru2O7)2
_symmetry_space_group_name_H-M   'P 1'
_cell_length_a   7.23770209
_cell_length_b   7.23770258
_cell_length_c   7.23443103
_cell_angle_alpha   59.96501350
_cell_angle_beta   59.96500997
_cell_angle_gamma   59.92551404
_symmetry_Int_Tables_number   1
_chemical_formula_structural   Yb2YEr(Ru2O7)2
_chemical_formula_sum   'Yb2 Y1 Er1 Ru4 O14'
_cell_volume   267.68012470
_cell_formula_units_Z   1
loop_
 _symmetry_equiv_pos_site_id
 _symmetry_equiv_pos_as_xyz
  1  'x, y, z'
loop_
 _atom_site_type_symbol
 _atom_site_label
 _atom_site_symmetry_multiplicity
 _atom_site_fract_x
 _atom_site_fract_y
 _atom_site_fract_z
 _atom_site_occupancy
  Yb  Yb0  1  0.125000  0.625000  0.125000  1
  Yb  Yb1  1  0.625000  0.125000  0.125000  1
  Y  Y2  1  0.125000  0.125000  0.625000  1
  Er  Er3  1  0.125000  0.125000  0.125000  1
  Ru  Ru4  1  0.625000  0.625000  0.125000  1
  Ru  Ru5  1  0.625000  0.125000  0.625000  1
  Ru  Ru6  1  0.125000  0.625000  0.625000  1
  Ru  Ru7  1  0.625000  0.625000  0.625000  1
  O  O8  1  0.244552  0.244552  0.253328  1
  O  O9  1  0.005448  0.005448  0.996672  1
  O  O10  1  0.546410  0.953495  0.547650  1
  O  O11  1  0.296404  0.705488  0.297250  1
  O  O12  1  0.552306  0.552306  0.947710  1
  O  O13  1  0.953495  0.546410  0.547650  1
  O  O14  1  0.544512  0.953596  0.952750  1
  O  O15  1  0.959223  0.959223  0.539082  1
  O  O16  1  0.953596  0.544512  0.952750  1
  O  O17  1  0.705488  0.296404  0.297250  1
  O  O18  1  0.296505  0.703590  0.702350  1
  O  O19  1  0.703590  0.296505  0.702350  1
  O  O20  1  0.290777  0.290777  0.710918  1
  O  O21  1  0.697694  0.697694  0.302290  1
