# generated using pymatgen
data_Ti2Nb3Co16Si7W
_symmetry_space_group_name_H-M   'P 1'
_cell_length_a   7.85469011
_cell_length_b   7.85254423
_cell_length_c   7.86530145
_cell_angle_alpha   59.96431216
_cell_angle_beta   59.93725143
_cell_angle_gamma   60.09845780
_symmetry_Int_Tables_number   1
_chemical_formula_structural   Ti2Nb3Co16Si7W
_chemical_formula_sum   'Ti2 Nb3 Co16 Si7 W1'
_cell_volume   343.03459286
_cell_formula_units_Z   1
loop_
 _symmetry_equiv_pos_site_id
 _symmetry_equiv_pos_as_xyz
  1  'x, y, z'
loop_
 _atom_site_type_symbol
 _atom_site_label
 _atom_site_symmetry_multiplicity
 _atom_site_fract_x
 _atom_site_fract_y
 _atom_site_fract_z
 _atom_site_occupancy
  Ti  Ti0  1  0.203763  0.796237  0.797615  1
  Ti  Ti1  1  0.797615  0.202385  0.203763  1
  Nb  Nb2  1  0.800532  0.799064  0.200936  1
  Nb  Nb3  1  0.200936  0.199468  0.800532  1
  Nb  Nb4  1  0.796604  0.203396  0.796604  1
  Co  Co5  1  0.165154  0.164670  0.166538  1
  Co  Co6  1  0.496362  0.833462  0.835330  1
  Co  Co7  1  0.833221  0.499295  0.834399  1
  Co  Co8  1  0.835330  0.834846  0.496362  1
  Co  Co9  1  0.166538  0.503638  0.165154  1
  Co  Co10  1  0.166914  0.165601  0.500705  1
  Co  Co11  1  0.500705  0.166779  0.166914  1
  Co  Co12  1  0.834399  0.833086  0.833221  1
  Co  Co13  1  0.380648  0.384346  0.379998  1
  Co  Co14  1  0.144992  0.620002  0.615654  1
  Co  Co15  1  0.618994  0.142576  0.618319  1
  Co  Co16  1  0.615654  0.619352  0.144992  1
  Co  Co17  1  0.379998  0.855008  0.380648  1
  Co  Co18  1  0.379889  0.381681  0.857424  1
  Co  Co19  1  0.857424  0.381006  0.379889  1
  Co  Co20  1  0.618319  0.620111  0.618994  1
  Si  Si21  1  0.501916  0.498084  0.501916  1
  Si  Si22  1  0.999943  0.500057  0.999943  1
  Si  Si23  1  0.499992  0.998527  0.001473  1
  Si  Si24  1  0.001473  0.500008  0.499992  1
  Si  Si25  1  0.499943  0.000057  0.499943  1
  Si  Si26  1  0.001305  0.998695  0.499967  1
  Si  Si27  1  0.499967  0.500033  0.001305  1
  W  W28  1  0.201467  0.798533  0.201467  1
