# generated using pymatgen
data_Dy2Er14MgNi4Ag3
_symmetry_space_group_name_H-M   'P 1'
_cell_length_a   9.41054604
_cell_length_b   9.41428968
_cell_length_c   9.41428938
_cell_angle_alpha   59.95721946
_cell_angle_beta   60.03796607
_cell_angle_gamma   60.03796813
_symmetry_Int_Tables_number   1
_chemical_formula_structural   Dy2Er14MgNi4Ag3
_chemical_formula_sum   'Dy2 Er14 Mg1 Ni4 Ag3'
_cell_volume   589.90645435
_cell_formula_units_Z   1
loop_
 _symmetry_equiv_pos_site_id
 _symmetry_equiv_pos_as_xyz
  1  'x, y, z'
loop_
 _atom_site_type_symbol
 _atom_site_label
 _atom_site_symmetry_multiplicity
 _atom_site_fract_x
 _atom_site_fract_y
 _atom_site_fract_z
 _atom_site_occupancy
  Dy  Dy0  1  0.184287  0.815097  0.815097  1
  Dy  Dy1  1  0.814177  0.185257  0.185257  1
  Er  Er2  1  0.813672  0.185798  0.814675  1
  Er  Er3  1  0.184659  0.814394  0.186943  1
  Er  Er4  1  0.813672  0.814675  0.185798  1
  Er  Er5  1  0.184659  0.186943  0.814394  1
  Er  Er6  1  0.597133  0.597468  0.597468  1
  Er  Er7  1  0.598042  0.598742  0.206202  1
  Er  Er8  1  0.598042  0.206202  0.598742  1
  Er  Er9  1  0.194645  0.602215  0.602215  1
  Er  Er10  1  0.058861  0.440245  0.440245  1
  Er  Er11  1  0.436828  0.063234  0.063234  1
  Er  Er12  1  0.437400  0.062719  0.436436  1
  Er  Er13  1  0.059203  0.439508  0.060503  1
  Er  Er14  1  0.437400  0.436436  0.062719  1
  Er  Er15  1  0.059203  0.060503  0.439508  1
  Mg  Mg16  1  0.537653  0.820730  0.820730  1
  Ni  Ni17  1  0.389098  0.394851  0.394851  1
  Ni  Ni18  1  0.389122  0.394249  0.821947  1
  Ni  Ni19  1  0.389122  0.821947  0.394249  1
  Ni  Ni20  1  0.821824  0.392822  0.392822  1
  Ag  Ag21  1  0.833331  0.833924  0.833924  1
  Ag  Ag22  1  0.833983  0.833593  0.498449  1
  Ag  Ag23  1  0.833983  0.498449  0.833593  1
