# generated using pymatgen
data_Pr16Cd4IrOsPt2
_symmetry_space_group_name_H-M   'P 1'
_cell_length_a   10.09995752
_cell_length_b   10.07965266
_cell_length_c   10.07965184
_cell_angle_alpha   59.71900896
_cell_angle_beta   59.72987971
_cell_angle_gamma   59.72988605
_symmetry_Int_Tables_number   1
_chemical_formula_structural   Pr16Cd4IrOsPt2
_chemical_formula_sum   'Pr16 Cd4 Ir1 Os1 Pt2'
_cell_volume   721.08622029
_cell_formula_units_Z   1
loop_
 _symmetry_equiv_pos_site_id
 _symmetry_equiv_pos_as_xyz
  1  'x, y, z'
loop_
 _atom_site_type_symbol
 _atom_site_label
 _atom_site_symmetry_multiplicity
 _atom_site_fract_x
 _atom_site_fract_y
 _atom_site_fract_z
 _atom_site_occupancy
  Pr  Pr0  1  0.353354  0.348231  0.348231  1
  Pr  Pr1  1  0.349353  0.345607  0.955127  1
  Pr  Pr2  1  0.349353  0.955127  0.345607  1
  Pr  Pr3  1  0.951214  0.348164  0.348164  1
  Pr  Pr4  1  0.812247  0.188794  0.188794  1
  Pr  Pr5  1  0.190528  0.806980  0.806980  1
  Pr  Pr6  1  0.189333  0.815075  0.189458  1
  Pr  Pr7  1  0.804926  0.188234  0.812008  1
  Pr  Pr8  1  0.189333  0.189458  0.815075  1
  Pr  Pr9  1  0.804926  0.812008  0.188234  1
  Pr  Pr10  1  0.938266  0.563025  0.563025  1
  Pr  Pr11  1  0.557596  0.939027  0.939027  1
  Pr  Pr12  1  0.564561  0.937915  0.561813  1
  Pr  Pr13  1  0.939633  0.556517  0.938984  1
  Pr  Pr14  1  0.564561  0.561813  0.937915  1
  Pr  Pr15  1  0.939633  0.938984  0.556517  1
  Cd  Cd16  1  0.579724  0.579601  0.579601  1
  Cd  Cd17  1  0.579944  0.580391  0.258555  1
  Cd  Cd18  1  0.579944  0.258555  0.580391  1
  Cd  Cd19  1  0.259169  0.579948  0.579948  1
  Ir  Ir20  1  0.575118  0.144422  0.144422  1
  Os  Os21  1  0.141066  0.142961  0.142961  1
  Pt  Pt22  1  0.143108  0.145126  0.574035  1
  Pt  Pt23  1  0.143108  0.574035  0.145126  1
