# generated using pymatgen
data_Ho4In2Cu3Rh
_symmetry_space_group_name_H-M   'P 1'
_cell_length_a   7.58381529
_cell_length_b   7.58381529
_cell_length_c   3.67159800
_cell_angle_alpha   90.00000000
_cell_angle_beta   90.00000000
_cell_angle_gamma   90.33952252
_symmetry_Int_Tables_number   1
_chemical_formula_structural   Ho4In2Cu3Rh
_chemical_formula_sum   'Ho4 In2 Cu3 Rh1'
_cell_volume   211.16551356
_cell_formula_units_Z   1
loop_
 _symmetry_equiv_pos_site_id
 _symmetry_equiv_pos_as_xyz
  1  'x, y, z'
loop_
 _atom_site_type_symbol
 _atom_site_label
 _atom_site_symmetry_multiplicity
 _atom_site_fract_x
 _atom_site_fract_y
 _atom_site_fract_z
 _atom_site_occupancy
  Ho  Ho0  1  0.337394  0.178306  0.500000  1
  Ho  Ho1  1  0.819226  0.319227  0.500000  1
  Ho  Ho2  1  0.170805  0.670805  0.500000  1
  Ho  Ho3  1  0.678306  0.837393  0.500000  1
  In  In4  1  0.005933  0.000283  0.000000  1
  In  In5  1  0.500283  0.505933  0.000000  1
  Cu  Cu6  1  0.117255  0.377517  0.000000  1
  Cu  Cu7  1  0.877518  0.617254  0.000000  1
  Cu  Cu8  1  0.373253  0.873254  0.000000  1
  Rh  Rh9  1  0.620026  0.120027  0.000000  1
