# generated using pymatgen
data_Tb6TeO12
_symmetry_space_group_name_H-M   'P 1'
_cell_length_a   6.53375020
_cell_length_b   6.53375102
_cell_length_c   6.53375135
_cell_angle_alpha   98.70163066
_cell_angle_beta   98.70163636
_cell_angle_gamma   98.70162380
_symmetry_Int_Tables_number   1
_chemical_formula_structural   Tb6TeO12
_chemical_formula_sum   'Tb6 Te1 O12'
_cell_volume   268.17599464
_cell_formula_units_Z   1
loop_
 _symmetry_equiv_pos_site_id
 _symmetry_equiv_pos_as_xyz
  1  'x, y, z'
loop_
 _atom_site_type_symbol
 _atom_site_label
 _atom_site_symmetry_multiplicity
 _atom_site_fract_x
 _atom_site_fract_y
 _atom_site_fract_z
 _atom_site_occupancy
  Tb  Tb0  1  0.855226  0.390097  0.684547  1
  Tb  Tb1  1  0.609903  0.315453  0.144774  1
  Tb  Tb2  1  0.315453  0.144774  0.609903  1
  Tb  Tb3  1  0.684547  0.855226  0.390097  1
  Tb  Tb4  1  0.390097  0.684547  0.855226  1
  Tb  Tb5  1  0.144774  0.609903  0.315453  1
  Te  Te6  1  0.000000  0.000000  0.000000  1
  O  O7  1  0.928735  0.034170  0.703829  1
  O  O8  1  0.965830  0.296171  0.071265  1
  O  O9  1  0.592976  0.177481  0.433690  1
  O  O10  1  0.822519  0.566310  0.407024  1
  O  O11  1  0.296171  0.071265  0.965830  1
  O  O12  1  0.566310  0.407024  0.822519  1
  O  O13  1  0.433690  0.592976  0.177481  1
  O  O14  1  0.703829  0.928735  0.034170  1
  O  O15  1  0.177481  0.433690  0.592976  1
  O  O16  1  0.407024  0.822519  0.566310  1
  O  O17  1  0.034170  0.703829  0.928735  1
  O  O18  1  0.071265  0.965830  0.296171  1
