# generated using pymatgen
data_NaPr3(Sn2Ir)8
_symmetry_space_group_name_H-M   'P 1'
_cell_length_a   4.52279100
_cell_length_b   7.26394460
_cell_length_c   18.68936737
_cell_angle_alpha   90.22943168
_cell_angle_beta   90.00000000
_cell_angle_gamma   90.00000000
_symmetry_Int_Tables_number   1
_chemical_formula_structural   NaPr3(Sn2Ir)8
_chemical_formula_sum   'Na1 Pr3 Sn16 Ir8'
_cell_volume   614.00253078
_cell_formula_units_Z   1
loop_
 _symmetry_equiv_pos_site_id
 _symmetry_equiv_pos_as_xyz
  1  'x, y, z'
loop_
 _atom_site_type_symbol
 _atom_site_label
 _atom_site_symmetry_multiplicity
 _atom_site_fract_x
 _atom_site_fract_y
 _atom_site_fract_z
 _atom_site_occupancy
  Na  Na0  1  0.250000  0.994416  0.857155  1
  Pr  Pr1  1  0.250000  0.502424  0.357828  1
  Pr  Pr2  1  0.750000  0.002109  0.140371  1
  Pr  Pr3  1  0.750000  0.497935  0.644559  1
  Sn  Sn4  1  0.250000  0.302666  0.182740  1
  Sn  Sn5  1  0.250000  0.196589  0.683561  1
  Sn  Sn6  1  0.750000  0.706323  0.820294  1
  Sn  Sn7  1  0.750000  0.802751  0.317426  1
  Sn  Sn8  1  0.250000  0.723859  0.192859  1
  Sn  Sn9  1  0.250000  0.780529  0.696548  1
  Sn  Sn10  1  0.750000  0.269374  0.808759  1
  Sn  Sn11  1  0.750000  0.222262  0.306090  1
  Sn  Sn12  1  0.250000  0.870838  0.028769  1
  Sn  Sn13  1  0.250000  0.634418  0.533390  1
  Sn  Sn14  1  0.750000  0.131663  0.963298  1
  Sn  Sn15  1  0.750000  0.367559  0.468616  1
  Sn  Sn16  1  0.250000  0.517410  0.930780  1
  Sn  Sn17  1  0.250000  0.979236  0.432535  1
  Sn  Sn18  1  0.750000  0.477955  0.067419  1
  Sn  Sn19  1  0.750000  0.020744  0.567248  1
  Ir  Ir20  1  0.250000  0.253973  0.037281  1
  Ir  Ir21  1  0.250000  0.248765  0.535380  1
  Ir  Ir22  1  0.750000  0.745341  0.965628  1
  Ir  Ir23  1  0.750000  0.751641  0.463745  1
  Ir  Ir24  1  0.250000  0.016784  0.286453  1
  Ir  Ir25  1  0.250000  0.482840  0.784208  1
  Ir  Ir26  1  0.750000  0.983496  0.712251  1
  Ir  Ir27  1  0.750000  0.516101  0.214808  1
