# generated using pymatgen
data_Pr3Nd2PPb3
_symmetry_space_group_name_H-M   'P 1'
_cell_length_a   9.55327404
_cell_length_b   9.54830522
_cell_length_c   7.08730000
_cell_angle_alpha   90.00000000
_cell_angle_beta   90.00000000
_cell_angle_gamma   119.98280823
_symmetry_Int_Tables_number   1
_chemical_formula_structural   Pr3Nd2PPb3
_chemical_formula_sum   'Pr6 Nd4 P2 Pb6'
_cell_volume   559.97054917
_cell_formula_units_Z   2
loop_
 _symmetry_equiv_pos_site_id
 _symmetry_equiv_pos_as_xyz
  1  'x, y, z'
loop_
 _atom_site_type_symbol
 _atom_site_label
 _atom_site_symmetry_multiplicity
 _atom_site_fract_x
 _atom_site_fract_y
 _atom_site_fract_z
 _atom_site_occupancy
  Pr  Pr0  1  0.762055  0.762112  0.750000  1
  Pr  Pr1  1  0.237945  0.000056  0.750000  1
  Pr  Pr2  1  0.666748  0.333278  0.000456  1
  Pr  Pr3  1  0.333252  0.666532  0.000456  1
  Pr  Pr4  1  0.333252  0.666532  0.499544  1
  Pr  Pr5  1  0.666748  0.333278  0.499544  1
  Nd  Nd6  1  0.000000  0.236715  0.750000  1
  Nd  Nd7  1  0.236924  0.237029  0.250000  1
  Nd  Nd8  1  0.763076  0.000104  0.250000  1
  Nd  Nd9  1  0.000000  0.763395  0.250000  1
  P  P10  1  0.000000  0.000682  0.001041  1
  P  P11  1  0.000000  0.000682  0.498959  1
  Pb  Pb12  1  0.398305  0.398862  0.750000  1
  Pb  Pb13  1  0.601695  0.000557  0.750000  1
  Pb  Pb14  1  0.000000  0.600168  0.750000  1
  Pb  Pb15  1  0.601400  0.601396  0.250000  1
  Pb  Pb16  1  0.398600  0.999995  0.250000  1
  Pb  Pb17  1  0.000000  0.398627  0.250000  1
