# generated using pymatgen
data_Yb3P6IN12
_symmetry_space_group_name_H-M   'P 1'
_cell_length_a   7.34660651
_cell_length_b   7.34660643
_cell_length_c   7.34660800
_cell_angle_alpha   109.46272705
_cell_angle_beta   109.46272683
_cell_angle_gamma   109.46270294
_symmetry_Int_Tables_number   1
_chemical_formula_structural   Yb3P6IN12
_chemical_formula_sum   'Yb3 P6 I1 N12'
_cell_volume   305.33399277
_cell_formula_units_Z   1
loop_
 _symmetry_equiv_pos_site_id
 _symmetry_equiv_pos_as_xyz
  1  'x, y, z'
loop_
 _atom_site_type_symbol
 _atom_site_label
 _atom_site_symmetry_multiplicity
 _atom_site_fract_x
 _atom_site_fract_y
 _atom_site_fract_z
 _atom_site_occupancy
  Yb  Yb0  1  0.022453  0.370548  0.022453  1
  Yb  Yb1  1  0.022453  0.022453  0.370548  1
  Yb  Yb2  1  0.370548  0.022453  0.022453  1
  P  P3  1  0.507512  0.260425  0.749882  1
  P  P4  1  0.260425  0.749882  0.507512  1
  P  P5  1  0.749882  0.507512  0.260425  1
  P  P6  1  0.749882  0.260425  0.507512  1
  P  P7  1  0.507512  0.749882  0.260425  1
  P  P8  1  0.260425  0.507512  0.749882  1
  I  I9  1  0.892243  0.892243  0.892243  1
  N  N10  1  0.387888  0.671175  0.387888  1
  N  N11  1  0.671175  0.387888  0.387888  1
  N  N12  1  0.387888  0.387888  0.671175  1
  N  N13  1  0.726755  0.313522  0.726755  1
  N  N14  1  0.002471  0.587080  0.311789  1
  N  N15  1  0.311789  0.587080  0.002471  1
  N  N16  1  0.311789  0.002471  0.587080  1
  N  N17  1  0.002471  0.311789  0.587080  1
  N  N18  1  0.726755  0.726755  0.313522  1
  N  N19  1  0.587080  0.002471  0.311789  1
  N  N20  1  0.313522  0.726755  0.726755  1
  N  N21  1  0.587080  0.311789  0.002471  1
