# generated using pymatgen
data_Dy2Tm3Lu3Sb20
_symmetry_space_group_name_H-M   'P 1'
_cell_length_a   4.20668400
_cell_length_b   13.14385639
_cell_length_c   14.50425363
_cell_angle_alpha   78.55210609
_cell_angle_beta   90.00000000
_cell_angle_gamma   90.00000000
_symmetry_Int_Tables_number   1
_chemical_formula_structural   Dy2Tm3Lu3Sb20
_chemical_formula_sum   'Dy2 Tm3 Lu3 Sb20'
_cell_volume   786.01521870
_cell_formula_units_Z   1
loop_
 _symmetry_equiv_pos_site_id
 _symmetry_equiv_pos_as_xyz
  1  'x, y, z'
loop_
 _atom_site_type_symbol
 _atom_site_label
 _atom_site_symmetry_multiplicity
 _atom_site_fract_x
 _atom_site_fract_y
 _atom_site_fract_z
 _atom_site_occupancy
  Dy  Dy0  1  0.250000  0.953795  0.358599  1
  Dy  Dy1  1  0.750000  0.046131  0.641478  1
  Tm  Tm2  1  0.750000  0.338679  0.143659  1
  Tm  Tm3  1  0.250000  0.668259  0.576181  1
  Tm  Tm4  1  0.750000  0.331856  0.423910  1
  Lu  Lu5  1  0.250000  0.395926  0.770600  1
  Lu  Lu6  1  0.750000  0.604303  0.229343  1
  Lu  Lu7  1  0.250000  0.661113  0.856066  1
  Sb  Sb8  1  0.250000  0.145174  0.778662  1
  Sb  Sb9  1  0.750000  0.854797  0.221276  1
  Sb  Sb10  1  0.250000  0.145475  0.482517  1
  Sb  Sb11  1  0.750000  0.854543  0.517422  1
  Sb  Sb12  1  0.250000  0.154130  0.169914  1
  Sb  Sb13  1  0.750000  0.845204  0.830268  1
  Sb  Sb14  1  0.250000  0.421027  0.974872  1
  Sb  Sb15  1  0.750000  0.579307  0.024630  1
  Sb  Sb16  1  0.750000  0.028955  0.910835  1
  Sb  Sb17  1  0.250000  0.971095  0.089168  1
  Sb  Sb18  1  0.750000  0.140894  0.321891  1
  Sb  Sb19  1  0.250000  0.858811  0.678252  1
  Sb  Sb20  1  0.750000  0.279333  0.936201  1
  Sb  Sb21  1  0.250000  0.720721  0.063454  1
  Sb  Sb22  1  0.750000  0.286015  0.653514  1
  Sb  Sb23  1  0.250000  0.714024  0.346490  1
  Sb  Sb24  1  0.750000  0.576186  0.735258  1
  Sb  Sb25  1  0.250000  0.424271  0.265455  1
  Sb  Sb26  1  0.750000  0.571465  0.446688  1
  Sb  Sb27  1  0.250000  0.428510  0.553395  1
