# generated using pymatgen
data_Ho3Tm17(Bi3Sb)3
_symmetry_space_group_name_H-M   'P 1'
_cell_length_a   8.11745217
_cell_length_b   9.39900200
_cell_length_c   11.85933924
_cell_angle_alpha   90.00000000
_cell_angle_beta   90.04228400
_cell_angle_gamma   90.00000000
_symmetry_Int_Tables_number   1
_chemical_formula_structural   Ho3Tm17(Bi3Sb)3
_chemical_formula_sum   'Ho3 Tm17 Bi9 Sb3'
_cell_volume   904.81929732
_cell_formula_units_Z   1
loop_
 _symmetry_equiv_pos_site_id
 _symmetry_equiv_pos_as_xyz
  1  'x, y, z'
loop_
 _atom_site_type_symbol
 _atom_site_label
 _atom_site_symmetry_multiplicity
 _atom_site_fract_x
 _atom_site_fract_y
 _atom_site_fract_z
 _atom_site_occupancy
  Ho  Ho0  1  0.812302  0.250000  0.280396  1
  Ho  Ho1  1  0.684002  0.750000  0.782441  1
  Ho  Ho2  1  0.183999  0.750000  0.717462  1
  Tm  Tm3  1  0.354005  0.750000  0.214875  1
  Tm  Tm4  1  0.853947  0.750000  0.285000  1
  Tm  Tm5  1  0.646158  0.250000  0.785322  1
  Tm  Tm6  1  0.146917  0.250000  0.717742  1
  Tm  Tm7  1  0.688892  0.564254  0.058424  1
  Tm  Tm8  1  0.189644  0.932474  0.441365  1
  Tm  Tm9  1  0.311224  0.064093  0.941796  1
  Tm  Tm10  1  0.808984  0.437709  0.559367  1
  Tm  Tm11  1  0.311224  0.435907  0.941796  1
  Tm  Tm12  1  0.808984  0.062291  0.559367  1
  Tm  Tm13  1  0.688892  0.935746  0.058424  1
  Tm  Tm14  1  0.189644  0.567526  0.441365  1
  Tm  Tm15  1  0.477011  0.250000  0.488892  1
  Tm  Tm16  1  0.973753  0.250000  0.011230  1
  Tm  Tm17  1  0.526690  0.750000  0.511098  1
  Tm  Tm18  1  0.026473  0.750000  0.989068  1
  Tm  Tm19  1  0.316918  0.250000  0.215571  1
  Bi  Bi20  1  0.095976  0.250000  0.457705  1
  Bi  Bi21  1  0.565473  0.995773  0.325570  1
  Bi  Bi22  1  0.066873  0.503956  0.174249  1
  Bi  Bi23  1  0.433791  0.495462  0.674208  1
  Bi  Bi24  1  0.933728  0.004420  0.826023  1
  Bi  Bi25  1  0.433791  0.004538  0.674208  1
  Bi  Bi26  1  0.933728  0.495580  0.826023  1
  Bi  Bi27  1  0.565473  0.504227  0.325570  1
  Bi  Bi28  1  0.066873  0.996044  0.174249  1
  Sb  Sb29  1  0.404872  0.750000  0.959179  1
  Sb  Sb30  1  0.904844  0.750000  0.540738  1
  Sb  Sb31  1  0.594912  0.250000  0.041282  1
