# generated using pymatgen
data_Zr4Al18Ir5Ru
_symmetry_space_group_name_H-M   'P 1'
_cell_length_a   7.47119414
_cell_length_b   7.47119361
_cell_length_c   9.28950329
_cell_angle_alpha   90.01439616
_cell_angle_beta   90.01439610
_cell_angle_gamma   119.83865118
_symmetry_Int_Tables_number   1
_chemical_formula_structural   Zr4Al18Ir5Ru
_chemical_formula_sum   'Zr4 Al18 Ir5 Ru1'
_cell_volume   449.78699126
_cell_formula_units_Z   1
loop_
 _symmetry_equiv_pos_site_id
 _symmetry_equiv_pos_as_xyz
  1  'x, y, z'
loop_
 _atom_site_type_symbol
 _atom_site_label
 _atom_site_symmetry_multiplicity
 _atom_site_fract_x
 _atom_site_fract_y
 _atom_site_fract_z
 _atom_site_occupancy
  Zr  Zr0  1  0.993701  0.670969  0.249672  1
  Zr  Zr1  1  0.005828  0.328786  0.750210  1
  Zr  Zr2  1  0.671214  0.994172  0.249790  1
  Zr  Zr3  1  0.329031  0.006299  0.750328  1
  Al  Al4  1  0.124014  0.124389  0.249943  1
  Al  Al5  1  0.875611  0.875986  0.750057  1
  Al  Al6  1  0.996139  0.334481  0.075707  1
  Al  Al7  1  0.999915  0.663566  0.924355  1
  Al  Al8  1  0.001956  0.665839  0.576404  1
  Al  Al9  1  0.334161  0.998044  0.423596  1
  Al  Al10  1  0.998054  0.334487  0.423692  1
  Al  Al11  1  0.665513  0.001946  0.576308  1
  Al  Al12  1  0.665519  0.003861  0.924293  1
  Al  Al13  1  0.336434  0.000085  0.075645  1
  Al  Al14  1  0.332078  0.332234  0.558166  1
  Al  Al15  1  0.667766  0.667922  0.441834  1
  Al  Al16  1  0.667921  0.665505  0.057321  1
  Al  Al17  1  0.334495  0.332079  0.942679  1
  Al  Al18  1  0.338027  0.552132  0.249904  1
  Al  Al19  1  0.661691  0.446398  0.751816  1
  Al  Al20  1  0.553602  0.338309  0.248184  1
  Al  Al21  1  0.447868  0.661973  0.750096  1
  Ir  Ir22  1  0.327530  0.672470  0.000000  1
  Ir  Ir23  1  0.327506  0.672494  0.500000  1
  Ir  Ir24  1  0.672189  0.327811  0.500000  1
  Ir  Ir25  1  0.999977  0.000023  0.000000  1
  Ir  Ir26  1  0.999870  0.000130  0.500000  1
  Ru  Ru27  1  0.672390  0.327610  0.000000  1
