# generated using pymatgen
data_Ho11Th5(ZnRu)4
_symmetry_space_group_name_H-M   'P 1'
_cell_length_a   9.52901025
_cell_length_b   9.58453371
_cell_length_c   9.58453403
_cell_angle_alpha   59.89019209
_cell_angle_beta   60.19145693
_cell_angle_gamma   60.19145209
_symmetry_Int_Tables_number   1
_chemical_formula_structural   Ho11Th5(ZnRu)4
_chemical_formula_sum   'Ho11 Th5 Zn4 Ru4'
_cell_volume   620.24282821
_cell_formula_units_Z   1
loop_
 _symmetry_equiv_pos_site_id
 _symmetry_equiv_pos_as_xyz
  1  'x, y, z'
loop_
 _atom_site_type_symbol
 _atom_site_label
 _atom_site_symmetry_multiplicity
 _atom_site_fract_x
 _atom_site_fract_y
 _atom_site_fract_z
 _atom_site_occupancy
  Ho  Ho0  1  0.188867  0.811133  0.811133  1
  Ho  Ho1  1  0.194365  0.807031  0.187902  1
  Ho  Ho2  1  0.810701  0.187902  0.807031  1
  Ho  Ho3  1  0.194365  0.187902  0.807031  1
  Ho  Ho4  1  0.810701  0.807031  0.187902  1
  Ho  Ho5  1  0.932835  0.567165  0.567165  1
  Ho  Ho6  1  0.565308  0.934692  0.934692  1
  Ho  Ho7  1  0.563382  0.934849  0.565227  1
  Ho  Ho8  1  0.936542  0.565227  0.934849  1
  Ho  Ho9  1  0.563382  0.565227  0.934849  1
  Ho  Ho10  1  0.936542  0.934849  0.565227  1
  Th  Th11  1  0.346324  0.353353  0.353353  1
  Th  Th12  1  0.351028  0.351843  0.946101  1
  Th  Th13  1  0.351028  0.946101  0.351843  1
  Th  Th14  1  0.946969  0.353353  0.353353  1
  Th  Th15  1  0.813172  0.186828  0.186828  1
  Zn  Zn16  1  0.581079  0.579817  0.579817  1
  Zn  Zn17  1  0.579509  0.582506  0.258477  1
  Zn  Zn18  1  0.579509  0.258477  0.582506  1
  Zn  Zn19  1  0.259289  0.579817  0.579817  1
  Ru  Ru20  1  0.129841  0.147094  0.147094  1
  Ru  Ru21  1  0.144646  0.141886  0.568822  1
  Ru  Ru22  1  0.144646  0.568822  0.141886  1
  Ru  Ru23  1  0.575970  0.147094  0.147094  1
