# generated using pymatgen
data_U3Pa(CoC3)2
_symmetry_space_group_name_H-M   'P 1'
_cell_length_a   3.54455300
_cell_length_b   6.42307474
_cell_length_c   13.13024326
_cell_angle_alpha   90.70151304
_cell_angle_beta   90.00000000
_cell_angle_gamma   90.00000000
_symmetry_Int_Tables_number   1
_chemical_formula_structural   U3Pa(CoC3)2
_chemical_formula_sum   'U6 Pa2 Co4 C12'
_cell_volume   298.91290782
_cell_formula_units_Z   2
loop_
 _symmetry_equiv_pos_site_id
 _symmetry_equiv_pos_as_xyz
  1  'x, y, z'
loop_
 _atom_site_type_symbol
 _atom_site_label
 _atom_site_symmetry_multiplicity
 _atom_site_fract_x
 _atom_site_fract_y
 _atom_site_fract_z
 _atom_site_occupancy
  U  U0  1  0.750000  0.752792  0.522358  1
  U  U1  1  0.250000  0.247208  0.477642  1
  U  U2  1  0.250000  0.624454  0.290212  1
  U  U3  1  0.750000  0.375546  0.709788  1
  U  U4  1  0.750000  0.872304  0.786397  1
  U  U5  1  0.250000  0.127696  0.213603  1
  Pa  Pa6  1  0.250000  0.747252  0.021439  1
  Pa  Pa7  1  0.750000  0.252748  0.978561  1
  Co  Co8  1  0.250000  0.508224  0.839599  1
  Co  Co9  1  0.750000  0.491776  0.160401  1
  Co  Co10  1  0.750000  0.982740  0.343413  1
  Co  Co11  1  0.250000  0.017260  0.656587  1
  C  C12  1  0.250000  0.683777  0.674993  1
  C  C13  1  0.750000  0.316223  0.325007  1
  C  C14  1  0.750000  0.822965  0.183390  1
  C  C15  1  0.250000  0.177035  0.816610  1
  C  C16  1  0.250000  0.524815  0.595905  1
  C  C17  1  0.750000  0.475185  0.404095  1
  C  C18  1  0.750000  0.978019  0.102989  1
  C  C19  1  0.250000  0.021981  0.897011  1
  C  C20  1  0.250000  0.899202  0.406492  1
  C  C21  1  0.750000  0.100798  0.593508  1
  C  C22  1  0.750000  0.602676  0.898717  1
  C  C23  1  0.250000  0.397324  0.101283  1
