# generated using pymatgen
data_Ti6Nb2Al15Co7
_symmetry_space_group_name_H-M   'P 1'
_cell_length_a   8.45044860
_cell_length_b   8.45133199
_cell_length_c   8.45044802
_cell_angle_alpha   120.08258296
_cell_angle_beta   119.94883464
_cell_angle_gamma   89.96983275
_symmetry_Int_Tables_number   1
_chemical_formula_structural   Ti6Nb2Al15Co7
_chemical_formula_sum   'Ti6 Nb2 Al15 Co7'
_cell_volume   426.65525898
_cell_formula_units_Z   1
loop_
 _symmetry_equiv_pos_site_id
 _symmetry_equiv_pos_as_xyz
  1  'x, y, z'
loop_
 _atom_site_type_symbol
 _atom_site_label
 _atom_site_symmetry_multiplicity
 _atom_site_fract_x
 _atom_site_fract_y
 _atom_site_fract_z
 _atom_site_occupancy
  Ti  Ti0  1  0.210850  0.708568  0.497718  1
  Ti  Ti1  1  0.218748  0.719104  0.931990  1
  Ti  Ti2  1  0.787114  0.719104  0.500356  1
  Ti  Ti3  1  0.784241  0.280066  0.495824  1
  Ti  Ti4  1  0.379987  0.122248  0.742262  1
  Ti  Ti5  1  0.380133  0.639841  0.259709  1
  Nb  Nb6  1  0.794600  0.289991  0.079348  1
  Nb  Nb7  1  0.210643  0.289991  0.495391  1
  Al  Al8  1  0.997343  0.507985  0.510643  1
  Al  Al9  1  0.160595  0.339013  0.178417  1
  Al  Al10  1  0.156860  0.970245  0.813385  1
  Al  Al11  1  0.154464  0.342410  0.812833  1
  Al  Al12  1  0.529576  0.342410  0.187946  1
  Al  Al13  1  0.843104  0.654742  0.811639  1
  Al  Al14  1  0.839097  0.019036  0.179939  1
  Al  Al15  1  0.840482  0.659279  0.182335  1
  Al  Al16  1  0.476945  0.659279  0.818798  1
  Al  Al17  1  0.380318  0.120173  0.260118  1
  Al  Al18  1  0.860055  0.120173  0.739855  1
  Al  Al19  1  0.619997  0.879789  0.259792  1
  Al  Al20  1  0.620700  0.361366  0.740665  1
  Al  Al21  1  0.619924  0.878907  0.740651  1
  Al  Al22  1  0.138255  0.878907  0.258984  1
  Co  Co23  1  0.001730  0.999425  0.501965  1
  Co  Co24  1  0.497460  0.999425  0.997695  1
  Co  Co25  1  0.496784  0.499024  0.002240  1
  Co  Co26  1  0.497612  0.500825  0.496819  1
  Co  Co27  1  0.004006  0.500825  0.003213  1
  Co  Co28  1  0.000432  0.998652  0.998220  1
  Co  Co29  1  0.497937  0.999189  0.501251  1
