# generated using pymatgen
data_Li8Tb3Ho5Sn7Bi
_symmetry_space_group_name_H-M   'P 1'
_cell_length_a   9.41609603
_cell_length_b   9.41554693
_cell_length_c   7.27949100
_cell_angle_alpha   90.09020844
_cell_angle_beta   89.99914691
_cell_angle_gamma   119.99171221
_symmetry_Int_Tables_number   1
_chemical_formula_structural   Li8Tb3Ho5Sn7Bi
_chemical_formula_sum   'Li8 Tb3 Ho5 Sn7 Bi1'
_cell_volume   558.96373067
_cell_formula_units_Z   1
loop_
 _symmetry_equiv_pos_site_id
 _symmetry_equiv_pos_as_xyz
  1  'x, y, z'
loop_
 _atom_site_type_symbol
 _atom_site_label
 _atom_site_symmetry_multiplicity
 _atom_site_fract_x
 _atom_site_fract_y
 _atom_site_fract_z
 _atom_site_occupancy
  Li  Li0  1  0.166487  0.333038  0.284127  1
  Li  Li1  1  0.167954  0.833761  0.288035  1
  Li  Li2  1  0.665749  0.833793  0.287972  1
  Li  Li3  1  0.833450  0.666850  0.787155  1
  Li  Li4  1  0.829260  0.164777  0.791674  1
  Li  Li5  1  0.335576  0.164737  0.791614  1
  Li  Li6  1  0.335307  0.670653  0.670303  1
  Li  Li7  1  0.666018  0.332074  0.171903  1
  Tb  Tb8  1  0.512437  0.024779  0.493948  1
  Tb  Tb9  1  0.516784  0.490886  0.491210  1
  Tb  Tb10  1  0.974198  0.490875  0.491130  1
  Ho  Ho11  1  0.487429  0.974916  0.994614  1
  Ho  Ho12  1  0.493446  0.514451  0.996448  1
  Ho  Ho13  1  0.020914  0.514417  0.996390  1
  Ho  Ho14  1  0.997287  0.994617  0.497165  1
  Ho  Ho15  1  0.997746  0.995445  0.002320  1
  Sn  Sn16  1  0.166318  0.833132  0.730943  1
  Sn  Sn17  1  0.666781  0.833106  0.730813  1
  Sn  Sn18  1  0.833480  0.666939  0.230173  1
  Sn  Sn19  1  0.834172  0.167133  0.229443  1
  Sn  Sn20  1  0.332950  0.167149  0.229483  1
  Sn  Sn21  1  0.332654  0.665318  0.259400  1
  Sn  Sn22  1  0.667025  0.334066  0.762324  1
  Bi  Bi23  1  0.166580  0.333088  0.733384  1
