# generated using pymatgen
data_Zr18Nb3Os5O6
_symmetry_space_group_name_H-M   'P 1'
_cell_length_a   8.61180803
_cell_length_b   8.61180850
_cell_length_c   8.66058900
_cell_angle_alpha   90.00000000
_cell_angle_beta   90.00000000
_cell_angle_gamma   120.11085433
_symmetry_Int_Tables_number   1
_chemical_formula_structural   Zr18Nb3Os5O6
_chemical_formula_sum   'Zr18 Nb3 Os5 O6'
_cell_volume   555.62343526
_cell_formula_units_Z   1
loop_
 _symmetry_equiv_pos_site_id
 _symmetry_equiv_pos_as_xyz
  1  'x, y, z'
loop_
 _atom_site_type_symbol
 _atom_site_label
 _atom_site_symmetry_multiplicity
 _atom_site_fract_x
 _atom_site_fract_y
 _atom_site_fract_z
 _atom_site_occupancy
  Zr  Zr0  1  0.452189  0.906438  0.250000  1
  Zr  Zr1  1  0.546088  0.093623  0.750000  1
  Zr  Zr2  1  0.093562  0.547811  0.250000  1
  Zr  Zr3  1  0.906377  0.453912  0.750000  1
  Zr  Zr4  1  0.452313  0.547687  0.250000  1
  Zr  Zr5  1  0.547013  0.452987  0.750000  1
  Zr  Zr6  1  0.205375  0.411404  0.561889  1
  Zr  Zr7  1  0.795514  0.591625  0.436159  1
  Zr  Zr8  1  0.588596  0.794625  0.561889  1
  Zr  Zr9  1  0.795514  0.591625  0.063841  1
  Zr  Zr10  1  0.408375  0.204486  0.436159  1
  Zr  Zr11  1  0.205375  0.411404  0.938111  1
  Zr  Zr12  1  0.204813  0.795187  0.563457  1
  Zr  Zr13  1  0.408375  0.204486  0.063841  1
  Zr  Zr14  1  0.795597  0.204403  0.437244  1
  Zr  Zr15  1  0.588596  0.794625  0.938111  1
  Zr  Zr16  1  0.795597  0.204403  0.062756  1
  Zr  Zr17  1  0.204813  0.795187  0.936543  1
  Nb  Nb18  1  0.893093  0.106907  0.750000  1
  Nb  Nb19  1  0.002349  0.997651  0.004200  1
  Nb  Nb20  1  0.002349  0.997651  0.495800  1
  Os  Os21  1  0.114124  0.225590  0.250000  1
  Os  Os22  1  0.887539  0.774871  0.750000  1
  Os  Os23  1  0.774410  0.885876  0.250000  1
  Os  Os24  1  0.225129  0.112461  0.750000  1
  Os  Os25  1  0.109724  0.890276  0.250000  1
  O  O26  1  0.497743  0.000111  0.001200  1
  O  O27  1  0.999889  0.502257  0.001200  1
  O  O28  1  0.497743  0.000111  0.498800  1
  O  O29  1  0.500971  0.499029  0.000746  1
  O  O30  1  0.999889  0.502257  0.498800  1
  O  O31  1  0.500971  0.499029  0.499254  1
