# generated using pymatgen
data_Ba5Ti3Cr2O14
_symmetry_space_group_name_H-M   'P 1'
_cell_length_a   5.88583935
_cell_length_b   5.88486385
_cell_length_c   12.19967219
_cell_angle_alpha   90.00000257
_cell_angle_beta   89.99358983
_cell_angle_gamma   119.99452935
_symmetry_Int_Tables_number   1
_chemical_formula_structural   Ba5Ti3Cr2O14
_chemical_formula_sum   'Ba5 Ti3 Cr2 O14'
_cell_volume   365.97174064
_cell_formula_units_Z   1
loop_
 _symmetry_equiv_pos_site_id
 _symmetry_equiv_pos_as_xyz
  1  'x, y, z'
loop_
 _atom_site_type_symbol
 _atom_site_label
 _atom_site_symmetry_multiplicity
 _atom_site_fract_x
 _atom_site_fract_y
 _atom_site_fract_z
 _atom_site_occupancy
  Ba  Ba0  1  0.000000  0.000000  0.000000  1
  Ba  Ba1  1  0.333221  0.666610  0.768936  1
  Ba  Ba2  1  0.666779  0.333390  0.231064  1
  Ba  Ba3  1  0.333520  0.666761  0.424520  1
  Ba  Ba4  1  0.666480  0.333239  0.575480  1
  Ti  Ti5  1  0.333297  0.666649  0.133920  1
  Ti  Ti6  1  0.666703  0.333351  0.866080  1
  Ti  Ti7  1  0.000000  0.000000  0.500000  1
  Cr  Cr8  1  0.000139  0.000070  0.287096  1
  Cr  Cr9  1  0.999861  0.999930  0.712904  1
  O  O10  1  0.333367  0.666684  0.989257  1
  O  O11  1  0.666633  0.333316  0.010743  1
  O  O12  1  0.670289  0.835145  0.191525  1
  O  O13  1  0.164522  0.835286  0.191316  1
  O  O14  1  0.164522  0.329237  0.191316  1
  O  O15  1  0.329711  0.164855  0.808475  1
  O  O16  1  0.835478  0.164714  0.808684  1
  O  O17  1  0.835478  0.670763  0.808684  1
  O  O18  1  0.699118  0.849559  0.602831  1
  O  O19  1  0.150238  0.849471  0.602818  1
  O  O20  1  0.150238  0.300767  0.602818  1
  O  O21  1  0.300882  0.150441  0.397169  1
  O  O22  1  0.849762  0.150529  0.397182  1
  O  O23  1  0.849762  0.699233  0.397182  1
