# generated using pymatgen
data_La3Sm(RuO6)2
_symmetry_space_group_name_H-M   'P 1'
_cell_length_a   10.26084049
_cell_length_b   10.26084016
_cell_length_c   5.64107430
_cell_angle_alpha   75.17728002
_cell_angle_beta   75.17728852
_cell_angle_gamma   69.52613770
_symmetry_Int_Tables_number   1
_chemical_formula_structural   La3Sm(RuO6)2
_chemical_formula_sum   'La6 Sm2 Ru4 O24'
_cell_volume   528.73595305
_cell_formula_units_Z   2
loop_
 _symmetry_equiv_pos_site_id
 _symmetry_equiv_pos_as_xyz
  1  'x, y, z'
loop_
 _atom_site_type_symbol
 _atom_site_label
 _atom_site_symmetry_multiplicity
 _atom_site_fract_x
 _atom_site_fract_y
 _atom_site_fract_z
 _atom_site_occupancy
  La  La0  1  0.064902  0.287455  0.622377  1
  La  La1  1  0.712545  0.935098  0.877623  1
  La  La2  1  0.935098  0.712545  0.377623  1
  La  La3  1  0.287455  0.064902  0.122377  1
  La  La4  1  0.635522  0.364478  0.750000  1
  La  La5  1  0.364478  0.635522  0.250000  1
  Sm  Sm6  1  0.104995  0.895005  0.750000  1
  Sm  Sm7  1  0.895005  0.104995  0.250000  1
  Ru  Ru8  1  0.499575  0.799228  0.554157  1
  Ru  Ru9  1  0.200772  0.500425  0.945843  1
  Ru  Ru10  1  0.500425  0.200772  0.445843  1
  Ru  Ru11  1  0.799228  0.499575  0.054157  1
  O  O12  1  0.613004  0.166906  0.146345  1
  O  O13  1  0.833094  0.386996  0.353655  1
  O  O14  1  0.386996  0.833094  0.853655  1
  O  O15  1  0.166906  0.613004  0.646345  1
  O  O16  1  0.474770  0.074342  0.733184  1
  O  O17  1  0.925658  0.525230  0.766816  1
  O  O18  1  0.525230  0.925658  0.266816  1
  O  O19  1  0.074342  0.474770  0.233184  1
  O  O20  1  0.327500  0.212596  0.371603  1
  O  O21  1  0.787404  0.672500  0.128397  1
  O  O22  1  0.672500  0.787404  0.628397  1
  O  O23  1  0.212596  0.327500  0.871603  1
  O  O24  1  0.892939  0.925940  0.070293  1
  O  O25  1  0.074060  0.107061  0.429707  1
  O  O26  1  0.107061  0.074060  0.929707  1
  O  O27  1  0.925940  0.892939  0.570293  1
  O  O28  1  0.163708  0.692531  0.074056  1
  O  O29  1  0.307469  0.836292  0.425944  1
  O  O30  1  0.836292  0.307469  0.925944  1
  O  O31  1  0.692531  0.163708  0.574056  1
  O  O32  1  0.382133  0.459140  0.979095  1
  O  O33  1  0.540860  0.617867  0.520905  1
  O  O34  1  0.617867  0.540860  0.020905  1
  O  O35  1  0.459140  0.382133  0.479095  1
