# generated using pymatgen
data_Sr6P13PtRh19
_symmetry_space_group_name_H-M   'P 1'
_cell_length_a   13.46955700
_cell_length_b   13.46955542
_cell_length_c   3.98357400
_cell_angle_alpha   90.00000000
_cell_angle_beta   90.00000000
_cell_angle_gamma   120.00000143
_symmetry_Int_Tables_number   1
_chemical_formula_structural   Sr6P13PtRh19
_chemical_formula_sum   'Sr6 P13 Pt1 Rh19'
_cell_volume   625.90740326
_cell_formula_units_Z   1
loop_
 _symmetry_equiv_pos_site_id
 _symmetry_equiv_pos_as_xyz
  1  'x, y, z'
loop_
 _atom_site_type_symbol
 _atom_site_label
 _atom_site_symmetry_multiplicity
 _atom_site_fract_x
 _atom_site_fract_y
 _atom_site_fract_z
 _atom_site_occupancy
  Sr  Sr0  1  0.530195  0.718590  0.248002  1
  Sr  Sr1  1  0.281410  0.811605  0.248002  1
  Sr  Sr2  1  0.188395  0.469805  0.248002  1
  Sr  Sr3  1  0.472288  0.282604  0.751925  1
  Sr  Sr4  1  0.717396  0.189684  0.751925  1
  Sr  Sr5  1  0.810316  0.527712  0.751925  1
  P  P6  1  0.519838  0.134271  0.251553  1
  P  P7  1  0.865729  0.385567  0.251553  1
  P  P8  1  0.614433  0.480162  0.251553  1
  P  P9  1  0.950422  0.721920  0.253529  1
  P  P10  1  0.278080  0.228502  0.253529  1
  P  P11  1  0.771498  0.049578  0.253529  1
  P  P12  1  0.387575  0.517555  0.748913  1
  P  P13  1  0.482445  0.870018  0.748913  1
  P  P14  1  0.129982  0.612425  0.748913  1
  P  P15  1  0.722225  0.771005  0.746808  1
  P  P16  1  0.228995  0.951221  0.746808  1
  P  P17  1  0.048779  0.277775  0.746808  1
  P  P18  1  0.000000  0.000000  0.993712  1
  Pt  Pt19  1  0.333333  0.666667  0.749634  1
  Rh  Rh20  1  0.926036  0.248996  0.254063  1
  Rh  Rh21  1  0.751004  0.677040  0.254063  1
  Rh  Rh22  1  0.322960  0.073964  0.254063  1
  Rh  Rh23  1  0.440248  0.025642  0.751249  1
  Rh  Rh24  1  0.974358  0.414607  0.751249  1
  Rh  Rh25  1  0.585393  0.559752  0.751249  1
  Rh  Rh26  1  0.666667  0.333333  0.249739  1
  Rh  Rh27  1  0.089691  0.180370  0.249773  1
  Rh  Rh28  1  0.819630  0.909321  0.249773  1
  Rh  Rh29  1  0.090679  0.910309  0.249773  1
  Rh  Rh30  1  0.024973  0.585023  0.249172  1
  Rh  Rh31  1  0.414977  0.439949  0.249172  1
  Rh  Rh32  1  0.560051  0.975027  0.249172  1
  Rh  Rh33  1  0.677073  0.925455  0.746322  1
  Rh  Rh34  1  0.074545  0.751617  0.746322  1
  Rh  Rh35  1  0.248383  0.322927  0.746322  1
  Rh  Rh36  1  0.909938  0.818409  0.750995  1
  Rh  Rh37  1  0.181591  0.091530  0.750995  1
  Rh  Rh38  1  0.908470  0.090062  0.750995  1
