# generated using pymatgen
data_Sm2Sc4Pb5
_symmetry_space_group_name_H-M   'P 1'
_cell_length_a   11.28316593
_cell_length_b   11.28316602
_cell_length_c   11.28316600
_cell_angle_alpha   131.87447161
_cell_angle_beta   59.39542041
_cell_angle_gamma   147.31045396
_symmetry_Int_Tables_number   1
_chemical_formula_structural   Sm2Sc4Pb5
_chemical_formula_sum   'Sm4 Sc8 Pb10'
_cell_volume   572.70168286
_cell_formula_units_Z   2
loop_
 _symmetry_equiv_pos_site_id
 _symmetry_equiv_pos_as_xyz
  1  'x, y, z'
loop_
 _atom_site_type_symbol
 _atom_site_label
 _atom_site_symmetry_multiplicity
 _atom_site_fract_x
 _atom_site_fract_y
 _atom_site_fract_z
 _atom_site_occupancy
  Sm  Sm0  1  0.141514  0.115471  0.256984  1
  Sm  Sm1  1  0.858485  0.884531  0.743017  1
  Sm  Sm2  1  0.358485  0.615471  0.973954  1
  Sm  Sm3  1  0.641515  0.384530  0.026044  1
  Sc  Sc4  1  0.557022  0.250000  0.307021  1
  Sc  Sc5  1  0.942979  0.250000  0.692979  1
  Sc  Sc6  1  0.442979  0.750000  0.692979  1
  Sc  Sc7  1  0.057021  0.750000  0.307021  1
  Sc  Sc8  1  0.438248  0.240088  0.678336  1
  Sc  Sc9  1  0.561753  0.759912  0.321664  1
  Sc  Sc10  1  0.061752  0.740089  0.801842  1
  Sc  Sc11  1  0.938248  0.259913  0.198159  1
  Pb  Pb12  1  0.291033  0.298198  0.589231  1
  Pb  Pb13  1  0.708967  0.701802  0.410768  1
  Pb  Pb14  1  0.208968  0.798199  0.007164  1
  Pb  Pb15  1  0.791034  0.201801  0.992836  1
  Pb  Pb16  1  0.250000  0.250000  0.000000  1
  Pb  Pb17  1  0.749999  0.749999  0.000000  1
  Pb  Pb18  1  0.070438  0.409525  0.479963  1
  Pb  Pb19  1  0.929563  0.590475  0.520037  1
  Pb  Pb20  1  0.429563  0.909526  0.339088  1
  Pb  Pb21  1  0.570437  0.090474  0.660912  1
