# generated using pymatgen
data_Sm4GaBr6
_symmetry_space_group_name_H-M   'P 1'
_cell_length_a   4.14654000
_cell_length_b   13.63496500
_cell_length_c   14.41320900
_cell_angle_alpha   90.00000000
_cell_angle_beta   90.00000000
_cell_angle_gamma   90.00000000
_symmetry_Int_Tables_number   1
_chemical_formula_structural   Sm4GaBr6
_chemical_formula_sum   'Sm8 Ga2 Br12'
_cell_volume   814.89296939
_cell_formula_units_Z   2
loop_
 _symmetry_equiv_pos_site_id
 _symmetry_equiv_pos_as_xyz
  1  'x, y, z'
loop_
 _atom_site_type_symbol
 _atom_site_label
 _atom_site_symmetry_multiplicity
 _atom_site_fract_x
 _atom_site_fract_y
 _atom_site_fract_z
 _atom_site_occupancy
  Sm  Sm0  1  0.500000  0.119277  0.338749  1
  Sm  Sm1  1  0.500000  0.880723  0.661251  1
  Sm  Sm2  1  0.500000  0.619277  0.161251  1
  Sm  Sm3  1  0.500000  0.380723  0.838749  1
  Sm  Sm4  1  0.000000  0.122691  0.581306  1
  Sm  Sm5  1  0.000000  0.877309  0.418694  1
  Sm  Sm6  1  0.000000  0.622691  0.918694  1
  Sm  Sm7  1  0.000000  0.377309  0.081306  1
  Ga  Ga8  1  0.500000  0.000000  0.500000  1
  Ga  Ga9  1  0.500000  0.500000  0.000000  1
  Br  Br10  1  0.500000  0.244838  0.164380  1
  Br  Br11  1  0.500000  0.755162  0.835620  1
  Br  Br12  1  0.500000  0.744838  0.335620  1
  Br  Br13  1  0.500000  0.255162  0.664380  1
  Br  Br14  1  0.000000  0.254571  0.411231  1
  Br  Br15  1  0.000000  0.745429  0.588769  1
  Br  Br16  1  0.000000  0.754571  0.088769  1
  Br  Br17  1  0.000000  0.245429  0.911231  1
  Br  Br18  1  0.000000  0.001582  0.243666  1
  Br  Br19  1  0.000000  0.998418  0.756334  1
  Br  Br20  1  0.000000  0.501582  0.256334  1
  Br  Br21  1  0.000000  0.498418  0.743666  1
