# generated using pymatgen
data_Y6TiCo16ReP12
_symmetry_space_group_name_H-M   'P 1'
_cell_length_a   3.70697100
_cell_length_b   10.55473400
_cell_length_c   12.24123400
_cell_angle_alpha   90.00000000
_cell_angle_beta   90.00000000
_cell_angle_gamma   90.00000000
_symmetry_Int_Tables_number   1
_chemical_formula_structural   Y6TiCo16ReP12
_chemical_formula_sum   'Y6 Ti1 Co16 Re1 P12'
_cell_volume   478.95165809
_cell_formula_units_Z   1
loop_
 _symmetry_equiv_pos_site_id
 _symmetry_equiv_pos_as_xyz
  1  'x, y, z'
loop_
 _atom_site_type_symbol
 _atom_site_label
 _atom_site_symmetry_multiplicity
 _atom_site_fract_x
 _atom_site_fract_y
 _atom_site_fract_z
 _atom_site_occupancy
  Y  Y0  1  0.000000  0.500000  0.525110  1
  Y  Y1  1  0.500000  0.000000  0.475151  1
  Y  Y2  1  0.500000  0.819116  0.204483  1
  Y  Y3  1  0.500000  0.180884  0.204483  1
  Y  Y4  1  0.000000  0.680430  0.794704  1
  Y  Y5  1  0.000000  0.319570  0.794704  1
  Ti  Ti6  1  0.000000  0.000000  0.847138  1
  Co  Co7  1  0.500000  0.500000  0.702686  1
  Co  Co8  1  0.000000  0.000000  0.296820  1
  Co  Co9  1  0.000000  0.500000  0.989576  1
  Co  Co10  1  0.500000  0.000000  0.012846  1
  Co  Co11  1  0.500000  0.334551  0.992575  1
  Co  Co12  1  0.500000  0.665449  0.992575  1
  Co  Co13  1  0.000000  0.169787  0.007672  1
  Co  Co14  1  0.000000  0.830213  0.007672  1
  Co  Co15  1  0.500000  0.296780  0.430569  1
  Co  Co16  1  0.500000  0.703220  0.430569  1
  Co  Co17  1  0.000000  0.204573  0.567643  1
  Co  Co18  1  0.000000  0.795427  0.567643  1
  Co  Co19  1  0.500000  0.878230  0.707049  1
  Co  Co20  1  0.500000  0.121770  0.707049  1
  Co  Co21  1  0.000000  0.620280  0.292349  1
  Co  Co22  1  0.000000  0.379720  0.292349  1
  Re  Re23  1  0.500000  0.500000  0.157553  1
  P  P24  1  0.500000  0.500000  0.881591  1
  P  P25  1  0.000000  0.000000  0.116757  1
  P  P26  1  0.500000  0.500000  0.349621  1
  P  P27  1  0.000000  0.000000  0.647163  1
  P  P28  1  0.500000  0.311085  0.615468  1
  P  P29  1  0.500000  0.688915  0.615468  1
  P  P30  1  0.000000  0.189062  0.383507  1
  P  P31  1  0.000000  0.810938  0.383507  1
  P  P32  1  0.500000  0.842625  0.893945  1
  P  P33  1  0.500000  0.157375  0.893945  1
  P  P34  1  0.000000  0.654239  0.109030  1
  P  P35  1  0.000000  0.345761  0.109030  1
