# generated using pymatgen
data_Th(TlI3)2
_symmetry_space_group_name_H-M   'P 1'
_cell_length_a   9.13707500
_cell_length_b   8.43622872
_cell_length_c   14.52216100
_cell_angle_alpha   55.08032585
_cell_angle_beta   90.00000000
_cell_angle_gamma   90.00000000
_symmetry_Int_Tables_number   1
_chemical_formula_structural   Th(TlI3)2
_chemical_formula_sum   'Th2 Tl4 I12'
_cell_volume   917.86116379
_cell_formula_units_Z   2
loop_
 _symmetry_equiv_pos_site_id
 _symmetry_equiv_pos_as_xyz
  1  'x, y, z'
loop_
 _atom_site_type_symbol
 _atom_site_label
 _atom_site_symmetry_multiplicity
 _atom_site_fract_x
 _atom_site_fract_y
 _atom_site_fract_z
 _atom_site_occupancy
  Th  Th0  1  0.000286  0.000367  0.999186  1
  Th  Th1  1  0.500286  0.999633  0.500814  1
  Tl  Tl2  1  0.405545  0.278154  0.747010  1
  Tl  Tl3  1  0.905545  0.721846  0.752990  1
  Tl  Tl4  1  0.593604  0.721051  0.252467  1
  Tl  Tl5  1  0.093604  0.278949  0.247533  1
  I  I6  1  0.970054  0.868732  0.245777  1
  I  I7  1  0.470054  0.131268  0.254223  1
  I  I8  1  0.030976  0.130692  0.753382  1
  I  I9  1  0.530976  0.869308  0.746618  1
  I  I10  1  0.674016  0.638071  0.560360  1
  I  I11  1  0.174016  0.361929  0.939640  1
  I  I12  1  0.325622  0.360527  0.441462  1
  I  I13  1  0.825622  0.639473  0.058538  1
  I  I14  1  0.710728  0.228323  0.942414  1
  I  I15  1  0.210728  0.771677  0.557586  1
  I  I16  1  0.289167  0.773112  0.056296  1
  I  I17  1  0.789167  0.226888  0.443704  1
