# generated using pymatgen
data_Er7U(Si4W3)4
_symmetry_space_group_name_H-M   'P 1'
_cell_length_a   6.86613249
_cell_length_b   6.86082340
_cell_length_c   12.73170172
_cell_angle_alpha   90.08758469
_cell_angle_beta   90.06456762
_cell_angle_gamma   90.03874288
_symmetry_Int_Tables_number   1
_chemical_formula_structural   Er7U(Si4W3)4
_chemical_formula_sum   'Er7 U1 Si16 W12'
_cell_volume   599.75515914
_cell_formula_units_Z   1
loop_
 _symmetry_equiv_pos_site_id
 _symmetry_equiv_pos_as_xyz
  1  'x, y, z'
loop_
 _atom_site_type_symbol
 _atom_site_label
 _atom_site_symmetry_multiplicity
 _atom_site_fract_x
 _atom_site_fract_y
 _atom_site_fract_z
 _atom_site_occupancy
  Er  Er0  1  0.501432  0.838329  0.719144  1
  Er  Er1  1  0.498634  0.162332  0.219449  1
  Er  Er2  1  0.838955  0.502198  0.281064  1
  Er  Er3  1  0.160640  0.497905  0.780838  1
  Er  Er4  1  0.662369  0.001993  0.969384  1
  Er  Er5  1  0.997883  0.336529  0.529980  1
  Er  Er6  1  0.002038  0.661962  0.030902  1
  U  U7  1  0.338411  0.994744  0.469455  1
  Si  Si8  1  0.200531  0.126523  0.683336  1
  Si  Si9  1  0.372892  0.702282  0.933432  1
  Si  Si10  1  0.626154  0.297932  0.431601  1
  Si  Si11  1  0.701793  0.373158  0.067068  1
  Si  Si12  1  0.298061  0.624977  0.566875  1
  Si  Si13  1  0.799647  0.873803  0.183942  1
  Si  Si14  1  0.126750  0.202309  0.317521  1
  Si  Si15  1  0.872626  0.798585  0.816719  1
  Si  Si16  1  0.289994  0.963388  0.064474  1
  Si  Si17  1  0.538311  0.789023  0.314439  1
  Si  Si18  1  0.463715  0.211653  0.813513  1
  Si  Si19  1  0.786379  0.535316  0.685508  1
  Si  Si20  1  0.212245  0.462695  0.185798  1
  Si  Si21  1  0.712444  0.037768  0.564376  1
  Si  Si22  1  0.963006  0.289027  0.935562  1
  Si  Si23  1  0.036315  0.711426  0.435521  1
  W  W24  1  0.333610  0.332166  0.999194  1
  W  W25  1  0.172103  0.835762  0.252659  1
  W  W26  1  0.831862  0.167433  0.750420  1
  W  W27  1  0.663772  0.671141  0.500805  1
  W  W28  1  0.165029  0.998493  0.874268  1
  W  W29  1  0.502150  0.664760  0.123794  1
  W  W30  1  0.493646  0.331125  0.621189  1
  W  W31  1  0.663765  0.502027  0.877151  1
  W  W32  1  0.334420  0.496486  0.375694  1
  W  W33  1  0.835489  0.003510  0.373560  1
  W  W34  1  0.999712  0.163954  0.125867  1
  W  W35  1  0.003217  0.837284  0.625500  1
