# generated using pymatgen
data_Ca8HoErIr4
_symmetry_space_group_name_H-M   'P 1'
_cell_length_a   6.61421893
_cell_length_b   7.40678273
_cell_length_c   8.65711893
_cell_angle_alpha   97.31326532
_cell_angle_beta   112.45826890
_cell_angle_gamma   89.99999542
_symmetry_Int_Tables_number   1
_chemical_formula_structural   Ca8HoErIr4
_chemical_formula_sum   'Ca8 Ho1 Er1 Ir4'
_cell_volume   388.21148163
_cell_formula_units_Z   1
loop_
 _symmetry_equiv_pos_site_id
 _symmetry_equiv_pos_as_xyz
  1  'x, y, z'
loop_
 _atom_site_type_symbol
 _atom_site_label
 _atom_site_symmetry_multiplicity
 _atom_site_fract_x
 _atom_site_fract_y
 _atom_site_fract_z
 _atom_site_occupancy
  Ca  Ca0  1  0.976141  0.920241  0.173019  1
  Ca  Ca1  1  0.803124  0.579759  0.826981  1
  Ca  Ca2  1  0.023803  0.079551  0.826948  1
  Ca  Ca3  1  0.196854  0.420449  0.173052  1
  Ca  Ca4  1  0.641148  0.819769  0.436076  1
  Ca  Ca5  1  0.205072  0.680231  0.563924  1
  Ca  Ca6  1  0.358771  0.180181  0.563744  1
  Ca  Ca7  1  0.795028  0.319819  0.436256  1
  Ho  Ho8  1  0.561542  0.250000  0.000000  1
  Er  Er9  1  0.438757  0.750000  0.000000  1
  Ir  Ir10  1  0.806291  0.574102  0.207470  1
  Ir  Ir11  1  0.598821  0.925898  0.792530  1
  Ir  Ir12  1  0.193617  0.426591  0.792586  1
  Ir  Ir13  1  0.401030  0.073409  0.207414  1
