# generated using pymatgen
data_Pr2Nd10Al2I17
_symmetry_space_group_name_H-M   'P 1'
_cell_length_a   10.03496536
_cell_length_b   11.97980379
_cell_length_c   11.79396057
_cell_angle_alpha   94.17007365
_cell_angle_beta   104.55326820
_cell_angle_gamma   115.09332341
_symmetry_Int_Tables_number   1
_chemical_formula_structural   Pr2Nd10Al2I17
_chemical_formula_sum   'Pr2 Nd10 Al2 I17'
_cell_volume   1216.54458597
_cell_formula_units_Z   1
loop_
 _symmetry_equiv_pos_site_id
 _symmetry_equiv_pos_as_xyz
  1  'x, y, z'
loop_
 _atom_site_type_symbol
 _atom_site_label
 _atom_site_symmetry_multiplicity
 _atom_site_fract_x
 _atom_site_fract_y
 _atom_site_fract_z
 _atom_site_occupancy
  Pr  Pr0  1  0.774501  0.337380  0.992733  1
  Pr  Pr1  1  0.837381  0.710355  0.856687  1
  Nd  Nd2  1  0.065503  0.527913  0.333052  1
  Nd  Nd3  1  0.988800  0.812528  0.572809  1
  Nd  Nd4  1  0.628344  0.238524  0.284127  1
  Nd  Nd5  1  0.011621  0.187258  0.427757  1
  Nd  Nd6  1  0.224852  0.662837  0.006273  1
  Nd  Nd7  1  0.279035  0.001175  0.908495  1
  Nd  Nd8  1  0.372178  0.761055  0.715620  1
  Nd  Nd9  1  0.934797  0.471828  0.667448  1
  Nd  Nd10  1  0.721307  0.998829  0.091654  1
  Nd  Nd11  1  0.161623  0.289901  0.144289  1
  Al  Al12  1  0.107077  0.736568  0.787517  1
  Al  Al13  1  0.894045  0.263268  0.213079  1
  I  I14  1  0.778328  0.528407  0.416398  1
  I  I15  1  0.628430  0.414896  0.740291  1
  I  I16  1  0.840836  0.894028  0.320122  1
  I  I17  1  0.321606  0.211537  0.369809  1
  I  I18  1  0.159245  0.105918  0.679928  1
  I  I19  1  0.586135  0.053877  0.832541  1
  I  I20  1  0.740815  0.168387  0.535253  1
  I  I21  1  0.536180  0.689909  0.954172  1
  I  I22  1  0.369200  0.583383  0.256570  1
  I  I23  1  0.221769  0.471476  0.583682  1
  I  I24  1  0.060335  0.364514  0.890604  1
  I  I25  1  0.460473  0.309676  0.047085  1
  I  I26  1  0.001379  0.001882  0.000818  1
  I  I27  1  0.259275  0.831627  0.464790  1
  I  I28  1  0.413045  0.944321  0.166705  1
  I  I29  1  0.677387  0.789210  0.628004  1
  I  I30  1  0.944494  0.637533  0.111687  1
