# generated using pymatgen
data_Cs3Ho2Cl9
_symmetry_space_group_name_H-M   'P 1'
_cell_length_a   9.94704039
_cell_length_b   9.94703959
_cell_length_c   9.94704049
_cell_angle_alpha   83.46002095
_cell_angle_beta   83.46002350
_cell_angle_gamma   83.46002342
_symmetry_Int_Tables_number   1
_chemical_formula_structural   Cs3Ho2Cl9
_chemical_formula_sum   'Cs6 Ho4 Cl18'
_cell_volume   966.33709315
_cell_formula_units_Z   2
loop_
 _symmetry_equiv_pos_site_id
 _symmetry_equiv_pos_as_xyz
  1  'x, y, z'
loop_
 _atom_site_type_symbol
 _atom_site_label
 _atom_site_symmetry_multiplicity
 _atom_site_fract_x
 _atom_site_fract_y
 _atom_site_fract_z
 _atom_site_occupancy
  Cs  Cs0  1  0.589807  0.910193  0.250000  1
  Cs  Cs1  1  0.250000  0.589807  0.910193  1
  Cs  Cs2  1  0.910193  0.250000  0.589807  1
  Cs  Cs3  1  0.750000  0.410193  0.089807  1
  Cs  Cs4  1  0.089807  0.750000  0.410193  1
  Cs  Cs5  1  0.410193  0.089807  0.750000  1
  Ho  Ho6  1  0.848139  0.848139  0.848139  1
  Ho  Ho7  1  0.348139  0.348139  0.348139  1
  Ho  Ho8  1  0.151861  0.151861  0.151861  1
  Ho  Ho9  1  0.651861  0.651861  0.651861  1
  Cl  Cl10  1  0.098101  0.401899  0.250000  1
  Cl  Cl11  1  0.250000  0.098101  0.401899  1
  Cl  Cl12  1  0.401899  0.250000  0.098101  1
  Cl  Cl13  1  0.750000  0.901899  0.598101  1
  Cl  Cl14  1  0.598101  0.750000  0.901899  1
  Cl  Cl15  1  0.901899  0.598101  0.750000  1
  Cl  Cl16  1  0.235470  0.414934  0.577719  1
  Cl  Cl17  1  0.577719  0.235470  0.414934  1
  Cl  Cl18  1  0.414934  0.577719  0.235470  1
  Cl  Cl19  1  0.077719  0.914934  0.735470  1
  Cl  Cl20  1  0.735470  0.077719  0.914934  1
  Cl  Cl21  1  0.914934  0.735470  0.077719  1
  Cl  Cl22  1  0.764530  0.585066  0.422281  1
  Cl  Cl23  1  0.422281  0.764530  0.585066  1
  Cl  Cl24  1  0.585066  0.422281  0.764530  1
  Cl  Cl25  1  0.922281  0.085066  0.264530  1
  Cl  Cl26  1  0.264530  0.922281  0.085066  1
  Cl  Cl27  1  0.085066  0.264530  0.922281  1
