# generated using pymatgen
data_La16Y4Ir7Ru5
_symmetry_space_group_name_H-M   'P 1'
_cell_length_a   11.31012836
_cell_length_b   11.31012836
_cell_length_c   6.59572429
_cell_angle_alpha   89.97610257
_cell_angle_beta   89.97610257
_cell_angle_gamma   90.01615766
_symmetry_Int_Tables_number   1
_chemical_formula_structural   La16Y4Ir7Ru5
_chemical_formula_sum   'La16 Y4 Ir7 Ru5'
_cell_volume   843.71829767
_cell_formula_units_Z   1
loop_
 _symmetry_equiv_pos_site_id
 _symmetry_equiv_pos_as_xyz
  1  'x, y, z'
loop_
 _atom_site_type_symbol
 _atom_site_label
 _atom_site_symmetry_multiplicity
 _atom_site_fract_x
 _atom_site_fract_y
 _atom_site_fract_z
 _atom_site_occupancy
  La  La0  1  0.291409  0.087266  0.386425  1
  La  La1  1  0.290850  0.912635  0.886699  1
  La  La2  1  0.709743  0.087775  0.888469  1
  La  La3  1  0.709113  0.913265  0.385958  1
  La  La4  1  0.586981  0.791612  0.886644  1
  La  La5  1  0.588275  0.208699  0.386353  1
  La  La6  1  0.412876  0.791358  0.386854  1
  La  La7  1  0.412756  0.208506  0.885903  1
  La  La8  1  0.208388  0.413019  0.613356  1
  La  La9  1  0.208642  0.587124  0.113146  1
  La  La10  1  0.791301  0.411725  0.113647  1
  La  La11  1  0.791494  0.587244  0.614097  1
  La  La12  1  0.912734  0.708591  0.113575  1
  La  La13  1  0.912225  0.290257  0.611531  1
  La  La14  1  0.087365  0.709150  0.613301  1
  La  La15  1  0.086735  0.290887  0.114042  1
  Y  Y16  1  0.999736  0.000661  0.499446  1
  Y  Y17  1  0.999339  0.000264  0.000554  1
  Y  Y18  1  0.500120  0.499900  0.000137  1
  Y  Y19  1  0.500100  0.499880  0.499863  1
  Ir  Ir20  1  0.851231  0.850745  0.749979  1
  Ir  Ir21  1  0.149255  0.148769  0.750021  1
  Ir  Ir22  1  0.149123  0.850877  0.250000  1
  Ir  Ir23  1  0.647980  0.352020  0.750000  1
  Ir  Ir24  1  0.649086  0.648564  0.249759  1
  Ir  Ir25  1  0.351436  0.350914  0.250241  1
  Ir  Ir26  1  0.351571  0.648429  0.750000  1
  Ru  Ru27  1  0.850574  0.149426  0.250000  1
  Ru  Ru28  1  0.499974  0.000066  0.118904  1
  Ru  Ru29  1  0.499782  0.000126  0.619293  1
  Ru  Ru30  1  0.999874  0.500218  0.880707  1
  Ru  Ru31  1  0.999934  0.500026  0.381096  1
