# generated using pymatgen
data_Yb12NiAg11Ge12
_symmetry_space_group_name_H-M   'P 1'
_cell_length_a   4.54746500
_cell_length_b   7.81211067
_cell_length_c   21.25801800
_cell_angle_alpha   89.77984068
_cell_angle_beta   90.00000000
_cell_angle_gamma   90.00000000
_symmetry_Int_Tables_number   1
_chemical_formula_structural   Yb12NiAg11Ge12
_chemical_formula_sum   'Yb12 Ni1 Ag11 Ge12'
_cell_volume   755.19188866
_cell_formula_units_Z   1
loop_
 _symmetry_equiv_pos_site_id
 _symmetry_equiv_pos_as_xyz
  1  'x, y, z'
loop_
 _atom_site_type_symbol
 _atom_site_label
 _atom_site_symmetry_multiplicity
 _atom_site_fract_x
 _atom_site_fract_y
 _atom_site_fract_z
 _atom_site_occupancy
  Yb  Yb0  1  0.250000  0.788322  0.165830  1
  Yb  Yb1  1  0.250000  0.778905  0.500917  1
  Yb  Yb2  1  0.250000  0.711015  0.332868  1
  Yb  Yb3  1  0.750000  0.220219  0.501968  1
  Yb  Yb4  1  0.750000  0.303658  0.672151  1
  Yb  Yb5  1  0.750000  0.279391  0.998826  1
  Yb  Yb6  1  0.250000  0.784956  0.829979  1
  Yb  Yb7  1  0.250000  0.720724  0.998122  1
  Yb  Yb8  1  0.750000  0.210936  0.167053  1
  Yb  Yb9  1  0.750000  0.288162  0.334006  1
  Yb  Yb10  1  0.250000  0.703549  0.667946  1
  Yb  Yb11  1  0.750000  0.217689  0.831979  1
  Ni  Ni12  1  0.750000  0.583854  0.761123  1
  Ag  Ag13  1  0.750000  0.583809  0.901669  1
  Ag  Ag14  1  0.250000  0.416089  0.435110  1
  Ag  Ag15  1  0.750000  0.583672  0.565655  1
  Ag  Ag16  1  0.750000  0.918398  0.406539  1
  Ag  Ag17  1  0.250000  0.418529  0.093183  1
  Ag  Ag18  1  0.250000  0.411940  0.237799  1
  Ag  Ag19  1  0.750000  0.911759  0.262088  1
  Ag  Ag20  1  0.250000  0.088540  0.738161  1
  Ag  Ag21  1  0.250000  0.084009  0.932579  1
  Ag  Ag22  1  0.750000  0.916730  0.064452  1
  Ag  Ag23  1  0.250000  0.081223  0.596461  1
  Ge  Ge24  1  0.250000  0.414242  0.896891  1
  Ge  Ge25  1  0.750000  0.894223  0.732487  1
  Ge  Ge26  1  0.750000  0.581519  0.228763  1
  Ge  Ge27  1  0.250000  0.088624  0.071830  1
  Ge  Ge28  1  0.750000  0.912787  0.927700  1
  Ge  Ge29  1  0.750000  0.912778  0.605651  1
  Ge  Ge30  1  0.250000  0.409324  0.571698  1
  Ge  Ge31  1  0.250000  0.087705  0.397608  1
  Ge  Ge32  1  0.250000  0.081431  0.271127  1
  Ge  Ge33  1  0.750000  0.588666  0.426960  1
  Ge  Ge34  1  0.250000  0.435639  0.770386  1
  Ge  Ge35  1  0.750000  0.586984  0.102439  1
