# generated using pymatgen
data_Tm12Fe3Sn2
_symmetry_space_group_name_H-M   'P 1'
_cell_length_a   8.23613825
_cell_length_b   8.23613846
_cell_length_c   8.23613894
_cell_angle_alpha   108.66830289
_cell_angle_beta   108.66830168
_cell_angle_gamma   111.08927255
_symmetry_Int_Tables_number   1
_chemical_formula_structural   Tm12Fe3Sn2
_chemical_formula_sum   'Tm12 Fe3 Sn2'
_cell_volume   429.82174135
_cell_formula_units_Z   1
loop_
 _symmetry_equiv_pos_site_id
 _symmetry_equiv_pos_as_xyz
  1  'x, y, z'
loop_
 _atom_site_type_symbol
 _atom_site_label
 _atom_site_symmetry_multiplicity
 _atom_site_fract_x
 _atom_site_fract_y
 _atom_site_fract_z
 _atom_site_occupancy
  Tm  Tm0  1  0.191888  0.427472  0.235584  1
  Tm  Tm1  1  0.808112  0.572528  0.764416  1
  Tm  Tm2  1  0.191888  0.956304  0.764416  1
  Tm  Tm3  1  0.956304  0.191888  0.764416  1
  Tm  Tm4  1  0.808112  0.043696  0.235584  1
  Tm  Tm5  1  0.043696  0.808112  0.235584  1
  Tm  Tm6  1  0.427472  0.191888  0.235584  1
  Tm  Tm7  1  0.572528  0.808112  0.764416  1
  Tm  Tm8  1  0.307632  0.307632  0.615263  1
  Tm  Tm9  1  0.692368  0.692368  0.384737  1
  Tm  Tm10  1  0.692368  0.307632  0.000000  1
  Tm  Tm11  1  0.307632  0.692368  0.000000  1
  Fe  Fe12  1  0.384234  0.384234  0.000000  1
  Fe  Fe13  1  0.615766  0.615766  0.000000  1
  Fe  Fe14  1  0.000000  0.000000  0.000000  1
  Sn  Sn15  1  0.000000  0.500000  0.500000  1
  Sn  Sn16  1  0.500000  0.000000  0.500000  1
