# generated using pymatgen
data_HoTm7Sc12Si15Pb
_symmetry_space_group_name_H-M   'P 1'
_cell_length_a   7.09919028
_cell_length_b   7.38641528
_cell_length_c   14.00852380
_cell_angle_alpha   90.02746289
_cell_angle_beta   89.41119438
_cell_angle_gamma   89.99457713
_symmetry_Int_Tables_number   1
_chemical_formula_structural   HoTm7Sc12Si15Pb
_chemical_formula_sum   'Ho1 Tm7 Sc12 Si15 Pb1'
_cell_volume   734.53403624
_cell_formula_units_Z   1
loop_
 _symmetry_equiv_pos_site_id
 _symmetry_equiv_pos_as_xyz
  1  'x, y, z'
loop_
 _atom_site_type_symbol
 _atom_site_label
 _atom_site_symmetry_multiplicity
 _atom_site_fract_x
 _atom_site_fract_y
 _atom_site_fract_z
 _atom_site_occupancy
  Ho  Ho0  1  0.503499  0.687106  0.600168  1
  Tm  Tm1  1  0.012700  0.176751  0.096366  1
  Tm  Tm2  1  0.987489  0.823915  0.904928  1
  Tm  Tm3  1  0.488556  0.677260  0.904292  1
  Tm  Tm4  1  0.988460  0.832015  0.598519  1
  Tm  Tm5  1  0.511499  0.322904  0.096721  1
  Tm  Tm6  1  0.004186  0.169225  0.398165  1
  Tm  Tm7  1  0.514798  0.317672  0.398016  1
  Sc  Sc8  1  0.161996  0.502813  0.756762  1
  Sc  Sc9  1  0.837102  0.496808  0.249322  1
  Sc  Sc10  1  0.337484  0.003444  0.249285  1
  Sc  Sc11  1  0.664175  0.996860  0.751890  1
  Sc  Sc12  1  0.344200  0.158884  0.631842  1
  Sc  Sc13  1  0.663967  0.826209  0.372211  1
  Sc  Sc14  1  0.162480  0.684620  0.368519  1
  Sc  Sc15  1  0.668542  0.822656  0.123892  1
  Sc  Sc16  1  0.821689  0.323445  0.626843  1
  Sc  Sc17  1  0.330161  0.175733  0.875875  1
  Sc  Sc18  1  0.830453  0.323238  0.875847  1
  Sc  Sc19  1  0.169307  0.677131  0.124999  1
  Si  Si20  1  0.034391  0.117178  0.751681  1
  Si  Si21  1  0.963757  0.887222  0.246184  1
  Si  Si22  1  0.466023  0.613552  0.248147  1
  Si  Si23  1  0.531689  0.387029  0.752516  1
  Si  Si24  1  0.285608  0.867875  0.753313  1
  Si  Si25  1  0.712972  0.128543  0.246758  1
  Si  Si26  1  0.212398  0.370619  0.248890  1
  Si  Si27  1  0.790171  0.630247  0.752199  1
  Si  Si28  1  0.825164  0.539245  0.458049  1
  Si  Si29  1  0.335712  0.965040  0.459747  1
  Si  Si30  1  0.841707  0.533782  0.039472  1
  Si  Si31  1  0.664830  0.038226  0.537471  1
  Si  Si32  1  0.157805  0.465229  0.962088  1
  Si  Si33  1  0.657664  0.034672  0.960678  1
  Si  Si34  1  0.341037  0.965843  0.039974  1
  Pb  Pb35  1  0.176326  0.457011  0.538370  1
