# generated using pymatgen
data_Nb6Zn5CuRh12
_symmetry_space_group_name_H-M   'P 1'
_cell_length_a   4.09329400
_cell_length_b   7.15672400
_cell_length_c   12.29320800
_cell_angle_alpha   90.00000000
_cell_angle_beta   90.00000000
_cell_angle_gamma   90.00000000
_symmetry_Int_Tables_number   1
_chemical_formula_structural   Nb6Zn5CuRh12
_chemical_formula_sum   'Nb6 Zn5 Cu1 Rh12'
_cell_volume   360.12430877
_cell_formula_units_Z   1
loop_
 _symmetry_equiv_pos_site_id
 _symmetry_equiv_pos_as_xyz
  1  'x, y, z'
loop_
 _atom_site_type_symbol
 _atom_site_label
 _atom_site_symmetry_multiplicity
 _atom_site_fract_x
 _atom_site_fract_y
 _atom_site_fract_z
 _atom_site_occupancy
  Nb  Nb0  1  0.000000  0.499999  0.000000  1
  Nb  Nb1  1  0.500007  0.000000  0.161535  1
  Nb  Nb2  1  0.000000  0.499999  0.333131  1
  Nb  Nb3  1  0.499999  0.000000  0.500000  1
  Nb  Nb4  1  0.000000  0.499999  0.666869  1
  Nb  Nb5  1  0.499992  0.000000  0.838465  1
  Zn  Zn6  1  0.500004  0.499999  0.167088  1
  Zn  Zn7  1  0.000000  0.000000  0.332400  1
  Zn  Zn8  1  0.499999  0.499999  0.500000  1
  Zn  Zn9  1  0.000000  0.000000  0.667600  1
  Zn  Zn10  1  0.499994  0.499999  0.832912  1
  Cu  Cu11  1  0.000000  0.000000  0.000000  1
  Rh  Rh12  1  0.499999  0.252527  0.000000  1
  Rh  Rh13  1  0.499999  0.747473  0.000000  1
  Rh  Rh14  1  0.000000  0.250570  0.166252  1
  Rh  Rh15  1  0.000000  0.749431  0.166252  1
  Rh  Rh16  1  0.500009  0.249011  0.332944  1
  Rh  Rh17  1  0.500009  0.750989  0.332944  1
  Rh  Rh18  1  0.000000  0.249841  0.500000  1
  Rh  Rh19  1  0.000000  0.750159  0.500000  1
  Rh  Rh20  1  0.499992  0.249011  0.667055  1
  Rh  Rh21  1  0.499992  0.750989  0.667055  1
  Rh  Rh22  1  0.000000  0.250570  0.833748  1
  Rh  Rh23  1  0.000000  0.749431  0.833748  1
