# generated using pymatgen
data_Lu4Al5GaTc2
_symmetry_space_group_name_H-M   'P 1'
_cell_length_a   5.42724222
_cell_length_b   5.42454804
_cell_length_c   8.86362200
_cell_angle_alpha   90.00000000
_cell_angle_beta   90.00000000
_cell_angle_gamma   119.98356073
_symmetry_Int_Tables_number   1
_chemical_formula_structural   Lu4Al5GaTc2
_chemical_formula_sum   'Lu4 Al5 Ga1 Tc2'
_cell_volume   226.02503323
_cell_formula_units_Z   1
loop_
 _symmetry_equiv_pos_site_id
 _symmetry_equiv_pos_as_xyz
  1  'x, y, z'
loop_
 _atom_site_type_symbol
 _atom_site_label
 _atom_site_symmetry_multiplicity
 _atom_site_fract_x
 _atom_site_fract_y
 _atom_site_fract_z
 _atom_site_occupancy
  Lu  Lu0  1  0.333321  0.666661  0.450808  1
  Lu  Lu1  1  0.666241  0.333120  0.551942  1
  Lu  Lu2  1  0.666241  0.333120  0.948058  1
  Lu  Lu3  1  0.333321  0.666661  0.049192  1
  Al  Al4  1  0.837198  0.163216  0.250000  1
  Al  Al5  1  0.837198  0.673982  0.250000  1
  Al  Al6  1  0.326628  0.163314  0.250000  1
  Al  Al7  1  0.161527  0.835818  0.750000  1
  Al  Al8  1  0.161527  0.325709  0.750000  1
  Ga  Ga9  1  0.666968  0.833484  0.750000  1
  Tc  Tc10  1  0.004915  0.002458  0.499102  1
  Tc  Tc11  1  0.004915  0.002458  0.000898  1
