# generated using pymatgen
data_Er10In8Co3Ir
_symmetry_space_group_name_H-M   'P 1'
_cell_length_a   3.55800600
_cell_length_b   7.96636205
_cell_length_c   18.02312700
_cell_angle_alpha   90.03927916
_cell_angle_beta   90.00000000
_cell_angle_gamma   90.00000000
_symmetry_Int_Tables_number   1
_chemical_formula_structural   Er10In8Co3Ir
_chemical_formula_sum   'Er10 In8 Co3 Ir1'
_cell_volume   510.85395127
_cell_formula_units_Z   1
loop_
 _symmetry_equiv_pos_site_id
 _symmetry_equiv_pos_as_xyz
  1  'x, y, z'
loop_
 _atom_site_type_symbol
 _atom_site_label
 _atom_site_symmetry_multiplicity
 _atom_site_fract_x
 _atom_site_fract_y
 _atom_site_fract_z
 _atom_site_occupancy
  Er  Er0  1  0.000000  0.118316  0.413362  1
  Er  Er1  1  0.000000  0.883180  0.592108  1
  Er  Er2  1  0.000000  0.383694  0.908720  1
  Er  Er3  1  0.000000  0.616315  0.089419  1
  Er  Er4  1  0.000000  0.250090  0.220271  1
  Er  Er5  1  0.000000  0.752201  0.778168  1
  Er  Er6  1  0.000000  0.252333  0.722823  1
  Er  Er7  1  0.000000  0.744410  0.276828  1
  Er  Er8  1  0.000000  0.000306  0.998588  1
  Er  Er9  1  0.000000  0.499009  0.501168  1
  In  In10  1  0.500000  0.433142  0.348442  1
  In  In11  1  0.500000  0.568313  0.652529  1
  In  In12  1  0.500000  0.068225  0.848013  1
  In  In13  1  0.500000  0.929555  0.147482  1
  In  In14  1  0.500000  0.295945  0.067036  1
  In  In15  1  0.500000  0.703832  0.930730  1
  In  In16  1  0.500000  0.204707  0.571106  1
  In  In17  1  0.500000  0.792893  0.434196  1
  Co  Co18  1  0.500000  0.977630  0.696959  1
  Co  Co19  1  0.500000  0.478988  0.803965  1
  Co  Co20  1  0.500000  0.522804  0.195013  1
  Ir  Ir21  1  0.500000  0.024114  0.303074  1
