# generated using pymatgen
data_Pr2Ho8In8IrPd3
_symmetry_space_group_name_H-M   'P 1'
_cell_length_a   3.63969300
_cell_length_b   8.18263547
_cell_length_c   18.40466706
_cell_angle_alpha   90.10476501
_cell_angle_beta   90.00000000
_cell_angle_gamma   90.00000000
_symmetry_Int_Tables_number   1
_chemical_formula_structural   Pr2Ho8In8IrPd3
_chemical_formula_sum   'Pr2 Ho8 In8 Ir1 Pd3'
_cell_volume   548.13205080
_cell_formula_units_Z   1
loop_
 _symmetry_equiv_pos_site_id
 _symmetry_equiv_pos_as_xyz
  1  'x, y, z'
loop_
 _atom_site_type_symbol
 _atom_site_label
 _atom_site_symmetry_multiplicity
 _atom_site_fract_x
 _atom_site_fract_y
 _atom_site_fract_z
 _atom_site_occupancy
  Pr  Pr0  1  0.000000  0.500136  0.500197  1
  Pr  Pr1  1  0.000000  0.999883  0.000652  1
  Ho  Ho2  1  0.000000  0.727307  0.278284  1
  Ho  Ho3  1  0.000000  0.261101  0.718268  1
  Ho  Ho4  1  0.000000  0.760951  0.781263  1
  Ho  Ho5  1  0.000000  0.254452  0.218860  1
  Ho  Ho6  1  0.000000  0.617532  0.088452  1
  Ho  Ho7  1  0.000000  0.379598  0.915354  1
  Ho  Ho8  1  0.000000  0.879407  0.584456  1
  Ho  Ho9  1  0.000000  0.120900  0.414118  1
  In  In10  1  0.500000  0.700197  0.931131  1
  In  In11  1  0.500000  0.299922  0.069067  1
  In  In12  1  0.500000  0.800222  0.430464  1
  In  In13  1  0.500000  0.199036  0.568310  1
  In  In14  1  0.500000  0.582058  0.653704  1
  In  In15  1  0.500000  0.420464  0.347806  1
  In  In16  1  0.500000  0.921638  0.153994  1
  In  In17  1  0.500000  0.082174  0.846199  1
  Ir  Ir18  1  0.500000  0.520259  0.195655  1
  Pd  Pd19  1  0.500000  0.475541  0.804067  1
  Pd  Pd20  1  0.500000  0.975850  0.695652  1
  Pd  Pd21  1  0.500000  0.021373  0.304050  1
