# generated using pymatgen
data_K4(AlAu3)5
_symmetry_space_group_name_H-M   'P 1'
_cell_length_a   5.68292146
_cell_length_b   7.12225941
_cell_length_c   13.75690058
_cell_angle_alpha   91.34258981
_cell_angle_beta   89.81432689
_cell_angle_gamma   89.92778586
_symmetry_Int_Tables_number   1
_chemical_formula_structural   K4(AlAu3)5
_chemical_formula_sum   'K4 Al5 Au15'
_cell_volume   556.65758173
_cell_formula_units_Z   1
loop_
 _symmetry_equiv_pos_site_id
 _symmetry_equiv_pos_as_xyz
  1  'x, y, z'
loop_
 _atom_site_type_symbol
 _atom_site_label
 _atom_site_symmetry_multiplicity
 _atom_site_fract_x
 _atom_site_fract_y
 _atom_site_fract_z
 _atom_site_occupancy
  K  K0  1  0.273721  0.108451  0.085772  1
  K  K1  1  0.242800  0.384154  0.581034  1
  K  K2  1  0.751585  0.889557  0.920884  1
  K  K3  1  0.738211  0.619085  0.414406  1
  Al  Al4  1  0.990983  0.389947  0.843944  1
  Al  Al5  1  0.004360  0.114103  0.348819  1
  Al  Al6  1  0.490213  0.390234  0.848742  1
  Al  Al7  1  0.499427  0.887654  0.656081  1
  Al  Al8  1  0.002546  0.605122  0.150874  1
  Au  Au9  1  0.999617  0.877294  0.650820  1
  Au  Au10  1  0.496731  0.612596  0.148143  1
  Au  Au11  1  0.511259  0.128123  0.346978  1
  Au  Au12  1  0.249719  0.103913  0.796062  1
  Au  Au13  1  0.217902  0.413058  0.291322  1
  Au  Au14  1  0.783731  0.905845  0.207842  1
  Au  Au15  1  0.726348  0.590563  0.720077  1
  Au  Au16  1  0.252431  0.689965  0.791520  1
  Au  Au17  1  0.233841  0.809350  0.292227  1
  Au  Au18  1  0.776250  0.300680  0.200733  1
  Au  Au19  1  0.730023  0.193888  0.715461  1
  Au  Au20  1  0.218023  0.575922  0.985213  1
  Au  Au21  1  0.285300  0.914645  0.491516  1
  Au  Au22  1  0.747449  0.404288  0.000041  1
  Au  Au23  1  0.777528  0.091560  0.511491  1
