# generated using pymatgen
data_YbSm(ThNi2)2
_symmetry_space_group_name_H-M   'P 1'
_cell_length_a   3.71934400
_cell_length_b   4.25543200
_cell_length_c   10.47999100
_cell_angle_alpha   90.00000000
_cell_angle_beta   90.00000000
_cell_angle_gamma   90.00000000
_symmetry_Int_Tables_number   1
_chemical_formula_structural   YbSm(ThNi2)2
_chemical_formula_sum   'Yb1 Sm1 Th2 Ni4'
_cell_volume   165.87117175
_cell_formula_units_Z   1
loop_
 _symmetry_equiv_pos_site_id
 _symmetry_equiv_pos_as_xyz
  1  'x, y, z'
loop_
 _atom_site_type_symbol
 _atom_site_label
 _atom_site_symmetry_multiplicity
 _atom_site_fract_x
 _atom_site_fract_y
 _atom_site_fract_z
 _atom_site_occupancy
  Yb  Yb0  1  0.000000  0.000000  0.139734  1
  Sm  Sm1  1  0.500000  0.500000  0.353518  1
  Th  Th2  1  0.000000  0.500000  0.873878  1
  Th  Th3  1  0.500000  0.000000  0.630682  1
  Ni  Ni4  1  0.500000  0.500000  0.069419  1
  Ni  Ni5  1  0.000000  0.500000  0.589207  1
  Ni  Ni6  1  0.000000  0.000000  0.429444  1
  Ni  Ni7  1  0.500000  0.000000  0.914118  1
