# generated using pymatgen
data_NpS7
_symmetry_space_group_name_H-M   'P 1'
_cell_length_a   3.82681761
_cell_length_b   7.60425630
_cell_length_c   9.02143874
_cell_angle_alpha   70.63544015
_cell_angle_beta   100.62107659
_cell_angle_gamma   106.74507337
_symmetry_Int_Tables_number   1
_chemical_formula_structural   NpS7
_chemical_formula_sum   'Np1 S7'
_cell_volume   236.02292282
_cell_formula_units_Z   1
loop_
 _symmetry_equiv_pos_site_id
 _symmetry_equiv_pos_as_xyz
  1  'x, y, z'
loop_
 _atom_site_type_symbol
 _atom_site_label
 _atom_site_symmetry_multiplicity
 _atom_site_fract_x
 _atom_site_fract_y
 _atom_site_fract_z
 _atom_site_occupancy
  Np  Np0  1  0.533387  0.389275  0.623587  1
  S  S1  1  0.047082  0.232040  0.861356  1
  S  S2  1  0.911987  0.651904  0.223132  1
  S  S3  1  0.187804  0.527380  0.797663  1
  S  S4  1  0.846518  0.134420  0.567080  1
  S  S5  1  0.097140  0.654241  0.457041  1
  S  S6  1  0.672904  0.163236  0.327025  1
  S  S7  1  0.474361  0.408619  0.261713  1
