# generated using pymatgen
data_DyYLu3Pt4
_symmetry_space_group_name_H-M   'P 1'
_cell_length_a   7.43982500
_cell_length_b   7.50098800
_cell_length_c   14.54927700
_cell_angle_alpha   90.00000000
_cell_angle_beta   90.00000000
_cell_angle_gamma   90.00000000
_symmetry_Int_Tables_number   1
_chemical_formula_structural   DyYLu3Pt4
_chemical_formula_sum   'Dy4 Y4 Lu12 Pt16'
_cell_volume   811.93750582
_cell_formula_units_Z   4
loop_
 _symmetry_equiv_pos_site_id
 _symmetry_equiv_pos_as_xyz
  1  'x, y, z'
loop_
 _atom_site_type_symbol
 _atom_site_label
 _atom_site_symmetry_multiplicity
 _atom_site_fract_x
 _atom_site_fract_y
 _atom_site_fract_z
 _atom_site_occupancy
  Dy  Dy0  1  0.998696  0.820535  0.407056  1
  Dy  Dy1  1  0.498696  0.679465  0.092944  1
  Dy  Dy2  1  0.501304  0.320535  0.592944  1
  Dy  Dy3  1  0.001304  0.179465  0.907056  1
  Y  Y4  1  0.001108  0.179300  0.592890  1
  Y  Y5  1  0.501108  0.320700  0.907110  1
  Y  Y6  1  0.498892  0.679300  0.407110  1
  Y  Y7  1  0.998892  0.820700  0.092890  1
  Lu  Lu8  1  0.681017  0.990830  0.250022  1
  Lu  Lu9  1  0.181017  0.509170  0.249978  1
  Lu  Lu10  1  0.818983  0.490830  0.749978  1
  Lu  Lu11  1  0.318983  0.009170  0.750022  1
  Lu  Lu12  1  0.656142  0.832850  0.622764  1
  Lu  Lu13  1  0.156142  0.667150  0.877236  1
  Lu  Lu14  1  0.843858  0.332850  0.377236  1
  Lu  Lu15  1  0.343858  0.167150  0.122764  1
  Lu  Lu16  1  0.343834  0.167169  0.377231  1
  Lu  Lu17  1  0.843834  0.332831  0.122769  1
  Lu  Lu18  1  0.156166  0.667169  0.622769  1
  Lu  Lu19  1  0.656166  0.832831  0.877231  1
  Pt  Pt20  1  0.816439  0.641122  0.250125  1
  Pt  Pt21  1  0.316439  0.858878  0.249875  1
  Pt  Pt22  1  0.683561  0.141122  0.749875  1
  Pt  Pt23  1  0.183561  0.358878  0.750125  1
  Pt  Pt24  1  0.545557  0.382676  0.249930  1
  Pt  Pt25  1  0.045557  0.117324  0.250070  1
  Pt  Pt26  1  0.954443  0.882676  0.750070  1
  Pt  Pt27  1  0.454443  0.617324  0.749930  1
  Pt  Pt28  1  0.818193  0.535161  0.542079  1
  Pt  Pt29  1  0.318193  0.964839  0.957921  1
  Pt  Pt30  1  0.681807  0.035161  0.457921  1
  Pt  Pt31  1  0.181807  0.464839  0.042079  1
  Pt  Pt32  1  0.181582  0.464942  0.457899  1
  Pt  Pt33  1  0.681582  0.035058  0.042101  1
  Pt  Pt34  1  0.318418  0.964942  0.542101  1
  Pt  Pt35  1  0.818418  0.535058  0.957899  1
