# generated using pymatgen
data_TmLu2(Co3P2)3
_symmetry_space_group_name_H-M   'P 1'
_cell_length_a   3.65914800
_cell_length_b   10.46208800
_cell_length_c   12.08327600
_cell_angle_alpha   90.00000000
_cell_angle_beta   90.00000000
_cell_angle_gamma   90.00000000
_symmetry_Int_Tables_number   1
_chemical_formula_structural   TmLu2(Co3P2)3
_chemical_formula_sum   'Tm2 Lu4 Co18 P12'
_cell_volume   462.57593975
_cell_formula_units_Z   2
loop_
 _symmetry_equiv_pos_site_id
 _symmetry_equiv_pos_as_xyz
  1  'x, y, z'
loop_
 _atom_site_type_symbol
 _atom_site_label
 _atom_site_symmetry_multiplicity
 _atom_site_fract_x
 _atom_site_fract_y
 _atom_site_fract_z
 _atom_site_occupancy
  Tm  Tm0  1  0.000000  0.500000  0.522976  1
  Tm  Tm1  1  0.500000  0.000000  0.477024  1
  Lu  Lu2  1  0.500000  0.818731  0.206140  1
  Lu  Lu3  1  0.500000  0.181269  0.206140  1
  Lu  Lu4  1  0.000000  0.681269  0.793860  1
  Lu  Lu5  1  0.000000  0.318731  0.793860  1
  Co  Co6  1  0.500000  0.500000  0.159885  1
  Co  Co7  1  0.000000  0.000000  0.840115  1
  Co  Co8  1  0.500000  0.500000  0.703942  1
  Co  Co9  1  0.000000  0.000000  0.296058  1
  Co  Co10  1  0.000000  0.500000  0.986869  1
  Co  Co11  1  0.500000  0.000000  0.013131  1
  Co  Co12  1  0.500000  0.333065  0.994703  1
  Co  Co13  1  0.500000  0.666935  0.994703  1
  Co  Co14  1  0.000000  0.166935  0.005297  1
  Co  Co15  1  0.000000  0.833065  0.005297  1
  Co  Co16  1  0.500000  0.297494  0.430781  1
  Co  Co17  1  0.500000  0.702506  0.430781  1
  Co  Co18  1  0.000000  0.202506  0.569219  1
  Co  Co19  1  0.000000  0.797494  0.569219  1
  Co  Co20  1  0.500000  0.878025  0.709159  1
  Co  Co21  1  0.500000  0.121975  0.709159  1
  Co  Co22  1  0.000000  0.621975  0.290841  1
  Co  Co23  1  0.000000  0.378025  0.290841  1
  P  P24  1  0.500000  0.500000  0.882341  1
  P  P25  1  0.000000  0.000000  0.117659  1
  P  P26  1  0.500000  0.500000  0.345673  1
  P  P27  1  0.000000  0.000000  0.654327  1
  P  P28  1  0.500000  0.312147  0.616997  1
  P  P29  1  0.500000  0.687853  0.616997  1
  P  P30  1  0.000000  0.187853  0.383003  1
  P  P31  1  0.000000  0.812147  0.383003  1
  P  P32  1  0.500000  0.846210  0.891408  1
  P  P33  1  0.500000  0.153790  0.891408  1
  P  P34  1  0.000000  0.653790  0.108592  1
  P  P35  1  0.000000  0.346210  0.108592  1
