# generated using pymatgen
data_CePrDy2(AsPt)4
_symmetry_space_group_name_H-M   'P 1'
_cell_length_a   4.30997300
_cell_length_b   4.30997352
_cell_length_c   15.81297600
_cell_angle_alpha   90.00000000
_cell_angle_beta   90.00000000
_cell_angle_gamma   119.99998831
_symmetry_Int_Tables_number   1
_chemical_formula_structural   CePrDy2(AsPt)4
_chemical_formula_sum   'Ce1 Pr1 Dy2 As4 Pt4'
_cell_volume   254.38614051
_cell_formula_units_Z   1
loop_
 _symmetry_equiv_pos_site_id
 _symmetry_equiv_pos_as_xyz
  1  'x, y, z'
loop_
 _atom_site_type_symbol
 _atom_site_label
 _atom_site_symmetry_multiplicity
 _atom_site_fract_x
 _atom_site_fract_y
 _atom_site_fract_z
 _atom_site_occupancy
  Ce  Ce0  1  0.000000  0.000000  0.000000  1
  Pr  Pr1  1  0.000000  0.000000  0.500000  1
  Dy  Dy2  1  0.000000  0.000000  0.250385  1
  Dy  Dy3  1  0.000000  0.000000  0.749615  1
  As  As4  1  0.333333  0.666667  0.885188  1
  As  As5  1  0.666667  0.333333  0.114812  1
  As  As6  1  0.666667  0.333333  0.380176  1
  As  As7  1  0.333333  0.666667  0.619824  1
  Pt  Pt8  1  0.333333  0.666667  0.354913  1
  Pt  Pt9  1  0.666667  0.333333  0.645087  1
  Pt  Pt10  1  0.666667  0.333333  0.860026  1
  Pt  Pt11  1  0.333333  0.666667  0.139974  1
