# generated using pymatgen
data_Th8Al3Si12Rh
_symmetry_space_group_name_H-M   'P 1'
_cell_length_a   8.29148300
_cell_length_b   8.29148283
_cell_length_c   8.45632600
_cell_angle_alpha   90.00000000
_cell_angle_beta   90.00000000
_cell_angle_gamma   119.99999671
_symmetry_Int_Tables_number   1
_chemical_formula_structural   Th8Al3Si12Rh
_chemical_formula_sum   'Th8 Al3 Si12 Rh1'
_cell_volume   503.47369322
_cell_formula_units_Z   1
loop_
 _symmetry_equiv_pos_site_id
 _symmetry_equiv_pos_as_xyz
  1  'x, y, z'
loop_
 _atom_site_type_symbol
 _atom_site_label
 _atom_site_symmetry_multiplicity
 _atom_site_fract_x
 _atom_site_fract_y
 _atom_site_fract_z
 _atom_site_occupancy
  Th  Th0  1  0.000000  0.000000  0.750329  1
  Th  Th1  1  0.000000  0.000000  0.249890  1
  Th  Th2  1  0.498095  0.501905  0.748532  1
  Th  Th3  1  0.498095  0.996190  0.748532  1
  Th  Th4  1  0.003810  0.501905  0.748532  1
  Th  Th5  1  0.499572  0.500428  0.251339  1
  Th  Th6  1  0.000857  0.500428  0.251339  1
  Th  Th7  1  0.499572  0.999143  0.251339  1
  Al  Al8  1  0.666667  0.333333  0.997769  1
  Al  Al9  1  0.666667  0.333333  0.502610  1
  Al  Al10  1  0.333333  0.666667  0.497673  1
  Si  Si11  1  0.835302  0.164698  0.999710  1
  Si  Si12  1  0.835302  0.670606  0.999710  1
  Si  Si13  1  0.329394  0.164698  0.999710  1
  Si  Si14  1  0.834687  0.165313  0.500223  1
  Si  Si15  1  0.834687  0.669375  0.500223  1
  Si  Si16  1  0.330625  0.165313  0.500223  1
  Si  Si17  1  0.165552  0.834448  0.499745  1
  Si  Si18  1  0.668895  0.834448  0.499745  1
  Si  Si19  1  0.165552  0.331105  0.499745  1
  Si  Si20  1  0.167071  0.832929  0.000586  1
  Si  Si21  1  0.665858  0.832929  0.000586  1
  Si  Si22  1  0.167071  0.334142  0.000586  1
  Rh  Rh23  1  0.333333  0.666667  0.001320  1
