# generated using pymatgen
data_Ca9La3(HoSn2)8
_symmetry_space_group_name_H-M   'P 1'
_cell_length_a   7.87132004
_cell_length_b   8.45273317
_cell_length_c   16.08078100
_cell_angle_alpha   90.00925248
_cell_angle_beta   90.00559032
_cell_angle_gamma   89.99322750
_symmetry_Int_Tables_number   1
_chemical_formula_structural   Ca9La3(HoSn2)8
_chemical_formula_sum   'Ca9 La3 Ho8 Sn16'
_cell_volume   1069.92135757
_cell_formula_units_Z   1
loop_
 _symmetry_equiv_pos_site_id
 _symmetry_equiv_pos_as_xyz
  1  'x, y, z'
loop_
 _atom_site_type_symbol
 _atom_site_label
 _atom_site_symmetry_multiplicity
 _atom_site_fract_x
 _atom_site_fract_y
 _atom_site_fract_z
 _atom_site_occupancy
  Ca  Ca0  1  0.501676  0.683817  0.593341  1
  Ca  Ca1  1  0.001519  0.816088  0.906104  1
  Ca  Ca2  1  0.498362  0.316240  0.092182  1
  Ca  Ca3  1  0.997938  0.185230  0.406199  1
  Ca  Ca4  1  0.499270  0.315358  0.407751  1
  Ca  Ca5  1  0.832005  0.507058  0.749418  1
  Ca  Ca6  1  0.332937  0.993042  0.750715  1
  Ca  Ca7  1  0.169124  0.491758  0.250874  1
  Ca  Ca8  1  0.666265  0.008729  0.251561  1
  La  La9  1  0.996740  0.183301  0.093572  1
  La  La10  1  0.502461  0.682094  0.906752  1
  La  La11  1  0.004359  0.818243  0.593342  1
  Ho  Ho12  1  0.669999  0.168863  0.622457  1
  Ho  Ho13  1  0.171141  0.331647  0.877092  1
  Ho  Ho14  1  0.330659  0.830729  0.122874  1
  Ho  Ho15  1  0.827762  0.667496  0.377284  1
  Ho  Ho16  1  0.329844  0.831684  0.377645  1
  Ho  Ho17  1  0.830248  0.668745  0.122353  1
  Ho  Ho18  1  0.669489  0.169507  0.877273  1
  Ho  Ho19  1  0.169135  0.331774  0.622366  1
  Sn  Sn20  1  0.673445  0.961951  0.461033  1
  Sn  Sn21  1  0.174248  0.537462  0.039399  1
  Sn  Sn22  1  0.325768  0.036265  0.960513  1
  Sn  Sn23  1  0.827636  0.464621  0.539875  1
  Sn  Sn24  1  0.328738  0.038663  0.538969  1
  Sn  Sn25  1  0.827553  0.460957  0.961892  1
  Sn  Sn26  1  0.673100  0.960686  0.037803  1
  Sn  Sn27  1  0.172032  0.538514  0.461679  1
  Sn  Sn28  1  0.466610  0.374432  0.750010  1
  Sn  Sn29  1  0.967232  0.124458  0.749219  1
  Sn  Sn30  1  0.533542  0.625846  0.249971  1
  Sn  Sn31  1  0.032467  0.875360  0.249403  1
  Sn  Sn32  1  0.710752  0.870517  0.750561  1
  Sn  Sn33  1  0.210827  0.629910  0.749553  1
  Sn  Sn34  1  0.286684  0.127664  0.249857  1
  Sn  Sn35  1  0.788435  0.371292  0.249109  1
