# generated using pymatgen
data_Ba7Tc2W2O19
_symmetry_space_group_name_H-M   'P 1'
_cell_length_a   7.84715862
_cell_length_b   7.84716486
_cell_length_c   10.96032470
_cell_angle_alpha   81.80537236
_cell_angle_beta   81.80536767
_cell_angle_gamma   44.47848046
_symmetry_Int_Tables_number   1
_chemical_formula_structural   Ba7Tc2W2O19
_chemical_formula_sum   'Ba7 Tc2 W2 O19'
_cell_volume   467.23251535
_cell_formula_units_Z   1
loop_
 _symmetry_equiv_pos_site_id
 _symmetry_equiv_pos_as_xyz
  1  'x, y, z'
loop_
 _atom_site_type_symbol
 _atom_site_label
 _atom_site_symmetry_multiplicity
 _atom_site_fract_x
 _atom_site_fract_y
 _atom_site_fract_z
 _atom_site_occupancy
  Ba  Ba0  1  0.201884  0.201884  0.408329  1
  Ba  Ba1  1  0.798116  0.798116  0.591671  1
  Ba  Ba2  1  0.417785  0.417785  0.171351  1
  Ba  Ba3  1  0.582215  0.582215  0.828649  1
  Ba  Ba4  1  0.500000  0.500000  0.500000  1
  Ba  Ba5  1  0.860246  0.860246  0.951664  1
  Ba  Ba6  1  0.139754  0.139754  0.048336  1
  Tc  Tc7  1  0.673783  0.673783  0.215285  1
  Tc  Tc8  1  0.326217  0.326217  0.784715  1
  W  W9  1  0.968757  0.968758  0.321027  1
  W  W10  1  0.031243  0.031242  0.678973  1
  O  O11  1  0.000000  0.000000  0.500000  1
  O  O12  1  0.687061  0.687061  0.375799  1
  O  O13  1  0.312939  0.312939  0.624201  1
  O  O14  1  0.046608  0.046608  0.848272  1
  O  O15  1  0.953392  0.953392  0.151728  1
  O  O16  1  0.394886  0.394886  0.917890  1
  O  O17  1  0.605114  0.605114  0.082110  1
  O  O18  1  0.837277  0.299911  0.284963  1
  O  O19  1  0.700089  0.162723  0.715038  1
  O  O20  1  0.162723  0.700089  0.715037  1
  O  O21  1  0.299911  0.837277  0.284962  1
  O  O22  1  0.647123  0.113994  0.373883  1
  O  O23  1  0.886006  0.352876  0.626117  1
  O  O24  1  0.352877  0.886006  0.626117  1
  O  O25  1  0.113994  0.647124  0.373883  1
  O  O26  1  0.986889  0.522066  0.156945  1
  O  O27  1  0.477934  0.013112  0.843055  1
  O  O28  1  0.013111  0.477934  0.843055  1
  O  O29  1  0.522066  0.986888  0.156945  1
