# generated using pymatgen
data_Ho3Mn7VCoP6
_symmetry_space_group_name_H-M   'P 1'
_cell_length_a   3.64267000
_cell_length_b   10.83448700
_cell_length_c   12.67749200
_cell_angle_alpha   90.00000000
_cell_angle_beta   90.00000000
_cell_angle_gamma   90.00000000
_symmetry_Int_Tables_number   1
_chemical_formula_structural   Ho3Mn7VCoP6
_chemical_formula_sum   'Ho6 Mn14 V2 Co2 P12'
_cell_volume   500.33574056
_cell_formula_units_Z   2
loop_
 _symmetry_equiv_pos_site_id
 _symmetry_equiv_pos_as_xyz
  1  'x, y, z'
loop_
 _atom_site_type_symbol
 _atom_site_label
 _atom_site_symmetry_multiplicity
 _atom_site_fract_x
 _atom_site_fract_y
 _atom_site_fract_z
 _atom_site_occupancy
  Ho  Ho0  1  0.000000  0.500000  0.531583  1
  Ho  Ho1  1  0.500000  0.000000  0.468417  1
  Ho  Ho2  1  0.500000  0.822371  0.205810  1
  Ho  Ho3  1  0.500000  0.177629  0.205810  1
  Ho  Ho4  1  0.000000  0.677629  0.794190  1
  Ho  Ho5  1  0.000000  0.322371  0.794190  1
  Mn  Mn6  1  0.000000  0.500000  0.990646  1
  Mn  Mn7  1  0.500000  0.000000  0.009354  1
  Mn  Mn8  1  0.500000  0.297117  0.433409  1
  Mn  Mn9  1  0.500000  0.702883  0.433409  1
  Mn  Mn10  1  0.000000  0.202883  0.566591  1
  Mn  Mn11  1  0.000000  0.797117  0.566591  1
  Mn  Mn12  1  0.500000  0.879519  0.700615  1
  Mn  Mn13  1  0.500000  0.120481  0.700615  1
  Mn  Mn14  1  0.000000  0.620481  0.299385  1
  Mn  Mn15  1  0.000000  0.379519  0.299385  1
  Mn  Mn16  1  0.500000  0.332287  0.996764  1
  Mn  Mn17  1  0.500000  0.667713  0.996764  1
  Mn  Mn18  1  0.000000  0.167713  0.003236  1
  Mn  Mn19  1  0.000000  0.832287  0.003236  1
  V  V20  1  0.500000  0.500000  0.161232  1
  V  V21  1  0.000000  0.000000  0.838768  1
  Co  Co22  1  0.500000  0.500000  0.704353  1
  Co  Co23  1  0.000000  0.000000  0.295647  1
  P  P24  1  0.500000  0.318580  0.618021  1
  P  P25  1  0.500000  0.681420  0.618021  1
  P  P26  1  0.000000  0.181420  0.381979  1
  P  P27  1  0.000000  0.818580  0.381979  1
  P  P28  1  0.500000  0.500000  0.878746  1
  P  P29  1  0.000000  0.000000  0.121254  1
  P  P30  1  0.500000  0.844403  0.885061  1
  P  P31  1  0.500000  0.155597  0.885061  1
  P  P32  1  0.000000  0.655597  0.114939  1
  P  P33  1  0.000000  0.344403  0.114939  1
  P  P34  1  0.500000  0.500000  0.358513  1
  P  P35  1  0.000000  0.000000  0.641487  1
