# generated using pymatgen
data_Hf2Zr2Si4Ir3Rh
_symmetry_space_group_name_H-M   'P 1'
_cell_length_a   3.96835500
_cell_length_b   6.55636362
_cell_length_c   7.44995150
_cell_angle_alpha   90.06634245
_cell_angle_beta   90.00000000
_cell_angle_gamma   90.00000000
_symmetry_Int_Tables_number   1
_chemical_formula_structural   Hf2Zr2Si4Ir3Rh
_chemical_formula_sum   'Hf2 Zr2 Si4 Ir3 Rh1'
_cell_volume   193.83254689
_cell_formula_units_Z   1
loop_
 _symmetry_equiv_pos_site_id
 _symmetry_equiv_pos_as_xyz
  1  'x, y, z'
loop_
 _atom_site_type_symbol
 _atom_site_label
 _atom_site_symmetry_multiplicity
 _atom_site_fract_x
 _atom_site_fract_y
 _atom_site_fract_z
 _atom_site_occupancy
  Hf  Hf0  1  0.250000  0.520140  0.182331  1
  Hf  Hf1  1  0.250000  0.019522  0.317984  1
  Zr  Zr2  1  0.750000  0.479675  0.818748  1
  Zr  Zr3  1  0.750000  0.981947  0.680716  1
  Si  Si4  1  0.250000  0.777046  0.880797  1
  Si  Si5  1  0.750000  0.221994  0.120505  1
  Si  Si6  1  0.250000  0.276322  0.617961  1
  Si  Si7  1  0.750000  0.723570  0.381011  1
  Ir  Ir8  1  0.750000  0.846977  0.066872  1
  Ir  Ir9  1  0.250000  0.153639  0.939490  1
  Ir  Ir10  1  0.750000  0.348326  0.431792  1
  Rh  Rh11  1  0.250000  0.650842  0.561791  1
