# generated using pymatgen
data_Li3Ho8Sc8Si16Hg
_symmetry_space_group_name_H-M   'P 1'
_cell_length_a   6.87416020
_cell_length_b   7.40711479
_cell_length_c   14.01908700
_cell_angle_alpha   90.00000000
_cell_angle_beta   90.00000000
_cell_angle_gamma   89.91602391
_symmetry_Int_Tables_number   1
_chemical_formula_structural   Li3Ho8Sc8Si16Hg
_chemical_formula_sum   'Li3 Ho8 Sc8 Si16 Hg1'
_cell_volume   713.81881130
_cell_formula_units_Z   1
loop_
 _symmetry_equiv_pos_site_id
 _symmetry_equiv_pos_as_xyz
  1  'x, y, z'
loop_
 _atom_site_type_symbol
 _atom_site_label
 _atom_site_symmetry_multiplicity
 _atom_site_fract_x
 _atom_site_fract_y
 _atom_site_fract_z
 _atom_site_occupancy
  Li  Li0  1  0.840099  0.494850  0.250000  1
  Li  Li1  1  0.340849  0.006320  0.250000  1
  Li  Li2  1  0.657844  0.995303  0.750000  1
  Ho  Ho3  1  0.012301  0.179723  0.098968  1
  Ho  Ho4  1  0.988021  0.818089  0.902082  1
  Ho  Ho5  1  0.487975  0.679044  0.902384  1
  Ho  Ho6  1  0.988021  0.818089  0.597918  1
  Ho  Ho7  1  0.512766  0.318525  0.098110  1
  Ho  Ho8  1  0.012301  0.179723  0.401032  1
  Ho  Ho9  1  0.512766  0.318525  0.401890  1
  Ho  Ho10  1  0.487975  0.679044  0.597616  1
  Sc  Sc11  1  0.327948  0.180882  0.626282  1
  Sc  Sc12  1  0.669210  0.821683  0.373814  1
  Sc  Sc13  1  0.169154  0.681784  0.372710  1
  Sc  Sc14  1  0.669210  0.821683  0.126186  1
  Sc  Sc15  1  0.833705  0.321283  0.625655  1
  Sc  Sc16  1  0.327948  0.180882  0.873718  1
  Sc  Sc17  1  0.833705  0.321283  0.874345  1
  Sc  Sc18  1  0.169154  0.681784  0.127290  1
  Si  Si19  1  0.024697  0.091631  0.750000  1
  Si  Si20  1  0.967223  0.897722  0.250000  1
  Si  Si21  1  0.468949  0.603198  0.250000  1
  Si  Si22  1  0.541234  0.388912  0.750000  1
  Si  Si23  1  0.290031  0.887398  0.750000  1
  Si  Si24  1  0.714910  0.119718  0.250000  1
  Si  Si25  1  0.216805  0.381386  0.250000  1
  Si  Si26  1  0.772655  0.628938  0.750000  1
  Si  Si27  1  0.163214  0.460236  0.528676  1
  Si  Si28  1  0.840641  0.536819  0.464839  1
  Si  Si29  1  0.340628  0.963317  0.465322  1
  Si  Si30  1  0.840641  0.536819  0.035161  1
  Si  Si31  1  0.658573  0.035520  0.536265  1
  Si  Si32  1  0.163214  0.460236  0.971324  1
  Si  Si33  1  0.658573  0.035520  0.963735  1
  Si  Si34  1  0.340628  0.963317  0.034678  1
  Hg  Hg35  1  0.156431  0.510815  0.750000  1
