# generated using pymatgen
data_Dy16In4IrPdRuPt
_symmetry_space_group_name_H-M   'P 1'
_cell_length_a   9.67608971
_cell_length_b   9.67787994
_cell_length_c   9.67971300
_cell_angle_alpha   59.99373084
_cell_angle_beta   59.98760885
_cell_angle_gamma   59.97890618
_symmetry_Int_Tables_number   1
_chemical_formula_structural   Dy16In4IrPdRuPt
_chemical_formula_sum   'Dy16 In4 Ir1 Pd1 Ru1 Pt1'
_cell_volume   640.76248078
_cell_formula_units_Z   1
loop_
 _symmetry_equiv_pos_site_id
 _symmetry_equiv_pos_as_xyz
  1  'x, y, z'
loop_
 _atom_site_type_symbol
 _atom_site_label
 _atom_site_symmetry_multiplicity
 _atom_site_fract_x
 _atom_site_fract_y
 _atom_site_fract_z
 _atom_site_occupancy
  Dy  Dy0  1  0.599577  0.596234  0.600317  1
  Dy  Dy1  1  0.605833  0.600707  0.195882  1
  Dy  Dy2  1  0.601272  0.201486  0.602077  1
  Dy  Dy3  1  0.197330  0.599750  0.605891  1
  Dy  Dy4  1  0.054382  0.439822  0.442077  1
  Dy  Dy5  1  0.440464  0.064160  0.055248  1
  Dy  Dy6  1  0.441439  0.056792  0.441971  1
  Dy  Dy7  1  0.060812  0.439783  0.058892  1
  Dy  Dy8  1  0.440691  0.440311  0.053450  1
  Dy  Dy9  1  0.055052  0.061792  0.441925  1
  Dy  Dy10  1  0.189295  0.808272  0.814165  1
  Dy  Dy11  1  0.814535  0.187529  0.188497  1
  Dy  Dy12  1  0.810343  0.189561  0.811149  1
  Dy  Dy13  1  0.188464  0.812664  0.188005  1
  Dy  Dy14  1  0.814308  0.809543  0.188890  1
  Dy  Dy15  1  0.189760  0.188540  0.814399  1
  In  In16  1  0.831953  0.833543  0.833011  1
  In  In17  1  0.831678  0.832119  0.503345  1
  In  In18  1  0.831993  0.502803  0.832421  1
  In  In19  1  0.503208  0.832305  0.831679  1
  Ir  Ir20  1  0.823771  0.392986  0.390145  1
  Pd  Pd21  1  0.392036  0.393662  0.390884  1
  Ru  Ru22  1  0.390331  0.392317  0.824922  1
  Pt  Pt23  1  0.391472  0.823323  0.390759  1
