# generated using pymatgen
data_Sr2VIO4
_symmetry_space_group_name_H-M   'P 1'
_cell_length_a   6.68192600
_cell_length_b   7.66374400
_cell_length_c   11.99299200
_cell_angle_alpha   90.00000000
_cell_angle_beta   90.00000000
_cell_angle_gamma   90.00000000
_symmetry_Int_Tables_number   1
_chemical_formula_structural   Sr2VIO4
_chemical_formula_sum   'Sr8 V4 I4 O16'
_cell_volume   614.14397383
_cell_formula_units_Z   4
loop_
 _symmetry_equiv_pos_site_id
 _symmetry_equiv_pos_as_xyz
  1  'x, y, z'
loop_
 _atom_site_type_symbol
 _atom_site_label
 _atom_site_symmetry_multiplicity
 _atom_site_fract_x
 _atom_site_fract_y
 _atom_site_fract_z
 _atom_site_occupancy
  Sr  Sr0  1  0.621023  0.250000  0.000000  1
  Sr  Sr1  1  0.378977  0.750000  0.000000  1
  Sr  Sr2  1  0.378977  0.750000  0.500000  1
  Sr  Sr3  1  0.621023  0.250000  0.500000  1
  Sr  Sr4  1  0.096311  0.033734  0.250000  1
  Sr  Sr5  1  0.903689  0.966266  0.750000  1
  Sr  Sr6  1  0.903689  0.533734  0.250000  1
  Sr  Sr7  1  0.096311  0.466266  0.750000  1
  V  V8  1  0.118881  0.250000  0.000000  1
  V  V9  1  0.881119  0.750000  0.000000  1
  V  V10  1  0.881119  0.750000  0.500000  1
  V  V11  1  0.118881  0.250000  0.500000  1
  I  I12  1  0.418174  0.412918  0.250000  1
  I  I13  1  0.581826  0.587082  0.750000  1
  I  I14  1  0.581826  0.912918  0.250000  1
  I  I15  1  0.418174  0.087082  0.750000  1
  O  O16  1  0.040982  0.772439  0.116324  1
  O  O17  1  0.959018  0.227561  0.883676  1
  O  O18  1  0.959018  0.227561  0.616324  1
  O  O19  1  0.959018  0.272439  0.383676  1
  O  O20  1  0.040982  0.772439  0.383676  1
  O  O21  1  0.040982  0.727561  0.616324  1
  O  O22  1  0.040982  0.727561  0.883676  1
  O  O23  1  0.959018  0.272439  0.116324  1
  O  O24  1  0.275119  0.075124  0.029984  1
  O  O25  1  0.724881  0.924876  0.970016  1
  O  O26  1  0.724881  0.924876  0.529984  1
  O  O27  1  0.724881  0.575124  0.470016  1
  O  O28  1  0.275119  0.075124  0.470016  1
  O  O29  1  0.275119  0.424876  0.529984  1
  O  O30  1  0.275119  0.424876  0.970016  1
  O  O31  1  0.724881  0.575124  0.029984  1
