# generated using pymatgen
data_Zr10Tl2InCu2Sb3
_symmetry_space_group_name_H-M   'P 1'
_cell_length_a   8.70628945
_cell_length_b   8.70143806
_cell_length_c   5.87726100
_cell_angle_alpha   90.00000000
_cell_angle_beta   90.00000000
_cell_angle_gamma   119.98155890
_symmetry_Int_Tables_number   1
_chemical_formula_structural   Zr10Tl2InCu2Sb3
_chemical_formula_sum   'Zr10 Tl2 In1 Cu2 Sb3'
_cell_volume   385.66516784
_cell_formula_units_Z   1
loop_
 _symmetry_equiv_pos_site_id
 _symmetry_equiv_pos_as_xyz
  1  'x, y, z'
loop_
 _atom_site_type_symbol
 _atom_site_label
 _atom_site_symmetry_multiplicity
 _atom_site_fract_x
 _atom_site_fract_y
 _atom_site_fract_z
 _atom_site_occupancy
  Zr  Zr0  1  0.667461  0.334025  0.999867  1
  Zr  Zr1  1  0.332539  0.666565  0.999867  1
  Zr  Zr2  1  0.332539  0.666565  0.500133  1
  Zr  Zr3  1  0.667461  0.334025  0.500133  1
  Zr  Zr4  1  0.727273  0.726044  0.750000  1
  Zr  Zr5  1  0.272727  0.998771  0.750000  1
  Zr  Zr6  1  0.000000  0.273979  0.750000  1
  Zr  Zr7  1  0.257418  0.257728  0.250000  1
  Zr  Zr8  1  0.742582  0.000309  0.250000  1
  Zr  Zr9  1  0.000000  0.742076  0.250000  1
  Tl  Tl10  1  0.378628  0.378484  0.750000  1
  Tl  Tl11  1  0.621372  0.999856  0.750000  1
  In  In12  1  0.000000  0.621230  0.750000  1
  Cu  Cu13  1  0.000000  0.999600  0.525275  1
  Cu  Cu14  1  0.000000  0.999600  0.974725  1
  Sb  Sb15  1  0.611930  0.612241  0.250000  1
  Sb  Sb16  1  0.388070  0.000311  0.250000  1
  Sb  Sb17  1  0.000000  0.388591  0.250000  1
