# generated using pymatgen
data_Ti5NbRh10
_symmetry_space_group_name_H-M   'P 1'
_cell_length_a   4.15593200
_cell_length_b   5.44431045
_cell_length_c   10.56348811
_cell_angle_alpha   90.92309148
_cell_angle_beta   90.00000000
_cell_angle_gamma   90.00000000
_symmetry_Int_Tables_number   1
_chemical_formula_structural   Ti5NbRh10
_chemical_formula_sum   'Ti5 Nb1 Rh10'
_cell_volume   238.98040712
_cell_formula_units_Z   1
loop_
 _symmetry_equiv_pos_site_id
 _symmetry_equiv_pos_as_xyz
  1  'x, y, z'
loop_
 _atom_site_type_symbol
 _atom_site_label
 _atom_site_symmetry_multiplicity
 _atom_site_fract_x
 _atom_site_fract_y
 _atom_site_fract_z
 _atom_site_occupancy
  Ti  Ti0  1  0.000000  0.998974  0.997487  1
  Ti  Ti1  1  0.000000  0.500605  0.501821  1
  Ti  Ti2  1  0.500000  0.662010  0.853158  1
  Ti  Ti3  1  0.500000  0.839286  0.359199  1
  Ti  Ti4  1  0.500000  0.160179  0.643924  1
  Nb  Nb5  1  0.500000  0.338282  0.144024  1
  Rh  Rh6  1  0.000000  0.999478  0.501220  1
  Rh  Rh7  1  0.000000  0.507461  0.996255  1
  Rh  Rh8  1  0.000000  0.097558  0.239095  1
  Rh  Rh9  1  0.000000  0.895525  0.764207  1
  Rh  Rh10  1  0.000000  0.600330  0.263362  1
  Rh  Rh11  1  0.000000  0.394338  0.734945  1
  Rh  Rh12  1  0.500000  0.314539  0.394926  1
  Rh  Rh13  1  0.500000  0.686539  0.606720  1
  Rh  Rh14  1  0.500000  0.816485  0.106240  1
  Rh  Rh15  1  0.500000  0.188410  0.893416  1
