# generated using pymatgen
data_BaLi2TmSi4
_symmetry_space_group_name_H-M   'P 1'
_cell_length_a   3.86498100
_cell_length_b   8.05780605
_cell_length_c   10.76491276
_cell_angle_alpha   89.62631048
_cell_angle_beta   90.00000000
_cell_angle_gamma   90.00000000
_symmetry_Int_Tables_number   1
_chemical_formula_structural   BaLi2TmSi4
_chemical_formula_sum   'Ba2 Li4 Tm2 Si8'
_cell_volume   335.24742490
_cell_formula_units_Z   2
loop_
 _symmetry_equiv_pos_site_id
 _symmetry_equiv_pos_as_xyz
  1  'x, y, z'
loop_
 _atom_site_type_symbol
 _atom_site_label
 _atom_site_symmetry_multiplicity
 _atom_site_fract_x
 _atom_site_fract_y
 _atom_site_fract_z
 _atom_site_occupancy
  Ba  Ba0  1  0.250000  0.639045  0.634446  1
  Ba  Ba1  1  0.750000  0.360955  0.365554  1
  Li  Li2  1  0.250000  0.005668  0.384217  1
  Li  Li3  1  0.750000  0.994332  0.615783  1
  Li  Li4  1  0.250000  0.489230  0.102803  1
  Li  Li5  1  0.750000  0.510770  0.897197  1
  Tm  Tm6  1  0.250000  0.118412  0.870603  1
  Tm  Tm7  1  0.750000  0.881588  0.129397  1
  Si  Si8  1  0.750000  0.254937  0.053712  1
  Si  Si9  1  0.250000  0.745063  0.946288  1
  Si  Si10  1  0.750000  0.791957  0.406104  1
  Si  Si11  1  0.250000  0.208043  0.593896  1
  Si  Si12  1  0.750000  0.847228  0.839232  1
  Si  Si13  1  0.250000  0.152772  0.160768  1
  Si  Si14  1  0.750000  0.311101  0.698961  1
  Si  Si15  1  0.250000  0.688899  0.301039  1
