# generated using pymatgen
data_K3LiAuO4
_symmetry_space_group_name_H-M   'P 1'
_cell_length_a   7.32824974
_cell_length_b   7.32824958
_cell_length_c   6.00735016
_cell_angle_alpha   79.53726680
_cell_angle_beta   79.53725855
_cell_angle_gamma   83.53304806
_symmetry_Int_Tables_number   1
_chemical_formula_structural   K3LiAuO4
_chemical_formula_sum   'K6 Li2 Au2 O8'
_cell_volume   310.91516975
_cell_formula_units_Z   2
loop_
 _symmetry_equiv_pos_site_id
 _symmetry_equiv_pos_as_xyz
  1  'x, y, z'
loop_
 _atom_site_type_symbol
 _atom_site_label
 _atom_site_symmetry_multiplicity
 _atom_site_fract_x
 _atom_site_fract_y
 _atom_site_fract_z
 _atom_site_occupancy
  K  K0  1  0.063665  0.243436  0.027724  1
  K  K1  1  0.595220  0.404780  0.250000  1
  K  K2  1  0.243436  0.063665  0.527724  1
  K  K3  1  0.756564  0.936335  0.472276  1
  K  K4  1  0.936335  0.756564  0.972276  1
  K  K5  1  0.404780  0.595220  0.750000  1
  Li  Li6  1  0.730625  0.269375  0.750000  1
  Li  Li7  1  0.269375  0.730625  0.250000  1
  Au  Au8  1  0.500000  0.000000  0.000000  1
  Au  Au9  1  0.000000  0.500000  0.500000  1
  O  O10  1  0.210643  0.480103  0.234120  1
  O  O11  1  0.909711  0.258187  0.470612  1
  O  O12  1  0.480103  0.210643  0.734120  1
  O  O13  1  0.258187  0.909711  0.970612  1
  O  O14  1  0.090289  0.741813  0.529388  1
  O  O15  1  0.741813  0.090289  0.029388  1
  O  O16  1  0.519897  0.789357  0.265880  1
  O  O17  1  0.789357  0.519897  0.765880  1
