# generated using pymatgen
data_Tb3Er5(ZnCo)2
_symmetry_space_group_name_H-M   'P 1'
_cell_length_a   9.27781433
_cell_length_b   9.27781442
_cell_length_c   9.27781400
_cell_angle_alpha   60.00000151
_cell_angle_beta   60.00000119
_cell_angle_gamma   60.00000317
_symmetry_Int_Tables_number   1
_chemical_formula_structural   Tb3Er5(ZnCo)2
_chemical_formula_sum   'Tb6 Er10 Zn4 Co4'
_cell_volume   564.70553124
_cell_formula_units_Z   2
loop_
 _symmetry_equiv_pos_site_id
 _symmetry_equiv_pos_as_xyz
  1  'x, y, z'
loop_
 _atom_site_type_symbol
 _atom_site_label
 _atom_site_symmetry_multiplicity
 _atom_site_fract_x
 _atom_site_fract_y
 _atom_site_fract_z
 _atom_site_occupancy
  Tb  Tb0  1  0.939042  0.560958  0.560958  1
  Tb  Tb1  1  0.560958  0.939042  0.939042  1
  Tb  Tb2  1  0.560958  0.939042  0.560958  1
  Tb  Tb3  1  0.939042  0.560958  0.939042  1
  Tb  Tb4  1  0.560958  0.560958  0.939042  1
  Tb  Tb5  1  0.939042  0.939042  0.560958  1
  Er  Er6  1  0.349797  0.349797  0.349797  1
  Er  Er7  1  0.349797  0.349797  0.950607  1
  Er  Er8  1  0.349797  0.950607  0.349797  1
  Er  Er9  1  0.950607  0.349797  0.349797  1
  Er  Er10  1  0.810543  0.189457  0.189457  1
  Er  Er11  1  0.189457  0.810543  0.810543  1
  Er  Er12  1  0.189457  0.810543  0.189457  1
  Er  Er13  1  0.810543  0.189457  0.810543  1
  Er  Er14  1  0.189457  0.189457  0.810543  1
  Er  Er15  1  0.810543  0.810543  0.189457  1
  Zn  Zn16  1  0.577042  0.577042  0.577042  1
  Zn  Zn17  1  0.577042  0.577042  0.268873  1
  Zn  Zn18  1  0.577042  0.268873  0.577042  1
  Zn  Zn19  1  0.268873  0.577042  0.577042  1
  Co  Co20  1  0.141776  0.141776  0.141776  1
  Co  Co21  1  0.141776  0.141776  0.574671  1
  Co  Co22  1  0.141776  0.574671  0.141776  1
  Co  Co23  1  0.574671  0.141776  0.141776  1
