# generated using pymatgen
data_Er7TmTi11Si16Pt
_symmetry_space_group_name_H-M   'P 1'
_cell_length_a   7.02322499
_cell_length_b   7.02337387
_cell_length_c   12.81441600
_cell_angle_alpha   90.16747963
_cell_angle_beta   89.83402897
_cell_angle_gamma   89.70507750
_symmetry_Int_Tables_number   1
_chemical_formula_structural   Er7TmTi11Si16Pt
_chemical_formula_sum   'Er7 Tm1 Ti11 Si16 Pt1'
_cell_volume   632.07954743
_cell_formula_units_Z   1
loop_
 _symmetry_equiv_pos_site_id
 _symmetry_equiv_pos_as_xyz
  1  'x, y, z'
loop_
 _atom_site_type_symbol
 _atom_site_label
 _atom_site_symmetry_multiplicity
 _atom_site_fract_x
 _atom_site_fract_y
 _atom_site_fract_z
 _atom_site_occupancy
  Er  Er0  1  0.496655  0.842053  0.717775  1
  Er  Er1  1  0.501588  0.156843  0.214383  1
  Er  Er2  1  0.841994  0.496634  0.282219  1
  Er  Er3  1  0.156829  0.501525  0.785650  1
  Er  Er4  1  0.656030  0.999096  0.968630  1
  Er  Er5  1  0.003348  0.340757  0.532945  1
  Er  Er6  1  0.999063  0.655986  0.031341  1
  Tm  Tm7  1  0.340874  0.003223  0.467061  1
  Ti  Ti8  1  0.175920  0.825849  0.248476  1
  Ti  Ti9  1  0.825829  0.175916  0.751540  1
  Ti  Ti10  1  0.673459  0.673543  0.500001  1
  Ti  Ti11  1  0.147890  0.003955  0.876538  1
  Ti  Ti12  1  0.494625  0.654335  0.124060  1
  Ti  Ti13  1  0.506459  0.351048  0.627272  1
  Ti  Ti14  1  0.654324  0.494615  0.875932  1
  Ti  Ti15  1  0.351076  0.506479  0.372731  1
  Ti  Ti16  1  0.850444  0.993599  0.374550  1
  Ti  Ti17  1  0.003967  0.147884  0.123438  1
  Ti  Ti18  1  0.993626  0.850439  0.625449  1
  Si  Si19  1  0.202011  0.134144  0.685067  1
  Si  Si20  1  0.372322  0.710201  0.931410  1
  Si  Si21  1  0.631704  0.294513  0.433140  1
  Si  Si22  1  0.710215  0.372309  0.068574  1
  Si  Si23  1  0.294597  0.631888  0.566838  1
  Si  Si24  1  0.797292  0.866390  0.182949  1
  Si  Si25  1  0.134216  0.201929  0.314964  1
  Si  Si26  1  0.866370  0.797294  0.817046  1
  Si  Si27  1  0.285957  0.944682  0.064391  1
  Si  Si28  1  0.547636  0.791973  0.315197  1
  Si  Si29  1  0.449488  0.209463  0.815556  1
  Si  Si30  1  0.791904  0.547697  0.684863  1
  Si  Si31  1  0.209455  0.449471  0.184436  1
  Si  Si32  1  0.707790  0.048237  0.565389  1
  Si  Si33  1  0.944659  0.285966  0.935600  1
  Si  Si34  1  0.048307  0.707973  0.434591  1
  Pt  Pt35  1  0.332082  0.332095  0.999998  1
