# generated using pymatgen
data_RbSnPIr2
_symmetry_space_group_name_H-M   'P 1'
_cell_length_a   8.15749573
_cell_length_b   8.15749586
_cell_length_c   8.15749544
_cell_angle_alpha   151.19565199
_cell_angle_beta   151.19565274
_cell_angle_gamma   41.18909250
_symmetry_Int_Tables_number   1
_chemical_formula_structural   RbSnPIr2
_chemical_formula_sum   'Rb1 Sn1 P1 Ir2'
_cell_volume   125.74599048
_cell_formula_units_Z   1
loop_
 _symmetry_equiv_pos_site_id
 _symmetry_equiv_pos_as_xyz
  1  'x, y, z'
loop_
 _atom_site_type_symbol
 _atom_site_label
 _atom_site_symmetry_multiplicity
 _atom_site_fract_x
 _atom_site_fract_y
 _atom_site_fract_z
 _atom_site_occupancy
  Rb  Rb0  1  0.022017  0.022017  0.000000  1
  Sn  Sn1  1  0.349779  0.349779  0.000000  1
  P  P2  1  0.660750  0.660750  0.000000  1
  Ir  Ir3  1  0.733727  0.233727  0.500000  1
  Ir  Ir4  1  0.233727  0.733727  0.500000  1
