# generated using pymatgen
data_LiScU2(ReB6)2
_symmetry_space_group_name_H-M   'P 1'
_cell_length_a   3.59474900
_cell_length_b   8.88038079
_cell_length_c   11.24819613
_cell_angle_alpha   89.80572988
_cell_angle_beta   90.00000000
_cell_angle_gamma   90.00000000
_symmetry_Int_Tables_number   1
_chemical_formula_structural   LiScU2(ReB6)2
_chemical_formula_sum   'Li2 Sc2 U4 Re4 B24'
_cell_volume   359.07117604
_cell_formula_units_Z   2
loop_
 _symmetry_equiv_pos_site_id
 _symmetry_equiv_pos_as_xyz
  1  'x, y, z'
loop_
 _atom_site_type_symbol
 _atom_site_label
 _atom_site_symmetry_multiplicity
 _atom_site_fract_x
 _atom_site_fract_y
 _atom_site_fract_z
 _atom_site_occupancy
  Li  Li0  1  0.000000  0.947341  0.379214  1
  Li  Li1  1  0.000000  0.052659  0.620786  1
  Sc  Sc2  1  0.000000  0.444313  0.127060  1
  Sc  Sc3  1  0.000000  0.555687  0.872940  1
  U  U4  1  0.000000  0.316975  0.415096  1
  U  U5  1  0.000000  0.683025  0.584904  1
  U  U6  1  0.000000  0.822495  0.087554  1
  U  U7  1  0.000000  0.177505  0.912446  1
  Re  Re8  1  0.000000  0.643557  0.319860  1
  Re  Re9  1  0.000000  0.356443  0.680140  1
  Re  Re10  1  0.000000  0.138228  0.182499  1
  Re  Re11  1  0.000000  0.861772  0.817501  1
  B  B12  1  0.500000  0.554570  0.434066  1
  B  B13  1  0.500000  0.445430  0.565934  1
  B  B14  1  0.500000  0.053309  0.065982  1
  B  B15  1  0.500000  0.946691  0.934018  1
  B  B16  1  0.500000  0.756760  0.418984  1
  B  B17  1  0.500000  0.243240  0.581016  1
  B  B18  1  0.500000  0.252695  0.080472  1
  B  B19  1  0.500000  0.747305  0.919528  1
  B  B20  1  0.500000  0.794867  0.263147  1
  B  B21  1  0.500000  0.205133  0.736853  1
  B  B22  1  0.500000  0.293109  0.236732  1
  B  B23  1  0.500000  0.706891  0.763268  1
  B  B24  1  0.500000  0.630030  0.182176  1
  B  B25  1  0.500000  0.369970  0.817824  1
  B  B26  1  0.500000  0.125904  0.319209  1
  B  B27  1  0.500000  0.874096  0.680791  1
  B  B28  1  0.500000  0.979677  0.212856  1
  B  B29  1  0.500000  0.020323  0.787144  1
  B  B30  1  0.500000  0.480468  0.287139  1
  B  B31  1  0.500000  0.519532  0.712861  1
  B  B32  1  0.500000  0.601171  0.027456  1
  B  B33  1  0.500000  0.398829  0.972544  1
  B  B34  1  0.500000  0.093797  0.474231  1
  B  B35  1  0.500000  0.906203  0.525769  1
