# generated using pymatgen
data_Dy4LuOsRu
_symmetry_space_group_name_H-M   'P 1'
_cell_length_a   6.33182711
_cell_length_b   7.27946177
_cell_length_c   8.42755540
_cell_angle_alpha   96.86531189
_cell_angle_beta   112.18009984
_cell_angle_gamma   89.81198974
_symmetry_Int_Tables_number   1
_chemical_formula_structural   Dy4LuOsRu
_chemical_formula_sum   'Dy8 Lu2 Os2 Ru2'
_cell_volume   356.75187187
_cell_formula_units_Z   2
loop_
 _symmetry_equiv_pos_site_id
 _symmetry_equiv_pos_as_xyz
  1  'x, y, z'
loop_
 _atom_site_type_symbol
 _atom_site_label
 _atom_site_symmetry_multiplicity
 _atom_site_fract_x
 _atom_site_fract_y
 _atom_site_fract_z
 _atom_site_occupancy
  Dy  Dy0  1  0.522956  0.082923  0.814895  1
  Dy  Dy1  1  0.477044  0.917077  0.185105  1
  Dy  Dy2  1  0.708338  0.416527  0.183753  1
  Dy  Dy3  1  0.291662  0.583473  0.816247  1
  Dy  Dy4  1  0.298505  0.313679  0.433719  1
  Dy  Dy5  1  0.701495  0.686321  0.566281  1
  Dy  Dy6  1  0.864285  0.187167  0.568283  1
  Dy  Dy7  1  0.135715  0.812833  0.431717  1
  Lu  Lu8  1  0.076843  0.251250  0.000089  1
  Lu  Lu9  1  0.923157  0.748750  0.999911  1
  Os  Os10  1  0.318271  0.576173  0.216114  1
  Os  Os11  1  0.681729  0.423827  0.783886  1
  Ru  Ru12  1  0.101699  0.925437  0.782036  1
  Ru  Ru13  1  0.898301  0.074563  0.217964  1
