# generated using pymatgen
data_Tm4MgNi2Bi
_symmetry_space_group_name_H-M   'P 1'
_cell_length_a   8.60473047
_cell_length_b   8.60473018
_cell_length_c   8.60473031
_cell_angle_alpha   129.32254257
_cell_angle_beta   129.32254035
_cell_angle_gamma   74.49214030
_symmetry_Int_Tables_number   1
_chemical_formula_structural   Tm4MgNi2Bi
_chemical_formula_sum   'Tm8 Mg2 Ni4 Bi2'
_cell_volume   371.56344378
_cell_formula_units_Z   2
loop_
 _symmetry_equiv_pos_site_id
 _symmetry_equiv_pos_as_xyz
  1  'x, y, z'
loop_
 _atom_site_type_symbol
 _atom_site_label
 _atom_site_symmetry_multiplicity
 _atom_site_fract_x
 _atom_site_fract_y
 _atom_site_fract_z
 _atom_site_occupancy
  Tm  Tm0  1  0.791128  0.291128  0.829294  1
  Tm  Tm1  1  0.208872  0.708872  0.170706  1
  Tm  Tm2  1  0.461835  0.961835  0.170706  1
  Tm  Tm3  1  0.291128  0.461835  0.500000  1
  Tm  Tm4  1  0.038165  0.208872  0.500000  1
  Tm  Tm5  1  0.538165  0.038165  0.829294  1
  Tm  Tm6  1  0.708872  0.538165  0.500000  1
  Tm  Tm7  1  0.961835  0.791128  0.500000  1
  Mg  Mg8  1  0.000000  0.000000  0.000000  1
  Mg  Mg9  1  0.500000  0.500000  0.000000  1
  Ni  Ni10  1  0.127900  0.627900  0.755801  1
  Ni  Ni11  1  0.872100  0.372100  0.244199  1
  Ni  Ni12  1  0.627900  0.872100  0.500000  1
  Ni  Ni13  1  0.372100  0.127900  0.500000  1
  Bi  Bi14  1  0.250000  0.250000  0.000000  1
  Bi  Bi15  1  0.750000  0.750000  0.000000  1
