# generated using pymatgen
data_Cs2Mg3(SeO3)4
_symmetry_space_group_name_H-M   'P 1'
_cell_length_a   5.62250523
_cell_length_b   7.51236883
_cell_length_c   9.49915252
_cell_angle_alpha   90.86309704
_cell_angle_beta   107.19247773
_cell_angle_gamma   90.05718625
_symmetry_Int_Tables_number   1
_chemical_formula_structural   Cs2Mg3(SeO3)4
_chemical_formula_sum   'Cs2 Mg3 Se4 O12'
_cell_volume   383.25062371
_cell_formula_units_Z   1
loop_
 _symmetry_equiv_pos_site_id
 _symmetry_equiv_pos_as_xyz
  1  'x, y, z'
loop_
 _atom_site_type_symbol
 _atom_site_label
 _atom_site_symmetry_multiplicity
 _atom_site_fract_x
 _atom_site_fract_y
 _atom_site_fract_z
 _atom_site_occupancy
  Cs  Cs0  1  0.179058  0.625234  0.358270  1
  Cs  Cs1  1  0.820940  0.374767  0.641728  1
  Mg  Mg2  1  0.000000  0.000000  0.000000  1
  Mg  Mg3  1  0.593148  0.309491  0.186619  1
  Mg  Mg4  1  0.406854  0.690508  0.813382  1
  Se  Se5  1  0.559959  0.793163  0.119391  1
  Se  Se6  1  0.183592  0.130519  0.368342  1
  Se  Se7  1  0.816411  0.869482  0.631659  1
  Se  Se8  1  0.440041  0.206836  0.880609  1
  O  O9  1  0.731163  0.211537  0.011902  1
  O  O10  1  0.279716  0.211601  0.011723  1
  O  O11  1  0.596352  0.582963  0.193035  1
  O  O12  1  0.111188  0.981607  0.223649  1
  O  O13  1  0.927864  0.267305  0.339594  1
  O  O14  1  0.410851  0.267386  0.339589  1
  O  O15  1  0.589149  0.732615  0.660411  1
  O  O16  1  0.072136  0.732693  0.660409  1
  O  O17  1  0.888811  0.018393  0.776351  1
  O  O18  1  0.403649  0.417036  0.806965  1
  O  O19  1  0.720284  0.788399  0.988277  1
  O  O20  1  0.268837  0.788462  0.988098  1
