# generated using pymatgen
data_Sm6Zn4Pd2Pt11
_symmetry_space_group_name_H-M   'P 1'
_cell_length_a   8.34594831
_cell_length_b   8.34594697
_cell_length_c   8.34535201
_cell_angle_alpha   109.43003644
_cell_angle_beta   109.43002436
_cell_angle_gamma   109.54077506
_symmetry_Int_Tables_number   1
_chemical_formula_structural   Sm6Zn4Pd2Pt11
_chemical_formula_sum   'Sm6 Zn4 Pd2 Pt11'
_cell_volume   447.55086453
_cell_formula_units_Z   1
loop_
 _symmetry_equiv_pos_site_id
 _symmetry_equiv_pos_as_xyz
  1  'x, y, z'
loop_
 _atom_site_type_symbol
 _atom_site_label
 _atom_site_symmetry_multiplicity
 _atom_site_fract_x
 _atom_site_fract_y
 _atom_site_fract_z
 _atom_site_occupancy
  Sm  Sm0  1  0.699268  0.699268  0.001957  1
  Sm  Sm1  1  0.300274  0.999633  0.300307  1
  Sm  Sm2  1  0.999633  0.300274  0.300307  1
  Sm  Sm3  1  0.301025  0.301025  0.999896  1
  Sm  Sm4  1  0.700096  0.000670  0.699062  1
  Sm  Sm5  1  0.000670  0.700096  0.699062  1
  Zn  Zn6  1  0.999919  0.999919  0.499948  1
  Zn  Zn7  1  0.999441  0.499543  0.999451  1
  Zn  Zn8  1  0.499543  0.999441  0.999451  1
  Zn  Zn9  1  0.499668  0.499668  0.500185  1
  Pd  Pd10  1  0.668862  0.337913  0.668733  1
  Pd  Pd11  1  0.337913  0.668862  0.668733  1
  Pt  Pt12  1  0.330617  0.330617  0.659770  1
  Pt  Pt13  1  0.669953  0.001025  0.330668  1
  Pt  Pt14  1  0.001025  0.669953  0.330668  1
  Pt  Pt15  1  0.670360  0.329994  0.999971  1
  Pt  Pt16  1  0.330438  0.660309  0.330671  1
  Pt  Pt17  1  0.000673  0.331231  0.670257  1
  Pt  Pt18  1  0.329994  0.670360  0.999971  1
  Pt  Pt19  1  0.331231  0.000673  0.670257  1
  Pt  Pt20  1  0.660309  0.330438  0.330671  1
  Pt  Pt21  1  0.669888  0.669888  0.340535  1
  Pt  Pt22  1  0.999203  0.999203  0.999470  1
