# generated using pymatgen
data_PrIn2Pt3
_symmetry_space_group_name_H-M   'P 1'
_cell_length_a   4.67288200
_cell_length_b   10.19222000
_cell_length_c   10.32057400
_cell_angle_alpha   90.00000000
_cell_angle_beta   90.00000000
_cell_angle_gamma   90.00000000
_symmetry_Int_Tables_number   1
_chemical_formula_structural   PrIn2Pt3
_chemical_formula_sum   'Pr4 In8 Pt12'
_cell_volume   491.53840494
_cell_formula_units_Z   4
loop_
 _symmetry_equiv_pos_site_id
 _symmetry_equiv_pos_as_xyz
  1  'x, y, z'
loop_
 _atom_site_type_symbol
 _atom_site_label
 _atom_site_symmetry_multiplicity
 _atom_site_fract_x
 _atom_site_fract_y
 _atom_site_fract_z
 _atom_site_occupancy
  Pr  Pr0  1  0.250000  0.441712  0.728761  1
  Pr  Pr1  1  0.250000  0.058288  0.228761  1
  Pr  Pr2  1  0.750000  0.558288  0.271239  1
  Pr  Pr3  1  0.750000  0.941712  0.771239  1
  In  In4  1  0.250000  0.884519  0.516948  1
  In  In5  1  0.250000  0.615481  0.016948  1
  In  In6  1  0.750000  0.115481  0.483052  1
  In  In7  1  0.750000  0.384519  0.983052  1
  In  In8  1  0.250000  0.158458  0.894919  1
  In  In9  1  0.250000  0.341542  0.394919  1
  In  In10  1  0.750000  0.841542  0.105081  1
  In  In11  1  0.750000  0.658458  0.605081  1
  Pt  Pt12  1  0.250000  0.140971  0.618664  1
  Pt  Pt13  1  0.250000  0.359029  0.118664  1
  Pt  Pt14  1  0.750000  0.859029  0.381336  1
  Pt  Pt15  1  0.750000  0.640971  0.881336  1
  Pt  Pt16  1  0.250000  0.740718  0.741157  1
  Pt  Pt17  1  0.250000  0.759282  0.241157  1
  Pt  Pt18  1  0.750000  0.259282  0.258843  1
  Pt  Pt19  1  0.750000  0.240718  0.758843  1
  Pt  Pt20  1  0.250000  0.896497  0.971045  1
  Pt  Pt21  1  0.250000  0.603503  0.471045  1
  Pt  Pt22  1  0.750000  0.103503  0.028955  1
  Pt  Pt23  1  0.750000  0.396497  0.528955  1
