# generated using pymatgen
data_NdHo9Tl6O2
_symmetry_space_group_name_H-M   'P 1'
_cell_length_a   9.01557127
_cell_length_b   9.01553378
_cell_length_c   9.01556000
_cell_angle_alpha   125.90034685
_cell_angle_beta   125.90068434
_cell_angle_gamma   80.05159409
_symmetry_Int_Tables_number   1
_chemical_formula_structural   NdHo9Tl6O2
_chemical_formula_sum   'Nd1 Ho9 Tl6 O2'
_cell_volume   464.19356638
_cell_formula_units_Z   1
loop_
 _symmetry_equiv_pos_site_id
 _symmetry_equiv_pos_as_xyz
  1  'x, y, z'
loop_
 _atom_site_type_symbol
 _atom_site_label
 _atom_site_symmetry_multiplicity
 _atom_site_fract_x
 _atom_site_fract_y
 _atom_site_fract_z
 _atom_site_occupancy
  Nd  Nd0  1  0.002313  0.002313  0.000000  1
  Ho  Ho1  1  0.504284  0.309107  0.503741  1
  Ho  Ho2  1  0.805371  0.000519  0.496264  1
  Ho  Ho3  1  0.000506  0.504249  0.195142  1
  Ho  Ho4  1  0.309100  0.805365  0.804834  1
  Ho  Ho5  1  0.498125  0.693170  0.496473  1
  Ho  Ho6  1  0.196688  0.001675  0.503519  1
  Ho  Ho7  1  0.001689  0.498161  0.804992  1
  Ho  Ho8  1  0.693178  0.196696  0.195033  1
  Ho  Ho9  1  0.502035  0.502035  0.000001  1
  Tl  Tl10  1  0.143333  0.365042  0.506429  1
  Tl  Tl11  1  0.858605  0.636895  0.493573  1
  Tl  Tl12  1  0.636864  0.143300  0.778232  1
  Tl  Tl13  1  0.365072  0.858637  0.221771  1
  Tl  Tl14  1  0.749126  0.749122  0.000002  1
  Tl  Tl15  1  0.254298  0.254298  0.999998  1
  O  O16  1  0.750921  0.251112  0.499831  1
  O  O17  1  0.251332  0.751147  0.500167  1
