# generated using pymatgen
data_La2SmSn6Ru
_symmetry_space_group_name_H-M   'P 1'
_cell_length_a   8.73071199
_cell_length_b   8.73071066
_cell_length_c   13.55122900
_cell_angle_alpha   90.00000000
_cell_angle_beta   90.00000000
_cell_angle_gamma   148.46531593
_symmetry_Int_Tables_number   1
_chemical_formula_structural   La2SmSn6Ru
_chemical_formula_sum   'La4 Sm2 Sn12 Ru2'
_cell_volume   540.24625810
_cell_formula_units_Z   2
loop_
 _symmetry_equiv_pos_site_id
 _symmetry_equiv_pos_as_xyz
  1  'x, y, z'
loop_
 _atom_site_type_symbol
 _atom_site_label
 _atom_site_symmetry_multiplicity
 _atom_site_fract_x
 _atom_site_fract_y
 _atom_site_fract_z
 _atom_site_occupancy
  La  La0  1  0.399464  0.600536  0.404363  1
  La  La1  1  0.600536  0.399464  0.595637  1
  La  La2  1  0.399464  0.600536  0.095637  1
  La  La3  1  0.600536  0.399464  0.904363  1
  Sm  Sm4  1  0.603192  0.396808  0.250000  1
  Sm  Sm5  1  0.396808  0.603192  0.750000  1
  Sn  Sn6  1  0.926548  0.073452  0.922294  1
  Sn  Sn7  1  0.073452  0.926548  0.077706  1
  Sn  Sn8  1  0.926548  0.073452  0.577706  1
  Sn  Sn9  1  0.073452  0.926548  0.422294  1
  Sn  Sn10  1  0.961038  0.038962  0.250000  1
  Sn  Sn11  1  0.038962  0.961038  0.750000  1
  Sn  Sn12  1  0.744643  0.255358  0.431727  1
  Sn  Sn13  1  0.255358  0.744642  0.568273  1
  Sn  Sn14  1  0.744643  0.255358  0.068273  1
  Sn  Sn15  1  0.255358  0.744642  0.931727  1
  Sn  Sn16  1  0.232428  0.767572  0.250000  1
  Sn  Sn17  1  0.767572  0.232428  0.750000  1
  Ru  Ru18  1  0.801649  0.198351  0.250000  1
  Ru  Ru19  1  0.198351  0.801649  0.750000  1
