# generated using pymatgen
data_Ba5CaSn8BiSe
_symmetry_space_group_name_H-M   'P 1'
_cell_length_a   9.21545930
_cell_length_b   9.21545970
_cell_length_c   9.20139145
_cell_angle_alpha   120.05060270
_cell_angle_beta   120.05059497
_cell_angle_gamma   90.00000251
_symmetry_Int_Tables_number   1
_chemical_formula_structural   Ba5CaSn8BiSe
_chemical_formula_sum   'Ba5 Ca1 Sn8 Bi1 Se1'
_cell_volume   551.70489111
_cell_formula_units_Z   1
loop_
 _symmetry_equiv_pos_site_id
 _symmetry_equiv_pos_as_xyz
  1  'x, y, z'
loop_
 _atom_site_type_symbol
 _atom_site_label
 _atom_site_symmetry_multiplicity
 _atom_site_fract_x
 _atom_site_fract_y
 _atom_site_fract_z
 _atom_site_occupancy
  Ba  Ba0  1  0.759199  0.759199  0.518399  1
  Ba  Ba1  1  0.673640  0.157599  0.001771  1
  Ba  Ba2  1  0.328131  0.844173  0.001771  1
  Ba  Ba3  1  0.844173  0.673640  0.001771  1
  Ba  Ba4  1  0.157599  0.328131  0.001771  1
  Ca  Ca5  1  0.237149  0.237149  0.474297  1
  Sn  Sn6  1  0.338742  0.836754  0.389945  1
  Sn  Sn7  1  0.654211  0.169238  0.611514  1
  Sn  Sn8  1  0.051203  0.553191  0.389945  1
  Sn  Sn9  1  0.553191  0.338742  0.389945  1
  Sn  Sn10  1  0.169238  0.957301  0.611514  1
  Sn  Sn11  1  0.957301  0.442275  0.611514  1
  Sn  Sn12  1  0.442275  0.654211  0.611514  1
  Sn  Sn13  1  0.836754  0.051203  0.389945  1
  Bi  Bi14  1  0.484463  0.484463  0.968926  1
  Se  Se15  1  0.012730  0.012730  0.025459  1
