# generated using pymatgen
data_Ho2MoRuC3
_symmetry_space_group_name_H-M   'P 1'
_cell_length_a   6.01984519
_cell_length_b   6.01984608
_cell_length_c   5.66990202
_cell_angle_alpha   67.91565786
_cell_angle_beta   67.91565743
_cell_angle_gamma   32.35788759
_symmetry_Int_Tables_number   1
_chemical_formula_structural   Ho2MoRuC3
_chemical_formula_sum   'Ho2 Mo1 Ru1 C3'
_cell_volume   101.19154257
_cell_formula_units_Z   1
loop_
 _symmetry_equiv_pos_site_id
 _symmetry_equiv_pos_as_xyz
  1  'x, y, z'
loop_
 _atom_site_type_symbol
 _atom_site_label
 _atom_site_symmetry_multiplicity
 _atom_site_fract_x
 _atom_site_fract_y
 _atom_site_fract_z
 _atom_site_occupancy
  Ho  Ho0  1  0.390297  0.390297  0.820927  1
  Ho  Ho1  1  0.608619  0.608619  0.169702  1
  Mo  Mo2  1  0.842135  0.842135  0.323918  1
  Ru  Ru3  1  0.158686  0.158686  0.680504  1
  C  C4  1  0.752691  0.752691  0.731445  1
  C  C5  1  0.246125  0.246125  0.270696  1
  C  C6  1  0.001447  0.001447  0.002808  1
