# generated using pymatgen
data_Ce2SmLu5(ReB6)4
_symmetry_space_group_name_H-M   'P 1'
_cell_length_a   3.67279400
_cell_length_b   9.12847623
_cell_length_c   11.52260502
_cell_angle_alpha   90.10789681
_cell_angle_beta   90.00000000
_cell_angle_gamma   90.00000000
_symmetry_Int_Tables_number   1
_chemical_formula_structural   Ce2SmLu5(ReB6)4
_chemical_formula_sum   'Ce2 Sm1 Lu5 Re4 B24'
_cell_volume   386.31783996
_cell_formula_units_Z   1
loop_
 _symmetry_equiv_pos_site_id
 _symmetry_equiv_pos_as_xyz
  1  'x, y, z'
loop_
 _atom_site_type_symbol
 _atom_site_label
 _atom_site_symmetry_multiplicity
 _atom_site_fract_x
 _atom_site_fract_y
 _atom_site_fract_z
 _atom_site_occupancy
  Ce  Ce0  1  0.000000  0.321493  0.413930  1
  Ce  Ce1  1  0.000000  0.678367  0.586403  1
  Sm  Sm2  1  0.000000  0.823236  0.085305  1
  Lu  Lu3  1  0.000000  0.176148  0.914449  1
  Lu  Lu4  1  0.000000  0.944189  0.370480  1
  Lu  Lu5  1  0.000000  0.056429  0.629623  1
  Lu  Lu6  1  0.000000  0.442802  0.128120  1
  Lu  Lu7  1  0.000000  0.556360  0.871354  1
  Re  Re8  1  0.000000  0.637745  0.321321  1
  Re  Re9  1  0.000000  0.361123  0.680289  1
  Re  Re10  1  0.000000  0.140645  0.180045  1
  Re  Re11  1  0.000000  0.861040  0.818978  1
  B  B12  1  0.500000  0.554241  0.431515  1
  B  B13  1  0.500000  0.445001  0.569344  1
  B  B14  1  0.500000  0.055505  0.066027  1
  B  B15  1  0.500000  0.947581  0.932032  1
  B  B16  1  0.500000  0.750911  0.417495  1
  B  B17  1  0.500000  0.248973  0.583586  1
  B  B18  1  0.500000  0.250734  0.079643  1
  B  B19  1  0.500000  0.749851  0.917507  1
  B  B20  1  0.500000  0.792374  0.265479  1
  B  B21  1  0.500000  0.206660  0.736391  1
  B  B22  1  0.500000  0.292369  0.233274  1
  B  B23  1  0.500000  0.707946  0.765777  1
  B  B24  1  0.500000  0.629251  0.184855  1
  B  B25  1  0.500000  0.368720  0.816715  1
  B  B26  1  0.500000  0.130724  0.314273  1
  B  B27  1  0.500000  0.870451  0.685652  1
  B  B28  1  0.500000  0.983592  0.212354  1
  B  B29  1  0.500000  0.019189  0.788015  1
  B  B30  1  0.500000  0.482299  0.286172  1
  B  B31  1  0.500000  0.516618  0.714330  1
  B  B32  1  0.500000  0.597424  0.026887  1
  B  B33  1  0.500000  0.399606  0.972123  1
  B  B34  1  0.500000  0.100157  0.472532  1
  B  B35  1  0.500000  0.900245  0.527726  1
