# generated using pymatgen
data_SmYHf(SnRh)3
_symmetry_space_group_name_H-M   'P 1'
_cell_length_a   7.54987924
_cell_length_b   7.49032269
_cell_length_c   7.64810000
_cell_angle_alpha   90.00000000
_cell_angle_beta   90.00000000
_cell_angle_gamma   119.69120114
_symmetry_Int_Tables_number   1
_chemical_formula_structural   SmYHf(SnRh)3
_chemical_formula_sum   'Sm2 Y2 Hf2 Sn6 Rh6'
_cell_volume   375.72293625
_cell_formula_units_Z   2
loop_
 _symmetry_equiv_pos_site_id
 _symmetry_equiv_pos_as_xyz
  1  'x, y, z'
loop_
 _atom_site_type_symbol
 _atom_site_label
 _atom_site_symmetry_multiplicity
 _atom_site_fract_x
 _atom_site_fract_y
 _atom_site_fract_z
 _atom_site_occupancy
  Sm  Sm0  1  0.999714  0.403800  0.750000  1
  Sm  Sm1  1  0.588076  0.592320  0.750000  1
  Y  Y2  1  0.409764  0.003500  0.750000  1
  Y  Y3  1  0.998059  0.402094  0.250000  1
  Hf  Hf4  1  0.605632  0.600190  0.250000  1
  Hf  Hf5  1  0.395920  0.996870  0.250000  1
  Sn  Sn6  1  0.262045  0.261931  0.488559  1
  Sn  Sn7  1  0.001832  0.736455  0.500702  1
  Sn  Sn8  1  0.001832  0.736455  0.999298  1
  Sn  Sn9  1  0.736772  0.999638  0.490273  1
  Sn  Sn10  1  0.736772  0.999638  0.009727  1
  Sn  Sn11  1  0.262045  0.261931  0.011441  1
  Rh  Rh12  1  0.345490  0.677281  0.466093  1
  Rh  Rh13  1  0.654676  0.331155  0.469814  1
  Rh  Rh14  1  0.345490  0.677281  0.033907  1
  Rh  Rh15  1  0.001641  0.002515  0.750000  1
  Rh  Rh16  1  0.999563  0.985792  0.250000  1
  Rh  Rh17  1  0.654676  0.331155  0.030186  1
