# generated using pymatgen
data_Ho2ErSc3MnSb2
_symmetry_space_group_name_H-M   'P 1'
_cell_length_a   7.80342904
_cell_length_b   7.80342968
_cell_length_c   4.20013600
_cell_angle_alpha   90.00000000
_cell_angle_beta   90.00000000
_cell_angle_gamma   120.01123104
_symmetry_Int_Tables_number   1
_chemical_formula_structural   Ho2ErSc3MnSb2
_chemical_formula_sum   'Ho2 Er1 Sc3 Mn1 Sb2'
_cell_volume   221.47047162
_cell_formula_units_Z   1
loop_
 _symmetry_equiv_pos_site_id
 _symmetry_equiv_pos_as_xyz
  1  'x, y, z'
loop_
 _atom_site_type_symbol
 _atom_site_label
 _atom_site_symmetry_multiplicity
 _atom_site_fract_x
 _atom_site_fract_y
 _atom_site_fract_z
 _atom_site_occupancy
  Ho  Ho0  1  0.605456  0.999979  0.000000  1
  Ho  Ho1  1  0.999979  0.605456  0.000000  1
  Er  Er2  1  0.394302  0.394302  0.000000  1
  Sc  Sc3  1  0.227818  0.000127  0.500000  1
  Sc  Sc4  1  0.000127  0.227818  0.500000  1
  Sc  Sc5  1  0.772222  0.772222  0.500000  1
  Mn  Mn6  1  0.000177  0.000177  0.000000  1
  Sb  Sb7  1  0.333376  0.666542  0.500000  1
  Sb  Sb8  1  0.666542  0.333376  0.500000  1
