# generated using pymatgen
data_Ca12Ir3Pd
_symmetry_space_group_name_H-M   'P 1'
_cell_length_a   6.49164793
_cell_length_b   7.71698049
_cell_length_c   9.48764300
_cell_angle_alpha   90.00000000
_cell_angle_beta   90.00000000
_cell_angle_gamma   89.75512617
_symmetry_Int_Tables_number   1
_chemical_formula_structural   Ca12Ir3Pd
_chemical_formula_sum   'Ca12 Ir3 Pd1'
_cell_volume   475.28786804
_cell_formula_units_Z   1
loop_
 _symmetry_equiv_pos_site_id
 _symmetry_equiv_pos_as_xyz
  1  'x, y, z'
loop_
 _atom_site_type_symbol
 _atom_site_label
 _atom_site_symmetry_multiplicity
 _atom_site_fract_x
 _atom_site_fract_y
 _atom_site_fract_z
 _atom_site_occupancy
  Ca  Ca0  1  0.336241  0.667877  0.072143  1
  Ca  Ca1  1  0.162067  0.169302  0.430693  1
  Ca  Ca2  1  0.661455  0.324720  0.561516  1
  Ca  Ca3  1  0.846893  0.837819  0.938227  1
  Ca  Ca4  1  0.661455  0.324720  0.938484  1
  Ca  Ca5  1  0.846893  0.837819  0.561773  1
  Ca  Ca6  1  0.336241  0.667877  0.427857  1
  Ca  Ca7  1  0.162067  0.169302  0.069307  1
  Ca  Ca8  1  0.857381  0.543465  0.250000  1
  Ca  Ca9  1  0.639616  0.040290  0.250000  1
  Ca  Ca10  1  0.133002  0.453547  0.750000  1
  Ca  Ca11  1  0.355617  0.964595  0.750000  1
  Ir  Ir12  1  0.044239  0.876609  0.250000  1
  Ir  Ir13  1  0.458746  0.375913  0.250000  1
  Ir  Ir14  1  0.949484  0.123759  0.750000  1
  Pd  Pd15  1  0.548604  0.622386  0.750000  1
