# generated using pymatgen
data_YbSm3Dy2(Si3Ru)8
_symmetry_space_group_name_H-M   'P 1'
_cell_length_a   10.14397557
_cell_length_b   10.14306337
_cell_length_c   8.17546410
_cell_angle_alpha   90.05406766
_cell_angle_beta   89.93575846
_cell_angle_gamma   132.46700614
_symmetry_Int_Tables_number   1
_chemical_formula_structural   YbSm3Dy2(Si3Ru)8
_chemical_formula_sum   'Yb1 Sm3 Dy2 Si24 Ru8'
_cell_volume   620.51084808
_cell_formula_units_Z   1
loop_
 _symmetry_equiv_pos_site_id
 _symmetry_equiv_pos_as_xyz
  1  'x, y, z'
loop_
 _atom_site_type_symbol
 _atom_site_label
 _atom_site_symmetry_multiplicity
 _atom_site_fract_x
 _atom_site_fract_y
 _atom_site_fract_z
 _atom_site_occupancy
  Yb  Yb0  1  0.500008  0.499972  0.500089  1
  Sm  Sm1  1  0.502316  0.002577  0.749882  1
  Sm  Sm2  1  0.997221  0.497353  0.250129  1
  Sm  Sm3  1  0.497195  0.997065  0.250122  1
  Dy  Dy4  1  0.999938  0.999972  0.999926  1
  Dy  Dy5  1  0.002515  0.502139  0.749878  1
  Si  Si6  1  0.796064  0.205196  0.501143  1
  Si  Si7  1  0.294150  0.703826  0.998843  1
  Si  Si8  1  0.203521  0.794438  0.501037  1
  Si  Si9  1  0.705318  0.295609  0.999219  1
  Si  Si10  1  0.333794  0.333387  0.831682  1
  Si  Si11  1  0.666484  0.666442  0.168470  1
  Si  Si12  1  0.169191  0.169093  0.334035  1
  Si  Si13  1  0.830640  0.831244  0.665698  1
  Si  Si14  1  0.122154  0.889373  0.728040  1
  Si  Si15  1  0.111219  0.877972  0.271104  1
  Si  Si16  1  0.610074  0.377201  0.230366  1
  Si  Si17  1  0.622375  0.390121  0.770080  1
  Si  Si18  1  0.876442  0.109986  0.271229  1
  Si  Si19  1  0.890491  0.123624  0.728520  1
  Si  Si20  1  0.389095  0.621189  0.770411  1
  Si  Si21  1  0.378994  0.611394  0.230395  1
  Si  Si22  1  0.346829  0.114842  0.505397  1
  Si  Si23  1  0.885973  0.655118  0.495404  1
  Si  Si24  1  0.387309  0.154197  0.005571  1
  Si  Si25  1  0.843858  0.611559  0.993985  1
  Si  Si26  1  0.652982  0.884897  0.493777  1
  Si  Si27  1  0.114207  0.345426  0.506363  1
  Si  Si28  1  0.612363  0.845516  0.995102  1
  Si  Si29  1  0.156599  0.388590  0.004090  1
  Ru  Ru30  1  0.671761  0.332658  0.501287  1
  Ru  Ru31  1  0.166286  0.829031  0.998326  1
  Ru  Ru32  1  0.328385  0.667499  0.501581  1
  Ru  Ru33  1  0.833584  0.170833  0.998991  1
  Ru  Ru34  1  0.124566  0.124434  0.627259  1
  Ru  Ru35  1  0.875691  0.875968  0.372329  1
  Ru  Ru36  1  0.373962  0.373557  0.125069  1
  Ru  Ru37  1  0.626448  0.626706  0.875170  1
