# generated using pymatgen
data_Nd3Tl3PdPt2
_symmetry_space_group_name_H-M   'P 1'
_cell_length_a   8.01496568
_cell_length_b   8.01496477
_cell_length_c   3.89293300
_cell_angle_alpha   90.00000000
_cell_angle_beta   90.00000000
_cell_angle_gamma   119.94081147
_symmetry_Int_Tables_number   1
_chemical_formula_structural   Nd3Tl3PdPt2
_chemical_formula_sum   'Nd3 Tl3 Pd1 Pt2'
_cell_volume   216.70531332
_cell_formula_units_Z   1
loop_
 _symmetry_equiv_pos_site_id
 _symmetry_equiv_pos_as_xyz
  1  'x, y, z'
loop_
 _atom_site_type_symbol
 _atom_site_label
 _atom_site_symmetry_multiplicity
 _atom_site_fract_x
 _atom_site_fract_y
 _atom_site_fract_z
 _atom_site_occupancy
  Nd  Nd0  1  0.000159  0.588735  0.500000  1
  Nd  Nd1  1  0.588735  0.000159  0.500000  1
  Nd  Nd2  1  0.411182  0.411182  0.500000  1
  Tl  Tl3  1  0.999876  0.260113  0.000000  1
  Tl  Tl4  1  0.260113  0.999876  0.000000  1
  Tl  Tl5  1  0.740104  0.740104  0.000000  1
  Pd  Pd6  1  0.999783  0.999783  0.500000  1
  Pt  Pt7  1  0.666781  0.333265  0.000000  1
  Pt  Pt8  1  0.333265  0.666781  0.000000  1
