# generated using pymatgen
data_Nd6Al24Os6PtRh
_symmetry_space_group_name_H-M   'P 1'
_cell_length_a   8.90173548
_cell_length_b   8.90173494
_cell_length_c   9.65265904
_cell_angle_alpha   90.06411698
_cell_angle_beta   89.93588339
_cell_angle_gamma   119.33884350
_symmetry_Int_Tables_number   1
_chemical_formula_structural   Nd6Al24Os6PtRh
_chemical_formula_sum   'Nd6 Al24 Os6 Pt1 Rh1'
_cell_volume   666.77847542
_cell_formula_units_Z   1
loop_
 _symmetry_equiv_pos_site_id
 _symmetry_equiv_pos_as_xyz
  1  'x, y, z'
loop_
 _atom_site_type_symbol
 _atom_site_label
 _atom_site_symmetry_multiplicity
 _atom_site_fract_x
 _atom_site_fract_y
 _atom_site_fract_z
 _atom_site_occupancy
  Nd  Nd0  1  0.183428  0.382717  0.250062  1
  Nd  Nd1  1  0.816572  0.617283  0.749938  1
  Nd  Nd2  1  0.617283  0.816572  0.250062  1
  Nd  Nd3  1  0.382717  0.183428  0.749938  1
  Nd  Nd4  1  0.191973  0.808027  0.249459  1
  Nd  Nd5  1  0.808027  0.191973  0.750541  1
  Al  Al6  1  0.330984  0.669016  0.015245  1
  Al  Al7  1  0.669016  0.330984  0.984755  1
  Al  Al8  1  0.667731  0.332269  0.514702  1
  Al  Al9  1  0.332269  0.667731  0.485298  1
  Al  Al10  1  0.161562  0.324202  0.575971  1
  Al  Al11  1  0.838438  0.675798  0.424029  1
  Al  Al12  1  0.675798  0.838438  0.575971  1
  Al  Al13  1  0.840921  0.676410  0.076076  1
  Al  Al14  1  0.324202  0.161562  0.424029  1
  Al  Al15  1  0.159079  0.323590  0.923924  1
  Al  Al16  1  0.164467  0.835533  0.573048  1
  Al  Al17  1  0.323590  0.159079  0.076076  1
  Al  Al18  1  0.835533  0.164467  0.426952  1
  Al  Al19  1  0.676410  0.840921  0.923924  1
  Al  Al20  1  0.835566  0.164434  0.073235  1
  Al  Al21  1  0.164434  0.835566  0.926765  1
  Al  Al22  1  0.560197  0.126739  0.249859  1
  Al  Al23  1  0.439803  0.873261  0.750141  1
  Al  Al24  1  0.873261  0.439803  0.249859  1
  Al  Al25  1  0.126739  0.560197  0.750141  1
  Al  Al26  1  0.560405  0.439595  0.251999  1
  Al  Al27  1  0.439595  0.560405  0.748001  1
  Al  Al28  1  0.998347  0.001653  0.250105  1
  Al  Al29  1  0.001653  0.998347  0.749895  1
  Os  Os30  1  0.500000  0.000000  0.000000  1
  Os  Os31  1  0.000000  0.500000  0.000000  1
  Os  Os32  1  0.500000  0.000000  0.500000  1
  Os  Os33  1  0.000000  0.500000  0.500000  1
  Os  Os34  1  0.000000  0.000000  0.000000  1
  Os  Os35  1  0.000000  0.000000  0.500000  1
  Pt  Pt36  1  0.500000  0.500000  0.000000  1
  Rh  Rh37  1  0.500000  0.500000  0.500000  1
