# generated using pymatgen
data_Ho8Si6Ir5Rh3
_symmetry_space_group_name_H-M   'P 1'
_cell_length_a   10.66922593
_cell_length_b   10.67997184
_cell_length_c   7.72037500
_cell_angle_alpha   71.82837618
_cell_angle_beta   71.81216942
_cell_angle_gamma   30.03660802
_symmetry_Int_Tables_number   1
_chemical_formula_structural   Ho8Si6Ir5Rh3
_chemical_formula_sum   'Ho8 Si6 Ir5 Rh3'
_cell_volume   416.73576342
_cell_formula_units_Z   1
loop_
 _symmetry_equiv_pos_site_id
 _symmetry_equiv_pos_as_xyz
  1  'x, y, z'
loop_
 _atom_site_type_symbol
 _atom_site_label
 _atom_site_symmetry_multiplicity
 _atom_site_fract_x
 _atom_site_fract_y
 _atom_site_fract_z
 _atom_site_occupancy
  Ho  Ho0  1  0.788658  0.551649  0.598856  1
  Ho  Ho1  1  0.448523  0.211101  0.902754  1
  Ho  Ho2  1  0.210936  0.449189  0.400148  1
  Ho  Ho3  1  0.552069  0.788624  0.098808  1
  Ho  Ho4  1  0.790169  0.071031  0.171749  1
  Ho  Ho5  1  0.929009  0.209077  0.328960  1
  Ho  Ho6  1  0.208229  0.929966  0.828885  1
  Ho  Ho7  1  0.070918  0.790855  0.670427  1
  Si  Si8  1  0.954822  0.700883  0.056747  1
  Si  Si9  1  0.300050  0.043635  0.442424  1
  Si  Si10  1  0.044857  0.298705  0.943425  1
  Si  Si11  1  0.701097  0.954566  0.558111  1
  Si  Si12  1  0.607246  0.392992  0.749998  1
  Si  Si13  1  0.392705  0.606966  0.250006  1
  Ir  Ir14  1  0.588446  0.286987  0.525570  1
  Ir  Ir15  1  0.711775  0.412408  0.975039  1
  Ir  Ir16  1  0.412251  0.711719  0.474624  1
  Ir  Ir17  1  0.286948  0.588930  0.024626  1
  Ir  Ir18  1  0.630433  0.929417  0.308273  1
  Rh  Rh19  1  0.073766  0.368225  0.190797  1
  Rh  Rh20  1  0.367736  0.074018  0.690680  1
  Rh  Rh21  1  0.929357  0.629060  0.809094  1
