# generated using pymatgen
data_Sc22TcRu6Pt
_symmetry_space_group_name_H-M   'P 1'
_cell_length_a   9.44387591
_cell_length_b   9.45109467
_cell_length_c   9.41107571
_cell_angle_alpha   60.77736208
_cell_angle_beta   60.98178822
_cell_angle_gamma   60.44145713
_symmetry_Int_Tables_number   1
_chemical_formula_structural   Sc22TcRu6Pt
_chemical_formula_sum   'Sc22 Tc1 Ru6 Pt1'
_cell_volume   603.76392781
_cell_formula_units_Z   1
loop_
 _symmetry_equiv_pos_site_id
 _symmetry_equiv_pos_as_xyz
  1  'x, y, z'
loop_
 _atom_site_type_symbol
 _atom_site_label
 _atom_site_symmetry_multiplicity
 _atom_site_fract_x
 _atom_site_fract_y
 _atom_site_fract_z
 _atom_site_occupancy
  Sc  Sc0  1  0.800197  0.803278  0.196828  1
  Sc  Sc1  1  0.197321  0.805315  0.196201  1
  Sc  Sc2  1  0.803469  0.196558  0.197907  1
  Sc  Sc3  1  0.199803  0.196722  0.803172  1
  Sc  Sc4  1  0.802679  0.194685  0.803799  1
  Sc  Sc5  1  0.196531  0.803442  0.802093  1
  Sc  Sc6  1  0.613570  0.615954  0.150649  1
  Sc  Sc7  1  0.610910  0.151391  0.618673  1
  Sc  Sc8  1  0.152659  0.610978  0.617002  1
  Sc  Sc9  1  0.615910  0.616157  0.619930  1
  Sc  Sc10  1  0.386430  0.384046  0.849351  1
  Sc  Sc11  1  0.389090  0.848609  0.381327  1
  Sc  Sc12  1  0.847341  0.389022  0.382998  1
  Sc  Sc13  1  0.384090  0.383843  0.380070  1
  Sc  Sc14  1  0.841378  0.839925  0.471790  1
  Sc  Sc15  1  0.846163  0.466697  0.844956  1
  Sc  Sc16  1  0.467256  0.843731  0.843614  1
  Sc  Sc17  1  0.841515  0.837393  0.846935  1
  Sc  Sc18  1  0.158622  0.160075  0.528210  1
  Sc  Sc19  1  0.153837  0.533303  0.155044  1
  Sc  Sc20  1  0.532744  0.156269  0.156386  1
  Sc  Sc21  1  0.158485  0.162607  0.153065  1
  Tc  Tc22  1  0.500000  0.000000  0.000000  1
  Ru  Ru23  1  0.000000  0.000000  0.000000  1
  Ru  Ru24  1  0.500000  0.500000  0.500000  1
  Ru  Ru25  1  0.500000  0.000000  0.500000  1
  Ru  Ru26  1  0.000000  0.500000  0.500000  1
  Ru  Ru27  1  0.500000  0.500000  0.000000  1
  Ru  Ru28  1  0.000000  0.500000  0.000000  1
  Pt  Pt29  1  0.000000  0.000000  0.500000  1
