# generated using pymatgen
data_KInAsH
_symmetry_space_group_name_H-M   'P 1'
_cell_length_a   4.34362100
_cell_length_b   4.34362237
_cell_length_c   6.29488500
_cell_angle_alpha   90.00000000
_cell_angle_beta   90.00000000
_cell_angle_gamma   119.99998196
_symmetry_Int_Tables_number   1
_chemical_formula_structural   KInAsH
_chemical_formula_sum   'K1 In1 As1 H1'
_cell_volume   102.85431029
_cell_formula_units_Z   1
loop_
 _symmetry_equiv_pos_site_id
 _symmetry_equiv_pos_as_xyz
  1  'x, y, z'
loop_
 _atom_site_type_symbol
 _atom_site_label
 _atom_site_symmetry_multiplicity
 _atom_site_fract_x
 _atom_site_fract_y
 _atom_site_fract_z
 _atom_site_occupancy
  K  K0  1  0.333333  0.666667  0.044691  1
  In  In1  1  0.000000  0.000000  0.565113  1
  As  As2  1  0.666667  0.333333  0.411135  1
  H  H3  1  0.000000  0.000000  0.858961  1
