# generated using pymatgen
data_Yb8Re12Si15Ge
_symmetry_space_group_name_H-M   'P 1'
_cell_length_a   6.72833968
_cell_length_b   6.73240921
_cell_length_c   12.79574822
_cell_angle_alpha   90.09179898
_cell_angle_beta   90.04928726
_cell_angle_gamma   90.15338446
_symmetry_Int_Tables_number   1
_chemical_formula_structural   Yb8Re12Si15Ge
_chemical_formula_sum   'Yb8 Re12 Si15 Ge1'
_cell_volume   579.61794658
_cell_formula_units_Z   1
loop_
 _symmetry_equiv_pos_site_id
 _symmetry_equiv_pos_as_xyz
  1  'x, y, z'
loop_
 _atom_site_type_symbol
 _atom_site_label
 _atom_site_symmetry_multiplicity
 _atom_site_fract_x
 _atom_site_fract_y
 _atom_site_fract_z
 _atom_site_occupancy
  Yb  Yb0  1  0.998494  0.672413  0.028450  1
  Yb  Yb1  1  0.002090  0.328975  0.528796  1
  Yb  Yb2  1  0.326072  0.999400  0.471656  1
  Yb  Yb3  1  0.171697  0.501004  0.778414  1
  Yb  Yb4  1  0.827436  0.498604  0.277394  1
  Yb  Yb5  1  0.502104  0.173510  0.221200  1
  Yb  Yb6  1  0.498590  0.828096  0.722169  1
  Yb  Yb7  1  0.672473  0.998785  0.971755  1
  Re  Re8  1  0.658485  0.663605  0.502351  1
  Re  Re9  1  0.167342  0.840134  0.244372  1
  Re  Re10  1  0.336704  0.337315  0.000723  1
  Re  Re11  1  0.001696  0.818953  0.631469  1
  Re  Re12  1  0.997296  0.180650  0.127766  1
  Re  Re13  1  0.817045  0.010939  0.370473  1
  Re  Re14  1  0.324992  0.493701  0.378061  1
  Re  Re15  1  0.679023  0.504501  0.879005  1
  Re  Re16  1  0.495586  0.317143  0.621743  1
  Re  Re17  1  0.505054  0.680598  0.121078  1
  Re  Re18  1  0.179528  0.995691  0.872375  1
  Re  Re19  1  0.835908  0.161547  0.749199  1
  Si  Si20  1  0.618773  0.301085  0.437176  1
  Si  Si21  1  0.380654  0.698260  0.937152  1
  Si  Si22  1  0.197751  0.118008  0.687605  1
  Si  Si23  1  0.304628  0.617322  0.564829  1
  Si  Si24  1  0.698310  0.380956  0.062884  1
  Si  Si25  1  0.802515  0.881944  0.187154  1
  Si  Si26  1  0.119727  0.197842  0.312790  1
  Si  Si27  1  0.978048  0.287379  0.935604  1
  Si  Si28  1  0.714751  0.020200  0.563183  1
  Si  Si29  1  0.215208  0.479340  0.186426  1
  Si  Si30  1  0.784338  0.519703  0.687003  1
  Si  Si31  1  0.478070  0.213167  0.814395  1
  Si  Si32  1  0.521814  0.787777  0.313928  1
  Si  Si33  1  0.287298  0.979373  0.063381  1
  Si  Si34  1  0.880714  0.801329  0.814196  1
  Ge  Ge35  1  0.019783  0.710750  0.433843  1
