# generated using pymatgen
data_Dy20CoIr2Pt9
_symmetry_space_group_name_H-M   'P 1'
_cell_length_a   11.05353900
_cell_length_b   11.05353900
_cell_length_c   6.34565900
_cell_angle_alpha   90.00000000
_cell_angle_beta   90.00000000
_cell_angle_gamma   90.00000000
_symmetry_Int_Tables_number   1
_chemical_formula_structural   Dy20CoIr2Pt9
_chemical_formula_sum   'Dy20 Co1 Ir2 Pt9'
_cell_volume   775.31721357
_cell_formula_units_Z   1
loop_
 _symmetry_equiv_pos_site_id
 _symmetry_equiv_pos_as_xyz
  1  'x, y, z'
loop_
 _atom_site_type_symbol
 _atom_site_label
 _atom_site_symmetry_multiplicity
 _atom_site_fract_x
 _atom_site_fract_y
 _atom_site_fract_z
 _atom_site_occupancy
  Dy  Dy0  1  0.294367  0.086900  0.368778  1
  Dy  Dy1  1  0.296274  0.912531  0.880073  1
  Dy  Dy2  1  0.703726  0.087469  0.880073  1
  Dy  Dy3  1  0.705633  0.913100  0.368778  1
  Dy  Dy4  1  0.587469  0.796274  0.880073  1
  Dy  Dy5  1  0.586900  0.205633  0.368778  1
  Dy  Dy6  1  0.413100  0.794367  0.368778  1
  Dy  Dy7  1  0.412531  0.203726  0.880073  1
  Dy  Dy8  1  0.205251  0.410695  0.627023  1
  Dy  Dy9  1  0.205437  0.588075  0.126366  1
  Dy  Dy10  1  0.794563  0.411925  0.126366  1
  Dy  Dy11  1  0.794749  0.589305  0.627023  1
  Dy  Dy12  1  0.911925  0.705437  0.126366  1
  Dy  Dy13  1  0.910695  0.294749  0.627023  1
  Dy  Dy14  1  0.089305  0.705251  0.627023  1
  Dy  Dy15  1  0.088075  0.294563  0.126366  1
  Dy  Dy16  1  0.000000  0.000000  0.499904  1
  Dy  Dy17  1  0.000000  0.000000  0.999650  1
  Dy  Dy18  1  0.500000  0.500000  0.999650  1
  Dy  Dy19  1  0.500000  0.500000  0.499904  1
  Co  Co20  1  0.500000  0.000000  0.116777  1
  Ir  Ir21  1  0.000000  0.500000  0.880436  1
  Ir  Ir22  1  0.000000  0.500000  0.380915  1
  Pt  Pt23  1  0.845703  0.153524  0.249803  1
  Pt  Pt24  1  0.845155  0.847276  0.749563  1
  Pt  Pt25  1  0.154845  0.152724  0.749563  1
  Pt  Pt26  1  0.154297  0.846476  0.249803  1
  Pt  Pt27  1  0.652724  0.345155  0.749563  1
  Pt  Pt28  1  0.653524  0.654297  0.249803  1
  Pt  Pt29  1  0.346476  0.345703  0.249803  1
  Pt  Pt30  1  0.347276  0.654845  0.749563  1
  Pt  Pt31  1  0.500000  0.000000  0.616341  1
