# generated using pymatgen
data_Ho5Hg4PdRh
_symmetry_space_group_name_H-M   'P 1'
_cell_length_a   3.68005400
_cell_length_b   7.91154281
_cell_length_c   17.86895358
_cell_angle_alpha   90.16088354
_cell_angle_beta   90.00000000
_cell_angle_gamma   90.00000000
_symmetry_Int_Tables_number   1
_chemical_formula_structural   Ho5Hg4PdRh
_chemical_formula_sum   'Ho10 Hg8 Pd2 Rh2'
_cell_volume   520.25083095
_cell_formula_units_Z   2
loop_
 _symmetry_equiv_pos_site_id
 _symmetry_equiv_pos_as_xyz
  1  'x, y, z'
loop_
 _atom_site_type_symbol
 _atom_site_label
 _atom_site_symmetry_multiplicity
 _atom_site_fract_x
 _atom_site_fract_y
 _atom_site_fract_z
 _atom_site_occupancy
  Ho  Ho0  1  0.000000  0.500000  0.500000  1
  Ho  Ho1  1  0.000000  0.000000  0.000000  1
  Ho  Ho2  1  0.000000  0.727249  0.282362  1
  Ho  Ho3  1  0.000000  0.272751  0.717638  1
  Ho  Ho4  1  0.000000  0.751403  0.783363  1
  Ho  Ho5  1  0.000000  0.248597  0.216637  1
  Ho  Ho6  1  0.000000  0.612616  0.086751  1
  Ho  Ho7  1  0.000000  0.387384  0.913249  1
  Ho  Ho8  1  0.000000  0.886543  0.585177  1
  Ho  Ho9  1  0.000000  0.113457  0.414823  1
  Hg  Hg10  1  0.500000  0.712200  0.935256  1
  Hg  Hg11  1  0.500000  0.287800  0.064744  1
  Hg  Hg12  1  0.500000  0.788688  0.435950  1
  Hg  Hg13  1  0.500000  0.211312  0.564050  1
  Hg  Hg14  1  0.500000  0.583935  0.647337  1
  Hg  Hg15  1  0.500000  0.416065  0.352663  1
  Hg  Hg16  1  0.500000  0.917209  0.147150  1
  Hg  Hg17  1  0.500000  0.082791  0.852850  1
  Pd  Pd18  1  0.500000  0.976877  0.696655  1
  Pd  Pd19  1  0.500000  0.023123  0.303345  1
  Rh  Rh20  1  0.500000  0.528329  0.195171  1
  Rh  Rh21  1  0.500000  0.471671  0.804829  1
