# generated using pymatgen
data_Dy2Ho2Cd2CuNi3
_symmetry_space_group_name_H-M   'P 1'
_cell_length_a   7.39648030
_cell_length_b   7.39648023
_cell_length_c   3.64059900
_cell_angle_alpha   90.00000000
_cell_angle_beta   90.00000000
_cell_angle_gamma   90.27460228
_symmetry_Int_Tables_number   1
_chemical_formula_structural   Dy2Ho2Cd2CuNi3
_chemical_formula_sum   'Dy2 Ho2 Cd2 Cu1 Ni3'
_cell_volume   199.16731251
_cell_formula_units_Z   1
loop_
 _symmetry_equiv_pos_site_id
 _symmetry_equiv_pos_as_xyz
  1  'x, y, z'
loop_
 _atom_site_type_symbol
 _atom_site_label
 _atom_site_symmetry_multiplicity
 _atom_site_fract_x
 _atom_site_fract_y
 _atom_site_fract_z
 _atom_site_occupancy
  Dy  Dy0  1  0.685688  0.170825  0.500000  1
  Dy  Dy1  1  0.329175  0.814312  0.500000  1
  Ho  Ho2  1  0.162889  0.337111  0.500000  1
  Ho  Ho3  1  0.824716  0.675284  0.500000  1
  Cd  Cd4  1  0.004914  0.998714  0.000000  1
  Cd  Cd5  1  0.501286  0.495086  0.000000  1
  Cu  Cu6  1  0.379672  0.120328  0.000000  1
  Ni  Ni7  1  0.116670  0.624167  0.000000  1
  Ni  Ni8  1  0.875833  0.383330  0.000000  1
  Ni  Ni9  1  0.619157  0.880843  0.000000  1
