# generated using pymatgen
data_Th2Al20Os3Rh
_symmetry_space_group_name_H-M   'P 1'
_cell_length_a   6.88220523
_cell_length_b   6.87397567
_cell_length_c   9.18681800
_cell_angle_alpha   90.09117850
_cell_angle_beta   90.24366288
_cell_angle_gamma   96.76234636
_symmetry_Int_Tables_number   1
_chemical_formula_structural   Th2Al20Os3Rh
_chemical_formula_sum   'Th2 Al20 Os3 Rh1'
_cell_volume   431.58260545
_cell_formula_units_Z   1
loop_
 _symmetry_equiv_pos_site_id
 _symmetry_equiv_pos_as_xyz
  1  'x, y, z'
loop_
 _atom_site_type_symbol
 _atom_site_label
 _atom_site_symmetry_multiplicity
 _atom_site_fract_x
 _atom_site_fract_y
 _atom_site_fract_z
 _atom_site_occupancy
  Th  Th0  1  0.874313  0.130860  0.749361  1
  Th  Th1  1  0.125687  0.869140  0.250639  1
  Al  Al2  1  0.516806  0.777521  0.747031  1
  Al  Al3  1  0.778605  0.515417  0.249526  1
  Al  Al4  1  0.483194  0.222479  0.252969  1
  Al  Al5  1  0.221395  0.484583  0.750474  1
  Al  Al6  1  0.622252  0.380544  0.950909  1
  Al  Al7  1  0.377748  0.619456  0.049091  1
  Al  Al8  1  0.622141  0.378983  0.546152  1
  Al  Al9  1  0.377859  0.621017  0.453848  1
  Al  Al10  1  0.408879  0.146521  0.749865  1
  Al  Al11  1  0.144588  0.405074  0.250689  1
  Al  Al12  1  0.591121  0.853479  0.250135  1
  Al  Al13  1  0.855412  0.594926  0.749311  1
  Al  Al14  1  0.841589  0.157638  0.395660  1
  Al  Al15  1  0.158411  0.842362  0.604340  1
  Al  Al16  1  0.841729  0.158472  0.104567  1
  Al  Al17  1  0.158271  0.841528  0.895433  1
  Al  Al18  1  0.777358  0.778034  0.999802  1
  Al  Al19  1  0.779811  0.779719  0.498620  1
  Al  Al20  1  0.222642  0.221966  0.000198  1
  Al  Al21  1  0.220189  0.220281  0.501380  1
  Os  Os22  1  0.000000  0.500000  0.000000  1
  Os  Os23  1  0.500000  0.000000  0.500000  1
  Os  Os24  1  0.000000  0.500000  0.500000  1
  Rh  Rh25  1  0.500000  0.000000  0.000000  1
