# generated using pymatgen
data_Tb13Th3(HgIr)4
_symmetry_space_group_name_H-M   'P 1'
_cell_length_a   9.73200098
_cell_length_b   9.72423239
_cell_length_c   9.72423200
_cell_angle_alpha   60.00000131
_cell_angle_beta   60.02640378
_cell_angle_gamma   60.02641065
_symmetry_Int_Tables_number   1
_chemical_formula_structural   Tb13Th3(HgIr)4
_chemical_formula_sum   'Tb13 Th3 Hg4 Ir4'
_cell_volume   650.98506078
_cell_formula_units_Z   1
loop_
 _symmetry_equiv_pos_site_id
 _symmetry_equiv_pos_as_xyz
  1  'x, y, z'
loop_
 _atom_site_type_symbol
 _atom_site_label
 _atom_site_symmetry_multiplicity
 _atom_site_fract_x
 _atom_site_fract_y
 _atom_site_fract_z
 _atom_site_occupancy
  Tb  Tb0  1  0.194751  0.601750  0.601750  1
  Tb  Tb1  1  0.061035  0.439922  0.439922  1
  Tb  Tb2  1  0.439134  0.061627  0.061627  1
  Tb  Tb3  1  0.439134  0.061627  0.437613  1
  Tb  Tb4  1  0.061035  0.439922  0.059122  1
  Tb  Tb5  1  0.439134  0.437613  0.061627  1
  Tb  Tb6  1  0.061035  0.059122  0.439922  1
  Tb  Tb7  1  0.186445  0.813225  0.813225  1
  Tb  Tb8  1  0.814351  0.185648  0.185648  1
  Tb  Tb9  1  0.814351  0.185648  0.814354  1
  Tb  Tb10  1  0.186445  0.813225  0.187105  1
  Tb  Tb11  1  0.814351  0.814354  0.185648  1
  Tb  Tb12  1  0.186445  0.187105  0.813225  1
  Th  Th13  1  0.598541  0.600603  0.600603  1
  Th  Th14  1  0.598541  0.600603  0.200254  1
  Th  Th15  1  0.598541  0.200254  0.600603  1
  Hg  Hg16  1  0.838191  0.835379  0.835379  1
  Hg  Hg17  1  0.838191  0.835379  0.491052  1
  Hg  Hg18  1  0.838191  0.491052  0.835379  1
  Hg  Hg19  1  0.489389  0.836871  0.836871  1
  Ir  Ir20  1  0.393996  0.392074  0.392074  1
  Ir  Ir21  1  0.393996  0.392074  0.821856  1
  Ir  Ir22  1  0.393996  0.821856  0.392074  1
  Ir  Ir23  1  0.820784  0.393072  0.393072  1
