# generated using pymatgen
data_Dy3Ga6Co4Ni5
_symmetry_space_group_name_H-M   'P 1'
_cell_length_a   8.67178305
_cell_length_b   8.70589515
_cell_length_c   4.06244600
_cell_angle_alpha   90.00000000
_cell_angle_beta   90.00000000
_cell_angle_gamma   120.21245692
_symmetry_Int_Tables_number   1
_chemical_formula_structural   Dy3Ga6Co4Ni5
_chemical_formula_sum   'Dy3 Ga6 Co4 Ni5'
_cell_volume   265.03688629
_cell_formula_units_Z   1
loop_
 _symmetry_equiv_pos_site_id
 _symmetry_equiv_pos_as_xyz
  1  'x, y, z'
loop_
 _atom_site_type_symbol
 _atom_site_label
 _atom_site_symmetry_multiplicity
 _atom_site_fract_x
 _atom_site_fract_y
 _atom_site_fract_z
 _atom_site_occupancy
  Dy  Dy0  1  0.667598  0.334499  0.500000  1
  Dy  Dy1  1  0.331254  0.669346  0.500000  1
  Dy  Dy2  1  0.001899  0.000261  0.000000  1
  Ga  Ga3  1  0.490576  0.487258  0.000000  1
  Ga  Ga4  1  0.510659  0.000810  0.000000  1
  Ga  Ga5  1  0.996070  0.509071  0.000000  1
  Ga  Ga6  1  0.726451  0.726462  0.500000  1
  Ga  Ga7  1  0.273714  0.999173  0.500000  1
  Ga  Ga8  1  0.000473  0.271434  0.500000  1
  Co  Co9  1  0.823684  0.188691  0.000000  1
  Co  Co10  1  0.812711  0.637509  0.000000  1
  Co  Co11  1  0.366111  0.175952  0.000000  1
  Co  Co12  1  0.187687  0.821154  0.000000  1
  Ni  Ni13  1  0.630646  0.809257  0.000000  1
  Ni  Ni14  1  0.178917  0.371842  0.000000  1
  Ni  Ni15  1  0.296996  0.294744  0.500000  1
  Ni  Ni16  1  0.705465  0.000835  0.500000  1
  Ni  Ni17  1  0.999089  0.701704  0.500000  1
