# generated using pymatgen
data_TbNd7Sc12Si15Sn
_symmetry_space_group_name_H-M   'P 1'
_cell_length_a   7.25145095
_cell_length_b   7.52798656
_cell_length_c   14.27129998
_cell_angle_alpha   89.91338927
_cell_angle_beta   89.67756210
_cell_angle_gamma   90.13231811
_symmetry_Int_Tables_number   1
_chemical_formula_structural   TbNd7Sc12Si15Sn
_chemical_formula_sum   'Tb1 Nd7 Sc12 Si15 Sn1'
_cell_volume   779.03818191
_cell_formula_units_Z   1
loop_
 _symmetry_equiv_pos_site_id
 _symmetry_equiv_pos_as_xyz
  1  'x, y, z'
loop_
 _atom_site_type_symbol
 _atom_site_label
 _atom_site_symmetry_multiplicity
 _atom_site_fract_x
 _atom_site_fract_y
 _atom_site_fract_z
 _atom_site_occupancy
  Tb  Tb0  1  0.500615  0.682860  0.601909  1
  Nd  Nd1  1  0.011748  0.173164  0.097275  1
  Nd  Nd2  1  0.988224  0.827123  0.902404  1
  Nd  Nd3  1  0.488745  0.672427  0.903687  1
  Nd  Nd4  1  0.988277  0.832256  0.599220  1
  Nd  Nd5  1  0.511012  0.327333  0.097390  1
  Nd  Nd6  1  0.008264  0.167203  0.399715  1
  Nd  Nd7  1  0.513339  0.323895  0.399530  1
  Sc  Sc8  1  0.161694  0.500511  0.755221  1
  Sc  Sc9  1  0.838123  0.501082  0.248869  1
  Sc  Sc10  1  0.338471  0.998995  0.249096  1
  Sc  Sc11  1  0.662907  0.000474  0.751430  1
  Sc  Sc12  1  0.342530  0.163840  0.630808  1
  Sc  Sc13  1  0.664012  0.823488  0.372896  1
  Sc  Sc14  1  0.165847  0.681423  0.370083  1
  Sc  Sc15  1  0.668772  0.823898  0.124182  1
  Sc  Sc16  1  0.821010  0.324766  0.626220  1
  Sc  Sc17  1  0.330078  0.175139  0.874316  1
  Sc  Sc18  1  0.830588  0.324497  0.874894  1
  Sc  Sc19  1  0.168447  0.676073  0.124961  1
  Si  Si20  1  0.034786  0.126528  0.750643  1
  Si  Si21  1  0.962655  0.876943  0.247705  1
  Si  Si22  1  0.464156  0.623496  0.248712  1
  Si  Si23  1  0.533308  0.380158  0.751097  1
  Si  Si24  1  0.290004  0.875411  0.751008  1
  Si  Si25  1  0.710301  0.117552  0.247900  1
  Si  Si26  1  0.209958  0.381329  0.249375  1
  Si  Si27  1  0.788930  0.620611  0.750000  1
  Si  Si28  1  0.834703  0.541714  0.458884  1
  Si  Si29  1  0.345758  0.959700  0.461405  1
  Si  Si30  1  0.847113  0.536532  0.039623  1
  Si  Si31  1  0.654065  0.035736  0.539123  1
  Si  Si32  1  0.152141  0.463256  0.960697  1
  Si  Si33  1  0.652163  0.037188  0.960455  1
  Si  Si34  1  0.346909  0.963736  0.039448  1
  Sn  Sn35  1  0.170347  0.459662  0.539820  1
