# generated using pymatgen
data_Y8Ho2Ir3Rh
_symmetry_space_group_name_H-M   'P 1'
_cell_length_a   6.51024087
_cell_length_b   7.23017204
_cell_length_c   8.57102143
_cell_angle_alpha   96.55507909
_cell_angle_beta   112.27770011
_cell_angle_gamma   90.09150879
_symmetry_Int_Tables_number   1
_chemical_formula_structural   Y8Ho2Ir3Rh
_chemical_formula_sum   'Y8 Ho2 Ir3 Rh1'
_cell_volume   370.44286769
_cell_formula_units_Z   1
loop_
 _symmetry_equiv_pos_site_id
 _symmetry_equiv_pos_as_xyz
  1  'x, y, z'
loop_
 _atom_site_type_symbol
 _atom_site_label
 _atom_site_symmetry_multiplicity
 _atom_site_fract_x
 _atom_site_fract_y
 _atom_site_fract_z
 _atom_site_occupancy
  Y  Y0  1  0.972019  0.918110  0.181996  1
  Y  Y1  1  0.789334  0.582435  0.816240  1
  Y  Y2  1  0.028224  0.082335  0.817800  1
  Y  Y3  1  0.211283  0.417049  0.182234  1
  Y  Y4  1  0.652090  0.818353  0.441752  1
  Y  Y5  1  0.214536  0.683092  0.560481  1
  Y  Y6  1  0.346615  0.182725  0.558929  1
  Y  Y7  1  0.787953  0.316763  0.441405  1
  Ho  Ho8  1  0.427402  0.750559  0.999440  1
  Ho  Ho9  1  0.571004  0.249175  0.999632  1
  Ir  Ir10  1  0.604987  0.927388  0.783208  1
  Ir  Ir11  1  0.177749  0.427752  0.782709  1
  Ir  Ir12  1  0.395118  0.072525  0.217357  1
  Rh  Rh13  1  0.821687  0.571737  0.216815  1
