# generated using pymatgen
data_DyHo3Lu4(B6Rh)4
_symmetry_space_group_name_H-M   'P 1'
_cell_length_a   3.61867300
_cell_length_b   9.10226200
_cell_length_c   11.44412000
_cell_angle_alpha   90.00280555
_cell_angle_beta   90.00000000
_cell_angle_gamma   90.00000000
_symmetry_Int_Tables_number   1
_chemical_formula_structural   DyHo3Lu4(B6Rh)4
_chemical_formula_sum   'Dy1 Ho3 Lu4 B24 Rh4'
_cell_volume   376.94768019
_cell_formula_units_Z   1
loop_
 _symmetry_equiv_pos_site_id
 _symmetry_equiv_pos_as_xyz
  1  'x, y, z'
loop_
 _atom_site_type_symbol
 _atom_site_label
 _atom_site_symmetry_multiplicity
 _atom_site_fract_x
 _atom_site_fract_y
 _atom_site_fract_z
 _atom_site_occupancy
  Dy  Dy0  1  0.500000  0.321738  0.413745  1
  Ho  Ho1  1  0.500000  0.678357  0.586256  1
  Ho  Ho2  1  0.500000  0.178364  0.913758  1
  Ho  Ho3  1  0.500000  0.821630  0.086247  1
  Lu  Lu4  1  0.500000  0.444436  0.126723  1
  Lu  Lu5  1  0.500000  0.555569  0.873224  1
  Lu  Lu6  1  0.500000  0.055526  0.626838  1
  Lu  Lu7  1  0.500000  0.944334  0.373205  1
  B  B8  1  0.000000  0.106004  0.471362  1
  B  B9  1  0.000000  0.893722  0.528718  1
  B  B10  1  0.000000  0.393709  0.971259  1
  B  B11  1  0.000000  0.606311  0.028719  1
  B  B12  1  0.000000  0.132152  0.316766  1
  B  B13  1  0.000000  0.867651  0.683129  1
  B  B14  1  0.000000  0.367654  0.816892  1
  B  B15  1  0.000000  0.632352  0.183091  1
  B  B16  1  0.000000  0.054235  0.065474  1
  B  B17  1  0.000000  0.945766  0.934510  1
  B  B18  1  0.000000  0.445885  0.565675  1
  B  B19  1  0.000000  0.554423  0.434484  1
  B  B20  1  0.000000  0.482876  0.286077  1
  B  B21  1  0.000000  0.517363  0.713809  1
  B  B22  1  0.000000  0.017310  0.786225  1
  B  B23  1  0.000000  0.982637  0.213786  1
  B  B24  1  0.000000  0.251012  0.079792  1
  B  B25  1  0.000000  0.748998  0.920183  1
  B  B26  1  0.000000  0.248924  0.580035  1
  B  B27  1  0.000000  0.751028  0.420194  1
  B  B28  1  0.000000  0.294997  0.235657  1
  B  B29  1  0.000000  0.704927  0.764129  1
  B  B30  1  0.000000  0.204926  0.735914  1
  B  B31  1  0.000000  0.795075  0.264102  1
  Rh  Rh32  1  0.500000  0.140201  0.179691  1
  Rh  Rh33  1  0.500000  0.859707  0.820245  1
  Rh  Rh34  1  0.500000  0.359688  0.679933  1
  Rh  Rh35  1  0.500000  0.640517  0.320152  1
