# generated using pymatgen
data_Tb5PrTcBi2
_symmetry_space_group_name_H-M   'P 1'
_cell_length_a   8.41591717
_cell_length_b   8.35761000
_cell_length_c   4.32732300
_cell_angle_alpha   90.00000000
_cell_angle_beta   90.00000000
_cell_angle_gamma   119.77108744
_symmetry_Int_Tables_number   1
_chemical_formula_structural   Tb5PrTcBi2
_chemical_formula_sum   'Tb5 Pr1 Tc1 Bi2'
_cell_volume   264.19869035
_cell_formula_units_Z   1
loop_
 _symmetry_equiv_pos_site_id
 _symmetry_equiv_pos_as_xyz
  1  'x, y, z'
loop_
 _atom_site_type_symbol
 _atom_site_label
 _atom_site_symmetry_multiplicity
 _atom_site_fract_x
 _atom_site_fract_y
 _atom_site_fract_z
 _atom_site_occupancy
  Tb  Tb0  1  0.229122  0.999513  0.000000  1
  Tb  Tb1  1  0.393123  0.391431  0.500000  1
  Tb  Tb2  1  0.770878  0.770391  0.000000  1
  Tb  Tb3  1  0.000000  0.236742  0.000000  1
  Tb  Tb4  1  0.606877  0.998308  0.500000  1
  Pr  Pr5  1  0.000000  0.600618  0.500000  1
  Tc  Tc6  1  0.000000  0.008013  0.500000  1
  Bi  Bi7  1  0.341597  0.668290  0.000000  1
  Bi  Bi8  1  0.658403  0.326693  0.000000  1
