# generated using pymatgen
data_TbDy3Al4OsPt3
_symmetry_space_group_name_H-M   'P 1'
_cell_length_a   4.35825300
_cell_length_b   6.85776773
_cell_length_c   7.89673092
_cell_angle_alpha   89.83773786
_cell_angle_beta   90.00000000
_cell_angle_gamma   90.00000000
_symmetry_Int_Tables_number   1
_chemical_formula_structural   TbDy3Al4OsPt3
_chemical_formula_sum   'Tb1 Dy3 Al4 Os1 Pt3'
_cell_volume   236.01565325
_cell_formula_units_Z   1
loop_
 _symmetry_equiv_pos_site_id
 _symmetry_equiv_pos_as_xyz
  1  'x, y, z'
loop_
 _atom_site_type_symbol
 _atom_site_label
 _atom_site_symmetry_multiplicity
 _atom_site_fract_x
 _atom_site_fract_y
 _atom_site_fract_z
 _atom_site_occupancy
  Tb  Tb0  1  0.250000  0.470161  0.180802  1
  Dy  Dy1  1  0.750000  0.534241  0.814558  1
  Dy  Dy2  1  0.750000  0.023140  0.678775  1
  Dy  Dy3  1  0.250000  0.965923  0.322581  1
  Al  Al4  1  0.250000  0.857271  0.936055  1
  Al  Al5  1  0.750000  0.140937  0.061005  1
  Al  Al6  1  0.750000  0.645013  0.441348  1
  Al  Al7  1  0.250000  0.360861  0.562740  1
  Os  Os8  1  0.250000  0.733246  0.621494  1
  Pt  Pt9  1  0.750000  0.268925  0.379276  1
  Pt  Pt10  1  0.750000  0.770874  0.119979  1
  Pt  Pt11  1  0.250000  0.229411  0.881388  1
