# generated using pymatgen
data_TbYLu2Pt4F28
_symmetry_space_group_name_H-M   'P 1'
_cell_length_a   5.51850277
_cell_length_b   8.81866030
_cell_length_c   11.92712503
_cell_angle_alpha   62.59406368
_cell_angle_beta   89.84132757
_cell_angle_gamma   90.01106529
_symmetry_Int_Tables_number   1
_chemical_formula_structural   TbYLu2Pt4F28
_chemical_formula_sum   'Tb1 Y1 Lu2 Pt4 F28'
_cell_volume   515.29595219
_cell_formula_units_Z   1
loop_
 _symmetry_equiv_pos_site_id
 _symmetry_equiv_pos_as_xyz
  1  'x, y, z'
loop_
 _atom_site_type_symbol
 _atom_site_label
 _atom_site_symmetry_multiplicity
 _atom_site_fract_x
 _atom_site_fract_y
 _atom_site_fract_z
 _atom_site_occupancy
  Tb  Tb0  1  0.260521  0.815640  0.264339  1
  Y  Y1  1  0.739260  0.183618  0.735812  1
  Lu  Lu2  1  0.762068  0.186816  0.235812  1
  Lu  Lu3  1  0.237793  0.813303  0.764268  1
  Pt  Pt4  1  0.759135  0.724927  0.041930  1
  Pt  Pt5  1  0.240814  0.275103  0.957993  1
  Pt  Pt6  1  0.259954  0.270056  0.455241  1
  Pt  Pt7  1  0.740073  0.729890  0.544826  1
  F  F8  1  0.936766  0.703131  0.417615  1
  F  F9  1  0.063223  0.297009  0.582380  1
  F  F10  1  0.438057  0.299219  0.085784  1
  F  F11  1  0.561913  0.700790  0.914195  1
  F  F12  1  0.465271  0.723557  0.135275  1
  F  F13  1  0.534865  0.276514  0.864642  1
  F  F14  1  0.966813  0.273652  0.360296  1
  F  F15  1  0.033248  0.726372  0.639676  1
  F  F16  1  0.947786  0.743566  0.175122  1
  F  F17  1  0.052012  0.256480  0.824718  1
  F  F18  1  0.453627  0.251041  0.323012  1
  F  F19  1  0.546362  0.748997  0.676974  1
  F  F20  1  0.774379  0.474461  0.142004  1
  F  F21  1  0.225637  0.525576  0.857990  1
  F  F22  1  0.275879  0.520335  0.356731  1
  F  F23  1  0.724115  0.479482  0.643343  1
  F  F24  1  0.937622  0.278619  0.045497  1
  F  F25  1  0.062447  0.721404  0.954523  1
  F  F26  1  0.440039  0.722773  0.458466  1
  F  F27  1  0.560152  0.277296  0.541583  1
  F  F28  1  0.745029  0.980280  0.449195  1
  F  F29  1  0.255011  0.019712  0.550775  1
  F  F30  1  0.246104  0.024886  0.050388  1
  F  F31  1  0.753931  0.975187  0.949643  1
  F  F32  1  0.587244  0.976577  0.232454  1
  F  F33  1  0.412960  0.023579  0.767529  1
  F  F34  1  0.077456  0.034149  0.266986  1
  F  F35  1  0.922435  0.966003  0.732981  1
