# generated using pymatgen
data_Y12ZnCo4Sn
_symmetry_space_group_name_H-M   'P 1'
_cell_length_a   8.36806764
_cell_length_b   8.36806766
_cell_length_c   8.36806773
_cell_angle_alpha   111.69327558
_cell_angle_beta   109.40943560
_cell_angle_gamma   107.34027383
_symmetry_Int_Tables_number   1
_chemical_formula_structural   Y12ZnCo4Sn
_chemical_formula_sum   'Y12 Zn1 Co4 Sn1'
_cell_volume   450.42797042
_cell_formula_units_Z   1
loop_
 _symmetry_equiv_pos_site_id
 _symmetry_equiv_pos_as_xyz
  1  'x, y, z'
loop_
 _atom_site_type_symbol
 _atom_site_label
 _atom_site_symmetry_multiplicity
 _atom_site_fract_x
 _atom_site_fract_y
 _atom_site_fract_z
 _atom_site_occupancy
  Y  Y0  1  0.427824  0.226890  0.200934  1
  Y  Y1  1  0.572176  0.773110  0.799066  1
  Y  Y2  1  0.025958  0.226890  0.799066  1
  Y  Y3  1  0.974042  0.773110  0.200934  1
  Y  Y4  1  0.182026  0.283679  0.465705  1
  Y  Y5  1  0.817974  0.716321  0.534295  1
  Y  Y6  1  0.182026  0.716321  0.898347  1
  Y  Y7  1  0.817974  0.283679  0.101653  1
  Y  Y8  1  0.321953  0.631355  0.309402  1
  Y  Y9  1  0.678047  0.368645  0.690598  1
  Y  Y10  1  0.321953  0.012551  0.690598  1
  Y  Y11  1  0.678047  0.987449  0.309402  1
  Zn  Zn12  1  0.000000  0.000000  0.000000  1
  Co  Co13  1  0.355738  0.000000  0.355738  1
  Co  Co14  1  0.644262  0.000000  0.644262  1
  Co  Co15  1  0.112505  0.612505  0.500000  1
  Co  Co16  1  0.887495  0.387495  0.500000  1
  Sn  Sn17  1  0.500000  0.500000  0.000000  1
