# generated using pymatgen
data_Dy3NbSn2(B2Ru5)2
_symmetry_space_group_name_H-M   'P 1'
_cell_length_a   9.70408518
_cell_length_b   9.70408577
_cell_length_c   3.10428100
_cell_angle_alpha   90.00000000
_cell_angle_beta   90.00000000
_cell_angle_gamma   90.99135503
_symmetry_Int_Tables_number   1
_chemical_formula_structural   Dy3NbSn2(B2Ru5)2
_chemical_formula_sum   'Dy3 Nb1 Sn2 B4 Ru10'
_cell_volume   292.28413447
_cell_formula_units_Z   1
loop_
 _symmetry_equiv_pos_site_id
 _symmetry_equiv_pos_as_xyz
  1  'x, y, z'
loop_
 _atom_site_type_symbol
 _atom_site_label
 _atom_site_symmetry_multiplicity
 _atom_site_fract_x
 _atom_site_fract_y
 _atom_site_fract_z
 _atom_site_occupancy
  Dy  Dy0  1  0.823345  0.674974  0.000000  1
  Dy  Dy1  1  0.174974  0.323345  0.000000  1
  Dy  Dy2  1  0.324878  0.824878  0.000000  1
  Nb  Nb3  1  0.674009  0.174009  0.000000  1
  Sn  Sn4  1  0.498892  0.506115  0.000000  1
  Sn  Sn5  1  0.006115  0.998892  0.000000  1
  B  B6  1  0.623954  0.883561  0.000000  1
  B  B7  1  0.383561  0.123954  0.000000  1
  B  B8  1  0.117480  0.617480  0.000000  1
  B  B9  1  0.874845  0.374845  0.000000  1
  Ru  Ru10  1  0.571608  0.728682  0.500000  1
  Ru  Ru11  1  0.445806  0.277266  0.500000  1
  Ru  Ru12  1  0.069496  0.774596  0.500000  1
  Ru  Ru13  1  0.911519  0.214411  0.500000  1
  Ru  Ru14  1  0.274596  0.569496  0.500000  1
  Ru  Ru15  1  0.714411  0.411519  0.500000  1
  Ru  Ru16  1  0.228682  0.071608  0.500000  1
  Ru  Ru17  1  0.777266  0.945806  0.500000  1
  Ru  Ru18  1  0.509862  0.009862  0.500000  1
  Ru  Ru19  1  0.994700  0.494700  0.500000  1
