# generated using pymatgen
data_Dy7Ho11(TmSn8)2
_symmetry_space_group_name_H-M   'P 1'
_cell_length_a   8.01789001
_cell_length_b   8.14024000
_cell_length_c   15.41254501
_cell_angle_alpha   90.00140650
_cell_angle_beta   90.00454381
_cell_angle_gamma   89.99828375
_symmetry_Int_Tables_number   1
_chemical_formula_structural   Dy7Ho11(TmSn8)2
_chemical_formula_sum   'Dy7 Ho11 Tm2 Sn16'
_cell_volume   1005.93903240
_cell_formula_units_Z   1
loop_
 _symmetry_equiv_pos_site_id
 _symmetry_equiv_pos_as_xyz
  1  'x, y, z'
loop_
 _atom_site_type_symbol
 _atom_site_label
 _atom_site_symmetry_multiplicity
 _atom_site_fract_x
 _atom_site_fract_y
 _atom_site_fract_z
 _atom_site_occupancy
  Dy  Dy0  1  0.020781  0.179290  0.597597  1
  Dy  Dy1  1  0.479333  0.679289  0.402756  1
  Dy  Dy2  1  0.979328  0.820715  0.097245  1
  Dy  Dy3  1  0.479327  0.679286  0.097239  1
  Dy  Dy4  1  0.979332  0.820707  0.402755  1
  Dy  Dy5  1  0.520781  0.320718  0.597586  1
  Dy  Dy6  1  0.020783  0.179292  0.902407  1
  Ho  Ho7  1  0.367622  0.837220  0.877543  1
  Ho  Ho8  1  0.867619  0.662784  0.622458  1
  Ho  Ho9  1  0.632398  0.162910  0.378036  1
  Ho  Ho10  1  0.132397  0.337084  0.121965  1
  Ho  Ho11  1  0.632392  0.162917  0.121954  1
  Ho  Ho12  1  0.132399  0.337088  0.378035  1
  Ho  Ho13  1  0.367621  0.837212  0.622457  1
  Ho  Ho14  1  0.867613  0.662769  0.877540  1
  Ho  Ho15  1  0.520791  0.320723  0.902395  1
  Ho  Ho16  1  0.801116  0.497042  0.250005  1
  Ho  Ho17  1  0.301116  0.002956  0.250000  1
  Tm  Tm18  1  0.198823  0.502999  0.750011  1
  Tm  Tm19  1  0.698794  0.997001  0.750009  1
  Sn  Sn20  1  0.292922  0.036810  0.041542  1
  Sn  Sn21  1  0.792919  0.463193  0.458456  1
  Sn  Sn22  1  0.707323  0.963645  0.542481  1
  Sn  Sn23  1  0.207375  0.536317  0.957511  1
  Sn  Sn24  1  0.707301  0.963675  0.957516  1
  Sn  Sn25  1  0.207321  0.536358  0.542482  1
  Sn  Sn26  1  0.292921  0.036807  0.458458  1
  Sn  Sn27  1  0.792879  0.463173  0.041523  1
  Sn  Sn28  1  0.564476  0.618463  0.750005  1
  Sn  Sn29  1  0.064477  0.881507  0.750002  1
  Sn  Sn30  1  0.434755  0.380930  0.249997  1
  Sn  Sn31  1  0.934753  0.119074  0.250000  1
  Sn  Sn32  1  0.330150  0.148926  0.750030  1
  Sn  Sn33  1  0.830090  0.351112  0.750010  1
  Sn  Sn34  1  0.669986  0.852366  0.249998  1
  Sn  Sn35  1  0.169985  0.647638  0.249998  1
