# generated using pymatgen
data_DyBeOs2C
_symmetry_space_group_name_H-M   'P 1'
_cell_length_a   5.62518410
_cell_length_b   5.62518330
_cell_length_c   7.04723000
_cell_angle_alpha   90.00000000
_cell_angle_beta   90.00000000
_cell_angle_gamma   140.02464387
_symmetry_Int_Tables_number   1
_chemical_formula_structural   DyBeOs2C
_chemical_formula_sum   'Dy2 Be2 Os4 C2'
_cell_volume   143.26385999
_cell_formula_units_Z   2
loop_
 _symmetry_equiv_pos_site_id
 _symmetry_equiv_pos_as_xyz
  1  'x, y, z'
loop_
 _atom_site_type_symbol
 _atom_site_label
 _atom_site_symmetry_multiplicity
 _atom_site_fract_x
 _atom_site_fract_y
 _atom_site_fract_z
 _atom_site_occupancy
  Dy  Dy0  1  0.544742  0.455258  0.250000  1
  Dy  Dy1  1  0.455258  0.544742  0.750000  1
  Be  Be2  1  0.269958  0.730042  0.250000  1
  Be  Be3  1  0.730042  0.269958  0.750000  1
  Os  Os4  1  0.823553  0.176447  0.058813  1
  Os  Os5  1  0.176447  0.823553  0.941187  1
  Os  Os6  1  0.176447  0.823553  0.558813  1
  Os  Os7  1  0.823553  0.176447  0.441187  1
  C  C8  1  0.000000  0.000000  0.000000  1
  C  C9  1  0.000000  0.000000  0.500000  1
