# generated using pymatgen
data_Tb3Zn3Si2Ag
_symmetry_space_group_name_H-M   'P 1'
_cell_length_a   6.92659600
_cell_length_b   6.92659455
_cell_length_c   4.30733700
_cell_angle_alpha   90.00000000
_cell_angle_beta   90.00000000
_cell_angle_gamma   119.99999738
_symmetry_Int_Tables_number   1
_chemical_formula_structural   Tb3Zn3Si2Ag
_chemical_formula_sum   'Tb3 Zn3 Si2 Ag1'
_cell_volume   178.96953900
_cell_formula_units_Z   1
loop_
 _symmetry_equiv_pos_site_id
 _symmetry_equiv_pos_as_xyz
  1  'x, y, z'
loop_
 _atom_site_type_symbol
 _atom_site_label
 _atom_site_symmetry_multiplicity
 _atom_site_fract_x
 _atom_site_fract_y
 _atom_site_fract_z
 _atom_site_occupancy
  Tb  Tb0  1  0.576154  0.000000  0.000000  1
  Tb  Tb1  1  0.000000  0.576154  0.000000  1
  Tb  Tb2  1  0.423846  0.423846  0.000000  1
  Zn  Zn3  1  0.249954  0.000000  0.500000  1
  Zn  Zn4  1  0.000000  0.249954  0.500000  1
  Zn  Zn5  1  0.750046  0.750046  0.500000  1
  Si  Si6  1  0.333333  0.666667  0.500000  1
  Si  Si7  1  0.666667  0.333333  0.500000  1
  Ag  Ag8  1  0.000000  0.000000  0.000000  1
