# generated using pymatgen
data_Yb2Ni5(AsRh)7
_symmetry_space_group_name_H-M   'P 1'
_cell_length_a   9.74117000
_cell_length_b   9.72675613
_cell_length_c   3.85226100
_cell_angle_alpha   90.00000000
_cell_angle_beta   90.00000000
_cell_angle_gamma   120.37617130
_symmetry_Int_Tables_number   1
_chemical_formula_structural   Yb2Ni5(AsRh)7
_chemical_formula_sum   'Yb2 Ni5 As7 Rh7'
_cell_volume   314.89572003
_cell_formula_units_Z   1
loop_
 _symmetry_equiv_pos_site_id
 _symmetry_equiv_pos_as_xyz
  1  'x, y, z'
loop_
 _atom_site_type_symbol
 _atom_site_label
 _atom_site_symmetry_multiplicity
 _atom_site_fract_x
 _atom_site_fract_y
 _atom_site_fract_z
 _atom_site_occupancy
  Yb  Yb0  1  0.666509  0.332164  0.000000  1
  Yb  Yb1  1  0.000444  0.000943  0.500000  1
  Ni  Ni2  1  0.276896  0.042285  0.000000  1
  Ni  Ni3  1  0.957904  0.235092  0.000000  1
  Ni  Ni4  1  0.491156  0.946946  0.000000  1
  Ni  Ni5  1  0.056107  0.547223  0.000000  1
  Ni  Ni6  1  0.447994  0.501761  0.000000  1
  As  As7  1  0.335632  0.665535  0.000000  1
  As  As8  1  0.445372  0.069808  0.500000  1
  As  As9  1  0.930192  0.378860  0.500000  1
  As  As10  1  0.619703  0.547624  0.500000  1
  As  As11  1  0.743057  0.962589  0.000000  1
  As  As12  1  0.049985  0.790322  0.000000  1
  As  As13  1  0.207234  0.252072  0.000000  1
  Rh  Rh14  1  0.716143  0.105861  0.500000  1
  Rh  Rh15  1  0.900552  0.615314  0.500000  1
  Rh  Rh16  1  0.379378  0.278166  0.500000  1
  Rh  Rh17  1  0.766583  0.727727  0.000000  1
  Rh  Rh18  1  0.552477  0.760006  0.500000  1
  Rh  Rh19  1  0.248532  0.786867  0.500000  1
  Rh  Rh20  1  0.208150  0.452834  0.500000  1
