# generated using pymatgen
data_Mg4B12IrRu
_symmetry_space_group_name_H-M   'P 1'
_cell_length_a   3.47656100
_cell_length_b   8.86221952
_cell_length_c   11.06495317
_cell_angle_alpha   90.11040013
_cell_angle_beta   90.00000000
_cell_angle_gamma   90.00000000
_symmetry_Int_Tables_number   1
_chemical_formula_structural   Mg4B12IrRu
_chemical_formula_sum   'Mg8 B24 Ir2 Ru2'
_cell_volume   340.91109198
_cell_formula_units_Z   2
loop_
 _symmetry_equiv_pos_site_id
 _symmetry_equiv_pos_as_xyz
  1  'x, y, z'
loop_
 _atom_site_type_symbol
 _atom_site_label
 _atom_site_symmetry_multiplicity
 _atom_site_fract_x
 _atom_site_fract_y
 _atom_site_fract_z
 _atom_site_occupancy
  Mg  Mg0  1  0.000000  0.320543  0.410479  1
  Mg  Mg1  1  0.000000  0.679457  0.589521  1
  Mg  Mg2  1  0.000000  0.831736  0.083196  1
  Mg  Mg3  1  0.000000  0.168264  0.916804  1
  Mg  Mg4  1  0.000000  0.946496  0.371425  1
  Mg  Mg5  1  0.000000  0.053504  0.628575  1
  Mg  Mg6  1  0.000000  0.441636  0.126701  1
  Mg  Mg7  1  0.000000  0.558364  0.873299  1
  B  B8  1  0.500000  0.555973  0.435917  1
  B  B9  1  0.500000  0.444027  0.564083  1
  B  B10  1  0.500000  0.055291  0.064144  1
  B  B11  1  0.500000  0.944709  0.935856  1
  B  B12  1  0.500000  0.755645  0.420753  1
  B  B13  1  0.500000  0.244355  0.579247  1
  B  B14  1  0.500000  0.255334  0.078820  1
  B  B15  1  0.500000  0.744666  0.921180  1
  B  B16  1  0.500000  0.796623  0.262066  1
  B  B17  1  0.500000  0.203377  0.737934  1
  B  B18  1  0.500000  0.296227  0.238040  1
  B  B19  1  0.500000  0.703773  0.761960  1
  B  B20  1  0.500000  0.630937  0.180654  1
  B  B21  1  0.500000  0.369063  0.819346  1
  B  B22  1  0.500000  0.130881  0.319645  1
  B  B23  1  0.500000  0.869119  0.680355  1
  B  B24  1  0.500000  0.979297  0.210508  1
  B  B25  1  0.500000  0.020703  0.789492  1
  B  B26  1  0.500000  0.478848  0.289429  1
  B  B27  1  0.500000  0.521152  0.710571  1
  B  B28  1  0.500000  0.592831  0.025602  1
  B  B29  1  0.500000  0.407169  0.974398  1
  B  B30  1  0.500000  0.092245  0.473798  1
  B  B31  1  0.500000  0.907755  0.526202  1
  Ir  Ir32  1  0.000000  0.640485  0.319452  1
  Ir  Ir33  1  0.000000  0.359515  0.680548  1
  Ru  Ru34  1  0.000000  0.140997  0.180975  1
  Ru  Ru35  1  0.000000  0.859003  0.819025  1
