# generated using pymatgen
data_Sr2(AlAg2)3
_symmetry_space_group_name_H-M   'P 1'
_cell_length_a   8.94048522
_cell_length_b   8.94048455
_cell_length_c   8.94048669
_cell_angle_alpha   57.68997109
_cell_angle_beta   57.68997012
_cell_angle_gamma   57.68997399
_symmetry_Int_Tables_number   1
_chemical_formula_structural   Sr2(AlAg2)3
_chemical_formula_sum   'Sr4 Al6 Ag12'
_cell_volume   478.50120168
_cell_formula_units_Z   2
loop_
 _symmetry_equiv_pos_site_id
 _symmetry_equiv_pos_as_xyz
  1  'x, y, z'
loop_
 _atom_site_type_symbol
 _atom_site_label
 _atom_site_symmetry_multiplicity
 _atom_site_fract_x
 _atom_site_fract_y
 _atom_site_fract_z
 _atom_site_occupancy
  Sr  Sr0  1  0.907576  0.907576  0.907576  1
  Sr  Sr1  1  0.407576  0.407576  0.407576  1
  Sr  Sr2  1  0.092424  0.092424  0.092424  1
  Sr  Sr3  1  0.592424  0.592424  0.592424  1
  Al  Al4  1  0.564685  0.750000  0.935315  1
  Al  Al5  1  0.935315  0.564685  0.750000  1
  Al  Al6  1  0.750000  0.935315  0.564685  1
  Al  Al7  1  0.435315  0.250000  0.064685  1
  Al  Al8  1  0.064685  0.435315  0.250000  1
  Al  Al9  1  0.250000  0.064685  0.435315  1
  Ag  Ag10  1  0.477999  0.863889  0.201381  1
  Ag  Ag11  1  0.201381  0.477999  0.863889  1
  Ag  Ag12  1  0.863889  0.201381  0.477999  1
  Ag  Ag13  1  0.701381  0.363889  0.977999  1
  Ag  Ag14  1  0.977999  0.701381  0.363889  1
  Ag  Ag15  1  0.363889  0.977999  0.701381  1
  Ag  Ag16  1  0.522001  0.136111  0.798619  1
  Ag  Ag17  1  0.798619  0.522001  0.136111  1
  Ag  Ag18  1  0.136111  0.798619  0.522001  1
  Ag  Ag19  1  0.298619  0.636111  0.022001  1
  Ag  Ag20  1  0.022001  0.298619  0.636111  1
  Ag  Ag21  1  0.636111  0.022001  0.298619  1
