# generated using pymatgen
data_Tb3Er4Th(CdNi)2
_symmetry_space_group_name_H-M   'P 1'
_cell_length_a   9.55211098
_cell_length_b   9.55211080
_cell_length_c   9.56534400
_cell_angle_alpha   59.95415482
_cell_angle_beta   59.95415545
_cell_angle_gamma   59.98418629
_symmetry_Int_Tables_number   1
_chemical_formula_structural   Tb3Er4Th(CdNi)2
_chemical_formula_sum   'Tb6 Er8 Th2 Cd4 Ni4'
_cell_volume   616.63924037
_cell_formula_units_Z   2
loop_
 _symmetry_equiv_pos_site_id
 _symmetry_equiv_pos_as_xyz
  1  'x, y, z'
loop_
 _atom_site_type_symbol
 _atom_site_label
 _atom_site_symmetry_multiplicity
 _atom_site_fract_x
 _atom_site_fract_y
 _atom_site_fract_z
 _atom_site_occupancy
  Tb  Tb0  1  0.937312  0.563728  0.565323  1
  Tb  Tb1  1  0.563728  0.937312  0.933637  1
  Tb  Tb2  1  0.563728  0.937312  0.565323  1
  Tb  Tb3  1  0.937312  0.563728  0.933637  1
  Tb  Tb4  1  0.563800  0.563800  0.936200  1
  Tb  Tb5  1  0.936180  0.936180  0.563820  1
  Er  Er6  1  0.347934  0.950972  0.350547  1
  Er  Er7  1  0.950972  0.347934  0.350547  1
  Er  Er8  1  0.813369  0.188387  0.186683  1
  Er  Er9  1  0.188387  0.813369  0.811562  1
  Er  Er10  1  0.188387  0.813369  0.186683  1
  Er  Er11  1  0.813369  0.188387  0.811562  1
  Er  Er12  1  0.187177  0.187177  0.812823  1
  Er  Er13  1  0.812537  0.812537  0.187463  1
  Th  Th14  1  0.343673  0.343673  0.351243  1
  Th  Th15  1  0.343673  0.343673  0.961411  1
  Cd  Cd16  1  0.582663  0.582663  0.579106  1
  Cd  Cd17  1  0.582663  0.582663  0.255565  1
  Cd  Cd18  1  0.583870  0.256495  0.579816  1
  Cd  Cd19  1  0.256495  0.583870  0.579816  1
  Ni  Ni20  1  0.143045  0.143045  0.141303  1
  Ni  Ni21  1  0.143045  0.143045  0.572607  1
  Ni  Ni22  1  0.145518  0.571163  0.141660  1
  Ni  Ni23  1  0.571163  0.145518  0.141660  1
