# generated using pymatgen
data_Ta12Mn2CrFe9N4
_symmetry_space_group_name_H-M   'P 1'
_cell_length_a   7.97076327
_cell_length_b   8.00152218
_cell_length_c   7.96151733
_cell_angle_alpha   60.10365441
_cell_angle_beta   59.96156472
_cell_angle_gamma   60.12707895
_symmetry_Int_Tables_number   1
_chemical_formula_structural   Ta12Mn2CrFe9N4
_chemical_formula_sum   'Ta12 Mn2 Cr1 Fe9 N4'
_cell_volume   359.56854962
_cell_formula_units_Z   1
loop_
 _symmetry_equiv_pos_site_id
 _symmetry_equiv_pos_as_xyz
  1  'x, y, z'
loop_
 _atom_site_type_symbol
 _atom_site_label
 _atom_site_symmetry_multiplicity
 _atom_site_fract_x
 _atom_site_fract_y
 _atom_site_fract_z
 _atom_site_occupancy
  Ta  Ta0  1  0.803783  0.803974  0.197092  1
  Ta  Ta1  1  0.199810  0.198730  0.800482  1
  Ta  Ta2  1  0.800977  0.198730  0.800482  1
  Ta  Ta3  1  0.195150  0.803974  0.197092  1
  Ta  Ta4  1  0.197997  0.802445  0.801560  1
  Ta  Ta5  1  0.802575  0.196026  0.198822  1
  Ta  Ta6  1  0.446217  0.446026  0.052908  1
  Ta  Ta7  1  0.050190  0.051270  0.449518  1
  Ta  Ta8  1  0.449023  0.051270  0.449518  1
  Ta  Ta9  1  0.054850  0.446026  0.052908  1
  Ta  Ta10  1  0.052003  0.447555  0.448440  1
  Ta  Ta11  1  0.447425  0.053974  0.051178  1
  Mn  Mn12  1  0.125000  0.625000  0.625000  1
  Mn  Mn13  1  0.625000  0.625000  0.625000  1
  Cr  Cr14  1  0.625000  0.625000  0.125000  1
  Fe  Fe15  1  0.625000  0.125000  0.625000  1
  Fe  Fe16  1  0.729444  0.424081  0.422587  1
  Fe  Fe17  1  0.423294  0.731521  0.421889  1
  Fe  Fe18  1  0.424084  0.424654  0.727177  1
  Fe  Fe19  1  0.423886  0.424081  0.422587  1
  Fe  Fe20  1  0.520556  0.825919  0.827413  1
  Fe  Fe21  1  0.826706  0.518479  0.828111  1
  Fe  Fe22  1  0.825916  0.825346  0.522823  1
  Fe  Fe23  1  0.826114  0.825919  0.827413  1
  N  N24  1  0.625000  0.125000  0.125000  1
  N  N25  1  0.125000  0.625000  0.125000  1
  N  N26  1  0.125000  0.125000  0.625000  1
  N  N27  1  0.125000  0.125000  0.125000  1
