# generated using pymatgen
data_P6PbWO18
_symmetry_space_group_name_H-M   'P 1'
_cell_length_a   6.97384200
_cell_length_b   6.97384084
_cell_length_c   10.65234900
_cell_angle_alpha   90.00000000
_cell_angle_beta   90.00000000
_cell_angle_gamma   120.00000548
_symmetry_Int_Tables_number   1
_chemical_formula_structural   P6PbWO18
_chemical_formula_sum   'P6 Pb1 W1 O18'
_cell_volume   448.66286980
_cell_formula_units_Z   1
loop_
 _symmetry_equiv_pos_site_id
 _symmetry_equiv_pos_as_xyz
  1  'x, y, z'
loop_
 _atom_site_type_symbol
 _atom_site_label
 _atom_site_symmetry_multiplicity
 _atom_site_fract_x
 _atom_site_fract_y
 _atom_site_fract_z
 _atom_site_occupancy
  P  P0  1  0.730346  0.128288  0.778130  1
  P  P1  1  0.871712  0.269654  0.221870  1
  P  P2  1  0.730346  0.602058  0.221870  1
  P  P3  1  0.871712  0.602058  0.778130  1
  P  P4  1  0.397942  0.269654  0.778130  1
  P  P5  1  0.397942  0.128288  0.221870  1
  Pb  Pb6  1  0.000000  0.000000  0.500000  1
  W  W7  1  0.000000  0.000000  0.000000  1
  O  O8  1  0.897278  0.508459  0.194158  1
  O  O9  1  0.897278  0.388819  0.805842  1
  O  O10  1  0.491541  0.102722  0.805842  1
  O  O11  1  0.611181  0.102722  0.194158  1
  O  O12  1  0.749749  0.064449  0.648266  1
  O  O13  1  0.762950  0.002357  0.885118  1
  O  O14  1  0.491541  0.388819  0.194158  1
  O  O15  1  0.749749  0.685300  0.351734  1
  O  O16  1  0.762950  0.760593  0.114882  1
  O  O17  1  0.611181  0.508459  0.805842  1
  O  O18  1  0.935551  0.250251  0.351734  1
  O  O19  1  0.997643  0.237050  0.114882  1
  O  O20  1  0.239407  0.237050  0.885118  1
  O  O21  1  0.314700  0.250251  0.648266  1
  O  O22  1  0.997643  0.760593  0.885118  1
  O  O23  1  0.935551  0.685300  0.648266  1
  O  O24  1  0.239407  0.002357  0.114882  1
  O  O25  1  0.314700  0.064449  0.351734  1
