# generated using pymatgen
data_Nd8Tm12Sn13Au3
_symmetry_space_group_name_H-M   'P 1'
_cell_length_a   7.74586300
_cell_length_b   8.33122262
_cell_length_c   15.38326200
_cell_angle_alpha   90.00000000
_cell_angle_beta   90.00000000
_cell_angle_gamma   89.84981476
_symmetry_Int_Tables_number   1
_chemical_formula_structural   Nd8Tm12Sn13Au3
_chemical_formula_sum   'Nd8 Tm12 Sn13 Au3'
_cell_volume   992.71708377
_cell_formula_units_Z   1
loop_
 _symmetry_equiv_pos_site_id
 _symmetry_equiv_pos_as_xyz
  1  'x, y, z'
loop_
 _atom_site_type_symbol
 _atom_site_label
 _atom_site_symmetry_multiplicity
 _atom_site_fract_x
 _atom_site_fract_y
 _atom_site_fract_z
 _atom_site_occupancy
  Nd  Nd0  1  0.507399  0.315393  0.905833  1
  Nd  Nd1  1  0.006878  0.186793  0.593902  1
  Nd  Nd2  1  0.494220  0.684467  0.410888  1
  Nd  Nd3  1  0.993081  0.817074  0.093290  1
  Nd  Nd4  1  0.494220  0.684467  0.089112  1
  Nd  Nd5  1  0.993081  0.817074  0.406710  1
  Nd  Nd6  1  0.507399  0.315393  0.594167  1
  Nd  Nd7  1  0.006878  0.186793  0.906098  1
  Tm  Tm8  1  0.343690  0.829562  0.867943  1
  Tm  Tm9  1  0.840449  0.668655  0.631497  1
  Tm  Tm10  1  0.644614  0.172939  0.373821  1
  Tm  Tm11  1  0.168853  0.335071  0.125870  1
  Tm  Tm12  1  0.644614  0.172939  0.126179  1
  Tm  Tm13  1  0.168853  0.335071  0.374130  1
  Tm  Tm14  1  0.343690  0.829562  0.632057  1
  Tm  Tm15  1  0.840449  0.668655  0.868503  1
  Tm  Tm16  1  0.191822  0.499166  0.750000  1
  Tm  Tm17  1  0.693088  0.000846  0.750000  1
  Tm  Tm18  1  0.805566  0.497458  0.250000  1
  Tm  Tm19  1  0.317170  0.998725  0.250000  1
  Sn  Sn20  1  0.312235  0.036850  0.037056  1
  Sn  Sn21  1  0.818305  0.461425  0.459871  1
  Sn  Sn22  1  0.689178  0.962715  0.541485  1
  Sn  Sn23  1  0.185163  0.538403  0.957549  1
  Sn  Sn24  1  0.689178  0.962715  0.958515  1
  Sn  Sn25  1  0.185163  0.538403  0.542451  1
  Sn  Sn26  1  0.312235  0.036850  0.462944  1
  Sn  Sn27  1  0.818305  0.461425  0.040129  1
  Sn  Sn28  1  0.952220  0.121860  0.250000  1
  Sn  Sn29  1  0.301875  0.134544  0.750000  1
  Sn  Sn30  1  0.802158  0.363449  0.750000  1
  Sn  Sn31  1  0.688926  0.858779  0.250000  1
  Sn  Sn32  1  0.199055  0.637878  0.250000  1
  Au  Au33  1  0.544028  0.623429  0.750000  1
  Au  Au34  1  0.043787  0.873523  0.750000  1
  Au  Au35  1  0.452182  0.371645  0.250000  1
