# generated using pymatgen
data_Li2Be(Co2Si)3
_symmetry_space_group_name_H-M   'P 1'
_cell_length_a   3.83789900
_cell_length_b   5.42955500
_cell_length_c   11.51436700
_cell_angle_alpha   90.00000000
_cell_angle_beta   90.00000000
_cell_angle_gamma   90.00000000
_symmetry_Int_Tables_number   1
_chemical_formula_structural   Li2Be(Co2Si)3
_chemical_formula_sum   'Li4 Be2 Co12 Si6'
_cell_volume   239.93734336
_cell_formula_units_Z   2
loop_
 _symmetry_equiv_pos_site_id
 _symmetry_equiv_pos_as_xyz
  1  'x, y, z'
loop_
 _atom_site_type_symbol
 _atom_site_label
 _atom_site_symmetry_multiplicity
 _atom_site_fract_x
 _atom_site_fract_y
 _atom_site_fract_z
 _atom_site_occupancy
  Li  Li0  1  0.999985  0.499999  0.998479  1
  Li  Li1  1  0.499801  0.000000  0.165836  1
  Li  Li2  1  0.999800  0.499999  0.334165  1
  Li  Li3  1  0.499987  0.000000  0.501521  1
  Be  Be4  1  0.000251  0.499999  0.667587  1
  Be  Be5  1  0.500252  0.000000  0.832412  1
  Co  Co6  1  0.500003  0.244971  0.994860  1
  Co  Co7  1  0.500003  0.755027  0.994860  1
  Co  Co8  1  0.999806  0.250566  0.166052  1
  Co  Co9  1  0.999806  0.749432  0.166052  1
  Co  Co10  1  0.499804  0.249433  0.333950  1
  Co  Co11  1  0.499804  0.750569  0.333950  1
  Co  Co12  1  0.000001  0.255028  0.505140  1
  Co  Co13  1  0.000001  0.744972  0.505140  1
  Co  Co14  1  0.500183  0.254612  0.670705  1
  Co  Co15  1  0.500183  0.745390  0.670705  1
  Co  Co16  1  0.000184  0.245387  0.829294  1
  Co  Co17  1  0.000184  0.754611  0.829294  1
  Si  Si18  1  0.999988  0.000000  0.000709  1
  Si  Si19  1  0.499819  0.499999  0.165593  1
  Si  Si20  1  0.999818  0.000000  0.334409  1
  Si  Si21  1  0.499990  0.499999  0.499291  1
  Si  Si22  1  0.000177  0.000000  0.665031  1
  Si  Si23  1  0.500176  0.499999  0.834968  1
