# generated using pymatgen
data_Zr4Mn4SiAs3
_symmetry_space_group_name_H-M   'P 1'
_cell_length_a   3.73840100
_cell_length_b   6.63952640
_cell_length_c   7.78160886
_cell_angle_alpha   90.34488277
_cell_angle_beta   90.00000000
_cell_angle_gamma   90.00000000
_symmetry_Int_Tables_number   1
_chemical_formula_structural   Zr4Mn4SiAs3
_chemical_formula_sum   'Zr4 Mn4 Si1 As3'
_cell_volume   193.14546512
_cell_formula_units_Z   1
loop_
 _symmetry_equiv_pos_site_id
 _symmetry_equiv_pos_as_xyz
  1  'x, y, z'
loop_
 _atom_site_type_symbol
 _atom_site_label
 _atom_site_symmetry_multiplicity
 _atom_site_fract_x
 _atom_site_fract_y
 _atom_site_fract_z
 _atom_site_occupancy
  Zr  Zr0  1  0.250000  0.527619  0.674985  1
  Zr  Zr1  1  0.250000  0.036630  0.820290  1
  Zr  Zr2  1  0.750000  0.966485  0.177807  1
  Zr  Zr3  1  0.750000  0.465277  0.326822  1
  Mn  Mn4  1  0.750000  0.362224  0.934114  1
  Mn  Mn5  1  0.250000  0.137158  0.443563  1
  Mn  Mn6  1  0.750000  0.870542  0.562632  1
  Mn  Mn7  1  0.250000  0.634824  0.061298  1
  Si  Si8  1  0.750000  0.233292  0.623577  1
  As  As9  1  0.250000  0.264248  0.127954  1
  As  As10  1  0.250000  0.765674  0.375155  1
  As  As11  1  0.750000  0.736026  0.871804  1
