# generated using pymatgen
data_Y5Se6
_symmetry_space_group_name_H-M   'P 1'
_cell_length_a   7.00359811
_cell_length_b   9.00727001
_cell_length_c   9.02282400
_cell_angle_alpha   83.64036773
_cell_angle_beta   130.55490075
_cell_angle_gamma   130.51201852
_symmetry_Int_Tables_number   1
_chemical_formula_structural   Y5Se6
_chemical_formula_sum   'Y5 Se6'
_cell_volume   276.85056695
_cell_formula_units_Z   1
loop_
 _symmetry_equiv_pos_site_id
 _symmetry_equiv_pos_as_xyz
  1  'x, y, z'
loop_
 _atom_site_type_symbol
 _atom_site_label
 _atom_site_symmetry_multiplicity
 _atom_site_fract_x
 _atom_site_fract_y
 _atom_site_fract_z
 _atom_site_occupancy
  Y  Y0  1  0.914285  0.632680  0.452800  1
  Y  Y1  1  0.415167  0.798281  0.287602  1
  Y  Y2  1  0.414444  0.464180  0.621864  1
  Y  Y3  1  0.914016  0.963190  0.121718  1
  Y  Y4  1  0.413386  0.131464  0.952421  1
  Se  Se5  1  0.158228  0.705961  0.869358  1
  Se  Se6  1  0.669931  0.889898  0.704989  1
  Se  Se7  1  0.645054  0.541999  0.031865  1
  Se  Se8  1  0.159202  0.380261  0.196873  1
  Se  Se9  1  0.185227  0.054586  0.543351  1
  Se  Se10  1  0.669074  0.215543  0.377651  1
