# generated using pymatgen
data_Ti3NbSi2(PRh2)2
_symmetry_space_group_name_H-M   'P 1'
_cell_length_a   3.75340900
_cell_length_b   6.32933533
_cell_length_c   7.27881470
_cell_angle_alpha   90.09970905
_cell_angle_beta   90.00000000
_cell_angle_gamma   90.00000000
_symmetry_Int_Tables_number   1
_chemical_formula_structural   Ti3NbSi2(PRh2)2
_chemical_formula_sum   'Ti3 Nb1 Si2 P2 Rh4'
_cell_volume   172.91951254
_cell_formula_units_Z   1
loop_
 _symmetry_equiv_pos_site_id
 _symmetry_equiv_pos_as_xyz
  1  'x, y, z'
loop_
 _atom_site_type_symbol
 _atom_site_label
 _atom_site_symmetry_multiplicity
 _atom_site_fract_x
 _atom_site_fract_y
 _atom_site_fract_z
 _atom_site_occupancy
  Ti  Ti0  1  0.250000  0.026808  0.821148  1
  Ti  Ti1  1  0.250000  0.526482  0.677826  1
  Ti  Ti2  1  0.750000  0.968918  0.175124  1
  Nb  Nb3  1  0.750000  0.470763  0.327609  1
  Si  Si4  1  0.250000  0.764231  0.375717  1
  Si  Si5  1  0.250000  0.262276  0.123427  1
  P  P6  1  0.750000  0.239058  0.624330  1
  P  P7  1  0.750000  0.741012  0.876723  1
  Rh  Rh8  1  0.250000  0.143379  0.439585  1
  Rh  Rh9  1  0.250000  0.650577  0.056462  1
  Rh  Rh10  1  0.750000  0.853683  0.568590  1
  Rh  Rh11  1  0.750000  0.352812  0.933456  1
