# generated using pymatgen
data_HoEr11ZnCo4Bi
_symmetry_space_group_name_H-M   'P 1'
_cell_length_a   8.29829565
_cell_length_b   8.30375546
_cell_length_c   8.30286713
_cell_angle_alpha   111.56617878
_cell_angle_beta   109.62300745
_cell_angle_gamma   107.27077439
_symmetry_Int_Tables_number   1
_chemical_formula_structural   HoEr11ZnCo4Bi
_chemical_formula_sum   'Ho1 Er11 Zn1 Co4 Bi1'
_cell_volume   439.70640510
_cell_formula_units_Z   1
loop_
 _symmetry_equiv_pos_site_id
 _symmetry_equiv_pos_as_xyz
  1  'x, y, z'
loop_
 _atom_site_type_symbol
 _atom_site_label
 _atom_site_symmetry_multiplicity
 _atom_site_fract_x
 _atom_site_fract_y
 _atom_site_fract_z
 _atom_site_occupancy
  Ho  Ho0  1  0.012456  0.219015  0.793426  1
  Er  Er1  1  0.817773  0.713666  0.531672  1
  Er  Er2  1  0.182195  0.285920  0.467968  1
  Er  Er3  1  0.182110  0.714101  0.896167  1
  Er  Er4  1  0.817854  0.286132  0.104164  1
  Er  Er5  1  0.685705  0.378646  0.692408  1
  Er  Er6  1  0.314212  0.621702  0.307606  1
  Er  Er7  1  0.685736  0.993337  0.307126  1
  Er  Er8  1  0.314235  0.006590  0.692507  1
  Er  Er9  1  0.574402  0.780761  0.793694  1
  Er  Er10  1  0.425802  0.219254  0.206525  1
  Er  Er11  1  0.987334  0.780875  0.206500  1
  Zn  Zn12  1  0.999999  0.999787  0.000233  1
  Co  Co13  1  0.623703  0.999807  0.623903  1
  Co  Co14  1  0.376151  0.000142  0.376016  1
  Co  Co15  1  0.113032  0.613036  0.500015  1
  Co  Co16  1  0.887054  0.387114  0.499943  1
  Bi  Bi17  1  0.500246  0.500114  0.000128  1
