# generated using pymatgen
data_NdSe23
_symmetry_space_group_name_H-M   'P 1'
_cell_length_a   5.62529743
_cell_length_b   10.34107105
_cell_length_c   16.05076494
_cell_angle_alpha   98.94882195
_cell_angle_beta   86.30808804
_cell_angle_gamma   94.29197697
_symmetry_Int_Tables_number   1
_chemical_formula_structural   NdSe23
_chemical_formula_sum   'Nd1 Se23'
_cell_volume   918.42714041
_cell_formula_units_Z   1
loop_
 _symmetry_equiv_pos_site_id
 _symmetry_equiv_pos_as_xyz
  1  'x, y, z'
loop_
 _atom_site_type_symbol
 _atom_site_label
 _atom_site_symmetry_multiplicity
 _atom_site_fract_x
 _atom_site_fract_y
 _atom_site_fract_z
 _atom_site_occupancy
  Nd  Nd0  1  0.463966  0.220987  0.342160  1
  Se  Se1  1  0.485316  0.807679  0.390923  1
  Se  Se2  1  0.932854  0.326168  0.147733  1
  Se  Se3  1  0.840451  0.223988  0.455501  1
  Se  Se4  1  0.276680  0.775032  0.520215  1
  Se  Se5  1  0.176549  0.275338  0.023118  1
  Se  Se6  1  0.798130  0.737403  0.025511  1
  Se  Se7  1  0.111272  0.416340  0.367802  1
  Se  Se8  1  0.697782  0.616671  0.350660  1
  Se  Se9  1  0.772254  0.125509  0.188289  1
  Se  Se10  1  0.306315  0.899379  0.160890  1
  Se  Se11  1  0.755662  0.623833  0.620305  1
  Se  Se12  1  0.279348  0.353940  0.593151  1
  Se  Se13  1  0.219254  0.874236  0.863449  1
  Se  Se14  1  0.751836  0.120599  0.856717  1
  Se  Se15  1  0.079757  0.698614  0.120265  1
  Se  Se16  1  0.553826  0.818213  0.627266  1
  Se  Se17  1  0.475178  0.159482  0.528810  1
  Se  Se18  1  0.983877  0.684236  0.889186  1
  Se  Se19  1  0.973421  0.317165  0.906803  1
  Se  Se20  1  0.419535  0.470407  0.265738  1
  Se  Se21  1  0.105410  0.997053  0.287290  1
  Se  Se22  1  0.522348  0.474606  0.695699  1
  Se  Se23  1  0.018979  0.983123  0.772522  1
