# generated using pymatgen
data_Lu3In3HgPtRh
_symmetry_space_group_name_H-M   'P 1'
_cell_length_a   7.86846500
_cell_length_b   7.86846511
_cell_length_c   3.66668000
_cell_angle_alpha   90.00000000
_cell_angle_beta   90.00000000
_cell_angle_gamma   119.99999531
_symmetry_Int_Tables_number   1
_chemical_formula_structural   Lu3In3HgPtRh
_chemical_formula_sum   'Lu3 In3 Hg1 Pt1 Rh1'
_cell_volume   196.60008576
_cell_formula_units_Z   1
loop_
 _symmetry_equiv_pos_site_id
 _symmetry_equiv_pos_as_xyz
  1  'x, y, z'
loop_
 _atom_site_type_symbol
 _atom_site_label
 _atom_site_symmetry_multiplicity
 _atom_site_fract_x
 _atom_site_fract_y
 _atom_site_fract_z
 _atom_site_occupancy
  Lu  Lu0  1  0.026456  0.617195  0.500000  1
  Lu  Lu1  1  0.590739  0.973544  0.500000  1
  Lu  Lu2  1  0.382805  0.409261  0.500000  1
  In  In3  1  0.997288  0.258606  0.000000  1
  In  In4  1  0.261318  0.002712  0.000000  1
  In  In5  1  0.741394  0.738682  0.000000  1
  Hg  Hg6  1  0.666667  0.333333  0.000000  1
  Pt  Pt7  1  0.333333  0.666667  0.000000  1
  Rh  Rh8  1  0.000000  0.000000  0.500000  1
