# generated using pymatgen
data_Zr5ScZn23Se
_symmetry_space_group_name_H-M   'P 1'
_cell_length_a   8.79307436
_cell_length_b   8.79552596
_cell_length_c   8.79552600
_cell_angle_alpha   59.98156183
_cell_angle_beta   60.00921788
_cell_angle_gamma   60.00922303
_symmetry_Int_Tables_number   1
_chemical_formula_structural   Zr5ScZn23Se
_chemical_formula_sum   'Zr5 Sc1 Zn23 Se1'
_cell_volume   481.00470098
_cell_formula_units_Z   1
loop_
 _symmetry_equiv_pos_site_id
 _symmetry_equiv_pos_as_xyz
  1  'x, y, z'
loop_
 _atom_site_type_symbol
 _atom_site_label
 _atom_site_symmetry_multiplicity
 _atom_site_fract_x
 _atom_site_fract_y
 _atom_site_fract_z
 _atom_site_occupancy
  Zr  Zr0  1  0.289237  0.710763  0.710763  1
  Zr  Zr1  1  0.286276  0.713724  0.289920  1
  Zr  Zr2  1  0.710080  0.289920  0.713724  1
  Zr  Zr3  1  0.286276  0.289920  0.713724  1
  Zr  Zr4  1  0.710080  0.713724  0.289920  1
  Sc  Sc5  1  0.713480  0.286520  0.286520  1
  Zn  Zn6  1  0.123645  0.122111  0.122111  1
  Zn  Zn7  1  0.877622  0.876952  0.876952  1
  Zn  Zn8  1  0.123048  0.122378  0.631528  1
  Zn  Zn9  1  0.123048  0.631528  0.122378  1
  Zn  Zn10  1  0.877889  0.876355  0.367865  1
  Zn  Zn11  1  0.877889  0.367865  0.876355  1
  Zn  Zn12  1  0.632135  0.122111  0.122111  1
  Zn  Zn13  1  0.368472  0.876952  0.876952  1
  Zn  Zn14  1  0.499867  0.000133  0.000133  1
  Zn  Zn15  1  0.999867  0.500133  0.500133  1
  Zn  Zn16  1  0.999485  0.499736  0.000515  1
  Zn  Zn17  1  0.500264  0.000515  0.499736  1
  Zn  Zn18  1  0.999485  0.000515  0.499736  1
  Zn  Zn19  1  0.500264  0.499736  0.000515  1
  Zn  Zn20  1  0.333724  0.333729  0.333729  1
  Zn  Zn21  1  0.665517  0.666644  0.666644  1
  Zn  Zn22  1  0.333356  0.334483  0.998807  1
  Zn  Zn23  1  0.333356  0.998807  0.334483  1
  Zn  Zn24  1  0.666271  0.666276  0.001179  1
  Zn  Zn25  1  0.666271  0.001179  0.666276  1
  Zn  Zn26  1  0.998821  0.333729  0.333729  1
  Zn  Zn27  1  0.001193  0.666644  0.666644  1
  Zn  Zn28  1  0.000965  0.999035  0.999035  1
  Se  Se29  1  0.502117  0.497883  0.497883  1
