# generated using pymatgen
data_TbLuB6Ir
_symmetry_space_group_name_H-M   'P 1'
_cell_length_a   3.61960000
_cell_length_b   9.12397800
_cell_length_c   11.49100800
_cell_angle_alpha   90.00000000
_cell_angle_beta   90.00000000
_cell_angle_gamma   90.00000000
_symmetry_Int_Tables_number   1
_chemical_formula_structural   TbLuB6Ir
_chemical_formula_sum   'Tb4 Lu4 B24 Ir4'
_cell_volume   379.49227169
_cell_formula_units_Z   4
loop_
 _symmetry_equiv_pos_site_id
 _symmetry_equiv_pos_as_xyz
  1  'x, y, z'
loop_
 _atom_site_type_symbol
 _atom_site_label
 _atom_site_symmetry_multiplicity
 _atom_site_fract_x
 _atom_site_fract_y
 _atom_site_fract_z
 _atom_site_occupancy
  Tb  Tb0  1  0.000000  0.320836  0.413797  1
  Tb  Tb1  1  0.000000  0.679164  0.586203  1
  Tb  Tb2  1  0.000000  0.820836  0.086203  1
  Tb  Tb3  1  0.000000  0.179164  0.913797  1
  Lu  Lu4  1  0.000000  0.944256  0.374269  1
  Lu  Lu5  1  0.000000  0.055744  0.625731  1
  Lu  Lu6  1  0.000000  0.444256  0.125731  1
  Lu  Lu7  1  0.000000  0.555744  0.874269  1
  B  B8  1  0.500000  0.554045  0.433564  1
  B  B9  1  0.500000  0.445955  0.566436  1
  B  B10  1  0.500000  0.054045  0.066436  1
  B  B11  1  0.500000  0.945955  0.933564  1
  B  B12  1  0.500000  0.751399  0.419906  1
  B  B13  1  0.500000  0.248601  0.580094  1
  B  B14  1  0.500000  0.251399  0.080094  1
  B  B15  1  0.500000  0.748601  0.919906  1
  B  B16  1  0.500000  0.793525  0.265154  1
  B  B17  1  0.500000  0.206475  0.734846  1
  B  B18  1  0.500000  0.293525  0.234846  1
  B  B19  1  0.500000  0.706475  0.765154  1
  B  B20  1  0.500000  0.630664  0.183217  1
  B  B21  1  0.500000  0.369336  0.816783  1
  B  B22  1  0.500000  0.130664  0.316783  1
  B  B23  1  0.500000  0.869336  0.683217  1
  B  B24  1  0.500000  0.981877  0.213997  1
  B  B25  1  0.500000  0.018123  0.786003  1
  B  B26  1  0.500000  0.481877  0.286003  1
  B  B27  1  0.500000  0.518123  0.713997  1
  B  B28  1  0.500000  0.604781  0.028466  1
  B  B29  1  0.500000  0.395219  0.971534  1
  B  B30  1  0.500000  0.104781  0.471534  1
  B  B31  1  0.500000  0.895219  0.528466  1
  Ir  Ir32  1  0.000000  0.639333  0.320000  1
  Ir  Ir33  1  0.000000  0.360667  0.680000  1
  Ir  Ir34  1  0.000000  0.139333  0.180000  1
  Ir  Ir35  1  0.000000  0.860667  0.820000  1
