# generated using pymatgen
data_Y16MgIn3IrRh3
_symmetry_space_group_name_H-M   'P 1'
_cell_length_a   9.71407596
_cell_length_b   9.71407600
_cell_length_c   9.71407718
_cell_angle_alpha   59.94592362
_cell_angle_beta   59.94591422
_cell_angle_gamma   59.94592514
_symmetry_Int_Tables_number   1
_chemical_formula_structural   Y16MgIn3IrRh3
_chemical_formula_sum   'Y16 Mg1 In3 Ir1 Rh3'
_cell_volume   647.37592529
_cell_formula_units_Z   1
loop_
 _symmetry_equiv_pos_site_id
 _symmetry_equiv_pos_as_xyz
  1  'x, y, z'
loop_
 _atom_site_type_symbol
 _atom_site_label
 _atom_site_symmetry_multiplicity
 _atom_site_fract_x
 _atom_site_fract_y
 _atom_site_fract_z
 _atom_site_occupancy
  Y  Y0  1  0.811517  0.187019  0.811517  1
  Y  Y1  1  0.936250  0.564002  0.564002  1
  Y  Y2  1  0.564002  0.936250  0.564002  1
  Y  Y3  1  0.808886  0.191169  0.191169  1
  Y  Y4  1  0.191169  0.808886  0.191169  1
  Y  Y5  1  0.349606  0.953244  0.349606  1
  Y  Y6  1  0.939469  0.939469  0.559987  1
  Y  Y7  1  0.559987  0.939469  0.939469  1
  Y  Y8  1  0.187019  0.811517  0.811517  1
  Y  Y9  1  0.349606  0.349606  0.953244  1
  Y  Y10  1  0.564002  0.564002  0.936250  1
  Y  Y11  1  0.348874  0.348874  0.348874  1
  Y  Y12  1  0.191169  0.191169  0.808886  1
  Y  Y13  1  0.811517  0.811517  0.187019  1
  Y  Y14  1  0.939469  0.559987  0.939469  1
  Y  Y15  1  0.953244  0.349606  0.349606  1
  Mg  Mg16  1  0.576515  0.576515  0.576515  1
  In  In17  1  0.582398  0.251729  0.582398  1
  In  In18  1  0.582398  0.582398  0.251729  1
  In  In19  1  0.251729  0.582398  0.582398  1
  Ir  Ir20  1  0.142458  0.142458  0.142458  1
  Rh  Rh21  1  0.141725  0.141725  0.575265  1
  Rh  Rh22  1  0.575265  0.141725  0.141725  1
  Rh  Rh23  1  0.141725  0.575265  0.141725  1
