# generated using pymatgen
data_Ho6Zn5GaC2
_symmetry_space_group_name_H-M   'P 1'
_cell_length_a   9.13892953
_cell_length_b   9.13091074
_cell_length_c   9.13090989
_cell_angle_alpha   59.93789496
_cell_angle_beta   59.97094170
_cell_angle_gamma   59.97094325
_symmetry_Int_Tables_number   1
_chemical_formula_structural   Ho6Zn5GaC2
_chemical_formula_sum   'Ho12 Zn10 Ga2 C4'
_cell_volume   538.28654670
_cell_formula_units_Z   2
loop_
 _symmetry_equiv_pos_site_id
 _symmetry_equiv_pos_as_xyz
  1  'x, y, z'
loop_
 _atom_site_type_symbol
 _atom_site_label
 _atom_site_symmetry_multiplicity
 _atom_site_fract_x
 _atom_site_fract_y
 _atom_site_fract_z
 _atom_site_occupancy
  Ho  Ho0  1  0.445992  0.446494  0.053753  1
  Ho  Ho1  1  0.053761  0.446494  0.053753  1
  Ho  Ho2  1  0.446275  0.053725  0.053725  1
  Ho  Ho3  1  0.053761  0.053753  0.446494  1
  Ho  Ho4  1  0.445992  0.053753  0.446494  1
  Ho  Ho5  1  0.053905  0.446095  0.446095  1
  Ho  Ho6  1  0.803475  0.803731  0.196439  1
  Ho  Ho7  1  0.196355  0.803731  0.196439  1
  Ho  Ho8  1  0.803551  0.196449  0.196449  1
  Ho  Ho9  1  0.196355  0.196439  0.803731  1
  Ho  Ho10  1  0.803475  0.196439  0.803731  1
  Ho  Ho11  1  0.196350  0.803650  0.803650  1
  Zn  Zn12  1  0.518465  0.827330  0.827330  1
  Zn  Zn13  1  0.826876  0.827330  0.827330  1
  Zn  Zn14  1  0.423128  0.422903  0.730840  1
  Zn  Zn15  1  0.423128  0.730840  0.422903  1
  Zn  Zn16  1  0.730920  0.422922  0.422922  1
  Zn  Zn17  1  0.423236  0.422922  0.422922  1
  Zn  Zn18  1  0.624545  0.625178  0.125733  1
  Zn  Zn19  1  0.624545  0.125733  0.625178  1
  Zn  Zn20  1  0.126386  0.624770  0.624770  1
  Zn  Zn21  1  0.624074  0.624770  0.624770  1
  Ga  Ga22  1  0.827580  0.828234  0.516607  1
  Ga  Ga23  1  0.827580  0.516607  0.828234  1
  C  C24  1  0.125138  0.124975  0.624748  1
  C  C25  1  0.125138  0.624748  0.124975  1
  C  C26  1  0.625000  0.124992  0.124992  1
  C  C27  1  0.125015  0.124992  0.124992  1
