# generated using pymatgen
data_Dy16Ho4CoBi8Rh3
_symmetry_space_group_name_H-M   'P 1'
_cell_length_a   8.02831232
_cell_length_b   8.98875603
_cell_length_c   12.46324959
_cell_angle_alpha   90.00942402
_cell_angle_beta   89.81795692
_cell_angle_gamma   89.99755663
_symmetry_Int_Tables_number   1
_chemical_formula_structural   Dy16Ho4CoBi8Rh3
_chemical_formula_sum   'Dy16 Ho4 Co1 Bi8 Rh3'
_cell_volume   899.40013114
_cell_formula_units_Z   1
loop_
 _symmetry_equiv_pos_site_id
 _symmetry_equiv_pos_as_xyz
  1  'x, y, z'
loop_
 _atom_site_type_symbol
 _atom_site_label
 _atom_site_symmetry_multiplicity
 _atom_site_fract_x
 _atom_site_fract_y
 _atom_site_fract_z
 _atom_site_occupancy
  Dy  Dy0  1  0.345594  0.750055  0.699756  1
  Dy  Dy1  1  0.657761  0.249989  0.294023  1
  Dy  Dy2  1  0.842689  0.249959  0.793961  1
  Dy  Dy3  1  0.157260  0.750022  0.205627  1
  Dy  Dy4  1  0.879594  0.750029  0.806159  1
  Dy  Dy5  1  0.120813  0.249949  0.193418  1
  Dy  Dy6  1  0.379126  0.249972  0.693645  1
  Dy  Dy7  1  0.614952  0.750059  0.311521  1
  Dy  Dy8  1  0.676911  0.545228  0.564173  1
  Dy  Dy9  1  0.323688  0.465436  0.436424  1
  Dy  Dy10  1  0.178038  0.457548  0.934271  1
  Dy  Dy11  1  0.323812  0.034563  0.436453  1
  Dy  Dy12  1  0.051425  0.750039  0.498880  1
  Dy  Dy13  1  0.950061  0.249957  0.501327  1
  Dy  Dy14  1  0.547696  0.249963  0.000798  1
  Dy  Dy15  1  0.451124  0.750044  0.998309  1
  Ho  Ho16  1  0.821761  0.541776  0.065624  1
  Ho  Ho17  1  0.676586  0.954756  0.564118  1
  Ho  Ho18  1  0.821886  0.958198  0.065593  1
  Ho  Ho19  1  0.177692  0.042480  0.934328  1
  Co  Co20  1  0.432557  0.750110  0.491692  1
  Bi  Bi21  1  0.571119  0.509887  0.826132  1
  Bi  Bi22  1  0.429020  0.490995  0.173744  1
  Bi  Bi23  1  0.071895  0.490568  0.672805  1
  Bi  Bi24  1  0.429038  0.009005  0.173735  1
  Bi  Bi25  1  0.928333  0.510109  0.327330  1
  Bi  Bi26  1  0.571044  0.990121  0.826115  1
  Bi  Bi27  1  0.928345  0.989897  0.327348  1
  Bi  Bi28  1  0.071822  0.009428  0.672818  1
  Rh  Rh29  1  0.069992  0.750150  0.990591  1
  Rh  Rh30  1  0.928510  0.249861  0.010033  1
  Rh  Rh31  1  0.569858  0.249845  0.509251  1
