# generated using pymatgen
data_La7Sm(Tm3Pt4)4
_symmetry_space_group_name_H-M   'P 1'
_cell_length_a   7.63630191
_cell_length_b   7.69543413
_cell_length_c   14.63307800
_cell_angle_alpha   90.03946820
_cell_angle_beta   89.88677096
_cell_angle_gamma   90.08917726
_symmetry_Int_Tables_number   1
_chemical_formula_structural   La7Sm(Tm3Pt4)4
_chemical_formula_sum   'La7 Sm1 Tm12 Pt16'
_cell_volume   859.90490653
_cell_formula_units_Z   1
loop_
 _symmetry_equiv_pos_site_id
 _symmetry_equiv_pos_as_xyz
  1  'x, y, z'
loop_
 _atom_site_type_symbol
 _atom_site_label
 _atom_site_symmetry_multiplicity
 _atom_site_fract_x
 _atom_site_fract_y
 _atom_site_fract_z
 _atom_site_occupancy
  La  La0  1  0.502520  0.678337  0.594309  1
  La  La1  1  0.001461  0.823328  0.904263  1
  La  La2  1  0.497987  0.323900  0.095726  1
  La  La3  1  0.998194  0.173057  0.406309  1
  La  La4  1  0.497628  0.323797  0.404197  1
  La  La5  1  0.998152  0.176742  0.095097  1
  La  La6  1  0.501677  0.676076  0.903316  1
  Sm  Sm7  1  0.002708  0.822506  0.598057  1
  Tm  Tm8  1  0.660668  0.164778  0.622847  1
  Tm  Tm9  1  0.157197  0.333363  0.874536  1
  Tm  Tm10  1  0.342742  0.833843  0.124051  1
  Tm  Tm11  1  0.844399  0.668230  0.378071  1
  Tm  Tm12  1  0.340910  0.834618  0.376473  1
  Tm  Tm13  1  0.841434  0.665345  0.124579  1
  Tm  Tm14  1  0.658372  0.165937  0.874352  1
  Tm  Tm15  1  0.158555  0.334067  0.623793  1
  Tm  Tm16  1  0.822312  0.505223  0.748437  1
  Tm  Tm17  1  0.321071  0.995902  0.748223  1
  Tm  Tm18  1  0.177060  0.495927  0.250824  1
  Tm  Tm19  1  0.678158  0.003698  0.250567  1
  Pt  Pt20  1  0.676579  0.960696  0.457262  1
  Pt  Pt21  1  0.176367  0.537278  0.044499  1
  Pt  Pt22  1  0.324058  0.038283  0.955052  1
  Pt  Pt23  1  0.826878  0.466737  0.546517  1
  Pt  Pt24  1  0.317057  0.034274  0.545254  1
  Pt  Pt25  1  0.823499  0.461675  0.955115  1
  Pt  Pt26  1  0.676914  0.961837  0.044283  1
  Pt  Pt27  1  0.175744  0.540631  0.457156  1
  Pt  Pt28  1  0.454314  0.372571  0.748986  1
  Pt  Pt29  1  0.955553  0.125468  0.748343  1
  Pt  Pt30  1  0.545736  0.629040  0.251231  1
  Pt  Pt31  1  0.045529  0.871361  0.250039  1
  Pt  Pt32  1  0.688594  0.863587  0.748177  1
  Pt  Pt33  1  0.186181  0.637813  0.748372  1
  Pt  Pt34  1  0.311725  0.136438  0.250537  1
  Pt  Pt35  1  0.812063  0.363637  0.251151  1
