# generated using pymatgen
data_Y4CoOs5W2
_symmetry_space_group_name_H-M   'P 1'
_cell_length_a   5.53030929
_cell_length_b   5.53030884
_cell_length_c   8.36518500
_cell_angle_alpha   90.00000000
_cell_angle_beta   90.00000000
_cell_angle_gamma   120.73088428
_symmetry_Int_Tables_number   1
_chemical_formula_structural   Y4CoOs5W2
_chemical_formula_sum   'Y4 Co1 Os5 W2'
_cell_volume   219.91715828
_cell_formula_units_Z   1
loop_
 _symmetry_equiv_pos_site_id
 _symmetry_equiv_pos_as_xyz
  1  'x, y, z'
loop_
 _atom_site_type_symbol
 _atom_site_label
 _atom_site_symmetry_multiplicity
 _atom_site_fract_x
 _atom_site_fract_y
 _atom_site_fract_z
 _atom_site_occupancy
  Y  Y0  1  0.333617  0.666383  0.434549  1
  Y  Y1  1  0.667928  0.332072  0.561151  1
  Y  Y2  1  0.667928  0.332072  0.938849  1
  Y  Y3  1  0.333617  0.666383  0.065451  1
  Co  Co4  1  0.831625  0.168375  0.250000  1
  Os  Os5  1  0.824392  0.655543  0.250000  1
  Os  Os6  1  0.344457  0.175608  0.250000  1
  Os  Os7  1  0.168581  0.831419  0.750000  1
  Os  Os8  1  0.173976  0.349032  0.750000  1
  Os  Os9  1  0.650968  0.826024  0.750000  1
  W  W10  1  0.001456  0.998544  0.498264  1
  W  W11  1  0.001456  0.998544  0.001736  1
