# generated using pymatgen
data_TbY3B10
_symmetry_space_group_name_H-M   'P 1'
_cell_length_a   7.10875600
_cell_length_b   7.10556658
_cell_length_c   7.13627943
_cell_angle_alpha   76.99020740
_cell_angle_beta   90.00000000
_cell_angle_gamma   90.00000000
_symmetry_Int_Tables_number   1
_chemical_formula_structural   TbY3B10
_chemical_formula_sum   'Tb2 Y6 B20'
_cell_volume   351.21330335
_cell_formula_units_Z   2
loop_
 _symmetry_equiv_pos_site_id
 _symmetry_equiv_pos_as_xyz
  1  'x, y, z'
loop_
 _atom_site_type_symbol
 _atom_site_label
 _atom_site_symmetry_multiplicity
 _atom_site_fract_x
 _atom_site_fract_y
 _atom_site_fract_z
 _atom_site_occupancy
  Tb  Tb0  1  0.307976  0.231640  0.372056  1
  Tb  Tb1  1  0.807976  0.768360  0.127944  1
  Y  Y2  1  0.314999  0.757535  0.253647  1
  Y  Y3  1  0.814999  0.242465  0.246353  1
  Y  Y4  1  0.685037  0.242241  0.746058  1
  Y  Y5  1  0.185037  0.757759  0.753942  1
  Y  Y6  1  0.692525  0.766379  0.628527  1
  Y  Y7  1  0.192525  0.233621  0.871473  1
  B  B8  1  0.501946  0.314568  0.039779  1
  B  B9  1  0.001946  0.685432  0.460221  1
  B  B10  1  0.498043  0.685769  0.959569  1
  B  B11  1  0.998043  0.314231  0.540431  1
  B  B12  1  0.490341  0.925250  0.925189  1
  B  B13  1  0.990341  0.074750  0.574811  1
  B  B14  1  0.508531  0.075224  0.073016  1
  B  B15  1  0.008531  0.924776  0.426984  1
  B  B16  1  0.326402  0.496925  0.039530  1
  B  B17  1  0.826402  0.503075  0.460470  1
  B  B18  1  0.673878  0.503240  0.960489  1
  B  B19  1  0.173878  0.496760  0.539511  1
  B  B20  1  0.910902  0.498787  0.911067  1
  B  B21  1  0.410902  0.501213  0.588933  1
  B  B22  1  0.089216  0.500999  0.089293  1
  B  B23  1  0.589216  0.499001  0.410707  1
  B  B24  1  0.961904  0.496489  0.674328  1
  B  B25  1  0.461904  0.503511  0.825672  1
  B  B26  1  0.038304  0.503247  0.325873  1
  B  B27  1  0.538304  0.496753  0.174127  1
