# generated using pymatgen
data_Yb2SiS4
_symmetry_space_group_name_H-M   'P 1'
_cell_length_a   6.19673000
_cell_length_b   8.13876500
_cell_length_c   13.67856500
_cell_angle_alpha   90.00000000
_cell_angle_beta   90.00000000
_cell_angle_gamma   90.00000000
_symmetry_Int_Tables_number   1
_chemical_formula_structural   Yb2SiS4
_chemical_formula_sum   'Yb8 Si4 S16'
_cell_volume   689.86104358
_cell_formula_units_Z   4
loop_
 _symmetry_equiv_pos_site_id
 _symmetry_equiv_pos_as_xyz
  1  'x, y, z'
loop_
 _atom_site_type_symbol
 _atom_site_label
 _atom_site_symmetry_multiplicity
 _atom_site_fract_x
 _atom_site_fract_y
 _atom_site_fract_z
 _atom_site_occupancy
  Yb  Yb0  1  0.500000  0.000000  0.500000  1
  Yb  Yb1  1  0.000000  0.500000  0.000000  1
  Yb  Yb2  1  0.500000  0.500000  0.500000  1
  Yb  Yb3  1  0.000000  0.000000  0.000000  1
  Yb  Yb4  1  0.008305  0.750000  0.272192  1
  Yb  Yb5  1  0.491695  0.750000  0.772192  1
  Yb  Yb6  1  0.991695  0.250000  0.727808  1
  Yb  Yb7  1  0.508305  0.250000  0.227808  1
  Si  Si8  1  0.592129  0.750000  0.093524  1
  Si  Si9  1  0.907871  0.750000  0.593524  1
  Si  Si10  1  0.407871  0.250000  0.906476  1
  Si  Si11  1  0.092129  0.250000  0.406476  1
  S  S12  1  0.730704  0.959515  0.166303  1
  S  S13  1  0.769296  0.540485  0.666303  1
  S  S14  1  0.269296  0.459515  0.833697  1
  S  S15  1  0.230704  0.040485  0.333697  1
  S  S16  1  0.269296  0.040485  0.833697  1
  S  S17  1  0.230704  0.459515  0.333697  1
  S  S18  1  0.730704  0.540485  0.166303  1
  S  S19  1  0.769296  0.959515  0.666303  1
  S  S20  1  0.248663  0.750000  0.094660  1
  S  S21  1  0.251337  0.750000  0.594660  1
  S  S22  1  0.751337  0.250000  0.905340  1
  S  S23  1  0.748663  0.250000  0.405340  1
  S  S24  1  0.720314  0.750000  0.947142  1
  S  S25  1  0.779686  0.750000  0.447142  1
  S  S26  1  0.279686  0.250000  0.052858  1
  S  S27  1  0.220314  0.250000  0.552858  1
