# generated using pymatgen
data_Ti10C7O2
_symmetry_space_group_name_H-M   'P 1'
_cell_length_a   8.10716257
_cell_length_b   8.10282168
_cell_length_c   10.14873143
_cell_angle_alpha   62.77456183
_cell_angle_beta   62.80404262
_cell_angle_gamma   44.45159108
_symmetry_Int_Tables_number   1
_chemical_formula_structural   Ti10C7O2
_chemical_formula_sum   'Ti20 C14 O4'
_cell_volume   405.94321008
_cell_formula_units_Z   2
loop_
 _symmetry_equiv_pos_site_id
 _symmetry_equiv_pos_as_xyz
  1  'x, y, z'
loop_
 _atom_site_type_symbol
 _atom_site_label
 _atom_site_symmetry_multiplicity
 _atom_site_fract_x
 _atom_site_fract_y
 _atom_site_fract_z
 _atom_site_occupancy
  Ti  Ti0  1  0.236372  0.478369  0.943713  1
  Ti  Ti1  1  0.717722  0.975559  0.959298  1
  Ti  Ti2  1  0.560506  0.333400  0.649892  1
  Ti  Ti3  1  0.437134  0.667899  0.353238  1
  Ti  Ti4  1  0.278673  0.031370  0.036629  1
  Ti  Ti5  1  0.092231  0.813163  0.640734  1
  Ti  Ti6  1  0.128683  0.365746  0.747563  1
  Ti  Ti7  1  0.917259  0.188190  0.356382  1
  Ti  Ti8  1  0.969218  0.716851  0.458071  1
  Ti  Ti9  1  0.765757  0.513348  0.052847  1
  Ti  Ti10  1  0.616398  0.878128  0.749500  1
  Ti  Ti11  1  0.814330  0.082031  0.144004  1
  Ti  Ti12  1  0.471858  0.229796  0.444616  1
  Ti  Ti13  1  0.670055  0.437506  0.850426  1
  Ti  Ti14  1  0.522335  0.775044  0.553316  1
  Ti  Ti15  1  0.329698  0.562802  0.147814  1
  Ti  Ti16  1  0.375930  0.124576  0.257729  1
  Ti  Ti17  1  0.184097  0.917007  0.855993  1
  Ti  Ti18  1  0.031869  0.278810  0.543991  1
  Ti  Ti19  1  0.878798  0.631907  0.254085  1
  C  C20  1  0.427563  0.172297  0.850468  1
  C  C21  1  0.628722  0.374321  0.249792  1
  C  C22  1  0.274837  0.528494  0.549231  1
  C  C23  1  0.475128  0.726171  0.950932  1
  C  C24  1  0.324276  0.075156  0.650816  1
  C  C25  1  0.173941  0.426446  0.350184  1
  C  C26  1  0.975573  0.224484  0.952371  1
  C  C27  1  0.825342  0.576098  0.649982  1
  C  C28  1  0.023681  0.774998  0.048789  1
  C  C29  1  0.677761  0.925190  0.349136  1
  C  C30  1  0.726196  0.471725  0.448621  1
  C  C31  1  0.523973  0.273509  0.049822  1
  C  C32  1  0.371864  0.624833  0.750187  1
  C  C33  1  0.220123  0.975971  0.448899  1
  O  O34  1  0.071695  0.321430  0.151535  1
  O  O35  1  0.923181  0.679189  0.851396  1
  O  O36  1  0.575593  0.826176  0.147807  1
  O  O37  1  0.781630  0.022009  0.550190  1
