# generated using pymatgen
data_Nd4MnCo16(TcP4)3
_symmetry_space_group_name_H-M   'P 1'
_cell_length_a   3.73957100
_cell_length_b   10.48234511
_cell_length_c   11.93056088
_cell_angle_alpha   89.99570628
_cell_angle_beta   90.00000000
_cell_angle_gamma   90.00000000
_symmetry_Int_Tables_number   1
_chemical_formula_structural   Nd4MnCo16(TcP4)3
_chemical_formula_sum   'Nd4 Mn1 Co16 Tc3 P12'
_cell_volume   467.67170708
_cell_formula_units_Z   1
loop_
 _symmetry_equiv_pos_site_id
 _symmetry_equiv_pos_as_xyz
  1  'x, y, z'
loop_
 _atom_site_type_symbol
 _atom_site_label
 _atom_site_symmetry_multiplicity
 _atom_site_fract_x
 _atom_site_fract_y
 _atom_site_fract_z
 _atom_site_occupancy
  Nd  Nd0  1  0.250000  0.582597  0.702015  1
  Nd  Nd1  1  0.250000  0.915502  0.204324  1
  Nd  Nd2  1  0.750000  0.415403  0.295962  1
  Nd  Nd3  1  0.750000  0.083645  0.796236  1
  Mn  Mn4  1  0.750000  0.210518  0.512036  1
  Co  Co5  1  0.250000  0.405012  0.489342  1
  Co  Co6  1  0.250000  0.094077  0.990553  1
  Co  Co7  1  0.750000  0.594635  0.508517  1
  Co  Co8  1  0.750000  0.905836  0.009103  1
  Co  Co9  1  0.250000  0.220385  0.175223  1
  Co  Co10  1  0.250000  0.277633  0.675534  1
  Co  Co11  1  0.750000  0.778284  0.824225  1
  Co  Co12  1  0.750000  0.721206  0.324648  1
  Co  Co13  1  0.250000  0.885412  0.700623  1
  Co  Co14  1  0.250000  0.614709  0.201353  1
  Co  Co15  1  0.750000  0.116888  0.301117  1
  Co  Co16  1  0.750000  0.385429  0.799345  1
  Co  Co17  1  0.250000  0.465076  0.933012  1
  Co  Co18  1  0.250000  0.034571  0.432571  1
  Co  Co19  1  0.750000  0.534888  0.067278  1
  Co  Co20  1  0.750000  0.967387  0.567476  1
  Tc  Tc21  1  0.250000  0.708901  0.989212  1
  Tc  Tc22  1  0.250000  0.791626  0.490089  1
  Tc  Tc23  1  0.750000  0.290642  0.010738  1
  P  P24  1  0.250000  0.419290  0.111146  1
  P  P25  1  0.250000  0.082183  0.609449  1
  P  P26  1  0.750000  0.579591  0.888566  1
  P  P27  1  0.750000  0.921029  0.389332  1
  P  P28  1  0.250000  0.274972  0.864479  1
  P  P29  1  0.250000  0.225458  0.367485  1
  P  P30  1  0.750000  0.725115  0.135017  1
  P  P31  1  0.750000  0.775641  0.633940  1
  P  P32  1  0.250000  0.599894  0.393627  1
  P  P33  1  0.250000  0.899898  0.892797  1
  P  P34  1  0.750000  0.396342  0.605420  1
  P  P35  1  0.750000  0.100324  0.108209  1
