# generated using pymatgen
data_Ac3ZnIr8
_symmetry_space_group_name_H-M   'P 1'
_cell_length_a   5.48222530
_cell_length_b   5.48222359
_cell_length_c   9.39859700
_cell_angle_alpha   73.04315320
_cell_angle_beta   73.04315864
_cell_angle_gamma   60.00000404
_symmetry_Int_Tables_number   1
_chemical_formula_structural   Ac3ZnIr8
_chemical_formula_sum   'Ac3 Zn1 Ir8'
_cell_volume   230.33913769
_cell_formula_units_Z   1
loop_
 _symmetry_equiv_pos_site_id
 _symmetry_equiv_pos_as_xyz
  1  'x, y, z'
loop_
 _atom_site_type_symbol
 _atom_site_label
 _atom_site_symmetry_multiplicity
 _atom_site_fract_x
 _atom_site_fract_y
 _atom_site_fract_z
 _atom_site_occupancy
  Ac  Ac0  1  0.141300  0.141300  0.576101  1
  Ac  Ac1  1  0.861287  0.861287  0.416139  1
  Ac  Ac2  1  0.000589  0.000589  0.998231  1
  Zn  Zn3  1  0.665770  0.665770  0.002691  1
  Ir  Ir4  1  0.076822  0.581903  0.759369  1
  Ir  Ir5  1  0.581903  0.581903  0.759369  1
  Ir  Ir6  1  0.581903  0.076822  0.759369  1
  Ir  Ir7  1  0.917726  0.420857  0.240563  1
  Ir  Ir8  1  0.420857  0.420857  0.240563  1
  Ir  Ir9  1  0.420857  0.917726  0.240563  1
  Ir  Ir10  1  0.332720  0.332720  0.001840  1
  Ir  Ir11  1  0.498266  0.498266  0.505202  1
