# generated using pymatgen
data_YbTh3Al3(Ga5Ir2)3
_symmetry_space_group_name_H-M   'P 1'
_cell_length_a   7.66199362
_cell_length_b   7.68694553
_cell_length_c   9.49248034
_cell_angle_alpha   89.97161341
_cell_angle_beta   90.00456056
_cell_angle_gamma   119.64211299
_symmetry_Int_Tables_number   1
_chemical_formula_structural   YbTh3Al3(Ga5Ir2)3
_chemical_formula_sum   'Yb1 Th3 Al3 Ga15 Ir6'
_cell_volume   485.91554847
_cell_formula_units_Z   1
loop_
 _symmetry_equiv_pos_site_id
 _symmetry_equiv_pos_as_xyz
  1  'x, y, z'
loop_
 _atom_site_type_symbol
 _atom_site_label
 _atom_site_symmetry_multiplicity
 _atom_site_fract_x
 _atom_site_fract_y
 _atom_site_fract_z
 _atom_site_occupancy
  Yb  Yb0  1  0.328203  0.000990  0.748951  1
  Th  Th1  1  0.000175  0.671902  0.250090  1
  Th  Th2  1  0.998864  0.330038  0.748955  1
  Th  Th3  1  0.670402  0.997082  0.250047  1
  Al  Al4  1  0.660869  0.660444  0.453859  1
  Al  Al5  1  0.665607  0.665088  0.046661  1
  Al  Al6  1  0.334360  0.330659  0.945491  1
  Ga  Ga7  1  0.136824  0.132248  0.249362  1
  Ga  Ga8  1  0.873349  0.871407  0.749297  1
  Ga  Ga9  1  0.005242  0.335640  0.079757  1
  Ga  Ga10  1  0.003743  0.672691  0.915523  1
  Ga  Ga11  1  0.003201  0.672822  0.584231  1
  Ga  Ga12  1  0.336120  0.005890  0.427683  1
  Ga  Ga13  1  0.007157  0.335843  0.418520  1
  Ga  Ga14  1  0.655610  0.995304  0.584537  1
  Ga  Ga15  1  0.656051  0.996115  0.915315  1
  Ga  Ga16  1  0.335842  0.004120  0.070154  1
  Ga  Ga17  1  0.331974  0.325847  0.568338  1
  Ga  Ga18  1  0.350635  0.546126  0.249964  1
  Ga  Ga19  1  0.650327  0.446824  0.750179  1
  Ga  Ga20  1  0.547021  0.345746  0.249881  1
  Ga  Ga21  1  0.452056  0.657389  0.749846  1
  Ir  Ir22  1  0.673699  0.333127  0.000356  1
  Ir  Ir23  1  0.329057  0.666694  0.001060  1
  Ir  Ir24  1  0.328463  0.670107  0.497359  1
  Ir  Ir25  1  0.677577  0.333109  0.498368  1
  Ir  Ir26  1  0.996810  0.001202  0.000597  1
  Ir  Ir27  1  0.990759  0.995544  0.495618  1
