# generated using pymatgen
data_Tb8V(Pd7Pt)3
_symmetry_space_group_name_H-M   'P 1'
_cell_length_a   8.36483200
_cell_length_b   8.36582900
_cell_length_c   8.36594800
_cell_angle_alpha   90.00000000
_cell_angle_beta   90.00000000
_cell_angle_gamma   90.00000000
_symmetry_Int_Tables_number   1
_chemical_formula_structural   Tb8V(Pd7Pt)3
_chemical_formula_sum   'Tb8 V1 Pd21 Pt3'
_cell_volume   585.43861812
_cell_formula_units_Z   1
loop_
 _symmetry_equiv_pos_site_id
 _symmetry_equiv_pos_as_xyz
  1  'x, y, z'
loop_
 _atom_site_type_symbol
 _atom_site_label
 _atom_site_symmetry_multiplicity
 _atom_site_fract_x
 _atom_site_fract_y
 _atom_site_fract_z
 _atom_site_occupancy
  Tb  Tb0  1  0.252240  0.252916  0.252012  1
  Tb  Tb1  1  0.747698  0.747543  0.747306  1
  Tb  Tb2  1  0.747698  0.747543  0.252694  1
  Tb  Tb3  1  0.747698  0.252457  0.747306  1
  Tb  Tb4  1  0.252240  0.252916  0.747988  1
  Tb  Tb5  1  0.252240  0.747084  0.252012  1
  Tb  Tb6  1  0.252240  0.747084  0.747988  1
  Tb  Tb7  1  0.747698  0.252457  0.252694  1
  V  V8  1  0.000330  0.000000  0.000000  1
  Pd  Pd9  1  0.739592  0.500000  0.000000  1
  Pd  Pd10  1  0.999917  0.260507  0.500000  1
  Pd  Pd11  1  0.500114  0.260535  0.000000  1
  Pd  Pd12  1  0.999917  0.739493  0.500000  1
  Pd  Pd13  1  0.500114  0.739465  0.000000  1
  Pd  Pd14  1  0.500008  0.000000  0.260650  1
  Pd  Pd15  1  0.260533  0.000000  0.500000  1
  Pd  Pd16  1  0.500008  0.000000  0.739350  1
  Pd  Pd17  1  0.739578  0.000000  0.500000  1
  Pd  Pd18  1  0.999959  0.500000  0.260488  1
  Pd  Pd19  1  0.999959  0.500000  0.739512  1
  Pd  Pd20  1  0.253105  0.500000  0.500000  1
  Pd  Pd21  1  0.746859  0.500000  0.500000  1
  Pd  Pd22  1  0.500119  0.253299  0.500000  1
  Pd  Pd23  1  0.500119  0.746701  0.500000  1
  Pd  Pd24  1  0.500005  0.500000  0.253348  1
  Pd  Pd25  1  0.500005  0.500000  0.746652  1
  Pd  Pd26  1  0.999711  0.291724  0.000000  1
  Pd  Pd27  1  0.999711  0.708276  0.000000  1
  Pd  Pd28  1  0.999983  0.000000  0.291911  1
  Pd  Pd29  1  0.999983  0.000000  0.708089  1
  Pt  Pt30  1  0.260372  0.500000  0.000000  1
  Pt  Pt31  1  0.289556  0.000000  0.000000  1
  Pt  Pt32  1  0.710685  0.000000  0.000000  1
