# generated using pymatgen
data_ErPa2(AlIr)3
_symmetry_space_group_name_H-M   'P 1'
_cell_length_a   7.07286636
_cell_length_b   6.96331552
_cell_length_c   4.05494400
_cell_angle_alpha   90.00000000
_cell_angle_beta   90.00000000
_cell_angle_gamma   119.48894118
_symmetry_Int_Tables_number   1
_chemical_formula_structural   ErPa2(AlIr)3
_chemical_formula_sum   'Er1 Pa2 Al3 Ir3'
_cell_volume   173.83634349
_cell_formula_units_Z   1
loop_
 _symmetry_equiv_pos_site_id
 _symmetry_equiv_pos_as_xyz
  1  'x, y, z'
loop_
 _atom_site_type_symbol
 _atom_site_label
 _atom_site_symmetry_multiplicity
 _atom_site_fract_x
 _atom_site_fract_y
 _atom_site_fract_z
 _atom_site_occupancy
  Er  Er0  1  0.000000  0.585623  0.000000  1
  Pa  Pa1  1  0.580408  0.999751  0.000000  1
  Pa  Pa2  1  0.419593  0.419343  0.000000  1
  Al  Al3  1  0.226256  0.991115  0.500001  1
  Al  Al4  1  0.000000  0.246810  0.500001  1
  Al  Al5  1  0.773744  0.764860  0.500001  1
  Ir  Ir6  1  0.000000  0.012619  0.000000  1
  Ir  Ir7  1  0.640585  0.310230  0.500001  1
  Ir  Ir8  1  0.359415  0.669645  0.500001  1
