# generated using pymatgen
data_NdTh3(NiB4)4
_symmetry_space_group_name_H-M   'P 1'
_cell_length_a   6.95175700
_cell_length_b   6.95175717
_cell_length_c   6.95175737
_cell_angle_alpha   112.75278199
_cell_angle_beta   112.75278192
_cell_angle_gamma   103.09042435
_symmetry_Int_Tables_number   1
_chemical_formula_structural   NdTh3(NiB4)4
_chemical_formula_sum   'Nd1 Th3 Ni4 B16'
_cell_volume   256.25105000
_cell_formula_units_Z   1
loop_
 _symmetry_equiv_pos_site_id
 _symmetry_equiv_pos_as_xyz
  1  'x, y, z'
loop_
 _atom_site_type_symbol
 _atom_site_label
 _atom_site_symmetry_multiplicity
 _atom_site_fract_x
 _atom_site_fract_y
 _atom_site_fract_z
 _atom_site_occupancy
  Nd  Nd0  1  0.250000  0.750000  0.500000  1
  Th  Th1  1  0.796255  0.796255  0.000000  1
  Th  Th2  1  0.203745  0.203745  0.000000  1
  Th  Th3  1  0.750000  0.250000  0.500000  1
  Ni  Ni4  1  0.272246  0.500011  0.772235  1
  Ni  Ni5  1  0.727776  0.500011  0.227765  1
  Ni  Ni6  1  0.499989  0.727754  0.227765  1
  Ni  Ni7  1  0.499989  0.272224  0.772235  1
  B  B8  1  0.274102  0.112096  0.385259  1
  B  B9  1  0.726837  0.888843  0.614741  1
  B  B10  1  0.274102  0.888843  0.162006  1
  B  B11  1  0.726837  0.112096  0.837994  1
  B  B12  1  0.111157  0.725898  0.837994  1
  B  B13  1  0.887904  0.273163  0.162006  1
  B  B14  1  0.111157  0.273163  0.385259  1
  B  B15  1  0.887904  0.725898  0.614741  1
  B  B16  1  0.112989  0.113726  0.531732  1
  B  B17  1  0.581994  0.581256  0.468268  1
  B  B18  1  0.112989  0.581256  0.999262  1
  B  B19  1  0.581994  0.113726  0.000738  1
  B  B20  1  0.886274  0.887011  0.468268  1
  B  B21  1  0.418744  0.418006  0.531732  1
  B  B22  1  0.886275  0.418006  0.999262  1
  B  B23  1  0.418744  0.887012  0.000738  1
