# generated using pymatgen
data_Pr4Fe3NiO12
_symmetry_space_group_name_H-M   'P 1'
_cell_length_a   5.51079015
_cell_length_b   5.65458835
_cell_length_c   7.86960313
_cell_angle_alpha   89.79207023
_cell_angle_beta   90.02483435
_cell_angle_gamma   89.84636803
_symmetry_Int_Tables_number   1
_chemical_formula_structural   Pr4Fe3NiO12
_chemical_formula_sum   'Pr4 Fe3 Ni1 O12'
_cell_volume   245.22414840
_cell_formula_units_Z   1
loop_
 _symmetry_equiv_pos_site_id
 _symmetry_equiv_pos_as_xyz
  1  'x, y, z'
loop_
 _atom_site_type_symbol
 _atom_site_label
 _atom_site_symmetry_multiplicity
 _atom_site_fract_x
 _atom_site_fract_y
 _atom_site_fract_z
 _atom_site_occupancy
  Pr  Pr0  1  0.988588  0.048773  0.246972  1
  Pr  Pr1  1  0.512359  0.553267  0.246760  1
  Pr  Pr2  1  0.487641  0.446734  0.753240  1
  Pr  Pr3  1  0.011413  0.951226  0.753028  1
  Fe  Fe4  1  0.000000  0.499999  0.000000  1
  Fe  Fe5  1  0.500000  0.000000  0.499999  1
  Fe  Fe6  1  0.000000  0.499999  0.499999  1
  Ni  Ni7  1  0.500000  0.000000  0.000000  1
  O  O8  1  0.714153  0.296067  0.044013  1
  O  O9  1  0.795751  0.787150  0.044598  1
  O  O10  1  0.086262  0.477853  0.251438  1
  O  O11  1  0.414845  0.977773  0.254390  1
  O  O12  1  0.708576  0.293561  0.452418  1
  O  O13  1  0.792971  0.791940  0.452897  1
  O  O14  1  0.207027  0.208059  0.547103  1
  O  O15  1  0.291422  0.706439  0.547582  1
  O  O16  1  0.585155  0.022226  0.745610  1
  O  O17  1  0.913738  0.522146  0.748562  1
  O  O18  1  0.204247  0.212849  0.955403  1
  O  O19  1  0.285845  0.703933  0.955988  1
