# generated using pymatgen
data_Yb3Sm(Ga3Pd)6
_symmetry_space_group_name_H-M   'P 1'
_cell_length_a   7.69169404
_cell_length_b   7.68803022
_cell_length_c   9.58402300
_cell_angle_alpha   90.00000000
_cell_angle_beta   90.00000000
_cell_angle_gamma   119.68908862
_symmetry_Int_Tables_number   1
_chemical_formula_structural   Yb3Sm(Ga3Pd)6
_chemical_formula_sum   'Yb3 Sm1 Ga18 Pd6'
_cell_volume   492.34289656
_cell_formula_units_Z   1
loop_
 _symmetry_equiv_pos_site_id
 _symmetry_equiv_pos_as_xyz
  1  'x, y, z'
loop_
 _atom_site_type_symbol
 _atom_site_label
 _atom_site_symmetry_multiplicity
 _atom_site_fract_x
 _atom_site_fract_y
 _atom_site_fract_z
 _atom_site_occupancy
  Yb  Yb0  1  0.997093  0.668871  0.250000  1
  Yb  Yb1  1  0.001052  0.330652  0.750000  1
  Yb  Yb2  1  0.671564  0.999314  0.250000  1
  Sm  Sm3  1  0.330780  0.999383  0.750000  1
  Ga  Ga4  1  0.129108  0.130669  0.250000  1
  Ga  Ga5  1  0.872117  0.871519  0.750000  1
  Ga  Ga6  1  0.998519  0.335101  0.080213  1
  Ga  Ga7  1  0.998880  0.661727  0.919320  1
  Ga  Ga8  1  0.998880  0.661727  0.580680  1
  Ga  Ga9  1  0.334995  0.997645  0.415933  1
  Ga  Ga10  1  0.998519  0.335101  0.419787  1
  Ga  Ga11  1  0.669019  0.002862  0.580590  1
  Ga  Ga12  1  0.669019  0.002862  0.919410  1
  Ga  Ga13  1  0.334995  0.997645  0.084067  1
  Ga  Ga14  1  0.328963  0.331337  0.567662  1
  Ga  Ga15  1  0.669244  0.669437  0.433532  1
  Ga  Ga16  1  0.669244  0.669437  0.066468  1
  Ga  Ga17  1  0.328963  0.331337  0.932338  1
  Ga  Ga18  1  0.338647  0.545982  0.250000  1
  Ga  Ga19  1  0.660072  0.456007  0.750000  1
  Ga  Ga20  1  0.543309  0.340745  0.250000  1
  Ga  Ga21  1  0.457361  0.662406  0.750000  1
  Pd  Pd22  1  0.669075  0.329420  0.000394  1
  Pd  Pd23  1  0.330428  0.670608  0.999459  1
  Pd  Pd24  1  0.330428  0.670608  0.500541  1
  Pd  Pd25  1  0.669075  0.329420  0.499606  1
  Pd  Pd26  1  0.000326  0.999089  0.000647  1
  Pd  Pd27  1  0.000326  0.999089  0.499353  1
