# generated using pymatgen
data_Pr2Dy4TcTe2
_symmetry_space_group_name_H-M   'P 1'
_cell_length_a   8.44430898
_cell_length_b   8.40800085
_cell_length_c   4.12722200
_cell_angle_alpha   90.00000000
_cell_angle_beta   90.00000000
_cell_angle_gamma   119.85787615
_symmetry_Int_Tables_number   1
_chemical_formula_structural   Pr2Dy4TcTe2
_chemical_formula_sum   'Pr2 Dy4 Tc1 Te2'
_cell_volume   254.13560363
_cell_formula_units_Z   1
loop_
 _symmetry_equiv_pos_site_id
 _symmetry_equiv_pos_as_xyz
  1  'x, y, z'
loop_
 _atom_site_type_symbol
 _atom_site_label
 _atom_site_symmetry_multiplicity
 _atom_site_fract_x
 _atom_site_fract_y
 _atom_site_fract_z
 _atom_site_occupancy
  Pr  Pr0  1  0.598556  0.000953  0.500000  1
  Pr  Pr1  1  0.401444  0.402397  0.500000  1
  Dy  Dy2  1  0.000000  0.608435  0.500000  1
  Dy  Dy3  1  0.000000  0.230806  0.000000  1
  Dy  Dy4  1  0.761641  0.763191  0.000000  1
  Dy  Dy5  1  0.238359  0.001550  0.000000  1
  Tc  Tc6  1  0.000000  0.985771  0.500000  1
  Te  Te7  1  0.324876  0.665887  0.000000  1
  Te  Te8  1  0.675124  0.341009  0.000000  1
