# generated using pymatgen
data_RbTaPSe6
_symmetry_space_group_name_H-M   'P 1'
_cell_length_a   13.95243700
_cell_length_b   9.38741479
_cell_length_c   18.53410600
_cell_angle_alpha   80.71932128
_cell_angle_beta   90.00000000
_cell_angle_gamma   90.00000000
_symmetry_Int_Tables_number   1
_chemical_formula_structural   RbTaPSe6
_chemical_formula_sum   'Rb8 Ta8 P8 Se48'
_cell_volume   2395.77119551
_cell_formula_units_Z   8
loop_
 _symmetry_equiv_pos_site_id
 _symmetry_equiv_pos_as_xyz
  1  'x, y, z'
loop_
 _atom_site_type_symbol
 _atom_site_label
 _atom_site_symmetry_multiplicity
 _atom_site_fract_x
 _atom_site_fract_y
 _atom_site_fract_z
 _atom_site_occupancy
  Rb  Rb0  1  0.602957  0.313611  0.216047  1
  Rb  Rb1  1  0.397043  0.686389  0.783953  1
  Rb  Rb2  1  0.897043  0.313611  0.716047  1
  Rb  Rb3  1  0.102957  0.686389  0.283953  1
  Rb  Rb4  1  0.441158  0.853795  0.171313  1
  Rb  Rb5  1  0.558842  0.146205  0.828687  1
  Rb  Rb6  1  0.941158  0.146205  0.328687  1
  Rb  Rb7  1  0.058842  0.853795  0.671313  1
  Ta  Ta8  1  0.682299  0.840323  0.635939  1
  Ta  Ta9  1  0.762279  0.599301  0.009327  1
  Ta  Ta10  1  0.817701  0.840323  0.135939  1
  Ta  Ta11  1  0.182299  0.159677  0.864061  1
  Ta  Ta12  1  0.317701  0.159677  0.364061  1
  Ta  Ta13  1  0.737721  0.599301  0.509327  1
  Ta  Ta14  1  0.262279  0.400699  0.490673  1
  Ta  Ta15  1  0.237721  0.400699  0.990673  1
  P  P16  1  0.762055  0.219587  0.509374  1
  P  P17  1  0.262055  0.780413  0.990626  1
  P  P18  1  0.264069  0.300010  0.178508  1
  P  P19  1  0.235931  0.300010  0.678508  1
  P  P20  1  0.764069  0.699990  0.321492  1
  P  P21  1  0.737945  0.219587  0.009374  1
  P  P22  1  0.237945  0.780413  0.490626  1
  P  P23  1  0.735931  0.699990  0.821492  1
  Se  Se24  1  0.653400  0.604915  0.736506  1
  Se  Se25  1  0.704652  0.892512  0.246615  1
  Se  Se26  1  0.153400  0.395085  0.763494  1
  Se  Se27  1  0.212465  0.879320  0.084878  1
  Se  Se28  1  0.153703  0.646899  0.939300  1
  Se  Se29  1  0.577243  0.650734  0.574813  1
  Se  Se30  1  0.653703  0.353101  0.560700  1
  Se  Se31  1  0.845006  0.664843  0.601140  1
  Se  Se32  1  0.360499  0.252025  0.089464  1
  Se  Se33  1  0.178340  0.962407  0.407919  1
  Se  Se34  1  0.054132  0.014026  0.837859  1
  Se  Se35  1  0.445868  0.014026  0.337859  1
  Se  Se36  1  0.846600  0.604915  0.236506  1
  Se  Se37  1  0.133074  0.602987  0.523121  1
  Se  Se38  1  0.821660  0.037593  0.592081  1
  Se  Se39  1  0.295348  0.107488  0.753385  1
  Se  Se40  1  0.346600  0.395085  0.263494  1
  Se  Se41  1  0.654994  0.664843  0.101140  1
  Se  Se42  1  0.644676  0.863356  0.493142  1
  Se  Se43  1  0.678340  0.037593  0.092081  1
  Se  Se44  1  0.154994  0.335157  0.398860  1
  Se  Se45  1  0.139501  0.252025  0.589464  1
  Se  Se46  1  0.633074  0.397013  0.976879  1
  Se  Se47  1  0.639501  0.747975  0.910536  1
  Se  Se48  1  0.922757  0.650734  0.074813  1
  Se  Se49  1  0.366926  0.602987  0.023121  1
  Se  Se50  1  0.795348  0.892512  0.746615  1
  Se  Se51  1  0.287535  0.879320  0.584878  1
  Se  Se52  1  0.787535  0.120680  0.915122  1
  Se  Se53  1  0.422757  0.349266  0.425187  1
  Se  Se54  1  0.848593  0.563273  0.880498  1
  Se  Se55  1  0.144676  0.136644  0.006858  1
  Se  Se56  1  0.346297  0.646899  0.439300  1
  Se  Se57  1  0.554132  0.985974  0.662141  1
  Se  Se58  1  0.151407  0.436727  0.119502  1
  Se  Se59  1  0.855324  0.863356  0.993142  1
  Se  Se60  1  0.321660  0.962407  0.907919  1
  Se  Se61  1  0.077243  0.349266  0.925187  1
  Se  Se62  1  0.866926  0.397013  0.476879  1
  Se  Se63  1  0.355324  0.136644  0.506858  1
  Se  Se64  1  0.345006  0.335157  0.898860  1
  Se  Se65  1  0.846297  0.353101  0.060700  1
  Se  Se66  1  0.204652  0.107488  0.253385  1
  Se  Se67  1  0.348593  0.436727  0.619502  1
  Se  Se68  1  0.651407  0.563273  0.380498  1
  Se  Se69  1  0.712465  0.120680  0.415122  1
  Se  Se70  1  0.945868  0.985974  0.162141  1
  Se  Se71  1  0.860499  0.747975  0.410536  1
