# generated using pymatgen
data_Dy3ThPt4
_symmetry_space_group_name_H-M   'P 1'
_cell_length_a   4.58369100
_cell_length_b   5.64876894
_cell_length_c   7.09827809
_cell_angle_alpha   90.56319512
_cell_angle_beta   90.00000000
_cell_angle_gamma   90.00000000
_symmetry_Int_Tables_number   1
_chemical_formula_structural   Dy3ThPt4
_chemical_formula_sum   'Dy3 Th1 Pt4'
_cell_volume   183.78123754
_cell_formula_units_Z   1
loop_
 _symmetry_equiv_pos_site_id
 _symmetry_equiv_pos_as_xyz
  1  'x, y, z'
loop_
 _atom_site_type_symbol
 _atom_site_label
 _atom_site_symmetry_multiplicity
 _atom_site_fract_x
 _atom_site_fract_y
 _atom_site_fract_z
 _atom_site_occupancy
  Dy  Dy0  1  0.250000  0.138523  0.182607  1
  Dy  Dy1  1  0.750000  0.640845  0.314824  1
  Dy  Dy2  1  0.750000  0.859546  0.821056  1
  Th  Th3  1  0.250000  0.361463  0.681914  1
  Pt  Pt4  1  0.250000  0.843910  0.544391  1
  Pt  Pt5  1  0.250000  0.655874  0.044640  1
  Pt  Pt6  1  0.750000  0.155764  0.454029  1
  Pt  Pt7  1  0.750000  0.344074  0.956538  1
