# generated using pymatgen
data_Ho2Mn5Cr2(FeP2)3
_symmetry_space_group_name_H-M   'P 1'
_cell_length_a   3.63104000
_cell_length_b   10.49808300
_cell_length_c   12.17548900
_cell_angle_alpha   90.00000000
_cell_angle_beta   90.00000000
_cell_angle_gamma   90.00000000
_symmetry_Int_Tables_number   1
_chemical_formula_structural   Ho2Mn5Cr2(FeP2)3
_chemical_formula_sum   'Ho4 Mn10 Cr4 Fe6 P12'
_cell_volume   464.11696960
_cell_formula_units_Z   2
loop_
 _symmetry_equiv_pos_site_id
 _symmetry_equiv_pos_as_xyz
  1  'x, y, z'
loop_
 _atom_site_type_symbol
 _atom_site_label
 _atom_site_symmetry_multiplicity
 _atom_site_fract_x
 _atom_site_fract_y
 _atom_site_fract_z
 _atom_site_occupancy
  Ho  Ho0  1  0.250000  0.579583  0.709908  1
  Ho  Ho1  1  0.250000  0.920417  0.209908  1
  Ho  Ho2  1  0.750000  0.415006  0.291566  1
  Ho  Ho3  1  0.750000  0.084994  0.791566  1
  Mn  Mn4  1  0.250000  0.405619  0.492085  1
  Mn  Mn5  1  0.250000  0.094381  0.992085  1
  Mn  Mn6  1  0.750000  0.589060  0.507305  1
  Mn  Mn7  1  0.750000  0.910940  0.007305  1
  Mn  Mn8  1  0.250000  0.217662  0.175805  1
  Mn  Mn9  1  0.250000  0.282338  0.675805  1
  Mn  Mn10  1  0.750000  0.780439  0.824813  1
  Mn  Mn11  1  0.750000  0.719561  0.324813  1
  Mn  Mn12  1  0.250000  0.876187  0.698582  1
  Mn  Mn13  1  0.250000  0.623813  0.198582  1
  Cr  Cr14  1  0.250000  0.706720  0.987623  1
  Cr  Cr15  1  0.250000  0.793280  0.487623  1
  Cr  Cr16  1  0.750000  0.296868  0.011442  1
  Cr  Cr17  1  0.750000  0.203132  0.511442  1
  Fe  Fe18  1  0.750000  0.124926  0.300584  1
  Fe  Fe19  1  0.750000  0.375074  0.800584  1
  Fe  Fe20  1  0.250000  0.464935  0.934638  1
  Fe  Fe21  1  0.250000  0.035065  0.434638  1
  Fe  Fe22  1  0.750000  0.538687  0.067168  1
  Fe  Fe23  1  0.750000  0.961313  0.567168  1
  P  P24  1  0.250000  0.422661  0.110798  1
  P  P25  1  0.250000  0.077339  0.610798  1
  P  P26  1  0.750000  0.573972  0.888444  1
  P  P27  1  0.750000  0.926028  0.388444  1
  P  P28  1  0.250000  0.269754  0.869969  1
  P  P29  1  0.250000  0.230246  0.369969  1
  P  P30  1  0.750000  0.738054  0.128566  1
  P  P31  1  0.750000  0.761946  0.628566  1
  P  P32  1  0.250000  0.594524  0.387302  1
  P  P33  1  0.250000  0.905476  0.887302  1
  P  P34  1  0.750000  0.402445  0.613400  1
  P  P35  1  0.750000  0.097555  0.113400  1
