# generated using pymatgen
data_Gd3YB16
_symmetry_space_group_name_H-M   'P 1'
_cell_length_a   7.13334917
_cell_length_b   7.13334917
_cell_length_c   4.04167400
_cell_angle_alpha   90.00000000
_cell_angle_beta   90.00000000
_cell_angle_gamma   89.97489165
_symmetry_Int_Tables_number   1
_chemical_formula_structural   Gd3YB16
_chemical_formula_sum   'Gd3 Y1 B16'
_cell_volume   205.65922960
_cell_formula_units_Z   1
loop_
 _symmetry_equiv_pos_site_id
 _symmetry_equiv_pos_as_xyz
  1  'x, y, z'
loop_
 _atom_site_type_symbol
 _atom_site_label
 _atom_site_symmetry_multiplicity
 _atom_site_fract_x
 _atom_site_fract_y
 _atom_site_fract_z
 _atom_site_occupancy
  Gd  Gd0  1  0.182223  0.682223  0.000000  1
  Gd  Gd1  1  0.682143  0.817867  0.000000  1
  Gd  Gd2  1  0.317867  0.182143  0.000000  1
  Y  Y3  1  0.817949  0.317949  0.000000  1
  B  B4  1  0.324096  0.461326  0.500000  1
  B  B5  1  0.676204  0.538662  0.500000  1
  B  B6  1  0.538896  0.323904  0.500000  1
  B  B7  1  0.461410  0.675977  0.500000  1
  B  B8  1  0.999854  0.000049  0.203342  1
  B  B9  1  0.500049  0.499854  0.796658  1
  B  B10  1  0.999854  0.000049  0.796658  1
  B  B11  1  0.500049  0.499854  0.203342  1
  B  B12  1  0.586951  0.086951  0.500000  1
  B  B13  1  0.086865  0.412711  0.500000  1
  B  B14  1  0.912711  0.586865  0.500000  1
  B  B15  1  0.413008  0.913008  0.500000  1
  B  B16  1  0.038662  0.176204  0.500000  1
  B  B17  1  0.175977  0.961410  0.500000  1
  B  B18  1  0.823904  0.038896  0.500000  1
  B  B19  1  0.961326  0.824096  0.500000  1
