# generated using pymatgen
data_Nd2Ga(GeRh2)3
_symmetry_space_group_name_H-M   'P 1'
_cell_length_a   6.82815978
_cell_length_b   6.82378456
_cell_length_c   6.82816083
_cell_angle_alpha   130.59933372
_cell_angle_beta   113.00804601
_cell_angle_gamma   87.63674099
_symmetry_Int_Tables_number   1
_chemical_formula_structural   Nd2Ga(GeRh2)3
_chemical_formula_sum   'Nd2 Ga1 Ge3 Rh6'
_cell_volume   211.75763423
_cell_formula_units_Z   1
loop_
 _symmetry_equiv_pos_site_id
 _symmetry_equiv_pos_as_xyz
  1  'x, y, z'
loop_
 _atom_site_type_symbol
 _atom_site_label
 _atom_site_symmetry_multiplicity
 _atom_site_fract_x
 _atom_site_fract_y
 _atom_site_fract_z
 _atom_site_occupancy
  Nd  Nd0  1  0.750508  0.044293  0.293785  1
  Nd  Nd1  1  0.249107  0.958056  0.708949  1
  Ga  Ga2  1  0.917410  0.712652  0.795243  1
  Ge  Ge3  1  0.587642  0.381053  0.793411  1
  Ge  Ge4  1  0.419188  0.625386  0.206197  1
  Ge  Ge5  1  0.076267  0.280581  0.204314  1
  Rh  Rh6  1  0.225509  0.499116  0.724968  1
  Rh  Rh7  1  0.718886  0.000762  0.718800  1
  Rh  Rh8  1  0.774149  0.499116  0.273607  1
  Rh  Rh9  1  0.281962  0.000762  0.281876  1
  Rh  Rh10  1  0.493263  0.499111  0.493001  1
  Rh  Rh11  1  0.006110  0.499111  0.005847  1
