# generated using pymatgen
data_Hf9Ta3MnS
_symmetry_space_group_name_H-M   'P 1'
_cell_length_a   8.72974200
_cell_length_b   8.72974121
_cell_length_c   8.51393500
_cell_angle_alpha   90.00000000
_cell_angle_beta   90.00000000
_cell_angle_gamma   119.99999543
_symmetry_Int_Tables_number   1
_chemical_formula_structural   Hf9Ta3MnS
_chemical_formula_sum   'Hf18 Ta6 Mn2 S2'
_cell_volume   561.90611677
_cell_formula_units_Z   2
loop_
 _symmetry_equiv_pos_site_id
 _symmetry_equiv_pos_as_xyz
  1  'x, y, z'
loop_
 _atom_site_type_symbol
 _atom_site_label
 _atom_site_symmetry_multiplicity
 _atom_site_fract_x
 _atom_site_fract_y
 _atom_site_fract_z
 _atom_site_occupancy
  Hf  Hf0  1  0.196704  0.803296  0.447794  1
  Hf  Hf1  1  0.196704  0.393409  0.447794  1
  Hf  Hf2  1  0.606591  0.803296  0.447794  1
  Hf  Hf3  1  0.803296  0.196704  0.552206  1
  Hf  Hf4  1  0.803296  0.606591  0.552206  1
  Hf  Hf5  1  0.393409  0.196704  0.552206  1
  Hf  Hf6  1  0.803296  0.196704  0.947794  1
  Hf  Hf7  1  0.803296  0.606591  0.947794  1
  Hf  Hf8  1  0.393409  0.196704  0.947794  1
  Hf  Hf9  1  0.196704  0.803296  0.052206  1
  Hf  Hf10  1  0.196704  0.393409  0.052206  1
  Hf  Hf11  1  0.606591  0.803296  0.052206  1
  Hf  Hf12  1  0.543797  0.456203  0.250000  1
  Hf  Hf13  1  0.543797  0.087595  0.250000  1
  Hf  Hf14  1  0.912405  0.456203  0.250000  1
  Hf  Hf15  1  0.456203  0.543797  0.750000  1
  Hf  Hf16  1  0.456203  0.912405  0.750000  1
  Hf  Hf17  1  0.087595  0.543797  0.750000  1
  Ta  Ta18  1  0.891489  0.108511  0.250000  1
  Ta  Ta19  1  0.891489  0.782977  0.250000  1
  Ta  Ta20  1  0.217023  0.108511  0.250000  1
  Ta  Ta21  1  0.108511  0.891489  0.750000  1
  Ta  Ta22  1  0.108511  0.217023  0.750000  1
  Ta  Ta23  1  0.782977  0.891489  0.750000  1
  Mn  Mn24  1  0.000000  0.000000  0.500000  1
  Mn  Mn25  1  0.000000  0.000000  0.000000  1
  S  S26  1  0.333333  0.666667  0.250000  1
  S  S27  1  0.666667  0.333333  0.750000  1
