# generated using pymatgen
data_Dy2Si3Pt
_symmetry_space_group_name_H-M   'P 1'
_cell_length_a   8.14672133
_cell_length_b   8.13477956
_cell_length_c   5.75751923
_cell_angle_alpha   69.40209169
_cell_angle_beta   69.17978991
_cell_angle_gamma   41.41811521
_symmetry_Int_Tables_number   1
_chemical_formula_structural   Dy2Si3Pt
_chemical_formula_sum   'Dy4 Si6 Pt2'
_cell_volume   233.68449647
_cell_formula_units_Z   2
loop_
 _symmetry_equiv_pos_site_id
 _symmetry_equiv_pos_as_xyz
  1  'x, y, z'
loop_
 _atom_site_type_symbol
 _atom_site_label
 _atom_site_symmetry_multiplicity
 _atom_site_fract_x
 _atom_site_fract_y
 _atom_site_fract_z
 _atom_site_occupancy
  Dy  Dy0  1  0.249999  0.250001  0.250000  1
  Dy  Dy1  1  0.246847  0.753152  0.246847  1
  Dy  Dy2  1  0.753154  0.246846  0.753154  1
  Dy  Dy3  1  0.750000  0.750000  0.750000  1
  Si  Si4  1  0.834688  0.331423  0.165312  1
  Si  Si5  1  0.834128  0.834127  0.165873  1
  Si  Si6  1  0.668577  0.165312  0.331423  1
  Si  Si7  1  0.331424  0.834687  0.668577  1
  Si  Si8  1  0.165873  0.165872  0.834128  1
  Si  Si9  1  0.165313  0.668576  0.834688  1
  Pt  Pt10  1  0.666829  0.666828  0.333172  1
  Pt  Pt11  1  0.333173  0.333171  0.666828  1
