# generated using pymatgen
data_NdTh2AlGa2Pt3
_symmetry_space_group_name_H-M   'P 1'
_cell_length_a   7.36327388
_cell_length_b   7.36327375
_cell_length_c   4.12627700
_cell_angle_alpha   90.00000000
_cell_angle_beta   90.00000000
_cell_angle_gamma   120.29300656
_symmetry_Int_Tables_number   1
_chemical_formula_structural   NdTh2AlGa2Pt3
_chemical_formula_sum   'Nd1 Th2 Al1 Ga2 Pt3'
_cell_volume   193.17061323
_cell_formula_units_Z   1
loop_
 _symmetry_equiv_pos_site_id
 _symmetry_equiv_pos_as_xyz
  1  'x, y, z'
loop_
 _atom_site_type_symbol
 _atom_site_label
 _atom_site_symmetry_multiplicity
 _atom_site_fract_x
 _atom_site_fract_y
 _atom_site_fract_z
 _atom_site_occupancy
  Nd  Nd0  1  0.410602  0.410602  0.500000  1
  Th  Th1  1  0.582650  0.003005  0.500000  1
  Th  Th2  1  0.003005  0.582650  0.500000  1
  Al  Al3  1  0.760035  0.760035  0.000000  1
  Ga  Ga4  1  0.238653  0.003410  0.000000  1
  Ga  Ga5  1  0.003410  0.238653  0.000000  1
  Pt  Pt6  1  0.679422  0.342635  0.000000  1
  Pt  Pt7  1  0.342635  0.679422  0.000000  1
  Pt  Pt8  1  0.979589  0.979589  0.500000  1
