# generated using pymatgen
data_Nd3Y5(LuBi)12
_symmetry_space_group_name_H-M   'P 1'
_cell_length_a   8.26117209
_cell_length_b   9.41049400
_cell_length_c   12.06422613
_cell_angle_alpha   90.00000000
_cell_angle_beta   89.98331907
_cell_angle_gamma   90.00000000
_symmetry_Int_Tables_number   1
_chemical_formula_structural   Nd3Y5(LuBi)12
_chemical_formula_sum   'Nd3 Y5 Lu12 Bi12'
_cell_volume   937.89353363
_cell_formula_units_Z   1
loop_
 _symmetry_equiv_pos_site_id
 _symmetry_equiv_pos_as_xyz
  1  'x, y, z'
loop_
 _atom_site_type_symbol
 _atom_site_label
 _atom_site_symmetry_multiplicity
 _atom_site_fract_x
 _atom_site_fract_y
 _atom_site_fract_z
 _atom_site_occupancy
  Nd  Nd0  1  0.185143  0.750000  0.719375  1
  Nd  Nd1  1  0.685139  0.750000  0.780522  1
  Nd  Nd2  1  0.814452  0.250000  0.280812  1
  Y  Y3  1  0.314100  0.250000  0.218673  1
  Y  Y4  1  0.353100  0.750000  0.216894  1
  Y  Y5  1  0.853096  0.750000  0.283079  1
  Y  Y6  1  0.646855  0.250000  0.783432  1
  Y  Y7  1  0.147266  0.250000  0.716688  1
  Lu  Lu8  1  0.023742  0.750000  0.989909  1
  Lu  Lu9  1  0.523403  0.750000  0.510275  1
  Lu  Lu10  1  0.976518  0.250000  0.010748  1
  Lu  Lu11  1  0.476489  0.250000  0.489447  1
  Lu  Lu12  1  0.307614  0.432852  0.940774  1
  Lu  Lu13  1  0.808042  0.067190  0.559340  1
  Lu  Lu14  1  0.692456  0.932754  0.059393  1
  Lu  Lu15  1  0.192143  0.567125  0.440262  1
  Lu  Lu16  1  0.692456  0.567246  0.059393  1
  Lu  Lu17  1  0.192143  0.932875  0.440262  1
  Lu  Lu18  1  0.307614  0.067148  0.940774  1
  Lu  Lu19  1  0.808042  0.432810  0.559340  1
  Bi  Bi20  1  0.434969  0.007282  0.670746  1
  Bi  Bi21  1  0.934965  0.492591  0.829567  1
  Bi  Bi22  1  0.563350  0.505855  0.328668  1
  Bi  Bi23  1  0.067493  0.994738  0.171012  1
  Bi  Bi24  1  0.563350  0.994145  0.328668  1
  Bi  Bi25  1  0.067493  0.505262  0.171012  1
  Bi  Bi26  1  0.434969  0.492718  0.670746  1
  Bi  Bi27  1  0.934965  0.007409  0.829567  1
  Bi  Bi28  1  0.403315  0.750000  0.960381  1
  Bi  Bi29  1  0.903079  0.750000  0.539564  1
  Bi  Bi30  1  0.593777  0.250000  0.041461  1
  Bi  Bi31  1  0.098463  0.250000  0.459215  1
