# generated using pymatgen
data_Ca5La9(Nd3Sn8)2
_symmetry_space_group_name_H-M   'P 1'
_cell_length_a   8.10631255
_cell_length_b   8.54025557
_cell_length_c   16.14253700
_cell_angle_alpha   89.96899814
_cell_angle_beta   90.11578172
_cell_angle_gamma   90.01584196
_symmetry_Int_Tables_number   1
_chemical_formula_structural   Ca5La9(Nd3Sn8)2
_chemical_formula_sum   'Ca5 La9 Nd6 Sn16'
_cell_volume   1117.54504126
_cell_formula_units_Z   1
loop_
 _symmetry_equiv_pos_site_id
 _symmetry_equiv_pos_as_xyz
  1  'x, y, z'
loop_
 _atom_site_type_symbol
 _atom_site_label
 _atom_site_symmetry_multiplicity
 _atom_site_fract_x
 _atom_site_fract_y
 _atom_site_fract_z
 _atom_site_occupancy
  Ca  Ca0  1  0.330476  0.830379  0.623103  1
  Ca  Ca1  1  0.162981  0.496900  0.748821  1
  Ca  Ca2  1  0.662577  0.003890  0.748592  1
  Ca  Ca3  1  0.838097  0.505022  0.249946  1
  Ca  Ca4  1  0.337342  0.995146  0.250554  1
  La  La5  1  0.833747  0.672562  0.875868  1
  La  La6  1  0.490013  0.315302  0.904057  1
  La  La7  1  0.991003  0.184141  0.596405  1
  La  La8  1  0.508446  0.683160  0.404007  1
  La  La9  1  0.010210  0.818103  0.097042  1
  La  La10  1  0.510201  0.682567  0.096382  1
  La  La11  1  0.009688  0.816649  0.403861  1
  La  La12  1  0.489291  0.316727  0.595938  1
  La  La13  1  0.991856  0.182837  0.904049  1
  Nd  Nd14  1  0.334790  0.827392  0.875072  1
  Nd  Nd15  1  0.833273  0.671963  0.624901  1
  Nd  Nd16  1  0.666915  0.170883  0.375341  1
  Nd  Nd17  1  0.166495  0.328905  0.125347  1
  Nd  Nd18  1  0.665403  0.171570  0.125184  1
  Nd  Nd19  1  0.167361  0.328231  0.375539  1
  Sn  Sn20  1  0.324523  0.038489  0.037048  1
  Sn  Sn21  1  0.827082  0.462086  0.462601  1
  Sn  Sn22  1  0.672580  0.961492  0.536927  1
  Sn  Sn23  1  0.176764  0.537907  0.963469  1
  Sn  Sn24  1  0.672836  0.963953  0.963288  1
  Sn  Sn25  1  0.170014  0.535653  0.538083  1
  Sn  Sn26  1  0.330156  0.036906  0.461636  1
  Sn  Sn27  1  0.826865  0.460055  0.038274  1
  Sn  Sn28  1  0.529135  0.603311  0.748756  1
  Sn  Sn29  1  0.032400  0.895324  0.749347  1
  Sn  Sn30  1  0.470521  0.394192  0.250569  1
  Sn  Sn31  1  0.969838  0.106502  0.250168  1
  Sn  Sn32  1  0.290445  0.139831  0.750048  1
  Sn  Sn33  1  0.789946  0.361581  0.749238  1
  Sn  Sn34  1  0.708975  0.861515  0.250171  1
  Sn  Sn35  1  0.207749  0.638871  0.250369  1
