# generated using pymatgen
data_DyHoPa4(Al3Os)8
_symmetry_space_group_name_H-M   'P 1'
_cell_length_a   8.84994100
_cell_length_b   8.84994012
_cell_length_c   9.45710700
_cell_angle_alpha   90.00000000
_cell_angle_beta   90.00000000
_cell_angle_gamma   119.63886860
_symmetry_Int_Tables_number   1
_chemical_formula_structural   DyHoPa4(Al3Os)8
_chemical_formula_sum   'Dy1 Ho1 Pa4 Al24 Os8'
_cell_volume   643.78160776
_cell_formula_units_Z   1
loop_
 _symmetry_equiv_pos_site_id
 _symmetry_equiv_pos_as_xyz
  1  'x, y, z'
loop_
 _atom_site_type_symbol
 _atom_site_label
 _atom_site_symmetry_multiplicity
 _atom_site_fract_x
 _atom_site_fract_y
 _atom_site_fract_z
 _atom_site_occupancy
  Dy  Dy0  1  0.196808  0.803192  0.250000  1
  Ho  Ho1  1  0.802915  0.197085  0.750000  1
  Pa  Pa2  1  0.198664  0.393498  0.250000  1
  Pa  Pa3  1  0.801299  0.606436  0.750000  1
  Pa  Pa4  1  0.606502  0.801336  0.250000  1
  Pa  Pa5  1  0.393564  0.198701  0.750000  1
  Al  Al6  1  0.331519  0.668481  0.019213  1
  Al  Al7  1  0.668551  0.331449  0.980660  1
  Al  Al8  1  0.668551  0.331449  0.519340  1
  Al  Al9  1  0.331519  0.668481  0.480787  1
  Al  Al10  1  0.161865  0.324787  0.577773  1
  Al  Al11  1  0.838061  0.675177  0.422268  1
  Al  Al12  1  0.675213  0.838135  0.577773  1
  Al  Al13  1  0.838061  0.675177  0.077732  1
  Al  Al14  1  0.324823  0.161939  0.422268  1
  Al  Al15  1  0.161865  0.324787  0.922227  1
  Al  Al16  1  0.162622  0.837378  0.579325  1
  Al  Al17  1  0.324823  0.161939  0.077732  1
  Al  Al18  1  0.837381  0.162619  0.420799  1
  Al  Al19  1  0.675213  0.838135  0.922227  1
  Al  Al20  1  0.837381  0.162619  0.079201  1
  Al  Al21  1  0.162622  0.837378  0.920675  1
  Al  Al22  1  0.560507  0.123054  0.250000  1
  Al  Al23  1  0.439630  0.877073  0.750000  1
  Al  Al24  1  0.876946  0.439493  0.250000  1
  Al  Al25  1  0.122927  0.560370  0.750000  1
  Al  Al26  1  0.564093  0.435907  0.250000  1
  Al  Al27  1  0.435906  0.564094  0.750000  1
  Al  Al28  1  0.999424  0.000576  0.250000  1
  Al  Al29  1  0.000514  0.999486  0.750000  1
  Os  Os30  1  0.500146  0.000067  0.999895  1
  Os  Os31  1  0.999933  0.499854  0.999895  1
  Os  Os32  1  0.500146  0.000067  0.500105  1
  Os  Os33  1  0.500043  0.499957  0.999941  1
  Os  Os34  1  0.999933  0.499854  0.500105  1
  Os  Os35  1  0.500043  0.499957  0.500059  1
  Os  Os36  1  0.999993  0.000007  0.999951  1
  Os  Os37  1  0.999993  0.000007  0.500049  1
