# generated using pymatgen
data_Y8Sc12Si15Se
_symmetry_space_group_name_H-M   'P 1'
_cell_length_a   7.16537272
_cell_length_b   7.36555355
_cell_length_c   13.98157319
_cell_angle_alpha   90.05212645
_cell_angle_beta   91.69526811
_cell_angle_gamma   90.14181477
_symmetry_Int_Tables_number   1
_chemical_formula_structural   Y8Sc12Si15Se
_chemical_formula_sum   'Y8 Sc12 Si15 Se1'
_cell_volume   737.57900787
_cell_formula_units_Z   1
loop_
 _symmetry_equiv_pos_site_id
 _symmetry_equiv_pos_as_xyz
  1  'x, y, z'
loop_
 _atom_site_type_symbol
 _atom_site_label
 _atom_site_symmetry_multiplicity
 _atom_site_fract_x
 _atom_site_fract_y
 _atom_site_fract_z
 _atom_site_occupancy
  Y  Y0  1  0.499682  0.675166  0.597730  1
  Y  Y1  1  0.012085  0.825138  0.902408  1
  Y  Y2  1  0.488129  0.324972  0.097890  1
  Y  Y3  1  0.005817  0.180782  0.401215  1
  Y  Y4  1  0.496216  0.324625  0.403741  1
  Y  Y5  1  0.988527  0.175759  0.097425  1
  Y  Y6  1  0.512261  0.676264  0.902334  1
  Y  Y7  1  0.002634  0.818734  0.598919  1
  Sc  Sc8  1  0.653560  0.171041  0.623009  1
  Sc  Sc9  1  0.168372  0.324100  0.874477  1
  Sc  Sc10  1  0.332485  0.823811  0.125957  1
  Sc  Sc11  1  0.847205  0.666406  0.372927  1
  Sc  Sc12  1  0.340506  0.830749  0.378336  1
  Sc  Sc13  1  0.831211  0.675585  0.126253  1
  Sc  Sc14  1  0.667759  0.176641  0.874716  1
  Sc  Sc15  1  0.154886  0.329133  0.626034  1
  Sc  Sc16  1  0.833153  0.499925  0.748344  1
  Sc  Sc17  1  0.333884  0.999709  0.746420  1
  Sc  Sc18  1  0.166942  0.499524  0.251081  1
  Sc  Sc19  1  0.665597  0.999893  0.247837  1
  Si  Si20  1  0.154467  0.535412  0.040720  1
  Si  Si21  1  0.344237  0.035478  0.960534  1
  Si  Si22  1  0.822389  0.460135  0.539644  1
  Si  Si23  1  0.303977  0.041366  0.543252  1
  Si  Si24  1  0.845033  0.466004  0.959617  1
  Si  Si25  1  0.655031  0.965670  0.039881  1
  Si  Si26  1  0.175802  0.539717  0.459294  1
  Si  Si27  1  0.460438  0.381474  0.750338  1
  Si  Si28  1  0.957837  0.117651  0.750729  1
  Si  Si29  1  0.538730  0.619948  0.251485  1
  Si  Si30  1  0.040345  0.882605  0.250167  1
  Si  Si31  1  0.708605  0.874058  0.750136  1
  Si  Si32  1  0.209928  0.626658  0.751363  1
  Si  Si33  1  0.294214  0.127230  0.249855  1
  Si  Si34  1  0.790759  0.370371  0.249791  1
  Se  Se35  1  0.697299  0.958264  0.456138  1
