# generated using pymatgen
data_La3Bi5O12
_symmetry_space_group_name_H-M   'P 1'
_cell_length_a   9.90963466
_cell_length_b   9.90963516
_cell_length_c   9.90963500
_cell_angle_alpha   109.47122236
_cell_angle_beta   109.47122337
_cell_angle_gamma   109.47121978
_symmetry_Int_Tables_number   1
_chemical_formula_structural   La3Bi5O12
_chemical_formula_sum   'La6 Bi10 O24'
_cell_volume   749.11942280
_cell_formula_units_Z   2
loop_
 _symmetry_equiv_pos_site_id
 _symmetry_equiv_pos_as_xyz
  1  'x, y, z'
loop_
 _atom_site_type_symbol
 _atom_site_label
 _atom_site_symmetry_multiplicity
 _atom_site_fract_x
 _atom_site_fract_y
 _atom_site_fract_z
 _atom_site_occupancy
  La  La0  1  0.250000  0.750000  0.500000  1
  La  La1  1  0.750000  0.250000  0.500000  1
  La  La2  1  0.750000  0.500000  0.250000  1
  La  La3  1  0.250000  0.500000  0.750000  1
  La  La4  1  0.500000  0.250000  0.750000  1
  La  La5  1  0.500000  0.750000  0.250000  1
  Bi  Bi6  1  0.511127  0.511127  0.511127  1
  Bi  Bi7  1  0.488873  0.000000  0.000000  1
  Bi  Bi8  1  0.000000  0.488873  0.000000  1
  Bi  Bi9  1  0.000000  0.000000  0.488873  1
  Bi  Bi10  1  0.719746  0.719746  0.000000  1
  Bi  Bi11  1  0.280254  0.280254  0.000000  1
  Bi  Bi12  1  0.719746  0.000000  0.719746  1
  Bi  Bi13  1  0.280254  0.000000  0.280254  1
  Bi  Bi14  1  0.000000  0.719746  0.719746  1
  Bi  Bi15  1  0.000000  0.280254  0.280254  1
  O  O16  1  0.790677  0.505285  0.505285  1
  O  O17  1  0.209323  0.714608  0.714608  1
  O  O18  1  0.000000  0.494715  0.285392  1
  O  O19  1  0.505285  0.505285  0.790677  1
  O  O20  1  0.000000  0.285392  0.494715  1
  O  O21  1  0.714608  0.714608  0.209323  1
  O  O22  1  0.494715  0.285392  0.000000  1
  O  O23  1  0.285392  0.494715  0.000000  1
  O  O24  1  0.505285  0.790677  0.505285  1
  O  O25  1  0.285392  0.000000  0.494715  1
  O  O26  1  0.494715  0.000000  0.285392  1
  O  O27  1  0.714608  0.209323  0.714608  1
  O  O28  1  0.271265  0.475431  0.475431  1
  O  O29  1  0.728735  0.204166  0.204166  1
  O  O30  1  0.000000  0.524569  0.795834  1
  O  O31  1  0.475431  0.475431  0.271265  1
  O  O32  1  0.000000  0.795834  0.524569  1
  O  O33  1  0.204166  0.204166  0.728735  1
  O  O34  1  0.524569  0.795834  0.000000  1
  O  O35  1  0.795834  0.524569  0.000000  1
  O  O36  1  0.475431  0.271265  0.475431  1
  O  O37  1  0.795834  0.000000  0.524569  1
  O  O38  1  0.524569  0.000000  0.795834  1
  O  O39  1  0.204166  0.728735  0.204166  1
