# generated using pymatgen
data_YLu9Si5Ge
_symmetry_space_group_name_H-M   'P 1'
_cell_length_a   8.26905500
_cell_length_b   8.27864587
_cell_length_c   6.19616300
_cell_angle_alpha   90.00000000
_cell_angle_beta   90.00000000
_cell_angle_gamma   119.96167232
_symmetry_Int_Tables_number   1
_chemical_formula_structural   YLu9Si5Ge
_chemical_formula_sum   'Y1 Lu9 Si5 Ge1'
_cell_volume   367.48215380
_cell_formula_units_Z   1
loop_
 _symmetry_equiv_pos_site_id
 _symmetry_equiv_pos_as_xyz
  1  'x, y, z'
loop_
 _atom_site_type_symbol
 _atom_site_label
 _atom_site_symmetry_multiplicity
 _atom_site_fract_x
 _atom_site_fract_y
 _atom_site_fract_z
 _atom_site_occupancy
  Y  Y0  1  0.240872  0.000000  0.250000  1
  Lu  Lu1  1  0.997806  0.755544  0.750000  1
  Lu  Lu2  1  0.999798  0.242572  0.250000  1
  Lu  Lu3  1  0.757226  0.757428  0.250000  1
  Lu  Lu4  1  0.760014  0.000000  0.750000  1
  Lu  Lu5  1  0.242262  0.244456  0.750000  1
  Lu  Lu6  1  0.333250  0.664958  0.499346  1
  Lu  Lu7  1  0.668292  0.335042  0.000654  1
  Lu  Lu8  1  0.668292  0.335042  0.499346  1
  Lu  Lu9  1  0.333250  0.664958  0.000654  1
  Si  Si10  1  0.394988  0.396003  0.250000  1
  Si  Si11  1  0.998985  0.603997  0.250000  1
  Si  Si12  1  0.999871  0.394297  0.750000  1
  Si  Si13  1  0.605574  0.605703  0.750000  1
  Si  Si14  1  0.607214  0.000000  0.250000  1
  Ge  Ge15  1  0.392307  0.000000  0.750000  1
