# generated using pymatgen
data_Tb5Th3MgCdRu2
_symmetry_space_group_name_H-M   'P 1'
_cell_length_a   9.72483352
_cell_length_b   9.82955039
_cell_length_c   9.84144601
_cell_angle_alpha   59.25695592
_cell_angle_beta   60.31058797
_cell_angle_gamma   60.35616579
_symmetry_Int_Tables_number   1
_chemical_formula_structural   Tb5Th3MgCdRu2
_chemical_formula_sum   'Tb10 Th6 Mg2 Cd2 Ru4'
_cell_volume   664.67224549
_cell_formula_units_Z   2
loop_
 _symmetry_equiv_pos_site_id
 _symmetry_equiv_pos_as_xyz
  1  'x, y, z'
loop_
 _atom_site_type_symbol
 _atom_site_label
 _atom_site_symmetry_multiplicity
 _atom_site_fract_x
 _atom_site_fract_y
 _atom_site_fract_z
 _atom_site_occupancy
  Tb  Tb0  1  0.439781  0.059720  0.440712  1
  Tb  Tb1  1  0.059720  0.439781  0.059787  1
  Tb  Tb2  1  0.439482  0.439482  0.060518  1
  Tb  Tb3  1  0.058296  0.058296  0.441704  1
  Tb  Tb4  1  0.183414  0.815415  0.816840  1
  Tb  Tb5  1  0.815415  0.183414  0.184330  1
  Tb  Tb6  1  0.810827  0.188095  0.812609  1
  Tb  Tb7  1  0.188095  0.810827  0.188469  1
  Tb  Tb8  1  0.811466  0.811466  0.188534  1
  Tb  Tb9  1  0.187998  0.187998  0.812002  1
  Th  Th10  1  0.591061  0.600527  0.599013  1
  Th  Th11  1  0.600527  0.591061  0.209401  1
  Th  Th12  1  0.601764  0.206137  0.592111  1
  Th  Th13  1  0.206137  0.601764  0.599990  1
  Th  Th14  1  0.065446  0.434749  0.435434  1
  Th  Th15  1  0.434749  0.065446  0.064371  1
  Mg  Mg16  1  0.828013  0.514755  0.829817  1
  Mg  Mg17  1  0.514755  0.828013  0.827416  1
  Cd  Cd18  1  0.833841  0.829812  0.832328  1
  Cd  Cd19  1  0.829812  0.833841  0.504019  1
  Ru  Ru20  1  0.377849  0.398854  0.399894  1
  Ru  Ru21  1  0.398854  0.377849  0.823403  1
  Ru  Ru22  1  0.399282  0.823418  0.377053  1
  Ru  Ru23  1  0.823418  0.399282  0.400247  1
