# generated using pymatgen
data_Er4LuCo2
_symmetry_space_group_name_H-M   'P 1'
_cell_length_a   6.21908000
_cell_length_b   6.87547244
_cell_length_c   8.40980545
_cell_angle_alpha   96.39521823
_cell_angle_beta   111.70031129
_cell_angle_gamma   89.99999923
_symmetry_Int_Tables_number   1
_chemical_formula_structural   Er4LuCo2
_chemical_formula_sum   'Er8 Lu2 Co4'
_cell_volume   331.70190822
_cell_formula_units_Z   2
loop_
 _symmetry_equiv_pos_site_id
 _symmetry_equiv_pos_as_xyz
  1  'x, y, z'
loop_
 _atom_site_type_symbol
 _atom_site_label
 _atom_site_symmetry_multiplicity
 _atom_site_fract_x
 _atom_site_fract_y
 _atom_site_fract_z
 _atom_site_occupancy
  Er  Er0  1  0.519142  0.086259  0.812739  1
  Er  Er1  1  0.480858  0.913741  0.187261  1
  Er  Er2  1  0.706405  0.413741  0.187261  1
  Er  Er3  1  0.293595  0.586259  0.812739  1
  Er  Er4  1  0.288492  0.314459  0.432433  1
  Er  Er5  1  0.711508  0.685541  0.567567  1
  Er  Er6  1  0.856060  0.185541  0.567567  1
  Er  Er7  1  0.143940  0.814459  0.432433  1
  Lu  Lu8  1  0.072334  0.250000  0.000000  1
  Lu  Lu9  1  0.927666  0.750000  0.000000  1
  Co  Co10  1  0.320032  0.572418  0.218870  1
  Co  Co11  1  0.679968  0.427582  0.781130  1
  Co  Co12  1  0.101163  0.927582  0.781130  1
  Co  Co13  1  0.898837  0.072418  0.218870  1
