# generated using pymatgen
data_Y8Cd2NiIr
_symmetry_space_group_name_H-M   'P 1'
_cell_length_a   9.65082289
_cell_length_b   9.65082278
_cell_length_c   9.70136300
_cell_angle_alpha   59.82661705
_cell_angle_beta   59.82661744
_cell_angle_gamma   59.59358589
_symmetry_Int_Tables_number   1
_chemical_formula_structural   Y8Cd2NiIr
_chemical_formula_sum   'Y16 Cd4 Ni2 Ir2'
_cell_volume   635.27036251
_cell_formula_units_Z   2
loop_
 _symmetry_equiv_pos_site_id
 _symmetry_equiv_pos_as_xyz
  1  'x, y, z'
loop_
 _atom_site_type_symbol
 _atom_site_label
 _atom_site_symmetry_multiplicity
 _atom_site_fract_x
 _atom_site_fract_y
 _atom_site_fract_z
 _atom_site_occupancy
  Y  Y0  1  0.600446  0.600446  0.594975  1
  Y  Y1  1  0.600446  0.600446  0.204133  1
  Y  Y2  1  0.603025  0.201905  0.597535  1
  Y  Y3  1  0.201905  0.603025  0.597535  1
  Y  Y4  1  0.059044  0.437768  0.440921  1
  Y  Y5  1  0.437768  0.059044  0.062267  1
  Y  Y6  1  0.437768  0.059044  0.440921  1
  Y  Y7  1  0.059044  0.437768  0.062267  1
  Y  Y8  1  0.439461  0.439461  0.060539  1
  Y  Y9  1  0.060809  0.060809  0.439191  1
  Y  Y10  1  0.187509  0.810969  0.815761  1
  Y  Y11  1  0.810969  0.187509  0.185761  1
  Y  Y12  1  0.810969  0.187509  0.815761  1
  Y  Y13  1  0.187509  0.810969  0.185761  1
  Y  Y14  1  0.815487  0.815487  0.184513  1
  Y  Y15  1  0.189039  0.189039  0.810961  1
  Cd  Cd16  1  0.829856  0.829856  0.832504  1
  Cd  Cd17  1  0.829856  0.829856  0.507782  1
  Cd  Cd18  1  0.830129  0.506282  0.831794  1
  Cd  Cd19  1  0.506282  0.830129  0.831794  1
  Ni  Ni20  1  0.391999  0.824793  0.391604  1
  Ni  Ni21  1  0.824793  0.391999  0.391604  1
  Ir  Ir22  1  0.392943  0.392943  0.391124  1
  Ir  Ir23  1  0.392943  0.392943  0.822991  1
