# generated using pymatgen
data_Mn2GaB2Ir5
_symmetry_space_group_name_H-M   'P 1'
_cell_length_a   9.40579800
_cell_length_b   9.40579800
_cell_length_c   2.94159000
_cell_angle_alpha   90.00000000
_cell_angle_beta   90.00000000
_cell_angle_gamma   90.00000000
_symmetry_Int_Tables_number   1
_chemical_formula_structural   Mn2GaB2Ir5
_chemical_formula_sum   'Mn4 Ga2 B4 Ir10'
_cell_volume   260.23963166
_cell_formula_units_Z   2
loop_
 _symmetry_equiv_pos_site_id
 _symmetry_equiv_pos_as_xyz
  1  'x, y, z'
loop_
 _atom_site_type_symbol
 _atom_site_label
 _atom_site_symmetry_multiplicity
 _atom_site_fract_x
 _atom_site_fract_y
 _atom_site_fract_z
 _atom_site_occupancy
  Mn  Mn0  1  0.176666  0.676666  0.000000  1
  Mn  Mn1  1  0.323334  0.176666  0.000000  1
  Mn  Mn2  1  0.676666  0.823334  0.000000  1
  Mn  Mn3  1  0.823334  0.323334  0.000000  1
  Ga  Ga4  1  0.000000  0.000000  0.000000  1
  Ga  Ga5  1  0.500000  0.500000  0.000000  1
  B  B6  1  0.126396  0.373604  0.000000  1
  B  B7  1  0.373604  0.873604  0.000000  1
  B  B8  1  0.626396  0.126396  0.000000  1
  B  B9  1  0.873604  0.626396  0.000000  1
  Ir  Ir10  1  0.000000  0.500000  0.500000  1
  Ir  Ir11  1  0.071440  0.214335  0.500000  1
  Ir  Ir12  1  0.214335  0.928560  0.500000  1
  Ir  Ir13  1  0.285665  0.428560  0.500000  1
  Ir  Ir14  1  0.428560  0.714335  0.500000  1
  Ir  Ir15  1  0.500000  0.000000  0.500000  1
  Ir  Ir16  1  0.571440  0.285665  0.500000  1
  Ir  Ir17  1  0.714335  0.571440  0.500000  1
  Ir  Ir18  1  0.785665  0.071440  0.500000  1
  Ir  Ir19  1  0.928560  0.785665  0.500000  1
