# generated using pymatgen
data_TmNp3(WN2)4
_symmetry_space_group_name_H-M   'P 1'
_cell_length_a   3.17271200
_cell_length_b   5.61075509
_cell_length_c   10.84689025
_cell_angle_alpha   89.83306545
_cell_angle_beta   90.00000000
_cell_angle_gamma   90.00000000
_symmetry_Int_Tables_number   1
_chemical_formula_structural   TmNp3(WN2)4
_chemical_formula_sum   'Tm1 Np3 W4 N8'
_cell_volume   193.08803634
_cell_formula_units_Z   1
loop_
 _symmetry_equiv_pos_site_id
 _symmetry_equiv_pos_as_xyz
  1  'x, y, z'
loop_
 _atom_site_type_symbol
 _atom_site_label
 _atom_site_symmetry_multiplicity
 _atom_site_fract_x
 _atom_site_fract_y
 _atom_site_fract_z
 _atom_site_occupancy
  Tm  Tm0  1  0.750000  0.925333  0.855140  1
  Np  Np1  1  0.250000  0.575488  0.356866  1
  Np  Np2  1  0.250000  0.070582  0.141028  1
  Np  Np3  1  0.750000  0.425315  0.643924  1
  W  W4  1  0.250000  0.930583  0.605019  1
  W  W5  1  0.250000  0.435135  0.901301  1
  W  W6  1  0.750000  0.069008  0.397550  1
  W  W7  1  0.750000  0.566897  0.100549  1
  N  N8  1  0.250000  0.664771  0.747120  1
  N  N9  1  0.250000  0.166414  0.757429  1
  N  N10  1  0.750000  0.333195  0.253535  1
  N  N11  1  0.750000  0.833647  0.244591  1
  N  N12  1  0.250000  0.253227  0.495839  1
  N  N13  1  0.250000  0.761225  0.001434  1
  N  N14  1  0.750000  0.745823  0.505003  1
  N  N15  1  0.750000  0.243358  0.993672  1
