# generated using pymatgen
data_PrNd5(BiO7)2
_symmetry_space_group_name_H-M   'P 1'
_cell_length_a   6.76533229
_cell_length_b   6.77520648
_cell_length_c   7.98045719
_cell_angle_alpha   106.90635065
_cell_angle_beta   89.83581949
_cell_angle_gamma   98.30872268
_symmetry_Int_Tables_number   1
_chemical_formula_structural   PrNd5(BiO7)2
_chemical_formula_sum   'Pr1 Nd5 Bi2 O14'
_cell_volume   346.01729569
_cell_formula_units_Z   1
loop_
 _symmetry_equiv_pos_site_id
 _symmetry_equiv_pos_as_xyz
  1  'x, y, z'
loop_
 _atom_site_type_symbol
 _atom_site_label
 _atom_site_symmetry_multiplicity
 _atom_site_fract_x
 _atom_site_fract_y
 _atom_site_fract_z
 _atom_site_occupancy
  Pr  Pr0  1  0.259691  0.519416  0.384404  1
  Nd  Nd1  1  0.461021  0.003735  0.252286  1
  Nd  Nd2  1  0.539440  0.996322  0.747705  1
  Nd  Nd3  1  0.268333  0.535921  0.882111  1
  Nd  Nd4  1  0.731871  0.464247  0.117614  1
  Nd  Nd5  1  0.737884  0.479114  0.615344  1
  Bi  Bi6  1  0.999730  0.000168  0.500176  1
  Bi  Bi7  1  0.999894  0.999754  0.999821  1
  O  O8  1  0.442114  0.643847  0.165177  1
  O  O9  1  0.559017  0.356401  0.833573  1
  O  O10  1  0.296577  0.926632  0.953988  1
  O  O11  1  0.703424  0.073493  0.045892  1
  O  O12  1  0.292711  0.925830  0.511182  1
  O  O13  1  0.707153  0.075184  0.489284  1
  O  O14  1  0.550710  0.363165  0.345547  1
  O  O15  1  0.452094  0.636770  0.655649  1
  O  O16  1  0.925610  0.673688  0.956135  1
  O  O17  1  0.074453  0.326134  0.043675  1
  O  O18  1  0.072735  0.337372  0.616048  1
  O  O19  1  0.925559  0.663285  0.384464  1
  O  O20  1  0.887714  0.913052  0.727613  1
  O  O21  1  0.112265  0.086471  0.272311  1
