# generated using pymatgen
data_Tm5Th(SnIr)6
_symmetry_space_group_name_H-M   'P 1'
_cell_length_a   7.48360423
_cell_length_b   7.51743981
_cell_length_c   7.86127600
_cell_angle_alpha   90.00000000
_cell_angle_beta   90.00000000
_cell_angle_gamma   120.14642947
_symmetry_Int_Tables_number   1
_chemical_formula_structural   Tm5Th(SnIr)6
_chemical_formula_sum   'Tm5 Th1 Sn6 Ir6'
_cell_volume   382.43862153
_cell_formula_units_Z   1
loop_
 _symmetry_equiv_pos_site_id
 _symmetry_equiv_pos_as_xyz
  1  'x, y, z'
loop_
 _atom_site_type_symbol
 _atom_site_label
 _atom_site_symmetry_multiplicity
 _atom_site_fract_x
 _atom_site_fract_y
 _atom_site_fract_z
 _atom_site_occupancy
  Tm  Tm0  1  0.402270  0.000191  0.250000  1
  Tm  Tm1  1  0.593879  0.595422  0.750000  1
  Tm  Tm2  1  0.597955  0.597720  0.250000  1
  Tm  Tm3  1  0.003762  0.403084  0.750000  1
  Tm  Tm4  1  0.404154  0.998078  0.750000  1
  Th  Th5  1  0.996731  0.411511  0.250000  1
  Sn  Sn6  1  0.266096  0.259426  0.500462  1
  Sn  Sn7  1  0.266096  0.259426  0.999538  1
  Sn  Sn8  1  0.734666  0.994094  0.997850  1
  Sn  Sn9  1  0.999493  0.745441  0.508145  1
  Sn  Sn10  1  0.734666  0.994094  0.502150  1
  Sn  Sn11  1  0.999493  0.745441  0.991855  1
  Ir  Ir12  1  0.672157  0.333580  0.505171  1
  Ir  Ir13  1  0.672157  0.333580  0.994829  1
  Ir  Ir14  1  0.327876  0.661887  0.001721  1
  Ir  Ir15  1  0.327876  0.661887  0.498279  1
  Ir  Ir16  1  0.001478  0.005048  0.750000  1
  Ir  Ir17  1  0.999196  0.000090  0.250000  1
