# generated using pymatgen
data_CaY2AsSe2
_symmetry_space_group_name_H-M   'P 1'
_cell_length_a   4.12991700
_cell_length_b   4.12991808
_cell_length_c   10.18210300
_cell_angle_alpha   90.00000000
_cell_angle_beta   90.00000000
_cell_angle_gamma   119.99999933
_symmetry_Int_Tables_number   1
_chemical_formula_structural   CaY2AsSe2
_chemical_formula_sum   'Ca1 Y2 As1 Se2'
_cell_volume   150.40105469
_cell_formula_units_Z   1
loop_
 _symmetry_equiv_pos_site_id
 _symmetry_equiv_pos_as_xyz
  1  'x, y, z'
loop_
 _atom_site_type_symbol
 _atom_site_label
 _atom_site_symmetry_multiplicity
 _atom_site_fract_x
 _atom_site_fract_y
 _atom_site_fract_z
 _atom_site_occupancy
  Ca  Ca0  1  0.000000  0.000000  0.000000  1
  Y  Y1  1  0.333333  0.666667  0.655605  1
  Y  Y2  1  0.666667  0.333333  0.344395  1
  As  As3  1  0.000000  0.000000  0.500000  1
  Se  Se4  1  0.333333  0.666667  0.170507  1
  Se  Se5  1  0.666667  0.333333  0.829493  1
