# generated using pymatgen
data_Nd8Zn2CuSi12Pd
_symmetry_space_group_name_H-M   'P 1'
_cell_length_a   8.18304900
_cell_length_b   8.18304934
_cell_length_c   8.56243700
_cell_angle_alpha   90.00000000
_cell_angle_beta   90.00000000
_cell_angle_gamma   119.99999457
_symmetry_Int_Tables_number   1
_chemical_formula_structural   Nd8Zn2CuSi12Pd
_chemical_formula_sum   'Nd8 Zn2 Cu1 Si12 Pd1'
_cell_volume   496.54471781
_cell_formula_units_Z   1
loop_
 _symmetry_equiv_pos_site_id
 _symmetry_equiv_pos_as_xyz
  1  'x, y, z'
loop_
 _atom_site_type_symbol
 _atom_site_label
 _atom_site_symmetry_multiplicity
 _atom_site_fract_x
 _atom_site_fract_y
 _atom_site_fract_z
 _atom_site_occupancy
  Nd  Nd0  1  0.499787  0.500213  0.751236  1
  Nd  Nd1  1  0.500548  0.499452  0.248937  1
  Nd  Nd2  1  0.000426  0.500213  0.751236  1
  Nd  Nd3  1  0.998903  0.499452  0.248937  1
  Nd  Nd4  1  0.499787  0.999574  0.751236  1
  Nd  Nd5  1  0.500548  0.001097  0.248937  1
  Nd  Nd6  1  0.000000  0.000000  0.750271  1
  Nd  Nd7  1  0.000000  0.000000  0.249704  1
  Zn  Zn8  1  0.333333  0.666667  0.002729  1
  Zn  Zn9  1  0.333333  0.666667  0.497942  1
  Cu  Cu10  1  0.666667  0.333333  0.996534  1
  Si  Si11  1  0.829055  0.170945  0.000931  1
  Si  Si12  1  0.164675  0.835325  0.999222  1
  Si  Si13  1  0.341889  0.170945  0.000931  1
  Si  Si14  1  0.164067  0.835933  0.499670  1
  Si  Si15  1  0.670652  0.835325  0.999222  1
  Si  Si16  1  0.832162  0.167838  0.500671  1
  Si  Si17  1  0.829055  0.658111  0.000931  1
  Si  Si18  1  0.671866  0.835933  0.499670  1
  Si  Si19  1  0.164675  0.329348  0.999222  1
  Si  Si20  1  0.335677  0.167838  0.500671  1
  Si  Si21  1  0.164067  0.328134  0.499670  1
  Si  Si22  1  0.832162  0.664323  0.500671  1
  Pd  Pd23  1  0.666667  0.333333  0.500819  1
