# generated using pymatgen
data_Ho20SnBi7Ir4
_symmetry_space_group_name_H-M   'P 1'
_cell_length_a   7.94618728
_cell_length_b   8.98159947
_cell_length_c   12.40023198
_cell_angle_alpha   89.94757303
_cell_angle_beta   90.04329788
_cell_angle_gamma   89.98372902
_symmetry_Int_Tables_number   1
_chemical_formula_structural   Ho20SnBi7Ir4
_chemical_formula_sum   'Ho20 Sn1 Bi7 Ir4'
_cell_volume   884.99734325
_cell_formula_units_Z   1
loop_
 _symmetry_equiv_pos_site_id
 _symmetry_equiv_pos_as_xyz
  1  'x, y, z'
loop_
 _atom_site_type_symbol
 _atom_site_label
 _atom_site_symmetry_multiplicity
 _atom_site_fract_x
 _atom_site_fract_y
 _atom_site_fract_z
 _atom_site_occupancy
  Ho  Ho0  1  0.343131  0.746148  0.710218  1
  Ho  Ho1  1  0.658791  0.249118  0.292084  1
  Ho  Ho2  1  0.837542  0.254148  0.791628  1
  Ho  Ho3  1  0.158658  0.749309  0.205849  1
  Ho  Ho4  1  0.871946  0.746313  0.805547  1
  Ho  Ho5  1  0.121760  0.250365  0.194231  1
  Ho  Ho6  1  0.381945  0.254261  0.696547  1
  Ho  Ho7  1  0.621439  0.749798  0.306037  1
  Ho  Ho8  1  0.674243  0.542199  0.570853  1
  Ho  Ho9  1  0.324226  0.457401  0.434020  1
  Ho  Ho10  1  0.180084  0.457674  0.933406  1
  Ho  Ho11  1  0.323979  0.043864  0.434554  1
  Ho  Ho12  1  0.822523  0.543017  0.062699  1
  Ho  Ho13  1  0.676902  0.956744  0.566507  1
  Ho  Ho14  1  0.823071  0.958191  0.064957  1
  Ho  Ho15  1  0.175671  0.042384  0.933769  1
  Ho  Ho16  1  0.055930  0.750724  0.498913  1
  Ho  Ho17  1  0.945470  0.249271  0.501453  1
  Ho  Ho18  1  0.554841  0.253690  0.999634  1
  Ho  Ho19  1  0.447982  0.746149  0.995997  1
  Sn  Sn20  1  0.569480  0.508341  0.829371  1
  Bi  Bi21  1  0.429921  0.490354  0.173064  1
  Bi  Bi22  1  0.070676  0.490529  0.671443  1
  Bi  Bi23  1  0.429483  0.008914  0.170860  1
  Bi  Bi24  1  0.929664  0.509626  0.328081  1
  Bi  Bi25  1  0.569917  0.991483  0.828186  1
  Bi  Bi26  1  0.930521  0.989967  0.327258  1
  Bi  Bi27  1  0.069944  0.009207  0.673524  1
  Ir  Ir28  1  0.070838  0.750019  0.989196  1
  Ir  Ir29  1  0.928563  0.250224  0.008954  1
  Ir  Ir30  1  0.573316  0.250129  0.509702  1
  Ir  Ir31  1  0.427548  0.750440  0.491457  1
