# generated using pymatgen
data_YCoMo(PRh)3
_symmetry_space_group_name_H-M   'P 1'
_cell_length_a   3.87504500
_cell_length_b   10.76712700
_cell_length_c   12.43443900
_cell_angle_alpha   90.00000000
_cell_angle_beta   90.00000000
_cell_angle_gamma   90.00000000
_symmetry_Int_Tables_number   1
_chemical_formula_structural   YCoMo(PRh)3
_chemical_formula_sum   'Y4 Co4 Mo4 P12 Rh12'
_cell_volume   518.80336230
_cell_formula_units_Z   4
loop_
 _symmetry_equiv_pos_site_id
 _symmetry_equiv_pos_as_xyz
  1  'x, y, z'
loop_
 _atom_site_type_symbol
 _atom_site_label
 _atom_site_symmetry_multiplicity
 _atom_site_fract_x
 _atom_site_fract_y
 _atom_site_fract_z
 _atom_site_occupancy
  Y  Y0  1  0.250000  0.916279  0.207845  1
  Y  Y1  1  0.750000  0.083721  0.792155  1
  Y  Y2  1  0.750000  0.416279  0.292155  1
  Y  Y3  1  0.250000  0.583721  0.707845  1
  Co  Co4  1  0.250000  0.035671  0.435638  1
  Co  Co5  1  0.750000  0.964329  0.564362  1
  Co  Co6  1  0.750000  0.535671  0.064362  1
  Co  Co7  1  0.250000  0.464329  0.935638  1
  Mo  Mo8  1  0.250000  0.793370  0.485540  1
  Mo  Mo9  1  0.750000  0.206630  0.514460  1
  Mo  Mo10  1  0.750000  0.293370  0.014460  1
  Mo  Mo11  1  0.250000  0.706630  0.985540  1
  P  P12  1  0.250000  0.076789  0.607675  1
  P  P13  1  0.750000  0.923211  0.392325  1
  P  P14  1  0.750000  0.576789  0.892325  1
  P  P15  1  0.250000  0.423211  0.107675  1
  P  P16  1  0.250000  0.229357  0.371544  1
  P  P17  1  0.750000  0.770643  0.628456  1
  P  P18  1  0.750000  0.729357  0.128456  1
  P  P19  1  0.250000  0.270643  0.871544  1
  P  P20  1  0.250000  0.900437  0.891313  1
  P  P21  1  0.750000  0.099563  0.108687  1
  P  P22  1  0.750000  0.400437  0.608687  1
  P  P23  1  0.250000  0.599563  0.391313  1
  Rh  Rh24  1  0.250000  0.095179  0.985617  1
  Rh  Rh25  1  0.750000  0.904821  0.014383  1
  Rh  Rh26  1  0.750000  0.595179  0.514383  1
  Rh  Rh27  1  0.250000  0.404821  0.485617  1
  Rh  Rh28  1  0.250000  0.271437  0.680058  1
  Rh  Rh29  1  0.750000  0.728563  0.319942  1
  Rh  Rh30  1  0.750000  0.771437  0.819942  1
  Rh  Rh31  1  0.250000  0.228563  0.180058  1
  Rh  Rh32  1  0.250000  0.610371  0.199476  1
  Rh  Rh33  1  0.750000  0.389629  0.800524  1
  Rh  Rh34  1  0.750000  0.110371  0.300524  1
  Rh  Rh35  1  0.250000  0.889629  0.699476  1
