# generated using pymatgen
data_LaB4IrRu3
_symmetry_space_group_name_H-M   'P 1'
_cell_length_a   7.61640197
_cell_length_b   7.62805112
_cell_length_c   4.00776300
_cell_angle_alpha   90.00000000
_cell_angle_beta   90.00000000
_cell_angle_gamma   90.29374683
_symmetry_Int_Tables_number   1
_chemical_formula_structural   LaB4IrRu3
_chemical_formula_sum   'La2 B8 Ir2 Ru6'
_cell_volume   232.84117125
_cell_formula_units_Z   2
loop_
 _symmetry_equiv_pos_site_id
 _symmetry_equiv_pos_as_xyz
  1  'x, y, z'
loop_
 _atom_site_type_symbol
 _atom_site_label
 _atom_site_symmetry_multiplicity
 _atom_site_fract_x
 _atom_site_fract_y
 _atom_site_fract_z
 _atom_site_occupancy
  La  La0  1  0.499635  0.499866  0.999802  1
  La  La1  1  0.999635  0.999866  0.500198  1
  B  B2  1  0.667703  0.787930  0.610030  1
  B  B3  1  0.167703  0.287930  0.889970  1
  B  B4  1  0.285307  0.836868  0.107671  1
  B  B5  1  0.710096  0.162299  0.111446  1
  B  B6  1  0.337560  0.217764  0.607624  1
  B  B7  1  0.837560  0.717764  0.892376  1
  B  B8  1  0.210096  0.662299  0.388554  1
  B  B9  1  0.785307  0.336868  0.392329  1
  Ir  Ir10  1  0.891100  0.351682  0.892565  1
  Ir  Ir11  1  0.391100  0.851682  0.607435  1
  Ru  Ru12  1  0.355908  0.109528  0.106493  1
  Ru  Ru13  1  0.643815  0.889989  0.108122  1
  Ru  Ru14  1  0.608876  0.144075  0.607843  1
  Ru  Ru15  1  0.108876  0.644075  0.892157  1
  Ru  Ru16  1  0.143815  0.389989  0.391878  1
  Ru  Ru17  1  0.855908  0.609528  0.393507  1
