# generated using pymatgen
data_TmU(AlPt2)2
_symmetry_space_group_name_H-M   'P 1'
_cell_length_a   4.36655200
_cell_length_b   4.36655067
_cell_length_c   9.11600400
_cell_angle_alpha   90.00000000
_cell_angle_beta   90.00000000
_cell_angle_gamma   119.99999493
_symmetry_Int_Tables_number   1
_chemical_formula_structural   TmU(AlPt2)2
_chemical_formula_sum   'Tm1 U1 Al2 Pt4'
_cell_volume   150.52627048
_cell_formula_units_Z   1
loop_
 _symmetry_equiv_pos_site_id
 _symmetry_equiv_pos_as_xyz
  1  'x, y, z'
loop_
 _atom_site_type_symbol
 _atom_site_label
 _atom_site_symmetry_multiplicity
 _atom_site_fract_x
 _atom_site_fract_y
 _atom_site_fract_z
 _atom_site_occupancy
  Tm  Tm0  1  0.333333  0.666666  0.750000  1
  U  U1  1  0.666668  0.333335  0.250000  1
  Al  Al2  1  0.000000  0.000000  0.994380  1
  Al  Al3  1  0.000000  0.000000  0.505619  1
  Pt  Pt4  1  0.333333  0.666666  0.085756  1
  Pt  Pt5  1  0.333333  0.666666  0.414243  1
  Pt  Pt6  1  0.666668  0.333335  0.583418  1
  Pt  Pt7  1  0.666668  0.333335  0.916581  1
