# generated using pymatgen
data_Y2CdNiAg
_symmetry_space_group_name_H-M   'P 1'
_cell_length_a   7.76241491
_cell_length_b   7.76241444
_cell_length_c   3.71144600
_cell_angle_alpha   90.00000000
_cell_angle_beta   90.00000000
_cell_angle_gamma   91.92520954
_symmetry_Int_Tables_number   1
_chemical_formula_structural   Y2CdNiAg
_chemical_formula_sum   'Y4 Cd2 Ni2 Ag2'
_cell_volume   223.50724741
_cell_formula_units_Z   2
loop_
 _symmetry_equiv_pos_site_id
 _symmetry_equiv_pos_as_xyz
  1  'x, y, z'
loop_
 _atom_site_type_symbol
 _atom_site_label
 _atom_site_symmetry_multiplicity
 _atom_site_fract_x
 _atom_site_fract_y
 _atom_site_fract_z
 _atom_site_occupancy
  Y  Y0  1  0.695546  0.195546  0.500000  1
  Y  Y1  1  0.304454  0.804454  0.500000  1
  Y  Y2  1  0.157787  0.342213  0.500000  1
  Y  Y3  1  0.842213  0.657787  0.500000  1
  Cd  Cd4  1  0.000000  0.000000  0.000000  1
  Cd  Cd5  1  0.500000  0.500000  0.000000  1
  Ni  Ni6  1  0.116802  0.616802  0.000000  1
  Ni  Ni7  1  0.883198  0.383198  0.000000  1
  Ag  Ag8  1  0.625915  0.874085  0.000000  1
  Ag  Ag9  1  0.374085  0.125915  0.000000  1
