# generated using pymatgen
data_HoTh3Pd7Pt5
_symmetry_space_group_name_H-M   'P 1'
_cell_length_a   5.93371074
_cell_length_b   5.91905972
_cell_length_c   9.74832901
_cell_angle_alpha   90.00000121
_cell_angle_beta   89.81481457
_cell_angle_gamma   119.91836553
_symmetry_Int_Tables_number   1
_chemical_formula_structural   HoTh3Pd7Pt5
_chemical_formula_sum   'Ho1 Th3 Pd7 Pt5'
_cell_volume   296.75192675
_cell_formula_units_Z   1
loop_
 _symmetry_equiv_pos_site_id
 _symmetry_equiv_pos_as_xyz
  1  'x, y, z'
loop_
 _atom_site_type_symbol
 _atom_site_label
 _atom_site_symmetry_multiplicity
 _atom_site_fract_x
 _atom_site_fract_y
 _atom_site_fract_z
 _atom_site_occupancy
  Ho  Ho0  1  0.334799  0.667400  0.250341  1
  Th  Th1  1  0.999990  0.999995  0.495553  1
  Th  Th2  1  0.999898  0.999949  0.004889  1
  Th  Th3  1  0.665812  0.332905  0.750162  1
  Pd  Pd4  1  0.001849  0.500924  0.001657  1
  Pd  Pd5  1  0.825787  0.651038  0.249156  1
  Pd  Pd6  1  0.351030  0.175515  0.248383  1
  Pd  Pd7  1  0.825787  0.174749  0.249156  1
  Pd  Pd8  1  0.173241  0.347786  0.750642  1
  Pd  Pd9  1  0.649973  0.824986  0.751552  1
  Pd  Pd10  1  0.173241  0.825455  0.750642  1
  Pt  Pt11  1  0.499023  0.500832  0.497818  1
  Pt  Pt12  1  0.499023  0.998191  0.497818  1
  Pt  Pt13  1  0.001972  0.500986  0.497623  1
  Pt  Pt14  1  0.499287  0.501025  0.002304  1
  Pt  Pt15  1  0.499287  0.998262  0.002304  1
