# generated using pymatgen
data_Tm3Lu(AlRh)4
_symmetry_space_group_name_H-M   'P 1'
_cell_length_a   4.16898400
_cell_length_b   6.79779512
_cell_length_c   7.93675131
_cell_angle_alpha   90.06580239
_cell_angle_beta   90.00000000
_cell_angle_gamma   90.00000000
_symmetry_Int_Tables_number   1
_chemical_formula_structural   Tm3Lu(AlRh)4
_chemical_formula_sum   'Tm3 Lu1 Al4 Rh4'
_cell_volume   224.92658288
_cell_formula_units_Z   1
loop_
 _symmetry_equiv_pos_site_id
 _symmetry_equiv_pos_as_xyz
  1  'x, y, z'
loop_
 _atom_site_type_symbol
 _atom_site_label
 _atom_site_symmetry_multiplicity
 _atom_site_fract_x
 _atom_site_fract_y
 _atom_site_fract_z
 _atom_site_occupancy
  Tm  Tm0  1  0.750000  0.535797  0.821771  1
  Tm  Tm1  1  0.250000  0.464235  0.178467  1
  Tm  Tm2  1  0.750000  0.035720  0.677960  1
  Lu  Lu3  1  0.250000  0.963972  0.321661  1
  Al  Al4  1  0.750000  0.637308  0.440672  1
  Al  Al5  1  0.750000  0.136729  0.059488  1
  Al  Al6  1  0.250000  0.362867  0.559041  1
  Al  Al7  1  0.250000  0.863164  0.941174  1
  Rh  Rh8  1  0.750000  0.763798  0.124043  1
  Rh  Rh9  1  0.750000  0.262236  0.376326  1
  Rh  Rh10  1  0.250000  0.236970  0.876435  1
  Rh  Rh11  1  0.250000  0.737204  0.622964  1
