# generated using pymatgen
data_LiTb8Co2Ag
_symmetry_space_group_name_H-M   'P 1'
_cell_length_a   9.48966927
_cell_length_b   9.48967001
_cell_length_c   9.49289800
_cell_angle_alpha   59.98874701
_cell_angle_beta   59.98874444
_cell_angle_gamma   60.21025791
_symmetry_Int_Tables_number   1
_chemical_formula_structural   LiTb8Co2Ag
_chemical_formula_sum   'Li2 Tb16 Co4 Ag2'
_cell_volume   605.33700763
_cell_formula_units_Z   2
loop_
 _symmetry_equiv_pos_site_id
 _symmetry_equiv_pos_as_xyz
  1  'x, y, z'
loop_
 _atom_site_type_symbol
 _atom_site_label
 _atom_site_symmetry_multiplicity
 _atom_site_fract_x
 _atom_site_fract_y
 _atom_site_fract_z
 _atom_site_occupancy
  Li  Li0  1  0.818812  0.818812  0.535978  1
  Li  Li1  1  0.818812  0.818812  0.826396  1
  Tb  Tb2  1  0.440163  0.440163  0.059837  1
  Tb  Tb3  1  0.596819  0.596819  0.598130  1
  Tb  Tb4  1  0.188321  0.812617  0.812875  1
  Tb  Tb5  1  0.066365  0.066365  0.433635  1
  Tb  Tb6  1  0.436107  0.065408  0.061960  1
  Tb  Tb7  1  0.812617  0.188321  0.812875  1
  Tb  Tb8  1  0.436107  0.065408  0.436525  1
  Tb  Tb9  1  0.595105  0.217247  0.593825  1
  Tb  Tb10  1  0.810563  0.810563  0.189437  1
  Tb  Tb11  1  0.217247  0.595105  0.593825  1
  Tb  Tb12  1  0.812617  0.188321  0.186187  1
  Tb  Tb13  1  0.065408  0.436107  0.436525  1
  Tb  Tb14  1  0.188321  0.812617  0.186187  1
  Tb  Tb15  1  0.596819  0.596819  0.208232  1
  Tb  Tb16  1  0.187556  0.187556  0.812444  1
  Tb  Tb17  1  0.065408  0.436107  0.061960  1
  Co  Co18  1  0.393494  0.393494  0.388180  1
  Co  Co19  1  0.827955  0.396249  0.387898  1
  Co  Co20  1  0.396249  0.827955  0.387898  1
  Co  Co21  1  0.393494  0.393494  0.824834  1
  Ag  Ag22  1  0.501698  0.833944  0.832178  1
  Ag  Ag23  1  0.833944  0.501698  0.832178  1
