# generated using pymatgen
data_Sc4Be4Fe2IrRh9
_symmetry_space_group_name_H-M   'P 1'
_cell_length_a   9.44110941
_cell_length_b   9.44110941
_cell_length_c   3.12453200
_cell_angle_alpha   90.00000000
_cell_angle_beta   90.00000000
_cell_angle_gamma   89.90265716
_symmetry_Int_Tables_number   1
_chemical_formula_structural   Sc4Be4Fe2IrRh9
_chemical_formula_sum   'Sc4 Be4 Fe2 Ir1 Rh9'
_cell_volume   278.50334191
_cell_formula_units_Z   1
loop_
 _symmetry_equiv_pos_site_id
 _symmetry_equiv_pos_as_xyz
  1  'x, y, z'
loop_
 _atom_site_type_symbol
 _atom_site_label
 _atom_site_symmetry_multiplicity
 _atom_site_fract_x
 _atom_site_fract_y
 _atom_site_fract_z
 _atom_site_occupancy
  Sc  Sc0  1  0.824618  0.324618  0.000000  1
  Sc  Sc1  1  0.324640  0.175360  0.000000  1
  Sc  Sc2  1  0.675360  0.824640  0.000000  1
  Sc  Sc3  1  0.175382  0.675382  0.000000  1
  Be  Be4  1  0.624307  0.124307  0.000000  1
  Be  Be5  1  0.123875  0.376125  0.000000  1
  Be  Be6  1  0.876125  0.623875  0.000000  1
  Be  Be7  1  0.375693  0.875693  0.000000  1
  Fe  Fe8  1  0.000000  0.000000  0.000000  1
  Fe  Fe9  1  0.500000  0.500000  0.000000  1
  Ir  Ir10  1  0.500000  0.000000  0.500000  1
  Rh  Rh11  1  0.069199  0.208508  0.500000  1
  Rh  Rh12  1  0.207918  0.930172  0.500000  1
  Rh  Rh13  1  0.792082  0.069828  0.500000  1
  Rh  Rh14  1  0.930801  0.791492  0.500000  1
  Rh  Rh15  1  0.430172  0.707918  0.500000  1
  Rh  Rh16  1  0.569828  0.292082  0.500000  1
  Rh  Rh17  1  0.708508  0.569199  0.500000  1
  Rh  Rh18  1  0.291492  0.430801  0.500000  1
  Rh  Rh19  1  0.000000  0.500000  0.500000  1
