# generated using pymatgen
data_La5Pr3(DyIr2)2
_symmetry_space_group_name_H-M   'P 1'
_cell_length_a   6.70396629
_cell_length_b   7.29406908
_cell_length_c   9.13885539
_cell_angle_alpha   95.81233130
_cell_angle_beta   111.66250185
_cell_angle_gamma   90.22438536
_symmetry_Int_Tables_number   1
_chemical_formula_structural   La5Pr3(DyIr2)2
_chemical_formula_sum   'La5 Pr3 Dy2 Ir4'
_cell_volume   412.77369780
_cell_formula_units_Z   1
loop_
 _symmetry_equiv_pos_site_id
 _symmetry_equiv_pos_as_xyz
  1  'x, y, z'
loop_
 _atom_site_type_symbol
 _atom_site_label
 _atom_site_symmetry_multiplicity
 _atom_site_fract_x
 _atom_site_fract_y
 _atom_site_fract_z
 _atom_site_occupancy
  La  La0  1  0.796077  0.079566  0.816002  1
  La  La1  1  0.981814  0.416365  0.183262  1
  La  La2  1  0.204792  0.918786  0.186314  1
  La  La3  1  0.016542  0.585423  0.817911  1
  La  La4  1  0.218309  0.185142  0.575474  1
  Pr  Pr5  1  0.642054  0.314986  0.425654  1
  Pr  Pr6  1  0.783589  0.813005  0.427337  1
  Pr  Pr7  1  0.356918  0.685098  0.572838  1
  Dy  Dy8  1  0.439251  0.250567  0.001578  1
  Dy  Dy9  1  0.562623  0.750130  0.999245  1
  Ir  Ir10  1  0.603235  0.425390  0.791953  1
  Ir  Ir11  1  0.812338  0.074192  0.211767  1
  Ir  Ir12  1  0.394122  0.573553  0.204552  1
  Ir  Ir13  1  0.188337  0.927796  0.786114  1
