# generated using pymatgen
data_Ho4Er8In2Fe2Ru
_symmetry_space_group_name_H-M   'P 1'
_cell_length_a   8.30879071
_cell_length_b   8.30856079
_cell_length_c   8.30879017
_cell_angle_alpha   108.70043100
_cell_angle_beta   108.70296242
_cell_angle_gamma   111.02263592
_symmetry_Int_Tables_number   1
_chemical_formula_structural   Ho4Er8In2Fe2Ru
_chemical_formula_sum   'Ho4 Er8 In2 Fe2 Ru1'
_cell_volume   441.29996457
_cell_formula_units_Z   1
loop_
 _symmetry_equiv_pos_site_id
 _symmetry_equiv_pos_as_xyz
  1  'x, y, z'
loop_
 _atom_site_type_symbol
 _atom_site_label
 _atom_site_symmetry_multiplicity
 _atom_site_fract_x
 _atom_site_fract_y
 _atom_site_fract_z
 _atom_site_occupancy
  Ho  Ho0  1  0.306672  0.306682  0.613349  1
  Ho  Ho1  1  0.693328  0.693318  0.386651  1
  Ho  Ho2  1  0.306667  0.693318  0.999990  1
  Ho  Ho3  1  0.693333  0.306682  0.000010  1
  Er  Er4  1  0.431534  0.192973  0.238558  1
  Er  Er5  1  0.568466  0.807027  0.761442  1
  Er  Er6  1  0.954416  0.192973  0.761439  1
  Er  Er7  1  0.192958  0.954403  0.761444  1
  Er  Er8  1  0.045584  0.807027  0.238561  1
  Er  Er9  1  0.807042  0.045597  0.238556  1
  Er  Er10  1  0.192967  0.431524  0.238557  1
  Er  Er11  1  0.807033  0.568476  0.761443  1
  In  In12  1  0.500000  0.000000  0.500000  1
  In  In13  1  0.000000  0.500000  0.500000  1
  Fe  Fe14  1  0.384694  0.384684  0.999990  1
  Fe  Fe15  1  0.615306  0.615316  0.000010  1
  Ru  Ru16  1  0.000000  0.000000  0.000000  1
