# generated using pymatgen
data_Ho20Bi8Os3Rh
_symmetry_space_group_name_H-M   'P 1'
_cell_length_a   7.96138825
_cell_length_b   9.01835900
_cell_length_c   12.44311542
_cell_angle_alpha   90.00000000
_cell_angle_beta   89.90141843
_cell_angle_gamma   90.00000000
_symmetry_Int_Tables_number   1
_chemical_formula_structural   Ho20Bi8Os3Rh
_chemical_formula_sum   'Ho20 Bi8 Os3 Rh1'
_cell_volume   893.39765851
_cell_formula_units_Z   1
loop_
 _symmetry_equiv_pos_site_id
 _symmetry_equiv_pos_as_xyz
  1  'x, y, z'
loop_
 _atom_site_type_symbol
 _atom_site_label
 _atom_site_symmetry_multiplicity
 _atom_site_fract_x
 _atom_site_fract_y
 _atom_site_fract_z
 _atom_site_occupancy
  Ho  Ho0  1  0.340773  0.750000  0.708153  1
  Ho  Ho1  1  0.658461  0.250000  0.292333  1
  Ho  Ho2  1  0.841791  0.250000  0.791359  1
  Ho  Ho3  1  0.156610  0.750000  0.206625  1
  Ho  Ho4  1  0.879031  0.750000  0.806112  1
  Ho  Ho5  1  0.119823  0.250000  0.193682  1
  Ho  Ho6  1  0.378644  0.250000  0.692810  1
  Ho  Ho7  1  0.622520  0.750000  0.307301  1
  Ho  Ho8  1  0.676932  0.539749  0.565025  1
  Ho  Ho9  1  0.324099  0.453509  0.435454  1
  Ho  Ho10  1  0.174056  0.457339  0.936330  1
  Ho  Ho11  1  0.324099  0.046491  0.435454  1
  Ho  Ho12  1  0.824782  0.543435  0.063998  1
  Ho  Ho13  1  0.676932  0.960251  0.565025  1
  Ho  Ho14  1  0.824782  0.956565  0.063998  1
  Ho  Ho15  1  0.174056  0.042661  0.936330  1
  Ho  Ho16  1  0.052916  0.750000  0.496992  1
  Ho  Ho17  1  0.944562  0.250000  0.502677  1
  Ho  Ho18  1  0.559015  0.250000  0.003604  1
  Ho  Ho19  1  0.441797  0.750000  0.996387  1
  Bi  Bi20  1  0.569787  0.508465  0.827702  1
  Bi  Bi21  1  0.430178  0.491924  0.172644  1
  Bi  Bi22  1  0.070739  0.491772  0.671751  1
  Bi  Bi23  1  0.430178  0.008076  0.172644  1
  Bi  Bi24  1  0.930016  0.508792  0.328263  1
  Bi  Bi25  1  0.569787  0.991535  0.827702  1
  Bi  Bi26  1  0.930016  0.991208  0.328263  1
  Bi  Bi27  1  0.070739  0.008228  0.671751  1
  Os  Os28  1  0.075822  0.750000  0.988728  1
  Os  Os29  1  0.924025  0.250000  0.010003  1
  Os  Os30  1  0.575314  0.250000  0.510524  1
  Rh  Rh31  1  0.427721  0.750000  0.490379  1
