# generated using pymatgen
data_Dy3Er7Sn5Bi
_symmetry_space_group_name_H-M   'P 1'
_cell_length_a   8.93618700
_cell_length_b   8.94423857
_cell_length_c   6.49110100
_cell_angle_alpha   90.00000000
_cell_angle_beta   90.00000000
_cell_angle_gamma   119.97022252
_symmetry_Int_Tables_number   1
_chemical_formula_structural   Dy3Er7Sn5Bi
_chemical_formula_sum   'Dy3 Er7 Sn5 Bi1'
_cell_volume   449.44324398
_cell_formula_units_Z   1
loop_
 _symmetry_equiv_pos_site_id
 _symmetry_equiv_pos_as_xyz
  1  'x, y, z'
loop_
 _atom_site_type_symbol
 _atom_site_label
 _atom_site_symmetry_multiplicity
 _atom_site_fract_x
 _atom_site_fract_y
 _atom_site_fract_z
 _atom_site_occupancy
  Dy  Dy0  1  0.993648  0.757543  0.750000  1
  Dy  Dy1  1  0.764770  0.000000  0.750000  1
  Dy  Dy2  1  0.236105  0.242457  0.750000  1
  Er  Er3  1  0.000629  0.238938  0.250000  1
  Er  Er4  1  0.761691  0.761062  0.250000  1
  Er  Er5  1  0.237565  0.000000  0.250000  1
  Er  Er6  1  0.332863  0.662352  0.498238  1
  Er  Er7  1  0.670512  0.337648  0.001762  1
  Er  Er8  1  0.670512  0.337648  0.498238  1
  Er  Er9  1  0.332863  0.662352  0.001762  1
  Sn  Sn10  1  0.395418  0.393040  0.250000  1
  Sn  Sn11  1  0.002378  0.606960  0.250000  1
  Sn  Sn12  1  0.999146  0.396086  0.750000  1
  Sn  Sn13  1  0.603060  0.603914  0.750000  1
  Sn  Sn14  1  0.605548  0.000000  0.250000  1
  Bi  Bi15  1  0.393290  0.000000  0.750000  1
