# generated using pymatgen
data_Tb2Tm2GaCo4
_symmetry_space_group_name_H-M   'P 1'
_cell_length_a   5.45849759
_cell_length_b   5.45849605
_cell_length_c   8.81540073
_cell_angle_alpha   71.09776778
_cell_angle_beta   71.09777175
_cell_angle_gamma   43.20979789
_symmetry_Int_Tables_number   1
_chemical_formula_structural   Tb2Tm2GaCo4
_chemical_formula_sum   'Tb2 Tm2 Ga1 Co4'
_cell_volume   168.56396797
_cell_formula_units_Z   1
loop_
 _symmetry_equiv_pos_site_id
 _symmetry_equiv_pos_as_xyz
  1  'x, y, z'
loop_
 _atom_site_type_symbol
 _atom_site_label
 _atom_site_symmetry_multiplicity
 _atom_site_fract_x
 _atom_site_fract_y
 _atom_site_fract_z
 _atom_site_occupancy
  Tb  Tb0  1  0.745975  0.745975  0.663794  1
  Tb  Tb1  1  0.254025  0.254025  0.336206  1
  Tm  Tm2  1  0.391448  0.391448  0.886793  1
  Tm  Tm3  1  0.608552  0.608552  0.113207  1
  Ga  Ga4  1  0.500000  0.500000  0.500000  1
  Co  Co5  1  0.035863  0.035863  0.647315  1
  Co  Co6  1  0.964137  0.964137  0.352685  1
  Co  Co7  1  0.093905  0.093905  0.882188  1
  Co  Co8  1  0.906095  0.906095  0.117812  1
