# generated using pymatgen
data_Y5Ho3Si12PtRh3
_symmetry_space_group_name_H-M   'P 1'
_cell_length_a   8.17188700
_cell_length_b   8.17196343
_cell_length_c   7.92731600
_cell_angle_alpha   90.00015585
_cell_angle_beta   89.99998576
_cell_angle_gamma   119.99983772
_symmetry_Int_Tables_number   1
_chemical_formula_structural   Y5Ho3Si12PtRh3
_chemical_formula_sum   'Y5 Ho3 Si12 Pt1 Rh3'
_cell_volume   458.46509798
_cell_formula_units_Z   1
loop_
 _symmetry_equiv_pos_site_id
 _symmetry_equiv_pos_as_xyz
  1  'x, y, z'
loop_
 _atom_site_type_symbol
 _atom_site_label
 _atom_site_symmetry_multiplicity
 _atom_site_fract_x
 _atom_site_fract_y
 _atom_site_fract_z
 _atom_site_occupancy
  Y  Y0  1  0.999998  0.000001  0.249275  1
  Y  Y1  1  0.000002  0.000002  0.751399  1
  Y  Y2  1  0.509949  0.490051  0.247740  1
  Y  Y3  1  0.509947  0.019899  0.247740  1
  Y  Y4  1  0.980107  0.490054  0.247737  1
  Ho  Ho5  1  0.491619  0.508374  0.752017  1
  Ho  Ho6  1  0.491622  0.983237  0.752019  1
  Ho  Ho7  1  0.016758  0.508380  0.752017  1
  Si  Si8  1  0.164574  0.835427  0.501059  1
  Si  Si9  1  0.164573  0.329147  0.501058  1
  Si  Si10  1  0.670856  0.835429  0.501056  1
  Si  Si11  1  0.831821  0.168177  0.500776  1
  Si  Si12  1  0.831823  0.663644  0.500775  1
  Si  Si13  1  0.336356  0.168177  0.500778  1
  Si  Si14  1  0.832945  0.167054  0.998625  1
  Si  Si15  1  0.832944  0.665889  0.998627  1
  Si  Si16  1  0.334108  0.167056  0.998626  1
  Si  Si17  1  0.166987  0.833016  0.999406  1
  Si  Si18  1  0.166985  0.333970  0.999405  1
  Si  Si19  1  0.666027  0.833013  0.999405  1
  Pt  Pt20  1  0.333335  0.666668  0.469965  1
  Rh  Rh21  1  0.666667  0.333336  0.538861  1
  Rh  Rh22  1  0.666665  0.333333  0.961165  1
  Rh  Rh23  1  0.333334  0.666665  0.030470  1
