# generated using pymatgen
data_Er2Al2ZnCu7
_symmetry_space_group_name_H-M   'P 1'
_cell_length_a   4.18150000
_cell_length_b   5.07731404
_cell_length_c   8.82707200
_cell_angle_alpha   90.77213132
_cell_angle_beta   90.00000000
_cell_angle_gamma   90.00000000
_symmetry_Int_Tables_number   1
_chemical_formula_structural   Er2Al2ZnCu7
_chemical_formula_sum   'Er2 Al2 Zn1 Cu7'
_cell_volume   187.38868293
_cell_formula_units_Z   1
loop_
 _symmetry_equiv_pos_site_id
 _symmetry_equiv_pos_as_xyz
  1  'x, y, z'
loop_
 _atom_site_type_symbol
 _atom_site_label
 _atom_site_symmetry_multiplicity
 _atom_site_fract_x
 _atom_site_fract_y
 _atom_site_fract_z
 _atom_site_occupancy
  Er  Er0  1  0.000000  0.002466  0.998454  1
  Er  Er1  1  0.000000  0.497494  0.501537  1
  Al  Al2  1  0.500000  0.511686  0.996480  1
  Al  Al3  1  0.500000  0.988281  0.503526  1
  Zn  Zn4  1  0.500000  0.249962  0.249992  1
  Cu  Cu5  1  0.000000  0.994353  0.335215  1
  Cu  Cu6  1  0.000000  0.499391  0.832733  1
  Cu  Cu7  1  0.000000  0.505581  0.164784  1
  Cu  Cu8  1  0.000000  0.000599  0.667271  1
  Cu  Cu9  1  0.500000  0.750005  0.750006  1
  Cu  Cu10  1  0.500000  0.749979  0.250007  1
  Cu  Cu11  1  0.500000  0.250003  0.749992  1
