# generated using pymatgen
data_Tb5YAl16Os7
_symmetry_space_group_name_H-M   'P 1'
_cell_length_a   8.96939051
_cell_length_b   8.96944252
_cell_length_c   8.96944209
_cell_angle_alpha   59.99963263
_cell_angle_beta   60.00018938
_cell_angle_gamma   60.00019029
_symmetry_Int_Tables_number   1
_chemical_formula_structural   Tb5YAl16Os7
_chemical_formula_sum   'Tb5 Y1 Al16 Os7'
_cell_volume   510.24511618
_cell_formula_units_Z   1
loop_
 _symmetry_equiv_pos_site_id
 _symmetry_equiv_pos_as_xyz
  1  'x, y, z'
loop_
 _atom_site_type_symbol
 _atom_site_label
 _atom_site_symmetry_multiplicity
 _atom_site_fract_x
 _atom_site_fract_y
 _atom_site_fract_z
 _atom_site_occupancy
  Tb  Tb0  1  0.712471  0.711515  0.287529  1
  Tb  Tb1  1  0.288485  0.711515  0.287529  1
  Tb  Tb2  1  0.712786  0.287214  0.287214  1
  Tb  Tb3  1  0.288485  0.287529  0.711515  1
  Tb  Tb4  1  0.712471  0.287529  0.711515  1
  Y  Y5  1  0.288036  0.711964  0.711964  1
  Al  Al6  1  0.879111  0.878159  0.363618  1
  Al  Al7  1  0.879111  0.363618  0.878159  1
  Al  Al8  1  0.361762  0.879396  0.879396  1
  Al  Al9  1  0.879444  0.879396  0.879396  1
  Al  Al10  1  0.120604  0.120556  0.638238  1
  Al  Al11  1  0.120604  0.638238  0.120556  1
  Al  Al12  1  0.636382  0.120889  0.120889  1
  Al  Al13  1  0.121841  0.120889  0.120889  1
  Al  Al14  1  0.667931  0.668670  0.995470  1
  Al  Al15  1  0.667931  0.995470  0.668670  1
  Al  Al16  1  0.997504  0.667673  0.667673  1
  Al  Al17  1  0.667152  0.667673  0.667673  1
  Al  Al18  1  0.332327  0.332848  0.002496  1
  Al  Al19  1  0.332327  0.002496  0.332848  1
  Al  Al20  1  0.004530  0.332069  0.332069  1
  Al  Al21  1  0.331330  0.332069  0.332069  1
  Os  Os22  1  0.999278  0.000722  0.000722  1
  Os  Os23  1  0.999625  0.000375  0.500393  1
  Os  Os24  1  0.499607  0.000375  0.500393  1
  Os  Os25  1  0.999815  0.500185  0.500185  1
  Os  Os26  1  0.499607  0.500393  0.000375  1
  Os  Os27  1  0.999625  0.500393  0.000375  1
  Os  Os28  1  0.499815  0.000185  0.000185  1
