# generated using pymatgen
data_Tm4In(FeSi2)2
_symmetry_space_group_name_H-M   'P 1'
_cell_length_a   4.11540972
_cell_length_b   6.85376205
_cell_length_c   7.85424800
_cell_angle_alpha   106.60347986
_cell_angle_beta   105.18795537
_cell_angle_gamma   89.99999166
_symmetry_Int_Tables_number   1
_chemical_formula_structural   Tm4In(FeSi2)2
_chemical_formula_sum   'Tm4 In1 Fe2 Si4'
_cell_volume   204.21263570
_cell_formula_units_Z   1
loop_
 _symmetry_equiv_pos_site_id
 _symmetry_equiv_pos_as_xyz
  1  'x, y, z'
loop_
 _atom_site_type_symbol
 _atom_site_label
 _atom_site_symmetry_multiplicity
 _atom_site_fract_x
 _atom_site_fract_y
 _atom_site_fract_z
 _atom_site_occupancy
  Tm  Tm0  1  0.589728  0.386449  0.179457  1
  Tm  Tm1  1  0.653975  0.939127  0.307951  1
  Tm  Tm2  1  0.346024  0.060873  0.692050  1
  Tm  Tm3  1  0.410272  0.613550  0.820543  1
  In  In4  1  0.000000  0.000000  0.000000  1
  Fe  Fe5  1  0.219258  0.627353  0.438516  1
  Fe  Fe6  1  0.780741  0.372648  0.561484  1
  Si  Si7  1  0.067262  0.651657  0.134525  1
  Si  Si8  1  0.210876  0.281132  0.421754  1
  Si  Si9  1  0.789123  0.718868  0.578246  1
  Si  Si10  1  0.932738  0.348342  0.865476  1
