# generated using pymatgen
data_Tb20Si15Rh
_symmetry_space_group_name_H-M   'P 1'
_cell_length_a   7.48485473
_cell_length_b   7.70134440
_cell_length_c   14.64634373
_cell_angle_alpha   90.37316657
_cell_angle_beta   90.39409844
_cell_angle_gamma   90.07320847
_symmetry_Int_Tables_number   1
_chemical_formula_structural   Tb20Si15Rh
_chemical_formula_sum   'Tb20 Si15 Rh1'
_cell_volume   844.22707971
_cell_formula_units_Z   1
loop_
 _symmetry_equiv_pos_site_id
 _symmetry_equiv_pos_as_xyz
  1  'x, y, z'
loop_
 _atom_site_type_symbol
 _atom_site_label
 _atom_site_symmetry_multiplicity
 _atom_site_fract_x
 _atom_site_fract_y
 _atom_site_fract_z
 _atom_site_occupancy
  Tb  Tb0  1  0.681843  0.166629  0.617536  1
  Tb  Tb1  1  0.184616  0.321802  0.876546  1
  Tb  Tb2  1  0.321048  0.817825  0.121714  1
  Tb  Tb3  1  0.816412  0.687935  0.382650  1
  Tb  Tb4  1  0.323679  0.823461  0.378494  1
  Tb  Tb5  1  0.817136  0.681526  0.122304  1
  Tb  Tb6  1  0.680819  0.181520  0.877559  1
  Tb  Tb7  1  0.178026  0.320229  0.623234  1
  Tb  Tb8  1  0.525576  0.682725  0.597987  1
  Tb  Tb9  1  0.029760  0.816685  0.901017  1
  Tb  Tb10  1  0.469157  0.315161  0.100302  1
  Tb  Tb11  1  0.972155  0.179446  0.400434  1
  Tb  Tb12  1  0.470667  0.315884  0.401608  1
  Tb  Tb13  1  0.969517  0.182949  0.099272  1
  Tb  Tb14  1  0.531557  0.682930  0.899918  1
  Tb  Tb15  1  0.027347  0.816624  0.600126  1
  Tb  Tb16  1  0.850914  0.507222  0.748688  1
  Tb  Tb17  1  0.352595  0.989325  0.747632  1
  Tb  Tb18  1  0.147621  0.490044  0.252207  1
  Tb  Tb19  1  0.652709  0.012043  0.258031  1
  Si  Si20  1  0.144417  0.527308  0.040244  1
  Si  Si21  1  0.354170  0.029040  0.959901  1
  Si  Si22  1  0.853603  0.472812  0.541758  1
  Si  Si23  1  0.344688  0.027708  0.540957  1
  Si  Si24  1  0.857483  0.471940  0.959376  1
  Si  Si25  1  0.643963  0.971666  0.038697  1
  Si  Si26  1  0.146256  0.531106  0.461543  1
  Si  Si27  1  0.478544  0.393451  0.748352  1
  Si  Si28  1  0.976244  0.102954  0.751555  1
  Si  Si29  1  0.524429  0.602422  0.248695  1
  Si  Si30  1  0.028440  0.894637  0.246942  1
  Si  Si31  1  0.736382  0.872083  0.751635  1
  Si  Si32  1  0.235711  0.626384  0.750598  1
  Si  Si33  1  0.264137  0.126046  0.246836  1
  Si  Si34  1  0.766163  0.377374  0.248899  1
  Rh  Rh35  1  0.642214  0.981104  0.456756  1
