# generated using pymatgen
data_Dy2UTc2Rh
_symmetry_space_group_name_H-M   'P 1'
_cell_length_a   5.83490014
_cell_length_b   5.85277613
_cell_length_c   8.11036900
_cell_angle_alpha   90.00000000
_cell_angle_beta   90.00000000
_cell_angle_gamma   120.10137284
_symmetry_Int_Tables_number   1
_chemical_formula_structural   Dy2UTc2Rh
_chemical_formula_sum   'Dy4 U2 Tc4 Rh2'
_cell_volume   239.61943883
_cell_formula_units_Z   2
loop_
 _symmetry_equiv_pos_site_id
 _symmetry_equiv_pos_as_xyz
  1  'x, y, z'
loop_
 _atom_site_type_symbol
 _atom_site_label
 _atom_site_symmetry_multiplicity
 _atom_site_fract_x
 _atom_site_fract_y
 _atom_site_fract_z
 _atom_site_occupancy
  Dy  Dy0  1  0.336438  0.668219  0.441369  1
  Dy  Dy1  1  0.670153  0.335076  0.557435  1
  Dy  Dy2  1  0.670153  0.335076  0.942565  1
  Dy  Dy3  1  0.336438  0.668219  0.058631  1
  U  U4  1  0.013632  0.006816  0.502757  1
  U  U5  1  0.013632  0.006816  0.997243  1
  Tc  Tc6  1  0.316100  0.158051  0.250000  1
  Tc  Tc7  1  0.164737  0.842535  0.750000  1
  Tc  Tc8  1  0.164737  0.322200  0.750000  1
  Tc  Tc9  1  0.674714  0.837356  0.750000  1
  Rh  Rh10  1  0.819633  0.163228  0.250000  1
  Rh  Rh11  1  0.819633  0.656406  0.250000  1
