# generated using pymatgen
data_TmLuPdPtF14
_symmetry_space_group_name_H-M   'P 1'
_cell_length_a   5.47224855
_cell_length_b   8.72069631
_cell_length_c   11.82041841
_cell_angle_alpha   62.78138910
_cell_angle_beta   89.88660587
_cell_angle_gamma   90.06693905
_symmetry_Int_Tables_number   1
_chemical_formula_structural   TmLuPdPtF14
_chemical_formula_sum   'Tm2 Lu2 Pd2 Pt2 F28'
_cell_volume   501.62640409
_cell_formula_units_Z   2
loop_
 _symmetry_equiv_pos_site_id
 _symmetry_equiv_pos_as_xyz
  1  'x, y, z'
loop_
 _atom_site_type_symbol
 _atom_site_label
 _atom_site_symmetry_multiplicity
 _atom_site_fract_x
 _atom_site_fract_y
 _atom_site_fract_z
 _atom_site_occupancy
  Tm  Tm0  1  0.261354  0.816033  0.262913  1
  Tm  Tm1  1  0.738646  0.183967  0.737087  1
  Lu  Lu2  1  0.762914  0.186374  0.234503  1
  Lu  Lu3  1  0.237086  0.813626  0.765497  1
  Pd  Pd4  1  0.759774  0.727148  0.042878  1
  Pd  Pd5  1  0.240226  0.272852  0.957122  1
  Pt  Pt6  1  0.260361  0.271800  0.456062  1
  Pt  Pt7  1  0.739639  0.728200  0.543938  1
  F  F8  1  0.937665  0.700772  0.415667  1
  F  F9  1  0.062335  0.299228  0.584333  1
  F  F10  1  0.436151  0.300164  0.083767  1
  F  F11  1  0.563849  0.699836  0.916233  1
  F  F12  1  0.465053  0.723914  0.136270  1
  F  F13  1  0.534947  0.276086  0.863730  1
  F  F14  1  0.964750  0.276853  0.360085  1
  F  F15  1  0.035250  0.723147  0.639915  1
  F  F16  1  0.948656  0.746759  0.176033  1
  F  F17  1  0.051344  0.253241  0.823967  1
  F  F18  1  0.452783  0.251988  0.322022  1
  F  F19  1  0.547217  0.748012  0.677978  1
  F  F20  1  0.777970  0.476630  0.141807  1
  F  F21  1  0.222030  0.523370  0.858193  1
  F  F22  1  0.279549  0.524492  0.355846  1
  F  F23  1  0.720451  0.475508  0.644154  1
  F  F24  1  0.935994  0.277263  0.043074  1
  F  F25  1  0.064006  0.722737  0.956926  1
  F  F26  1  0.435753  0.724430  0.455939  1
  F  F27  1  0.564247  0.275570  0.544061  1
  F  F28  1  0.747445  0.980697  0.448530  1
  F  F29  1  0.252555  0.019303  0.551470  1
  F  F30  1  0.247132  0.023046  0.049334  1
  F  F31  1  0.752868  0.976954  0.950666  1
  F  F32  1  0.583455  0.973731  0.231793  1
  F  F33  1  0.416545  0.026269  0.768207  1
  F  F34  1  0.080992  0.030602  0.266425  1
  F  F35  1  0.919008  0.969398  0.733575  1
