# generated using pymatgen
data_Sr12Mg5Ni(PO4)12
_symmetry_space_group_name_H-M   'P 1'
_cell_length_a   10.13816860
_cell_length_b   9.13983592
_cell_length_c   11.84046244
_cell_angle_alpha   82.13265566
_cell_angle_beta   89.97278587
_cell_angle_gamma   89.93782031
_symmetry_Int_Tables_number   1
_chemical_formula_structural   Sr12Mg5Ni(PO4)12
_chemical_formula_sum   'Sr12 Mg5 Ni1 P12 O48'
_cell_volume   1086.82394532
_cell_formula_units_Z   1
loop_
 _symmetry_equiv_pos_site_id
 _symmetry_equiv_pos_as_xyz
  1  'x, y, z'
loop_
 _atom_site_type_symbol
 _atom_site_label
 _atom_site_symmetry_multiplicity
 _atom_site_fract_x
 _atom_site_fract_y
 _atom_site_fract_z
 _atom_site_occupancy
  Sr  Sr0  1  0.852461  0.166792  0.849374  1
  Sr  Sr1  1  0.352533  0.334457  0.150853  1
  Sr  Sr2  1  0.147539  0.833208  0.150626  1
  Sr  Sr3  1  0.647467  0.665543  0.849147  1
  Sr  Sr4  1  0.115697  0.694724  0.504628  1
  Sr  Sr5  1  0.615834  0.805351  0.495269  1
  Sr  Sr6  1  0.884303  0.305276  0.495372  1
  Sr  Sr7  1  0.384166  0.194649  0.504731  1
  Sr  Sr8  1  0.727044  0.167221  0.190525  1
  Sr  Sr9  1  0.226684  0.334570  0.809721  1
  Sr  Sr10  1  0.272956  0.832779  0.809475  1
  Sr  Sr11  1  0.773316  0.665430  0.190279  1
  Mg  Mg12  1  0.888438  0.872966  0.675782  1
  Mg  Mg13  1  0.388593  0.627350  0.324228  1
  Mg  Mg14  1  0.111562  0.127034  0.324218  1
  Mg  Mg15  1  0.611407  0.372650  0.675772  1
  Mg  Mg16  1  0.500000  0.000000  0.000000  1
  Ni  Ni17  1  0.000000  0.500000  0.000000  1
  P  P18  1  0.431020  0.710836  0.042596  1
  P  P19  1  0.931218  0.788116  0.957015  1
  P  P20  1  0.568980  0.289164  0.957404  1
  P  P21  1  0.068782  0.211884  0.042985  1
  P  P22  1  0.072910  0.507648  0.287105  1
  P  P23  1  0.572804  0.992247  0.712631  1
  P  P24  1  0.927090  0.492352  0.712895  1
  P  P25  1  0.427196  0.007753  0.287369  1
  P  P26  1  0.398276  0.560777  0.625632  1
  P  P27  1  0.898376  0.939044  0.374070  1
  P  P28  1  0.601724  0.439223  0.374368  1
  P  P29  1  0.101624  0.060956  0.625930  1
  O  O30  1  0.574650  0.769117  0.056172  1
  O  O31  1  0.074760  0.729157  0.943081  1
  O  O32  1  0.425350  0.230883  0.943828  1
  O  O33  1  0.925240  0.270843  0.056919  1
  O  O34  1  0.381926  0.612671  0.150820  1
  O  O35  1  0.882344  0.887370  0.849318  1
  O  O36  1  0.618074  0.387329  0.849180  1
  O  O37  1  0.117656  0.112630  0.150682  1
  O  O38  1  0.418048  0.631838  0.936335  1
  O  O39  1  0.918200  0.866845  0.063334  1
  O  O40  1  0.581952  0.368162  0.063665  1
  O  O41  1  0.081800  0.133155  0.936666  1
  O  O42  1  0.343450  0.856437  0.020176  1
  O  O43  1  0.843454  0.642558  0.979106  1
  O  O44  1  0.656550  0.143563  0.979824  1
  O  O45  1  0.156546  0.357442  0.020894  1
  O  O46  1  0.188176  0.611105  0.314687  1
  O  O47  1  0.687972  0.887913  0.685655  1
  O  O48  1  0.811824  0.388895  0.685313  1
  O  O49  1  0.312028  0.112087  0.314345  1
  O  O50  1  0.962425  0.527527  0.374287  1
  O  O51  1  0.462368  0.972163  0.625554  1
  O  O52  1  0.037575  0.472473  0.625713  1
  O  O53  1  0.537632  0.027837  0.374446  1
  O  O54  1  0.124605  0.348721  0.294625  1
  O  O55  1  0.625021  0.151079  0.704175  1
  O  O56  1  0.875395  0.651279  0.705375  1
  O  O57  1  0.374979  0.848921  0.295825  1
  O  O58  1  0.019254  0.566783  0.165722  1
  O  O59  1  0.519314  0.935494  0.834331  1
  O  O60  1  0.133463  0.130351  0.501631  1
  O  O61  1  0.633710  0.369876  0.498532  1
  O  O62  1  0.866537  0.869649  0.498369  1
  O  O63  1  0.366290  0.630124  0.501468  1
  O  O64  1  0.956473  0.101784  0.655246  1
  O  O65  1  0.456824  0.398201  0.344986  1
  O  O66  1  0.043527  0.898216  0.344754  1
  O  O67  1  0.543176  0.601799  0.655014  1
  O  O68  1  0.101713  0.887310  0.641999  1
  O  O69  1  0.601588  0.612826  0.358091  1
  O  O70  1  0.898287  0.112690  0.358001  1
  O  O71  1  0.398412  0.387174  0.641909  1
  O  O72  1  0.206439  0.112521  0.705946  1
  O  O73  1  0.706869  0.387759  0.294435  1
  O  O74  1  0.793561  0.887479  0.294054  1
  O  O75  1  0.293131  0.612241  0.705565  1
  O  O76  1  0.480686  0.064506  0.165669  1
  O  O77  1  0.980746  0.433217  0.834278  1
