# generated using pymatgen
data_Mn28Ga
_symmetry_space_group_name_H-M   'P 1'
_cell_length_a   7.49621187
_cell_length_b   7.50116127
_cell_length_c   7.49508800
_cell_angle_alpha   109.48666228
_cell_angle_beta   109.47072375
_cell_angle_gamma   109.50941935
_symmetry_Int_Tables_number   1
_chemical_formula_structural   Mn28Ga
_chemical_formula_sum   'Mn28 Ga1'
_cell_volume   324.22014750
_cell_formula_units_Z   1
loop_
 _symmetry_equiv_pos_site_id
 _symmetry_equiv_pos_as_xyz
  1  'x, y, z'
loop_
 _atom_site_type_symbol
 _atom_site_label
 _atom_site_symmetry_multiplicity
 _atom_site_fract_x
 _atom_site_fract_y
 _atom_site_fract_z
 _atom_site_occupancy
  Mn  Mn0  1  0.631299  0.999913  0.999995  1
  Mn  Mn1  1  0.000009  0.631341  0.999991  1
  Mn  Mn2  1  0.999939  0.999962  0.631306  1
  Mn  Mn3  1  0.368685  0.368543  0.368687  1
  Mn  Mn4  1  0.388281  0.675960  0.999982  1
  Mn  Mn5  1  0.712453  0.323979  0.324074  1
  Mn  Mn6  1  0.388409  0.000066  0.675904  1
  Mn  Mn7  1  0.676011  0.388356  0.999993  1
  Mn  Mn8  1  0.000000  0.388444  0.676035  1
  Mn  Mn9  1  0.324047  0.712473  0.324002  1
  Mn  Mn10  1  0.324016  0.324121  0.712492  1
  Mn  Mn11  1  0.999998  0.675932  0.388349  1
  Mn  Mn12  1  0.675941  0.000127  0.388417  1
  Mn  Mn13  1  0.611619  0.611607  0.287469  1
  Mn  Mn14  1  0.287486  0.611570  0.611667  1
  Mn  Mn15  1  0.611654  0.287545  0.611597  1
  Mn  Mn16  1  0.372640  0.195305  0.000057  1
  Mn  Mn17  1  0.177586  0.804726  0.804827  1
  Mn  Mn18  1  0.372672  0.999983  0.195245  1
  Mn  Mn19  1  0.195212  0.372629  0.999884  1
  Mn  Mn20  1  0.999981  0.372682  0.195219  1
  Mn  Mn21  1  0.804837  0.177550  0.804745  1
  Mn  Mn22  1  0.804842  0.804786  0.177587  1
  Mn  Mn23  1  0.000041  0.195312  0.372755  1
  Mn  Mn24  1  0.195234  0.999975  0.372615  1
  Mn  Mn25  1  0.627190  0.627205  0.822464  1
  Mn  Mn26  1  0.822519  0.627210  0.627268  1
  Mn  Mn27  1  0.627338  0.822598  0.627349  1
  Ga  Ga28  1  0.000062  0.000102  0.000026  1
