# generated using pymatgen
data_TbTm4(In2Rh)2
_symmetry_space_group_name_H-M   'P 1'
_cell_length_a   3.56406700
_cell_length_b   7.98685500
_cell_length_c   18.19590900
_cell_angle_alpha   90.00000000
_cell_angle_beta   90.00000000
_cell_angle_gamma   90.00000000
_symmetry_Int_Tables_number   1
_chemical_formula_structural   TbTm4(In2Rh)2
_chemical_formula_sum   'Tb2 Tm8 In8 Rh4'
_cell_volume   517.95903825
_cell_formula_units_Z   2
loop_
 _symmetry_equiv_pos_site_id
 _symmetry_equiv_pos_as_xyz
  1  'x, y, z'
loop_
 _atom_site_type_symbol
 _atom_site_label
 _atom_site_symmetry_multiplicity
 _atom_site_fract_x
 _atom_site_fract_y
 _atom_site_fract_z
 _atom_site_occupancy
  Tb  Tb0  1  0.000000  0.500000  0.500000  1
  Tb  Tb1  1  0.000000  0.000000  0.000000  1
  Tm  Tm2  1  0.000000  0.745602  0.278647  1
  Tm  Tm3  1  0.000000  0.254398  0.721353  1
  Tm  Tm4  1  0.000000  0.754398  0.778647  1
  Tm  Tm5  1  0.000000  0.245602  0.221353  1
  Tm  Tm6  1  0.000000  0.617848  0.087384  1
  Tm  Tm7  1  0.000000  0.382152  0.912616  1
  Tm  Tm8  1  0.000000  0.882152  0.587384  1
  Tm  Tm9  1  0.000000  0.117848  0.412616  1
  In  In10  1  0.500000  0.705517  0.931846  1
  In  In11  1  0.500000  0.294483  0.068154  1
  In  In12  1  0.500000  0.794483  0.431846  1
  In  In13  1  0.500000  0.205517  0.568154  1
  In  In14  1  0.500000  0.572346  0.650587  1
  In  In15  1  0.500000  0.427654  0.349413  1
  In  In16  1  0.500000  0.927654  0.150587  1
  In  In17  1  0.500000  0.072346  0.849413  1
  Rh  Rh18  1  0.500000  0.524956  0.195508  1
  Rh  Rh19  1  0.500000  0.475044  0.804492  1
  Rh  Rh20  1  0.500000  0.975044  0.695508  1
  Rh  Rh21  1  0.500000  0.024956  0.304492  1
