# generated using pymatgen
data_Ho8ZrTi3(Si2Mo)8
_symmetry_space_group_name_H-M   'P 1'
_cell_length_a   6.94805244
_cell_length_b   6.94805332
_cell_length_c   12.83748907
_cell_angle_alpha   89.94780175
_cell_angle_beta   90.05219729
_cell_angle_gamma   89.96736673
_symmetry_Int_Tables_number   1
_chemical_formula_structural   Ho8ZrTi3(Si2Mo)8
_chemical_formula_sum   'Ho8 Zr1 Ti3 Si16 Mo8'
_cell_volume   619.73480355
_cell_formula_units_Z   1
loop_
 _symmetry_equiv_pos_site_id
 _symmetry_equiv_pos_as_xyz
  1  'x, y, z'
loop_
 _atom_site_type_symbol
 _atom_site_label
 _atom_site_symmetry_multiplicity
 _atom_site_fract_x
 _atom_site_fract_y
 _atom_site_fract_z
 _atom_site_occupancy
  Ho  Ho0  1  0.340638  0.002593  0.468742  1
  Ho  Ho1  1  0.497875  0.839612  0.717525  1
  Ho  Ho2  1  0.502721  0.158905  0.219210  1
  Ho  Ho3  1  0.839612  0.497875  0.282475  1
  Ho  Ho4  1  0.158905  0.502721  0.780790  1
  Ho  Ho5  1  0.660382  0.996515  0.968672  1
  Ho  Ho6  1  0.002593  0.340638  0.531258  1
  Ho  Ho7  1  0.996515  0.660382  0.031328  1
  Zr  Zr8  1  0.330631  0.330631  0.000000  1
  Ti  Ti9  1  0.169078  0.831186  0.250943  1
  Ti  Ti10  1  0.831186  0.169078  0.749057  1
  Ti  Ti11  1  0.669865  0.669865  0.500000  1
  Si  Si12  1  0.199958  0.128087  0.683065  1
  Si  Si13  1  0.372053  0.706905  0.931303  1
  Si  Si14  1  0.628800  0.299540  0.433718  1
  Si  Si15  1  0.706905  0.372053  0.068697  1
  Si  Si16  1  0.299540  0.628800  0.566282  1
  Si  Si17  1  0.798516  0.871090  0.183756  1
  Si  Si18  1  0.128087  0.199958  0.316935  1
  Si  Si19  1  0.871090  0.798516  0.816244  1
  Si  Si20  1  0.288075  0.953125  0.064643  1
  Si  Si21  1  0.541875  0.789575  0.313840  1
  Si  Si22  1  0.461869  0.208660  0.809398  1
  Si  Si23  1  0.789575  0.541875  0.686160  1
  Si  Si24  1  0.208660  0.461869  0.190602  1
  Si  Si25  1  0.711158  0.041549  0.563123  1
  Si  Si26  1  0.953125  0.288075  0.935357  1
  Si  Si27  1  0.041549  0.711158  0.436877  1
  Mo  Mo28  1  0.157674  0.004758  0.872487  1
  Mo  Mo29  1  0.493946  0.660615  0.125350  1
  Mo  Mo30  1  0.507509  0.340990  0.623213  1
  Mo  Mo31  1  0.660615  0.493946  0.874650  1
  Mo  Mo32  1  0.340990  0.507509  0.376787  1
  Mo  Mo33  1  0.840567  0.993104  0.374419  1
  Mo  Mo34  1  0.004758  0.157674  0.127513  1
  Mo  Mo35  1  0.993104  0.840567  0.625581  1
