# generated using pymatgen
data_CaPr3EuIr2
_symmetry_space_group_name_H-M   'P 1'
_cell_length_a   9.04232828
_cell_length_b   9.04232643
_cell_length_c   7.44726700
_cell_angle_alpha   83.69796297
_cell_angle_beta   83.69796427
_cell_angle_gamma   43.61515421
_symmetry_Int_Tables_number   1
_chemical_formula_structural   CaPr3EuIr2
_chemical_formula_sum   'Ca2 Pr6 Eu2 Ir4'
_cell_volume   417.09090943
_cell_formula_units_Z   2
loop_
 _symmetry_equiv_pos_site_id
 _symmetry_equiv_pos_as_xyz
  1  'x, y, z'
loop_
 _atom_site_type_symbol
 _atom_site_label
 _atom_site_symmetry_multiplicity
 _atom_site_fract_x
 _atom_site_fract_y
 _atom_site_fract_z
 _atom_site_occupancy
  Ca  Ca0  1  0.013361  0.801291  0.915740  1
  Ca  Ca1  1  0.198709  0.986639  0.584260  1
  Pr  Pr2  1  0.351161  0.216141  0.818233  1
  Pr  Pr3  1  0.783859  0.648839  0.681767  1
  Pr  Pr4  1  0.652893  0.784815  0.182254  1
  Pr  Pr5  1  0.215185  0.347107  0.317746  1
  Pr  Pr6  1  0.562674  0.437326  0.750000  1
  Pr  Pr7  1  0.431593  0.568407  0.250000  1
  Eu  Eu8  1  0.986961  0.197961  0.083691  1
  Eu  Eu9  1  0.802039  0.013039  0.416309  1
  Ir  Ir10  1  0.183266  0.585666  0.571755  1
  Ir  Ir11  1  0.414334  0.816734  0.928245  1
  Ir  Ir12  1  0.813815  0.409852  0.427208  1
  Ir  Ir13  1  0.590148  0.186185  0.072792  1
