# generated using pymatgen
data_Ca2Al8SiIr2Rh
_symmetry_space_group_name_H-M   'P 1'
_cell_length_a   7.52814795
_cell_length_b   7.52814966
_cell_length_c   9.53122500
_cell_angle_alpha   90.00000000
_cell_angle_beta   90.00000000
_cell_angle_gamma   119.27932480
_symmetry_Int_Tables_number   1
_chemical_formula_structural   Ca2Al8SiIr2Rh
_chemical_formula_sum   'Ca4 Al16 Si2 Ir4 Rh2'
_cell_volume   471.15521641
_cell_formula_units_Z   2
loop_
 _symmetry_equiv_pos_site_id
 _symmetry_equiv_pos_as_xyz
  1  'x, y, z'
loop_
 _atom_site_type_symbol
 _atom_site_label
 _atom_site_symmetry_multiplicity
 _atom_site_fract_x
 _atom_site_fract_y
 _atom_site_fract_z
 _atom_site_occupancy
  Ca  Ca0  1  0.994998  0.676335  0.250000  1
  Ca  Ca1  1  0.005002  0.323665  0.750000  1
  Ca  Ca2  1  0.676335  0.994998  0.250000  1
  Ca  Ca3  1  0.323665  0.005002  0.750000  1
  Al  Al4  1  0.002696  0.335936  0.070877  1
  Al  Al5  1  0.997304  0.664064  0.929123  1
  Al  Al6  1  0.997304  0.664064  0.570877  1
  Al  Al7  1  0.335936  0.002696  0.429123  1
  Al  Al8  1  0.002696  0.335936  0.429123  1
  Al  Al9  1  0.664064  0.997304  0.570877  1
  Al  Al10  1  0.664064  0.997304  0.929123  1
  Al  Al11  1  0.335936  0.002696  0.070877  1
  Al  Al12  1  0.336411  0.336411  0.552387  1
  Al  Al13  1  0.663589  0.663589  0.447613  1
  Al  Al14  1  0.663589  0.663589  0.052387  1
  Al  Al15  1  0.336411  0.336411  0.947613  1
  Al  Al16  1  0.333528  0.545808  0.250000  1
  Al  Al17  1  0.666472  0.454192  0.750000  1
  Al  Al18  1  0.545808  0.333528  0.250000  1
  Al  Al19  1  0.454192  0.666472  0.750000  1
  Si  Si20  1  0.134667  0.134667  0.250000  1
  Si  Si21  1  0.865333  0.865333  0.750000  1
  Ir  Ir22  1  0.671123  0.328877  0.000000  1
  Ir  Ir23  1  0.328877  0.671123  0.000000  1
  Ir  Ir24  1  0.328877  0.671123  0.500000  1
  Ir  Ir25  1  0.671123  0.328877  0.500000  1
  Rh  Rh26  1  0.000000  0.000000  0.000000  1
  Rh  Rh27  1  0.000000  0.000000  0.500000  1
