# generated using pymatgen
data_Nd8Mg(InAu4)5
_symmetry_space_group_name_H-M   'P 1'
_cell_length_a   8.76675580
_cell_length_b   8.76675751
_cell_length_c   10.36250116
_cell_angle_alpha   89.95651712
_cell_angle_beta   89.95652029
_cell_angle_gamma   108.40645490
_symmetry_Int_Tables_number   1
_chemical_formula_structural   Nd8Mg(InAu4)5
_chemical_formula_sum   'Nd8 Mg1 In5 Au20'
_cell_volume   755.67545915
_cell_formula_units_Z   1
loop_
 _symmetry_equiv_pos_site_id
 _symmetry_equiv_pos_as_xyz
  1  'x, y, z'
loop_
 _atom_site_type_symbol
 _atom_site_label
 _atom_site_symmetry_multiplicity
 _atom_site_fract_x
 _atom_site_fract_y
 _atom_site_fract_z
 _atom_site_occupancy
  Nd  Nd0  1  0.701184  0.298816  0.000000  1
  Nd  Nd1  1  0.199632  0.800368  0.500000  1
  Nd  Nd2  1  0.799673  0.799673  0.298087  1
  Nd  Nd3  1  0.300482  0.300482  0.200985  1
  Nd  Nd4  1  0.800368  0.199632  0.500000  1
  Nd  Nd5  1  0.298816  0.701184  0.000000  1
  Nd  Nd6  1  0.699518  0.699518  0.799015  1
  Nd  Nd7  1  0.200327  0.200327  0.701913  1
  Mg  Mg8  1  0.000000  0.000000  0.000000  1
  In  In9  1  0.516507  0.016518  0.249922  1
  In  In10  1  0.983482  0.483493  0.750078  1
  In  In11  1  0.016518  0.516507  0.249922  1
  In  In12  1  0.483493  0.983482  0.750078  1
  In  In13  1  0.500000  0.500000  0.500000  1
  Au  Au14  1  0.158240  0.430482  0.476410  1
  Au  Au15  1  0.905143  0.905143  0.596140  1
  Au  Au16  1  0.569518  0.841760  0.523590  1
  Au  Au17  1  0.891317  0.166486  0.206307  1
  Au  Au18  1  0.389986  0.668626  0.290558  1
  Au  Au19  1  0.668626  0.389986  0.290558  1
  Au  Au20  1  0.404851  0.404851  0.904814  1
  Au  Au21  1  0.931878  0.663876  0.023461  1
  Au  Au22  1  0.331374  0.610014  0.709442  1
  Au  Au23  1  0.336124  0.068122  0.976539  1
  Au  Au24  1  0.595149  0.595149  0.095186  1
  Au  Au25  1  0.663876  0.931878  0.023461  1
  Au  Au26  1  0.094857  0.094857  0.403860  1
  Au  Au27  1  0.610014  0.331374  0.709442  1
  Au  Au28  1  0.108683  0.833514  0.793693  1
  Au  Au29  1  0.068122  0.336124  0.976539  1
  Au  Au30  1  0.841760  0.569518  0.523590  1
  Au  Au31  1  0.166486  0.891317  0.206307  1
  Au  Au32  1  0.430482  0.158240  0.476410  1
  Au  Au33  1  0.833514  0.108683  0.793693  1
