# generated using pymatgen
data_Tb6ScS8
_symmetry_space_group_name_H-M   'P 1'
_cell_length_a   7.84269781
_cell_length_b   7.84249042
_cell_length_c   7.83985500
_cell_angle_alpha   120.01877860
_cell_angle_beta   89.94353484
_cell_angle_gamma   120.01751877
_symmetry_Int_Tables_number   1
_chemical_formula_structural   Tb6ScS8
_chemical_formula_sum   'Tb6 Sc1 S8'
_cell_volume   340.94789158
_cell_formula_units_Z   1
loop_
 _symmetry_equiv_pos_site_id
 _symmetry_equiv_pos_as_xyz
  1  'x, y, z'
loop_
 _atom_site_type_symbol
 _atom_site_label
 _atom_site_symmetry_multiplicity
 _atom_site_fract_x
 _atom_site_fract_y
 _atom_site_fract_z
 _atom_site_occupancy
  Tb  Tb0  1  0.249990  0.000007  0.249995  1
  Tb  Tb1  1  0.249988  0.499967  0.249985  1
  Tb  Tb2  1  0.750014  0.000009  0.250001  1
  Tb  Tb3  1  0.249998  0.000000  0.750004  1
  Tb  Tb4  1  0.750015  0.000019  0.750014  1
  Tb  Tb5  1  0.750001  0.499988  0.749991  1
  Sc  Sc6  1  0.249985  0.499972  0.749997  1
  S  S7  1  0.999990  0.999974  0.999984  1
  S  S8  1  0.500025  0.000038  0.500018  1
  S  S9  1  0.007940  0.015881  0.507950  1
  S  S10  1  0.007903  0.500013  0.507922  1
  S  S11  1  0.492029  0.500002  0.507967  1
  S  S12  1  0.007973  0.500003  0.992029  1
  S  S13  1  0.492087  0.499986  0.992084  1
  S  S14  1  0.492069  0.984145  0.992067  1
