# generated using pymatgen
data_Tb4Y2Si3Au
_symmetry_space_group_name_H-M   'P 1'
_cell_length_a   7.52940400
_cell_length_b   7.52940388
_cell_length_c   4.25971900
_cell_angle_alpha   90.00000000
_cell_angle_beta   90.00000000
_cell_angle_gamma   91.71402210
_symmetry_Int_Tables_number   1
_chemical_formula_structural   Tb4Y2Si3Au
_chemical_formula_sum   'Tb4 Y2 Si3 Au1'
_cell_volume   241.38361392
_cell_formula_units_Z   1
loop_
 _symmetry_equiv_pos_site_id
 _symmetry_equiv_pos_as_xyz
  1  'x, y, z'
loop_
 _atom_site_type_symbol
 _atom_site_label
 _atom_site_symmetry_multiplicity
 _atom_site_fract_x
 _atom_site_fract_y
 _atom_site_fract_z
 _atom_site_occupancy
  Tb  Tb0  1  0.315581  0.827876  0.500000  1
  Tb  Tb1  1  0.672124  0.184419  0.500000  1
  Tb  Tb2  1  0.175061  0.324939  0.500000  1
  Tb  Tb3  1  0.837645  0.662355  0.500000  1
  Y  Y4  1  0.997135  0.991444  0.000000  1
  Y  Y5  1  0.508556  0.502865  0.000000  1
  Si  Si6  1  0.371111  0.128889  0.000000  1
  Si  Si7  1  0.885635  0.378519  0.000000  1
  Si  Si8  1  0.121481  0.614365  0.000000  1
  Au  Au9  1  0.615672  0.884328  0.000000  1
