# generated using pymatgen
data_Hf18CrRe7Si2
_symmetry_space_group_name_H-M   'P 1'
_cell_length_a   8.55176300
_cell_length_b   8.55176238
_cell_length_c   8.62677000
_cell_angle_alpha   90.00000000
_cell_angle_beta   90.00000000
_cell_angle_gamma   120.00000627
_symmetry_Int_Tables_number   1
_chemical_formula_structural   Hf18CrRe7Si2
_chemical_formula_sum   'Hf18 Cr1 Re7 Si2'
_cell_volume   546.37410131
_cell_formula_units_Z   1
loop_
 _symmetry_equiv_pos_site_id
 _symmetry_equiv_pos_as_xyz
  1  'x, y, z'
loop_
 _atom_site_type_symbol
 _atom_site_label
 _atom_site_symmetry_multiplicity
 _atom_site_fract_x
 _atom_site_fract_y
 _atom_site_fract_z
 _atom_site_occupancy
  Hf  Hf0  1  0.193988  0.806012  0.452642  1
  Hf  Hf1  1  0.193988  0.387976  0.452642  1
  Hf  Hf2  1  0.612024  0.806012  0.452642  1
  Hf  Hf3  1  0.806012  0.193988  0.547358  1
  Hf  Hf4  1  0.806012  0.612024  0.547358  1
  Hf  Hf5  1  0.387976  0.193988  0.547358  1
  Hf  Hf6  1  0.804935  0.195065  0.952606  1
  Hf  Hf7  1  0.804935  0.609870  0.952606  1
  Hf  Hf8  1  0.390130  0.195065  0.952606  1
  Hf  Hf9  1  0.195065  0.804935  0.047394  1
  Hf  Hf10  1  0.195065  0.390130  0.047394  1
  Hf  Hf11  1  0.609870  0.804935  0.047394  1
  Hf  Hf12  1  0.539119  0.460881  0.250094  1
  Hf  Hf13  1  0.539119  0.078238  0.250094  1
  Hf  Hf14  1  0.921762  0.460881  0.250094  1
  Hf  Hf15  1  0.460881  0.539119  0.749906  1
  Hf  Hf16  1  0.460881  0.921762  0.749906  1
  Hf  Hf17  1  0.078238  0.539119  0.749906  1
  Cr  Cr18  1  0.000000  0.000000  0.500000  1
  Re  Re19  1  0.891783  0.108217  0.253741  1
  Re  Re20  1  0.891783  0.783565  0.253741  1
  Re  Re21  1  0.216435  0.108217  0.253741  1
  Re  Re22  1  0.108217  0.891783  0.746259  1
  Re  Re23  1  0.108217  0.216435  0.746259  1
  Re  Re24  1  0.783565  0.891783  0.746259  1
  Re  Re25  1  0.000000  0.000000  0.000000  1
  Si  Si26  1  0.333333  0.666667  0.250723  1
  Si  Si27  1  0.666667  0.333333  0.749277  1
