# generated using pymatgen
data_LiYb4Sc5Ge8
_symmetry_space_group_name_H-M   'P 1'
_cell_length_a   7.09742522
_cell_length_b   7.52661827
_cell_length_c   14.47660100
_cell_angle_alpha   90.00000000
_cell_angle_beta   90.00000000
_cell_angle_gamma   89.98083775
_symmetry_Int_Tables_number   1
_chemical_formula_structural   LiYb4Sc5Ge8
_chemical_formula_sum   'Li2 Yb8 Sc10 Ge16'
_cell_volume   773.33434057
_cell_formula_units_Z   2
loop_
 _symmetry_equiv_pos_site_id
 _symmetry_equiv_pos_as_xyz
  1  'x, y, z'
loop_
 _atom_site_type_symbol
 _atom_site_label
 _atom_site_symmetry_multiplicity
 _atom_site_fract_x
 _atom_site_fract_y
 _atom_site_fract_z
 _atom_site_occupancy
  Li  Li0  1  0.159801  0.504951  0.750000  1
  Li  Li1  1  0.840199  0.495049  0.250000  1
  Yb  Yb2  1  0.006666  0.183572  0.096560  1
  Yb  Yb3  1  0.993334  0.816428  0.903440  1
  Yb  Yb4  1  0.488430  0.676813  0.904475  1
  Yb  Yb5  1  0.993334  0.816428  0.596560  1
  Yb  Yb6  1  0.511570  0.323187  0.095525  1
  Yb  Yb7  1  0.006666  0.183572  0.403440  1
  Yb  Yb8  1  0.511570  0.323187  0.404475  1
  Yb  Yb9  1  0.488430  0.676813  0.595525  1
  Sc  Sc10  1  0.342834  0.008836  0.250000  1
  Sc  Sc11  1  0.657166  0.991164  0.750000  1
  Sc  Sc12  1  0.324117  0.176831  0.622780  1
  Sc  Sc13  1  0.675883  0.823169  0.377220  1
  Sc  Sc14  1  0.169688  0.667702  0.376008  1
  Sc  Sc15  1  0.675883  0.823169  0.122780  1
  Sc  Sc16  1  0.830312  0.332298  0.623992  1
  Sc  Sc17  1  0.324117  0.176831  0.877220  1
  Sc  Sc18  1  0.830312  0.332298  0.876008  1
  Sc  Sc19  1  0.169688  0.667702  0.123992  1
  Ge  Ge20  1  0.025747  0.115457  0.750000  1
  Ge  Ge21  1  0.974253  0.884543  0.250000  1
  Ge  Ge22  1  0.470278  0.624387  0.250000  1
  Ge  Ge23  1  0.529722  0.375613  0.750000  1
  Ge  Ge24  1  0.286666  0.883138  0.750000  1
  Ge  Ge25  1  0.713334  0.116862  0.250000  1
  Ge  Ge26  1  0.219575  0.376945  0.250000  1
  Ge  Ge27  1  0.780425  0.623055  0.750000  1
  Ge  Ge28  1  0.159122  0.458284  0.536911  1
  Ge  Ge29  1  0.840878  0.541716  0.463089  1
  Ge  Ge30  1  0.340576  0.963422  0.458100  1
  Ge  Ge31  1  0.840878  0.541716  0.036911  1
  Ge  Ge32  1  0.659424  0.036578  0.541900  1
  Ge  Ge33  1  0.159122  0.458284  0.963089  1
  Ge  Ge34  1  0.659424  0.036578  0.958100  1
  Ge  Ge35  1  0.340576  0.963422  0.041900  1
