# generated using pymatgen
data_Tb7Y13Co3Bi8Os
_symmetry_space_group_name_H-M   'P 1'
_cell_length_a   8.04404552
_cell_length_b   8.91015116
_cell_length_c   12.47145216
_cell_angle_alpha   89.98324382
_cell_angle_beta   90.29411664
_cell_angle_gamma   89.98681249
_symmetry_Int_Tables_number   1
_chemical_formula_structural   Tb7Y13Co3Bi8Os
_chemical_formula_sum   'Tb7 Y13 Co3 Bi8 Os1'
_cell_volume   893.86280044
_cell_formula_units_Z   1
loop_
 _symmetry_equiv_pos_site_id
 _symmetry_equiv_pos_as_xyz
  1  'x, y, z'
loop_
 _atom_site_type_symbol
 _atom_site_label
 _atom_site_symmetry_multiplicity
 _atom_site_fract_x
 _atom_site_fract_y
 _atom_site_fract_z
 _atom_site_occupancy
  Tb  Tb0  1  0.324898  0.964337  0.437265  1
  Tb  Tb1  1  0.175790  0.966290  0.937099  1
  Tb  Tb2  1  0.324460  0.535192  0.437108  1
  Tb  Tb3  1  0.822957  0.035219  0.062727  1
  Tb  Tb4  1  0.677932  0.458374  0.564798  1
  Tb  Tb5  1  0.822923  0.464854  0.062686  1
  Tb  Tb6  1  0.175827  0.533719  0.937133  1
  Y  Y7  1  0.846564  0.749987  0.799411  1
  Y  Y8  1  0.152333  0.250039  0.198986  1
  Y  Y9  1  0.347842  0.250069  0.700005  1
  Y  Y10  1  0.654263  0.749998  0.294085  1
  Y  Y11  1  0.378111  0.750063  0.695994  1
  Y  Y12  1  0.619507  0.249811  0.308282  1
  Y  Y13  1  0.880331  0.250126  0.809389  1
  Y  Y14  1  0.119223  0.750007  0.189179  1
  Y  Y15  1  0.945650  0.749746  0.503430  1
  Y  Y16  1  0.050003  0.250251  0.496629  1
  Y  Y17  1  0.453777  0.249995  0.997774  1
  Y  Y18  1  0.545507  0.750017  0.001873  1
  Y  Y19  1  0.678224  0.042034  0.565303  1
  Co  Co20  1  0.432939  0.250317  0.489913  1
  Co  Co21  1  0.059228  0.250022  0.991670  1
  Co  Co22  1  0.938823  0.749978  0.007684  1
  Bi  Bi23  1  0.572344  0.491194  0.827377  1
  Bi  Bi24  1  0.427196  0.507731  0.173179  1
  Bi  Bi25  1  0.072077  0.507755  0.674205  1
  Bi  Bi26  1  0.427183  0.992263  0.173187  1
  Bi  Bi27  1  0.929673  0.491863  0.325742  1
  Bi  Bi28  1  0.572374  0.008916  0.827271  1
  Bi  Bi29  1  0.929734  0.008147  0.325955  1
  Bi  Bi30  1  0.071553  0.992351  0.673931  1
  Os  Os31  1  0.570753  0.749337  0.510727  1
