# generated using pymatgen
data_Na4LaNd3Te8
_symmetry_space_group_name_H-M   'P 1'
_cell_length_a   9.20920670
_cell_length_b   9.15766201
_cell_length_c   9.15766200
_cell_angle_alpha   60.00000725
_cell_angle_beta   60.18498514
_cell_angle_gamma   60.18499154
_symmetry_Int_Tables_number   1
_chemical_formula_structural   Na4LaNd3Te8
_chemical_formula_sum   'Na4 La1 Nd3 Te8'
_cell_volume   547.62738190
_cell_formula_units_Z   1
loop_
 _symmetry_equiv_pos_site_id
 _symmetry_equiv_pos_as_xyz
  1  'x, y, z'
loop_
 _atom_site_type_symbol
 _atom_site_label
 _atom_site_symmetry_multiplicity
 _atom_site_fract_x
 _atom_site_fract_y
 _atom_site_fract_z
 _atom_site_occupancy
  Na  Na0  1  0.125000  0.625000  0.125000  1
  Na  Na1  1  0.125000  0.125000  0.625000  1
  Na  Na2  1  0.625000  0.125000  0.125000  1
  Na  Na3  1  0.125000  0.125000  0.125000  1
  La  La4  1  0.125000  0.625000  0.625000  1
  Nd  Nd5  1  0.625000  0.125000  0.625000  1
  Nd  Nd6  1  0.625000  0.625000  0.625000  1
  Nd  Nd7  1  0.625000  0.625000  0.125000  1
  Te  Te8  1  0.381168  0.865876  0.376478  1
  Te  Te9  1  0.868832  0.384124  0.873522  1
  Te  Te10  1  0.868832  0.873522  0.384124  1
  Te  Te11  1  0.868832  0.873522  0.873522  1
  Te  Te12  1  0.864380  0.378540  0.378540  1
  Te  Te13  1  0.381168  0.376478  0.865876  1
  Te  Te14  1  0.381168  0.376478  0.376478  1
  Te  Te15  1  0.385620  0.871460  0.871460  1
