# generated using pymatgen
data_Hf4GaSi
_symmetry_space_group_name_H-M   'P 1'
_cell_length_a   5.37939962
_cell_length_b   5.37939947
_cell_length_c   5.37939910
_cell_angle_alpha   103.82142581
_cell_angle_beta   103.82143043
_cell_angle_gamma   121.48039705
_symmetry_Int_Tables_number   1
_chemical_formula_structural   Hf4GaSi
_chemical_formula_sum   'Hf4 Ga1 Si1'
_cell_volume   115.81904621
_cell_formula_units_Z   1
loop_
 _symmetry_equiv_pos_site_id
 _symmetry_equiv_pos_as_xyz
  1  'x, y, z'
loop_
 _atom_site_type_symbol
 _atom_site_label
 _atom_site_symmetry_multiplicity
 _atom_site_fract_x
 _atom_site_fract_y
 _atom_site_fract_z
 _atom_site_occupancy
  Hf  Hf0  1  0.654958  0.845042  0.500000  1
  Hf  Hf1  1  0.845042  0.345042  0.190082  1
  Hf  Hf2  1  0.345042  0.154958  0.500000  1
  Hf  Hf3  1  0.154958  0.654958  0.809918  1
  Ga  Ga4  1  0.750000  0.750000  0.000000  1
  Si  Si5  1  0.250000  0.250000  0.000000  1
