# generated using pymatgen
data_Dy6InCoOs
_symmetry_space_group_name_H-M   'P 1'
_cell_length_a   8.43547009
_cell_length_b   8.43547012
_cell_length_c   8.43546976
_cell_angle_alpha   112.94385278
_cell_angle_beta   110.03987232
_cell_angle_gamma   105.51538287
_symmetry_Int_Tables_number   1
_chemical_formula_structural   Dy6InCoOs
_chemical_formula_sum   'Dy12 In2 Co2 Os2'
_cell_volume   460.11221017
_cell_formula_units_Z   2
loop_
 _symmetry_equiv_pos_site_id
 _symmetry_equiv_pos_as_xyz
  1  'x, y, z'
loop_
 _atom_site_type_symbol
 _atom_site_label
 _atom_site_symmetry_multiplicity
 _atom_site_fract_x
 _atom_site_fract_y
 _atom_site_fract_z
 _atom_site_occupancy
  Dy  Dy0  1  0.442374  0.241753  0.200622  1
  Dy  Dy1  1  0.557626  0.758247  0.799378  1
  Dy  Dy2  1  0.041130  0.241753  0.799378  1
  Dy  Dy3  1  0.958870  0.758247  0.200622  1
  Dy  Dy4  1  0.183565  0.284280  0.467846  1
  Dy  Dy5  1  0.816435  0.715720  0.532154  1
  Dy  Dy6  1  0.183565  0.715720  0.899285  1
  Dy  Dy7  1  0.816435  0.284280  0.100715  1
  Dy  Dy8  1  0.324746  0.641315  0.316569  1
  Dy  Dy9  1  0.675254  0.358685  0.683431  1
  Dy  Dy10  1  0.324746  0.008177  0.683431  1
  Dy  Dy11  1  0.675254  0.991823  0.316569  1
  In  In12  1  0.500000  0.500000  0.000000  1
  In  In13  1  0.000000  0.000000  0.000000  1
  Co  Co14  1  0.110811  0.610811  0.500000  1
  Co  Co15  1  0.889189  0.389189  0.500000  1
  Os  Os16  1  0.330744  0.000000  0.330744  1
  Os  Os17  1  0.669256  0.000000  0.669256  1
