# generated using pymatgen
data_Pr3DyEr2Ta2O14
_symmetry_space_group_name_H-M   'P 1'
_cell_length_a   6.55104992
_cell_length_b   6.56789093
_cell_length_c   7.64660625
_cell_angle_alpha   89.98074635
_cell_angle_beta   89.93198525
_cell_angle_gamma   109.11669181
_symmetry_Int_Tables_number   1
_chemical_formula_structural   Pr3DyEr2Ta2O14
_chemical_formula_sum   'Pr3 Dy1 Er2 Ta2 O14'
_cell_volume   310.86342798
_cell_formula_units_Z   1
loop_
 _symmetry_equiv_pos_site_id
 _symmetry_equiv_pos_as_xyz
  1  'x, y, z'
loop_
 _atom_site_type_symbol
 _atom_site_label
 _atom_site_symmetry_multiplicity
 _atom_site_fract_x
 _atom_site_fract_y
 _atom_site_fract_z
 _atom_site_occupancy
  Pr  Pr0  1  0.492452  0.486829  0.002199  1
  Pr  Pr1  1  0.519401  0.522510  0.496234  1
  Pr  Pr2  1  0.002629  0.466623  0.745945  1
  Dy  Dy3  1  0.532818  0.002048  0.754623  1
  Er  Er4  1  0.000842  0.532938  0.245576  1
  Er  Er5  1  0.466474  0.999343  0.254310  1
  Ta  Ta6  1  0.002566  0.002015  0.495956  1
  Ta  Ta7  1  0.997668  0.999623  0.002735  1
  O  O8  1  0.937404  0.055468  0.749820  1
  O  O9  1  0.632117  0.355616  0.747271  1
  O  O10  1  0.309244  0.049407  0.539130  1
  O  O11  1  0.922936  0.680378  0.977822  1
  O  O12  1  0.637125  0.358890  0.251442  1
  O  O13  1  0.919482  0.675029  0.514368  1
  O  O14  1  0.319332  0.067976  0.970495  1
  O  O15  1  0.073472  0.318848  0.036061  1
  O  O16  1  0.678264  0.932239  0.469384  1
  O  O17  1  0.378796  0.644951  0.752640  1
  O  O18  1  0.687481  0.949423  0.040504  1
  O  O19  1  0.064460  0.311280  0.455443  1
  O  O20  1  0.354044  0.648871  0.248606  1
  O  O21  1  0.070994  0.939694  0.249434  1
