# generated using pymatgen
data_La2Pr2B3(PdRh)6
_symmetry_space_group_name_H-M   'P 1'
_cell_length_a   4.28839100
_cell_length_b   4.28839100
_cell_length_c   17.05418800
_cell_angle_alpha   90.00000000
_cell_angle_beta   90.00000000
_cell_angle_gamma   90.00000000
_symmetry_Int_Tables_number   1
_chemical_formula_structural   La2Pr2B3(PdRh)6
_chemical_formula_sum   'La2 Pr2 B3 Pd6 Rh6'
_cell_volume   313.63158870
_cell_formula_units_Z   1
loop_
 _symmetry_equiv_pos_site_id
 _symmetry_equiv_pos_as_xyz
  1  'x, y, z'
loop_
 _atom_site_type_symbol
 _atom_site_label
 _atom_site_symmetry_multiplicity
 _atom_site_fract_x
 _atom_site_fract_y
 _atom_site_fract_z
 _atom_site_occupancy
  La  La0  1  0.000000  0.000000  0.874932  1
  La  La1  1  0.000000  0.000000  0.125068  1
  Pr  Pr2  1  0.000000  0.000000  0.374712  1
  Pr  Pr3  1  0.000000  0.000000  0.625288  1
  B  B4  1  0.500000  0.500000  0.237606  1
  B  B5  1  0.500000  0.500000  0.500000  1
  B  B6  1  0.500000  0.500000  0.762394  1
  Pd  Pd7  1  0.500000  0.500000  0.886302  1
  Pd  Pd8  1  0.500000  0.500000  0.113698  1
  Pd  Pd9  1  0.500000  0.500000  0.371660  1
  Pd  Pd10  1  0.500000  0.500000  0.628340  1
  Pd  Pd11  1  0.500000  0.000000  0.000000  1
  Pd  Pd12  1  0.000000  0.500000  0.000000  1
  Rh  Rh13  1  0.500000  0.000000  0.250238  1
  Rh  Rh14  1  0.500000  0.000000  0.500000  1
  Rh  Rh15  1  0.500000  0.000000  0.749762  1
  Rh  Rh16  1  0.000000  0.500000  0.250238  1
  Rh  Rh17  1  0.000000  0.500000  0.500000  1
  Rh  Rh18  1  0.000000  0.500000  0.749762  1
