# generated using pymatgen
data_CdAgIr2O7
_symmetry_space_group_name_H-M   'P 1'
_cell_length_a   7.25682875
_cell_length_b   7.24198053
_cell_length_c   7.24198087
_cell_angle_alpha   59.77288350
_cell_angle_beta   59.93215229
_cell_angle_gamma   59.93215304
_symmetry_Int_Tables_number   1
_chemical_formula_structural   CdAgIr2O7
_chemical_formula_sum   'Cd2 Ag2 Ir4 O14'
_cell_volume   268.38053032
_cell_formula_units_Z   2
loop_
 _symmetry_equiv_pos_site_id
 _symmetry_equiv_pos_as_xyz
  1  'x, y, z'
loop_
 _atom_site_type_symbol
 _atom_site_label
 _atom_site_symmetry_multiplicity
 _atom_site_fract_x
 _atom_site_fract_y
 _atom_site_fract_z
 _atom_site_occupancy
  Cd  Cd0  1  0.625000  0.125000  0.125000  1
  Cd  Cd1  1  0.125000  0.125000  0.125000  1
  Ag  Ag2  1  0.125000  0.625000  0.125000  1
  Ag  Ag3  1  0.125000  0.125000  0.625000  1
  Ir  Ir4  1  0.125000  0.625000  0.625000  1
  Ir  Ir5  1  0.625000  0.125000  0.625000  1
  Ir  Ir6  1  0.625000  0.625000  0.125000  1
  Ir  Ir7  1  0.625000  0.625000  0.625000  1
  O  O8  1  0.698936  0.700314  0.299853  1
  O  O9  1  0.300897  0.299853  0.700314  1
  O  O10  1  0.698936  0.299853  0.700314  1
  O  O11  1  0.300897  0.700314  0.299853  1
  O  O12  1  0.305510  0.694490  0.694490  1
  O  O13  1  0.703276  0.296724  0.296724  1
  O  O14  1  0.551064  0.549686  0.950147  1
  O  O15  1  0.949103  0.950147  0.549686  1
  O  O16  1  0.551064  0.950147  0.549686  1
  O  O17  1  0.949103  0.549686  0.950147  1
  O  O18  1  0.944490  0.555510  0.555510  1
  O  O19  1  0.546724  0.953276  0.953276  1
  O  O20  1  0.238949  0.261051  0.261051  1
  O  O21  1  0.011051  0.988949  0.988949  1
