# generated using pymatgen
data_Tb5Dy11Cd4(CoNi)2
_symmetry_space_group_name_H-M   'P 1'
_cell_length_a   9.55025675
_cell_length_b   9.54039346
_cell_length_c   9.54181213
_cell_angle_alpha   59.90778581
_cell_angle_beta   59.96661494
_cell_angle_gamma   59.97163129
_symmetry_Int_Tables_number   1
_chemical_formula_structural   Tb5Dy11Cd4(CoNi)2
_chemical_formula_sum   'Tb5 Dy11 Cd4 Co2 Ni2'
_cell_volume   614.03207135
_cell_formula_units_Z   1
loop_
 _symmetry_equiv_pos_site_id
 _symmetry_equiv_pos_as_xyz
  1  'x, y, z'
loop_
 _atom_site_type_symbol
 _atom_site_label
 _atom_site_symmetry_multiplicity
 _atom_site_fract_x
 _atom_site_fract_y
 _atom_site_fract_z
 _atom_site_occupancy
  Tb  Tb0  1  0.151819  0.542283  0.153920  1
  Tb  Tb1  1  0.691677  0.312269  0.685344  1
  Tb  Tb2  1  0.688387  0.311771  0.311396  1
  Tb  Tb3  1  0.937652  0.562534  0.562447  1
  Tb  Tb4  1  0.542558  0.152965  0.153527  1
  Dy  Dy5  1  0.152252  0.153727  0.542020  1
  Dy  Dy6  1  0.935709  0.938336  0.562795  1
  Dy  Dy7  1  0.310796  0.685606  0.312204  1
  Dy  Dy8  1  0.563734  0.936143  0.936313  1
  Dy  Dy9  1  0.563113  0.938413  0.562988  1
  Dy  Dy10  1  0.691384  0.685790  0.312035  1
  Dy  Dy11  1  0.563058  0.563110  0.938446  1
  Dy  Dy12  1  0.935550  0.562992  0.938373  1
  Dy  Dy13  1  0.311403  0.688757  0.688383  1
  Dy  Dy14  1  0.150977  0.153057  0.153317  1
  Dy  Dy15  1  0.310459  0.312133  0.685563  1
  Cd  Cd16  1  0.918769  0.243791  0.919153  1
  Cd  Cd17  1  0.918743  0.919895  0.919843  1
  Cd  Cd18  1  0.918578  0.919252  0.243835  1
  Cd  Cd19  1  0.241493  0.920128  0.919889  1
  Co  Co20  1  0.926154  0.357068  0.357458  1
  Co  Co21  1  0.359177  0.357274  0.357781  1
  Ni  Ni22  1  0.358265  0.357992  0.924734  1
  Ni  Ni23  1  0.358293  0.924711  0.358234  1
