# generated using pymatgen
data_Nd2DyHo3(SbO7)2
_symmetry_space_group_name_H-M   'P 1'
_cell_length_a   6.51024734
_cell_length_b   6.50818293
_cell_length_c   7.61074400
_cell_angle_alpha   90.00000000
_cell_angle_beta   90.00000000
_cell_angle_gamma   109.13992516
_symmetry_Int_Tables_number   1
_chemical_formula_structural   Nd2DyHo3(SbO7)2
_chemical_formula_sum   'Nd2 Dy1 Ho3 Sb2 O14'
_cell_volume   304.64059265
_cell_formula_units_Z   1
loop_
 _symmetry_equiv_pos_site_id
 _symmetry_equiv_pos_as_xyz
  1  'x, y, z'
loop_
 _atom_site_type_symbol
 _atom_site_label
 _atom_site_symmetry_multiplicity
 _atom_site_fract_x
 _atom_site_fract_y
 _atom_site_fract_z
 _atom_site_occupancy
  Nd  Nd0  1  0.499912  0.499905  0.499776  1
  Nd  Nd1  1  0.499912  0.499905  0.000224  1
  Dy  Dy2  1  0.531414  0.000785  0.750000  1
  Ho  Ho3  1  0.000908  0.531158  0.250000  1
  Ho  Ho4  1  0.468747  0.998994  0.250000  1
  Ho  Ho5  1  0.998985  0.468869  0.750000  1
  Sb  Sb6  1  0.000152  0.000089  0.499686  1
  Sb  Sb7  1  0.000152  0.000089  0.000314  1
  O  O8  1  0.679418  0.931443  0.469269  1
  O  O9  1  0.932650  0.679528  0.530212  1
  O  O10  1  0.679418  0.931443  0.030731  1
  O  O11  1  0.932650  0.679528  0.969788  1
  O  O12  1  0.320808  0.068848  0.529078  1
  O  O13  1  0.067196  0.320546  0.469770  1
  O  O14  1  0.320808  0.068848  0.970922  1
  O  O15  1  0.067196  0.320546  0.030230  1
  O  O16  1  0.931117  0.069800  0.750000  1
  O  O17  1  0.069427  0.929865  0.250000  1
  O  O18  1  0.362085  0.635534  0.750000  1
  O  O19  1  0.637164  0.362945  0.250000  1
  O  O20  1  0.642782  0.358766  0.750000  1
  O  O21  1  0.357096  0.642568  0.250000  1
