# generated using pymatgen
data_Dy3Er5Os2(WC4)2
_symmetry_space_group_name_H-M   'P 1'
_cell_length_a   5.07817400
_cell_length_b   6.57974364
_cell_length_c   9.85319880
_cell_angle_alpha   89.17108804
_cell_angle_beta   90.00000000
_cell_angle_gamma   90.00000000
_symmetry_Int_Tables_number   1
_chemical_formula_structural   Dy3Er5Os2(WC4)2
_chemical_formula_sum   'Dy3 Er5 Os2 W2 C8'
_cell_volume   329.19129694
_cell_formula_units_Z   1
loop_
 _symmetry_equiv_pos_site_id
 _symmetry_equiv_pos_as_xyz
  1  'x, y, z'
loop_
 _atom_site_type_symbol
 _atom_site_label
 _atom_site_symmetry_multiplicity
 _atom_site_fract_x
 _atom_site_fract_y
 _atom_site_fract_z
 _atom_site_occupancy
  Dy  Dy0  1  0.750000  0.462168  0.781784  1
  Dy  Dy1  1  0.750000  0.969592  0.716629  1
  Dy  Dy2  1  0.250000  0.030738  0.283203  1
  Er  Er3  1  0.250000  0.677944  0.557287  1
  Er  Er4  1  0.750000  0.322346  0.442396  1
  Er  Er5  1  0.750000  0.823398  0.058093  1
  Er  Er6  1  0.250000  0.176257  0.942220  1
  Er  Er7  1  0.250000  0.537959  0.218279  1
  Os  Os8  1  0.750000  0.778236  0.366585  1
  Os  Os9  1  0.250000  0.221868  0.633086  1
  W  W10  1  0.250000  0.717308  0.867932  1
  W  W11  1  0.750000  0.282773  0.132339  1
  C  C12  1  0.250000  0.451018  0.758196  1
  C  C13  1  0.750000  0.549266  0.241573  1
  C  C14  1  0.750000  0.045530  0.260154  1
  C  C15  1  0.250000  0.954591  0.739931  1
  C  C16  1  0.250000  0.824912  0.054148  1
  C  C17  1  0.750000  0.173437  0.946670  1
  C  C18  1  0.750000  0.674974  0.549169  1
  C  C19  1  0.250000  0.325687  0.450326  1
