# generated using pymatgen
data_DyY3(Co5As3)4
_symmetry_space_group_name_H-M   'P 1'
_cell_length_a   3.78784900
_cell_length_b   12.18287917
_cell_length_c   10.66814615
_cell_angle_alpha   89.98094879
_cell_angle_beta   90.00000000
_cell_angle_gamma   90.00000000
_symmetry_Int_Tables_number   1
_chemical_formula_structural   DyY3(Co5As3)4
_chemical_formula_sum   'Dy1 Y3 Co20 As12'
_cell_volume   492.30191745
_cell_formula_units_Z   1
loop_
 _symmetry_equiv_pos_site_id
 _symmetry_equiv_pos_as_xyz
  1  'x, y, z'
loop_
 _atom_site_type_symbol
 _atom_site_label
 _atom_site_symmetry_multiplicity
 _atom_site_fract_x
 _atom_site_fract_y
 _atom_site_fract_z
 _atom_site_occupancy
  Dy  Dy0  1  0.750000  0.701840  0.081450  1
  Y  Y1  1  0.250000  0.298079  0.918351  1
  Y  Y2  1  0.250000  0.798053  0.581627  1
  Y  Y3  1  0.750000  0.201909  0.418397  1
  Co  Co4  1  0.750000  0.696899  0.383425  1
  Co  Co5  1  0.250000  0.303104  0.616454  1
  Co  Co6  1  0.250000  0.802971  0.883739  1
  Co  Co7  1  0.750000  0.196868  0.116476  1
  Co  Co8  1  0.750000  0.991064  0.211766  1
  Co  Co9  1  0.250000  0.008871  0.788181  1
  Co  Co10  1  0.250000  0.508905  0.711895  1
  Co  Co11  1  0.750000  0.491173  0.288148  1
  Co  Co12  1  0.750000  0.677377  0.783658  1
  Co  Co13  1  0.250000  0.322661  0.216384  1
  Co  Co14  1  0.250000  0.822631  0.283498  1
  Co  Co15  1  0.750000  0.177403  0.716422  1
  Co  Co16  1  0.750000  0.932102  0.969269  1
  Co  Co17  1  0.250000  0.067667  0.030885  1
  Co  Co18  1  0.250000  0.567773  0.469077  1
  Co  Co19  1  0.750000  0.432200  0.530855  1
  Co  Co20  1  0.750000  0.988176  0.592893  1
  Co  Co21  1  0.250000  0.011844  0.407057  1
  Co  Co22  1  0.250000  0.512156  0.092882  1
  Co  Co23  1  0.750000  0.488241  0.907163  1
  As  As24  1  0.750000  0.613819  0.584239  1
  As  As25  1  0.250000  0.386195  0.415817  1
  As  As26  1  0.250000  0.885949  0.084209  1
  As  As27  1  0.750000  0.113769  0.915793  1
  As  As28  1  0.750000  0.890752  0.398974  1
  As  As29  1  0.250000  0.109280  0.601002  1
  As  As30  1  0.250000  0.609369  0.899142  1
  As  As31  1  0.750000  0.390770  0.100977  1
  As  As32  1  0.750000  0.870104  0.769146  1
  As  As33  1  0.250000  0.129874  0.230873  1
  As  As34  1  0.250000  0.630028  0.268994  1
  As  As35  1  0.750000  0.370125  0.730882  1
