# generated using pymatgen
data_Cs6TaAs4
_symmetry_space_group_name_H-M   'P 1'
_cell_length_a   11.20965649
_cell_length_b   11.20965682
_cell_length_c   9.03127821
_cell_angle_alpha   89.86915491
_cell_angle_beta   89.86914991
_cell_angle_gamma   119.86424567
_symmetry_Int_Tables_number   1
_chemical_formula_structural   Cs6TaAs4
_chemical_formula_sum   'Cs12 Ta2 As8'
_cell_volume   984.12991214
_cell_formula_units_Z   2
loop_
 _symmetry_equiv_pos_site_id
 _symmetry_equiv_pos_as_xyz
  1  'x, y, z'
loop_
 _atom_site_type_symbol
 _atom_site_label
 _atom_site_symmetry_multiplicity
 _atom_site_fract_x
 _atom_site_fract_y
 _atom_site_fract_z
 _atom_site_occupancy
  Cs  Cs0  1  0.466096  0.532951  0.606854  1
  Cs  Cs1  1  0.065837  0.532845  0.607407  1
  Cs  Cs2  1  0.532951  0.466096  0.106854  1
  Cs  Cs3  1  0.532845  0.065837  0.107407  1
  Cs  Cs4  1  0.856405  0.143649  0.789557  1
  Cs  Cs5  1  0.292709  0.146840  0.796829  1
  Cs  Cs6  1  0.855108  0.711319  0.785150  1
  Cs  Cs7  1  0.143649  0.856405  0.289557  1
  Cs  Cs8  1  0.711319  0.855108  0.285150  1
  Cs  Cs9  1  0.146840  0.292709  0.296829  1
  Cs  Cs10  1  0.465742  0.932721  0.605090  1
  Cs  Cs11  1  0.932721  0.465742  0.105090  1
  Ta  Ta12  1  0.666791  0.332470  0.500214  1
  Ta  Ta13  1  0.332470  0.666791  0.000214  1
  As  As14  1  0.669196  0.334243  0.776248  1
  As  As15  1  0.334243  0.669196  0.276248  1
  As  As16  1  0.208854  0.789493  0.912771  1
  As  As17  1  0.577912  0.788778  0.910903  1
  As  As18  1  0.209804  0.420234  0.916177  1
  As  As19  1  0.789493  0.208854  0.412771  1
  As  As20  1  0.420234  0.209804  0.416177  1
  As  As21  1  0.788778  0.577912  0.410903  1
