# generated using pymatgen
data_Er12InCuTc3
_symmetry_space_group_name_H-M   'P 1'
_cell_length_a   8.30631143
_cell_length_b   8.30631004
_cell_length_c   8.30631000
_cell_angle_alpha   111.98047611
_cell_angle_beta   107.61022938
_cell_angle_gamma   108.85469623
_symmetry_Int_Tables_number   1
_chemical_formula_structural   Er12InCuTc3
_chemical_formula_sum   'Er12 In1 Cu1 Tc3'
_cell_volume   440.47928024
_cell_formula_units_Z   1
loop_
 _symmetry_equiv_pos_site_id
 _symmetry_equiv_pos_as_xyz
  1  'x, y, z'
loop_
 _atom_site_type_symbol
 _atom_site_label
 _atom_site_symmetry_multiplicity
 _atom_site_fract_x
 _atom_site_fract_y
 _atom_site_fract_z
 _atom_site_occupancy
  Er  Er0  1  0.184225  0.444126  0.259901  1
  Er  Er1  1  0.815775  0.555874  0.740099  1
  Er  Er2  1  0.184225  0.924325  0.740099  1
  Er  Er3  1  0.946432  0.183723  0.762707  1
  Er  Er4  1  0.815775  0.075675  0.259901  1
  Er  Er5  1  0.053568  0.816277  0.237293  1
  Er  Er6  1  0.421016  0.183723  0.237293  1
  Er  Er7  1  0.578984  0.816277  0.762707  1
  Er  Er8  1  0.320889  0.317945  0.638835  1
  Er  Er9  1  0.679111  0.682055  0.361165  1
  Er  Er10  1  0.679111  0.317945  0.997057  1
  Er  Er11  1  0.320889  0.682055  0.002943  1
  In  In12  1  0.500000  0.000000  0.500000  1
  Cu  Cu13  1  0.000000  0.500000  0.500000  1
  Tc  Tc14  1  0.336144  0.336144  0.000000  1
  Tc  Tc15  1  0.663856  0.663856  0.000000  1
  Tc  Tc16  1  0.000000  0.000000  0.000000  1
