# generated using pymatgen
data_Li3Ca5Dy3Si12Ag
_symmetry_space_group_name_H-M   'P 1'
_cell_length_a   4.30260700
_cell_length_b   10.48392910
_cell_length_c   11.04887209
_cell_angle_alpha   89.92072010
_cell_angle_beta   90.00000000
_cell_angle_gamma   90.00000000
_symmetry_Int_Tables_number   1
_chemical_formula_structural   Li3Ca5Dy3Si12Ag
_chemical_formula_sum   'Li3 Ca5 Dy3 Si12 Ag1'
_cell_volume   498.39455012
_cell_formula_units_Z   1
loop_
 _symmetry_equiv_pos_site_id
 _symmetry_equiv_pos_as_xyz
  1  'x, y, z'
loop_
 _atom_site_type_symbol
 _atom_site_label
 _atom_site_symmetry_multiplicity
 _atom_site_fract_x
 _atom_site_fract_y
 _atom_site_fract_z
 _atom_site_occupancy
  Li  Li0  1  0.500000  0.140020  0.716418  1
  Li  Li1  1  0.000000  0.360976  0.217287  1
  Li  Li2  1  0.000000  0.639178  0.784435  1
  Ca  Ca3  1  0.000000  0.947034  0.850065  1
  Ca  Ca4  1  0.500000  0.824646  0.576206  1
  Ca  Ca5  1  0.500000  0.177436  0.423929  1
  Ca  Ca6  1  0.000000  0.322029  0.924769  1
  Ca  Ca7  1  0.000000  0.677297  0.076664  1
  Dy  Dy8  1  0.500000  0.553273  0.349365  1
  Dy  Dy9  1  0.500000  0.448540  0.648503  1
  Dy  Dy10  1  0.000000  0.050642  0.149582  1
  Si  Si11  1  0.500000  0.893504  0.045175  1
  Si  Si12  1  0.500000  0.108852  0.961458  1
  Si  Si13  1  0.000000  0.395114  0.455572  1
  Si  Si14  1  0.000000  0.607502  0.543266  1
  Si  Si15  1  0.000000  0.969993  0.397108  1
  Si  Si16  1  0.000000  0.033718  0.597963  1
  Si  Si17  1  0.500000  0.465697  0.101729  1
  Si  Si18  1  0.500000  0.531815  0.899553  1
  Si  Si19  1  0.000000  0.259858  0.634319  1
  Si  Si20  1  0.000000  0.740220  0.362192  1
  Si  Si21  1  0.500000  0.754283  0.866869  1
  Si  Si22  1  0.500000  0.241789  0.138595  1
  Ag  Ag23  1  0.500000  0.856583  0.278980  1
