# generated using pymatgen
data_Tb2SmHo2(Tl2Pd)2
_symmetry_space_group_name_H-M   'P 1'
_cell_length_a   3.63622200
_cell_length_b   8.19398100
_cell_length_c   18.37584200
_cell_angle_alpha   90.00000000
_cell_angle_beta   90.00000000
_cell_angle_gamma   90.00000000
_symmetry_Int_Tables_number   1
_chemical_formula_structural   Tb2SmHo2(Tl2Pd)2
_chemical_formula_sum   'Tb4 Sm2 Ho4 Tl8 Pd4'
_cell_volume   547.51067438
_cell_formula_units_Z   2
loop_
 _symmetry_equiv_pos_site_id
 _symmetry_equiv_pos_as_xyz
  1  'x, y, z'
loop_
 _atom_site_type_symbol
 _atom_site_label
 _atom_site_symmetry_multiplicity
 _atom_site_fract_x
 _atom_site_fract_y
 _atom_site_fract_z
 _atom_site_occupancy
  Tb  Tb0  1  0.000000  0.739076  0.282367  1
  Tb  Tb1  1  0.000000  0.260924  0.717633  1
  Tb  Tb2  1  0.000000  0.760924  0.782367  1
  Tb  Tb3  1  0.000000  0.239076  0.217633  1
  Sm  Sm4  1  0.000000  0.500000  0.500000  1
  Sm  Sm5  1  0.000000  0.000000  0.000000  1
  Ho  Ho6  1  0.000000  0.618957  0.085008  1
  Ho  Ho7  1  0.000000  0.381043  0.914992  1
  Ho  Ho8  1  0.000000  0.881043  0.585008  1
  Ho  Ho9  1  0.000000  0.118957  0.414992  1
  Tl  Tl10  1  0.500000  0.702265  0.933912  1
  Tl  Tl11  1  0.500000  0.297735  0.066088  1
  Tl  Tl12  1  0.500000  0.797735  0.433912  1
  Tl  Tl13  1  0.500000  0.202265  0.566088  1
  Tl  Tl14  1  0.500000  0.584850  0.651072  1
  Tl  Tl15  1  0.500000  0.415150  0.348928  1
  Tl  Tl16  1  0.500000  0.915150  0.151072  1
  Tl  Tl17  1  0.500000  0.084850  0.848928  1
  Pd  Pd18  1  0.500000  0.525356  0.195417  1
  Pd  Pd19  1  0.500000  0.474644  0.804583  1
  Pd  Pd20  1  0.500000  0.974644  0.695417  1
  Pd  Pd21  1  0.500000  0.025356  0.304583  1
