# generated using pymatgen
data_LaTlAg2(Pt2O7)2
_symmetry_space_group_name_H-M   'P 1'
_cell_length_a   7.28772147
_cell_length_b   7.32658309
_cell_length_c   7.23225700
_cell_angle_alpha   60.42498381
_cell_angle_beta   60.25126924
_cell_angle_gamma   60.95351375
_symmetry_Int_Tables_number   1
_chemical_formula_structural   LaTlAg2(Pt2O7)2
_chemical_formula_sum   'La1 Tl1 Ag2 Pt4 O14'
_cell_volume   276.38550545
_cell_formula_units_Z   1
loop_
 _symmetry_equiv_pos_site_id
 _symmetry_equiv_pos_as_xyz
  1  'x, y, z'
loop_
 _atom_site_type_symbol
 _atom_site_label
 _atom_site_symmetry_multiplicity
 _atom_site_fract_x
 _atom_site_fract_y
 _atom_site_fract_z
 _atom_site_occupancy
  La  La0  1  0.625000  0.125000  0.125000  1
  Tl  Tl1  1  0.125000  0.625000  0.125000  1
  Ag  Ag2  1  0.125000  0.125000  0.125000  1
  Ag  Ag3  1  0.125000  0.125000  0.625000  1
  Pt  Pt4  1  0.625000  0.625000  0.125000  1
  Pt  Pt5  1  0.625000  0.625000  0.625000  1
  Pt  Pt6  1  0.625000  0.125000  0.625000  1
  Pt  Pt7  1  0.125000  0.625000  0.625000  1
  O  O8  1  0.701381  0.296350  0.293066  1
  O  O9  1  0.711594  0.710760  0.288822  1
  O  O10  1  0.294445  0.701671  0.292598  1
  O  O11  1  0.031383  0.010292  0.979163  1
  O  O12  1  0.701380  0.296345  0.709205  1
  O  O13  1  0.955555  0.548329  0.538714  1
  O  O14  1  0.294445  0.701671  0.711286  1
  O  O15  1  0.548620  0.953655  0.540795  1
  O  O16  1  0.218617  0.239708  0.270837  1
  O  O17  1  0.955555  0.548329  0.957402  1
  O  O18  1  0.538406  0.539240  0.961178  1
  O  O19  1  0.952923  0.952053  0.547511  1
  O  O20  1  0.548619  0.953650  0.956934  1
  O  O21  1  0.297077  0.297947  0.702489  1
