# generated using pymatgen
data_Sr3LiPtO6
_symmetry_space_group_name_H-M   'P 1'
_cell_length_a   6.76463705
_cell_length_b   6.76463748
_cell_length_c   6.76463724
_cell_angle_alpha   91.97239202
_cell_angle_beta   91.97239312
_cell_angle_gamma   91.97239476
_symmetry_Int_Tables_number   1
_chemical_formula_structural   Sr3LiPtO6
_chemical_formula_sum   'Sr6 Li2 Pt2 O12'
_cell_volume   308.98877281
_cell_formula_units_Z   2
loop_
 _symmetry_equiv_pos_site_id
 _symmetry_equiv_pos_as_xyz
  1  'x, y, z'
loop_
 _atom_site_type_symbol
 _atom_site_label
 _atom_site_symmetry_multiplicity
 _atom_site_fract_x
 _atom_site_fract_y
 _atom_site_fract_z
 _atom_site_occupancy
  Sr  Sr0  1  0.108384  0.391616  0.750000  1
  Sr  Sr1  1  0.750000  0.108384  0.391616  1
  Sr  Sr2  1  0.391616  0.750000  0.108384  1
  Sr  Sr3  1  0.250000  0.891616  0.608384  1
  Sr  Sr4  1  0.608384  0.250000  0.891616  1
  Sr  Sr5  1  0.891616  0.608384  0.250000  1
  Li  Li6  1  0.250000  0.250000  0.250000  1
  Li  Li7  1  0.750000  0.750000  0.750000  1
  Pt  Pt8  1  0.500000  0.500000  0.500000  1
  Pt  Pt9  1  0.000000  0.000000  0.000000  1
  O  O10  1  0.452917  0.583533  0.784153  1
  O  O11  1  0.784153  0.452917  0.583533  1
  O  O12  1  0.583533  0.784153  0.452917  1
  O  O13  1  0.284153  0.083533  0.952917  1
  O  O14  1  0.952917  0.284153  0.083533  1
  O  O15  1  0.083533  0.952917  0.284153  1
  O  O16  1  0.547083  0.416467  0.215847  1
  O  O17  1  0.215847  0.547083  0.416467  1
  O  O18  1  0.416467  0.215847  0.547083  1
  O  O19  1  0.715847  0.916467  0.047083  1
  O  O20  1  0.047083  0.715847  0.916467  1
  O  O21  1  0.916467  0.047083  0.715847  1
