# generated using pymatgen
data_Y20CoNiHg6
_symmetry_space_group_name_H-M   'P 1'
_cell_length_a   9.66396900
_cell_length_b   9.66396991
_cell_length_c   9.59236500
_cell_angle_alpha   90.00000000
_cell_angle_beta   90.00000000
_cell_angle_gamma   119.99999345
_symmetry_Int_Tables_number   1
_chemical_formula_structural   Y20CoNiHg6
_chemical_formula_sum   'Y20 Co1 Ni1 Hg6'
_cell_volume   775.83158019
_cell_formula_units_Z   1
loop_
 _symmetry_equiv_pos_site_id
 _symmetry_equiv_pos_as_xyz
  1  'x, y, z'
loop_
 _atom_site_type_symbol
 _atom_site_label
 _atom_site_symmetry_multiplicity
 _atom_site_fract_x
 _atom_site_fract_y
 _atom_site_fract_z
 _atom_site_occupancy
  Y  Y0  1  0.000000  0.000000  0.499458  1
  Y  Y1  1  0.000000  0.000000  0.000542  1
  Y  Y2  1  0.542412  0.457588  0.250000  1
  Y  Y3  1  0.542412  0.084823  0.250000  1
  Y  Y4  1  0.915177  0.457588  0.250000  1
  Y  Y5  1  0.456464  0.543536  0.750000  1
  Y  Y6  1  0.456464  0.912928  0.750000  1
  Y  Y7  1  0.087072  0.543536  0.750000  1
  Y  Y8  1  0.211457  0.788543  0.435542  1
  Y  Y9  1  0.211457  0.422915  0.435542  1
  Y  Y10  1  0.577085  0.788543  0.435542  1
  Y  Y11  1  0.790035  0.209965  0.562817  1
  Y  Y12  1  0.790035  0.580069  0.562817  1
  Y  Y13  1  0.419931  0.209965  0.562817  1
  Y  Y14  1  0.790035  0.209965  0.937183  1
  Y  Y15  1  0.790035  0.580069  0.937183  1
  Y  Y16  1  0.419931  0.209965  0.937183  1
  Y  Y17  1  0.211457  0.788543  0.064458  1
  Y  Y18  1  0.211457  0.422915  0.064458  1
  Y  Y19  1  0.577085  0.788543  0.064458  1
  Co  Co20  1  0.333333  0.666667  0.250000  1
  Ni  Ni21  1  0.666667  0.333333  0.750000  1
  Hg  Hg22  1  0.880398  0.119602  0.250000  1
  Hg  Hg23  1  0.880398  0.760796  0.250000  1
  Hg  Hg24  1  0.239204  0.119602  0.250000  1
  Hg  Hg25  1  0.119439  0.880561  0.750000  1
  Hg  Hg26  1  0.119439  0.238878  0.750000  1
  Hg  Hg27  1  0.761122  0.880561  0.750000  1
