# generated using pymatgen
data_Tm4Sc8In2Fe3
_symmetry_space_group_name_H-M   'P 1'
_cell_length_a   7.95714341
_cell_length_b   7.95714218
_cell_length_c   7.95714284
_cell_angle_alpha   108.24774629
_cell_angle_beta   108.24774082
_cell_angle_gamma   111.94690446
_symmetry_Int_Tables_number   1
_chemical_formula_structural   Tm4Sc8In2Fe3
_chemical_formula_sum   'Tm4 Sc8 In2 Fe3'
_cell_volume   387.29162952
_cell_formula_units_Z   1
loop_
 _symmetry_equiv_pos_site_id
 _symmetry_equiv_pos_as_xyz
  1  'x, y, z'
loop_
 _atom_site_type_symbol
 _atom_site_label
 _atom_site_symmetry_multiplicity
 _atom_site_fract_x
 _atom_site_fract_y
 _atom_site_fract_z
 _atom_site_occupancy
  Tm  Tm0  1  0.303438  0.303438  0.606875  1
  Tm  Tm1  1  0.696562  0.696562  0.393125  1
  Tm  Tm2  1  0.696562  0.303438  0.000000  1
  Tm  Tm3  1  0.303438  0.696562  0.000000  1
  Sc  Sc4  1  0.189519  0.422114  0.232595  1
  Sc  Sc5  1  0.810481  0.577886  0.767405  1
  Sc  Sc6  1  0.189519  0.956924  0.767405  1
  Sc  Sc7  1  0.956924  0.189519  0.767405  1
  Sc  Sc8  1  0.810481  0.043076  0.232595  1
  Sc  Sc9  1  0.043076  0.810481  0.232595  1
  Sc  Sc10  1  0.422114  0.189519  0.232595  1
  Sc  Sc11  1  0.577886  0.810481  0.767405  1
  In  In12  1  0.000000  0.500000  0.500000  1
  In  In13  1  0.500000  0.000000  0.500000  1
  Fe  Fe14  1  0.377791  0.377791  0.000000  1
  Fe  Fe15  1  0.622209  0.622209  0.000000  1
  Fe  Fe16  1  0.000000  0.000000  0.000000  1
