# generated using pymatgen
data_Nd2Ga3Si
_symmetry_space_group_name_H-M   'P 1'
_cell_length_a   4.27596400
_cell_length_b   4.22626800
_cell_length_c   7.29584400
_cell_angle_alpha   90.00000000
_cell_angle_beta   90.00000000
_cell_angle_gamma   90.00000000
_symmetry_Int_Tables_number   1
_chemical_formula_structural   Nd2Ga3Si
_chemical_formula_sum   'Nd2 Ga3 Si1'
_cell_volume   131.84589509
_cell_formula_units_Z   1
loop_
 _symmetry_equiv_pos_site_id
 _symmetry_equiv_pos_as_xyz
  1  'x, y, z'
loop_
 _atom_site_type_symbol
 _atom_site_label
 _atom_site_symmetry_multiplicity
 _atom_site_fract_x
 _atom_site_fract_y
 _atom_site_fract_z
 _atom_site_occupancy
  Nd  Nd0  1  0.000000  0.500000  0.004971  1
  Nd  Nd1  1  0.000000  0.000000  0.495404  1
  Ga  Ga2  1  0.500000  0.000000  0.831339  1
  Ga  Ga3  1  0.500000  0.000000  0.166787  1
  Ga  Ga4  1  0.500000  0.500000  0.665552  1
  Si  Si5  1  0.500000  0.500000  0.335948  1
