# generated using pymatgen
data_GaIrSeS2
_symmetry_space_group_name_H-M   'P 1'
_cell_length_a   3.73460300
_cell_length_b   9.73235500
_cell_length_c   12.36846400
_cell_angle_alpha   90.00000000
_cell_angle_beta   90.00000000
_cell_angle_gamma   90.00000000
_symmetry_Int_Tables_number   1
_chemical_formula_structural   GaIrSeS2
_chemical_formula_sum   'Ga4 Ir4 Se4 S8'
_cell_volume   449.55015637
_cell_formula_units_Z   4
loop_
 _symmetry_equiv_pos_site_id
 _symmetry_equiv_pos_as_xyz
  1  'x, y, z'
loop_
 _atom_site_type_symbol
 _atom_site_label
 _atom_site_symmetry_multiplicity
 _atom_site_fract_x
 _atom_site_fract_y
 _atom_site_fract_z
 _atom_site_occupancy
  Ga  Ga0  1  0.750000  0.254999  0.801485  1
  Ga  Ga1  1  0.250000  0.745001  0.198515  1
  Ga  Ga2  1  0.750000  0.754999  0.698515  1
  Ga  Ga3  1  0.250000  0.245001  0.301485  1
  Ir  Ir4  1  0.250000  0.406298  0.605839  1
  Ir  Ir5  1  0.750000  0.593702  0.394161  1
  Ir  Ir6  1  0.250000  0.906298  0.894161  1
  Ir  Ir7  1  0.750000  0.093702  0.105839  1
  Se  Se8  1  0.250000  0.268156  0.104859  1
  Se  Se9  1  0.750000  0.731844  0.895141  1
  Se  Se10  1  0.250000  0.768156  0.395141  1
  Se  Se11  1  0.750000  0.231844  0.604859  1
  S  S12  1  0.250000  0.939087  0.086093  1
  S  S13  1  0.750000  0.060913  0.913907  1
  S  S14  1  0.250000  0.439087  0.413907  1
  S  S15  1  0.750000  0.560913  0.586093  1
  S  S16  1  0.750000  0.100796  0.301069  1
  S  S17  1  0.250000  0.899204  0.698931  1
  S  S18  1  0.750000  0.600796  0.198931  1
  S  S19  1  0.250000  0.399204  0.801069  1
