# generated using pymatgen
data_BaTm2Si3O10
_symmetry_space_group_name_H-M   'P 1'
_cell_length_a   12.28760900
_cell_length_b   5.42394701
_cell_length_c   6.85696195
_cell_angle_alpha   73.43022187
_cell_angle_beta   90.00000000
_cell_angle_gamma   90.00000000
_symmetry_Int_Tables_number   1
_chemical_formula_structural   BaTm2Si3O10
_chemical_formula_sum   'Ba2 Tm4 Si6 O20'
_cell_volume   438.02056929
_cell_formula_units_Z   2
loop_
 _symmetry_equiv_pos_site_id
 _symmetry_equiv_pos_as_xyz
  1  'x, y, z'
loop_
 _atom_site_type_symbol
 _atom_site_label
 _atom_site_symmetry_multiplicity
 _atom_site_fract_x
 _atom_site_fract_y
 _atom_site_fract_z
 _atom_site_occupancy
  Ba  Ba0  1  0.750000  0.760450  0.982792  1
  Ba  Ba1  1  0.250000  0.239550  0.017208  1
  Tm  Tm2  1  0.600018  0.155546  0.318208  1
  Tm  Tm3  1  0.899982  0.155546  0.318208  1
  Tm  Tm4  1  0.100018  0.844454  0.681792  1
  Tm  Tm5  1  0.399982  0.844454  0.681792  1
  Si  Si6  1  0.059396  0.695641  0.213172  1
  Si  Si7  1  0.250000  0.420607  0.488414  1
  Si  Si8  1  0.750000  0.579393  0.511586  1
  Si  Si9  1  0.440604  0.695641  0.213172  1
  Si  Si10  1  0.559396  0.304359  0.786828  1
  Si  Si11  1  0.940604  0.304359  0.786828  1
  O  O12  1  0.452423  0.897566  0.353506  1
  O  O13  1  0.143247  0.454924  0.337048  1
  O  O14  1  0.856753  0.545076  0.662952  1
  O  O15  1  0.356753  0.454924  0.337048  1
  O  O16  1  0.380624  0.840092  0.998944  1
  O  O17  1  0.880624  0.159908  0.001056  1
  O  O18  1  0.055548  0.442321  0.805091  1
  O  O19  1  0.952423  0.102434  0.646494  1
  O  O20  1  0.547577  0.102434  0.646494  1
  O  O21  1  0.250000  0.632381  0.616299  1
  O  O22  1  0.119376  0.840092  0.998944  1
  O  O23  1  0.555548  0.557679  0.194909  1
  O  O24  1  0.250000  0.122883  0.633761  1
  O  O25  1  0.643247  0.545076  0.662952  1
  O  O26  1  0.750000  0.877117  0.366239  1
  O  O27  1  0.944452  0.557679  0.194909  1
  O  O28  1  0.750000  0.367619  0.383701  1
  O  O29  1  0.444452  0.442321  0.805091  1
  O  O30  1  0.619376  0.159908  0.001056  1
  O  O31  1  0.047577  0.897566  0.353506  1
