# generated using pymatgen
data_Ba4NbTl2SbO12
_symmetry_space_group_name_H-M   'P 1'
_cell_length_a   6.03874109
_cell_length_b   6.03766028
_cell_length_c   8.53072339
_cell_angle_alpha   89.99968417
_cell_angle_beta   89.99602738
_cell_angle_gamma   90.00137623
_symmetry_Int_Tables_number   1
_chemical_formula_structural   Ba4NbTl2SbO12
_chemical_formula_sum   'Ba4 Nb1 Tl2 Sb1 O12'
_cell_volume   311.02904092
_cell_formula_units_Z   1
loop_
 _symmetry_equiv_pos_site_id
 _symmetry_equiv_pos_as_xyz
  1  'x, y, z'
loop_
 _atom_site_type_symbol
 _atom_site_label
 _atom_site_symmetry_multiplicity
 _atom_site_fract_x
 _atom_site_fract_y
 _atom_site_fract_z
 _atom_site_occupancy
  Ba  Ba0  1  0.449815  0.050118  0.248685  1
  Ba  Ba1  1  0.950084  0.550065  0.248929  1
  Ba  Ba2  1  0.449959  0.049913  0.751240  1
  Ba  Ba3  1  0.950091  0.549991  0.751192  1
  Nb  Nb4  1  0.949866  0.049811  0.499989  1
  Tl  Tl5  1  0.950053  0.050277  0.999995  1
  Tl  Tl6  1  0.449935  0.549747  0.499999  1
  Sb  Sb7  1  0.450182  0.550160  0.000004  1
  O  O8  1  0.211531  0.782916  0.000515  1
  O  O9  1  0.217842  0.311245  0.000988  1
  O  O10  1  0.451279  0.550281  0.235082  1
  O  O11  1  0.948606  0.049966  0.263156  1
  O  O12  1  0.179475  0.291650  0.499022  1
  O  O13  1  0.191532  0.819879  0.499610  1
  O  O14  1  0.707866  0.279205  0.500304  1
  O  O15  1  0.720630  0.807532  0.500991  1
  O  O16  1  0.951285  0.050604  0.736823  1
  O  O17  1  0.448666  0.549110  0.764918  1
  O  O18  1  0.682107  0.789459  0.999031  1
  O  O19  1  0.689192  0.318072  0.999481  1
