# generated using pymatgen
data_DyTh2In2GaPt3
_symmetry_space_group_name_H-M   'P 1'
_cell_length_a   7.59002392
_cell_length_b   7.58241464
_cell_length_c   4.06015900
_cell_angle_alpha   90.00000000
_cell_angle_beta   90.00000000
_cell_angle_gamma   120.20410756
_symmetry_Int_Tables_number   1
_chemical_formula_structural   DyTh2In2GaPt3
_chemical_formula_sum   'Dy1 Th2 In2 Ga1 Pt3'
_cell_volume   201.94236807
_cell_formula_units_Z   1
loop_
 _symmetry_equiv_pos_site_id
 _symmetry_equiv_pos_as_xyz
  1  'x, y, z'
loop_
 _atom_site_type_symbol
 _atom_site_label
 _atom_site_symmetry_multiplicity
 _atom_site_fract_x
 _atom_site_fract_y
 _atom_site_fract_z
 _atom_site_occupancy
  Dy  Dy0  1  0.994174  0.590942  0.500000  1
  Th  Th1  1  0.587445  0.996579  0.500000  1
  Th  Th2  1  0.425417  0.423669  0.500000  1
  In  In3  1  0.003939  0.259006  0.000000  1
  In  In4  1  0.240932  0.992582  0.000000  1
  Ga  Ga5  1  0.758937  0.748807  0.000000  1
  Pt  Pt6  1  0.348333  0.669551  0.000000  1
  Pt  Pt7  1  0.663914  0.336771  0.000000  1
  Pt  Pt8  1  0.976908  0.982090  0.500000  1
