# generated using pymatgen
data_Tb2Y2Al24IrPt8
_symmetry_space_group_name_H-M   'P 1'
_cell_length_a   7.52328519
_cell_length_b   7.54589184
_cell_length_c   13.18689608
_cell_angle_alpha   84.61175430
_cell_angle_beta   79.10887706
_cell_angle_gamma   59.91059217
_symmetry_Int_Tables_number   1
_chemical_formula_structural   Tb2Y2Al24IrPt8
_chemical_formula_sum   'Tb2 Y2 Al24 Ir1 Pt8'
_cell_volume   636.07059231
_cell_formula_units_Z   1
loop_
 _symmetry_equiv_pos_site_id
 _symmetry_equiv_pos_as_xyz
  1  'x, y, z'
loop_
 _atom_site_type_symbol
 _atom_site_label
 _atom_site_symmetry_multiplicity
 _atom_site_fract_x
 _atom_site_fract_y
 _atom_site_fract_z
 _atom_site_occupancy
  Tb  Tb0  1  0.733708  0.498418  0.808770  1
  Tb  Tb1  1  0.266292  0.501582  0.191230  1
  Y  Y2  1  0.393543  0.168310  0.808835  1
  Y  Y3  1  0.606457  0.831690  0.191165  1
  Al  Al4  1  0.687053  0.830647  0.945891  1
  Al  Al5  1  0.312947  0.169353  0.054109  1
  Al  Al6  1  0.146629  0.832140  0.561621  1
  Al  Al7  1  0.853371  0.167860  0.438379  1
  Al  Al8  1  0.480013  0.166720  0.558982  1
  Al  Al9  1  0.519987  0.833280  0.441018  1
  Al  Al10  1  0.217061  0.165070  0.329124  1
  Al  Al11  1  0.782939  0.834930  0.670876  1
  Al  Al12  1  0.436772  0.506993  0.670785  1
  Al  Al13  1  0.563228  0.493007  0.329215  1
  Al  Al14  1  0.109653  0.160043  0.668869  1
  Al  Al15  1  0.890347  0.839957  0.331131  1
  Al  Al16  1  0.349287  0.499351  0.945962  1
  Al  Al17  1  0.650713  0.500649  0.054038  1
  Al  Al18  1  0.014932  0.171144  0.955160  1
  Al  Al19  1  0.985068  0.828856  0.044840  1
  Al  Al20  1  0.186430  0.499337  0.441207  1
  Al  Al21  1  0.813570  0.500663  0.558793  1
  Al  Al22  1  0.734921  0.163574  0.183255  1
  Al  Al23  1  0.265079  0.836426  0.816745  1
  Al  Al24  1  0.061106  0.629824  0.817338  1
  Al  Al25  1  0.938894  0.370176  0.182662  1
  Al  Al26  1  0.855967  0.041383  0.816379  1
  Al  Al27  1  0.144033  0.958617  0.183622  1
  Ir  Ir28  1  0.000000  0.500000  0.000000  1
  Pt  Pt29  1  0.120215  0.492532  0.638397  1
  Pt  Pt30  1  0.879785  0.507468  0.361603  1
  Pt  Pt31  1  0.657456  0.171177  0.999934  1
  Pt  Pt32  1  0.342544  0.828823  0.000066  1
  Pt  Pt33  1  0.537753  0.166823  0.362014  1
  Pt  Pt34  1  0.462247  0.833177  0.637986  1
  Pt  Pt35  1  0.779258  0.174716  0.636755  1
  Pt  Pt36  1  0.220742  0.825284  0.363245  1
