# generated using pymatgen
data_LiLa3Y13Cd3Ni4
_symmetry_space_group_name_H-M   'P 1'
_cell_length_a   9.75874032
_cell_length_b   9.75694197
_cell_length_c   9.75694139
_cell_angle_alpha   59.51904907
_cell_angle_beta   59.77393169
_cell_angle_gamma   59.77393549
_symmetry_Int_Tables_number   1
_chemical_formula_structural   LiLa3Y13Cd3Ni4
_chemical_formula_sum   'Li1 La3 Y13 Cd3 Ni4'
_cell_volume   652.26042948
_cell_formula_units_Z   1
loop_
 _symmetry_equiv_pos_site_id
 _symmetry_equiv_pos_as_xyz
  1  'x, y, z'
loop_
 _atom_site_type_symbol
 _atom_site_label
 _atom_site_symmetry_multiplicity
 _atom_site_fract_x
 _atom_site_fract_y
 _atom_site_fract_z
 _atom_site_occupancy
  Li  Li0  1  0.823914  0.819402  0.819402  1
  La  La1  1  0.595267  0.599998  0.599998  1
  La  La2  1  0.595913  0.599425  0.204138  1
  La  La3  1  0.595913  0.204138  0.599425  1
  Y  Y4  1  0.198242  0.601150  0.601150  1
  Y  Y5  1  0.063512  0.438694  0.438694  1
  Y  Y6  1  0.436632  0.065848  0.065848  1
  Y  Y7  1  0.439882  0.064268  0.436664  1
  Y  Y8  1  0.067436  0.434569  0.063655  1
  Y  Y9  1  0.439882  0.436664  0.064268  1
  Y  Y10  1  0.067436  0.063655  0.434569  1
  Y  Y11  1  0.187317  0.816546  0.816546  1
  Y  Y12  1  0.816378  0.184524  0.184524  1
  Y  Y13  1  0.816865  0.185583  0.817044  1
  Y  Y14  1  0.185236  0.815955  0.184922  1
  Y  Y15  1  0.816865  0.817044  0.185583  1
  Y  Y16  1  0.185236  0.184922  0.815955  1
  Cd  Cd17  1  0.836382  0.829576  0.503125  1
  Cd  Cd18  1  0.836382  0.503125  0.829576  1
  Cd  Cd19  1  0.501618  0.832522  0.832522  1
  Ni  Ni20  1  0.389778  0.393507  0.393507  1
  Ni  Ni21  1  0.388072  0.393637  0.824985  1
  Ni  Ni22  1  0.388072  0.824985  0.393637  1
  Ni  Ni23  1  0.827767  0.390264  0.390264  1
