# generated using pymatgen
data_Ca3Dy(Ga2Ag)4
_symmetry_space_group_name_H-M   'P 1'
_cell_length_a   4.35625000
_cell_length_b   7.06711643
_cell_length_c   10.54741109
_cell_angle_alpha   90.99831020
_cell_angle_beta   90.00000000
_cell_angle_gamma   90.00000000
_symmetry_Int_Tables_number   1
_chemical_formula_structural   Ca3Dy(Ga2Ag)4
_chemical_formula_sum   'Ca3 Dy1 Ga8 Ag4'
_cell_volume   324.66463752
_cell_formula_units_Z   1
loop_
 _symmetry_equiv_pos_site_id
 _symmetry_equiv_pos_as_xyz
  1  'x, y, z'
loop_
 _atom_site_type_symbol
 _atom_site_label
 _atom_site_symmetry_multiplicity
 _atom_site_fract_x
 _atom_site_fract_y
 _atom_site_fract_z
 _atom_site_occupancy
  Ca  Ca0  1  0.750000  0.225079  0.173441  1
  Ca  Ca1  1  0.750000  0.725982  0.324920  1
  Ca  Ca2  1  0.250000  0.274578  0.673931  1
  Dy  Dy3  1  0.250000  0.779775  0.829260  1
  Ga  Ga4  1  0.250000  0.704007  0.536010  1
  Ga  Ga5  1  0.750000  0.299803  0.467723  1
  Ga  Ga6  1  0.750000  0.795304  0.032338  1
  Ga  Ga7  1  0.250000  0.200641  0.965058  1
  Ga  Ga8  1  0.250000  0.923194  0.146214  1
  Ga  Ga9  1  0.750000  0.072294  0.849328  1
  Ga  Ga10  1  0.750000  0.574782  0.653314  1
  Ga  Ga11  1  0.250000  0.427639  0.350099  1
  Ag  Ag12  1  0.250000  0.539886  0.098666  1
  Ag  Ag13  1  0.750000  0.457539  0.899688  1
  Ag  Ag14  1  0.750000  0.956609  0.599592  1
  Ag  Ag15  1  0.250000  0.042888  0.400421  1
