# generated using pymatgen
data_Tb3MnCo9GeB4
_symmetry_space_group_name_H-M   'P 1'
_cell_length_a   5.13289716
_cell_length_b   5.13084369
_cell_length_c   9.56794403
_cell_angle_alpha   89.99708488
_cell_angle_beta   90.00045187
_cell_angle_gamma   119.97897722
_symmetry_Int_Tables_number   1
_chemical_formula_structural   Tb3MnCo9GeB4
_chemical_formula_sum   'Tb3 Mn1 Co9 Ge1 B4'
_cell_volume   218.26925526
_cell_formula_units_Z   1
loop_
 _symmetry_equiv_pos_site_id
 _symmetry_equiv_pos_as_xyz
  1  'x, y, z'
loop_
 _atom_site_type_symbol
 _atom_site_label
 _atom_site_symmetry_multiplicity
 _atom_site_fract_x
 _atom_site_fract_y
 _atom_site_fract_z
 _atom_site_occupancy
  Tb  Tb0  1  0.999987  0.999979  0.999970  1
  Tb  Tb1  1  0.000027  0.000033  0.340231  1
  Tb  Tb2  1  0.000025  0.999974  0.659749  1
  Mn  Mn3  1  0.333179  0.666657  0.999983  1
  Co  Co4  1  0.499732  0.999439  0.500028  1
  Co  Co5  1  0.499714  0.500198  0.500004  1
  Co  Co6  1  0.000490  0.500229  0.499984  1
  Co  Co7  1  0.500040  0.000096  0.206048  1
  Co  Co8  1  0.500047  0.500058  0.205995  1
  Co  Co9  1  0.000033  0.500072  0.206083  1
  Co  Co10  1  0.499989  0.000028  0.793948  1
  Co  Co11  1  0.499997  0.499966  0.794013  1
  Co  Co12  1  0.000009  0.499994  0.793941  1
  Ge  Ge13  1  0.666553  0.333182  0.999992  1
  B  B14  1  0.333463  0.666747  0.348548  1
  B  B15  1  0.666576  0.333285  0.350086  1
  B  B16  1  0.666592  0.333325  0.649928  1
  B  B17  1  0.333449  0.666735  0.651469  1
