# generated using pymatgen
data_Zr7Nb(Si4Mo3)4
_symmetry_space_group_name_H-M   'P 1'
_cell_length_a   6.60840957
_cell_length_b   6.76535296
_cell_length_c   12.63752759
_cell_angle_alpha   90.00388409
_cell_angle_beta   90.16611691
_cell_angle_gamma   89.92666060
_symmetry_Int_Tables_number   1
_chemical_formula_structural   Zr7Nb(Si4Mo3)4
_chemical_formula_sum   'Zr7 Nb1 Si16 Mo12'
_cell_volume   564.99856549
_cell_formula_units_Z   1
loop_
 _symmetry_equiv_pos_site_id
 _symmetry_equiv_pos_as_xyz
  1  'x, y, z'
loop_
 _atom_site_type_symbol
 _atom_site_label
 _atom_site_symmetry_multiplicity
 _atom_site_fract_x
 _atom_site_fract_y
 _atom_site_fract_z
 _atom_site_occupancy
  Zr  Zr0  1  0.994216  0.171493  0.093319  1
  Zr  Zr1  1  0.004468  0.827950  0.904072  1
  Zr  Zr2  1  0.505653  0.670878  0.906532  1
  Zr  Zr3  1  0.006356  0.827070  0.593768  1
  Zr  Zr4  1  0.494783  0.328319  0.092706  1
  Zr  Zr5  1  0.994969  0.172070  0.409167  1
  Zr  Zr6  1  0.495111  0.329553  0.410060  1
  Nb  Nb7  1  0.511026  0.678685  0.594191  1
  Si  Si8  1  0.031712  0.123683  0.750137  1
  Si  Si9  1  0.967593  0.875624  0.250604  1
  Si  Si10  1  0.467923  0.624292  0.250078  1
  Si  Si11  1  0.530226  0.379886  0.746786  1
  Si  Si12  1  0.303367  0.859587  0.747301  1
  Si  Si13  1  0.698861  0.138497  0.251215  1
  Si  Si14  1  0.199885  0.361235  0.250978  1
  Si  Si15  1  0.795828  0.635577  0.747564  1
  Si  Si16  1  0.172775  0.462825  0.545009  1
  Si  Si17  1  0.832159  0.543007  0.459035  1
  Si  Si18  1  0.334686  0.955434  0.458354  1
  Si  Si19  1  0.833728  0.541546  0.042921  1
  Si  Si20  1  0.664479  0.038283  0.544401  1
  Si  Si21  1  0.165215  0.457971  0.955791  1
  Si  Si22  1  0.666369  0.041861  0.956301  1
  Si  Si23  1  0.332991  0.958136  0.042494  1
  Mo  Mo24  1  0.165166  0.511977  0.749174  1
  Mo  Mo25  1  0.833452  0.489417  0.250708  1
  Mo  Mo26  1  0.333610  0.009713  0.249672  1
  Mo  Mo27  1  0.666483  0.988077  0.749890  1
  Mo  Mo28  1  0.327518  0.163397  0.624101  1
  Mo  Mo29  1  0.670171  0.836781  0.376694  1
  Mo  Mo30  1  0.170746  0.663478  0.376620  1
  Mo  Mo31  1  0.668781  0.836405  0.123725  1
  Mo  Mo32  1  0.831314  0.332884  0.622803  1
  Mo  Mo33  1  0.331628  0.164191  0.874996  1
  Mo  Mo34  1  0.827788  0.336802  0.875068  1
  Mo  Mo35  1  0.168962  0.663414  0.123765  1
