# generated using pymatgen
data_Rb4Na2ErLuAs4
_symmetry_space_group_name_H-M   'P 1'
_cell_length_a   9.45208097
_cell_length_b   9.45208045
_cell_length_c   9.45208091
_cell_angle_alpha   135.46756856
_cell_angle_beta   135.73258252
_cell_angle_gamma   64.59947424
_symmetry_Int_Tables_number   1
_chemical_formula_structural   Rb4Na2ErLuAs4
_chemical_formula_sum   'Rb4 Na2 Er1 Lu1 As4'
_cell_volume   407.61202424
_cell_formula_units_Z   1
loop_
 _symmetry_equiv_pos_site_id
 _symmetry_equiv_pos_as_xyz
  1  'x, y, z'
loop_
 _atom_site_type_symbol
 _atom_site_label
 _atom_site_symmetry_multiplicity
 _atom_site_fract_x
 _atom_site_fract_y
 _atom_site_fract_z
 _atom_site_occupancy
  Rb  Rb0  1  0.681382  0.394760  0.715128  1
  Rb  Rb1  1  0.818618  0.033744  0.213379  1
  Rb  Rb2  1  0.179634  0.966256  0.784872  1
  Rb  Rb3  1  0.320366  0.605240  0.286621  1
  Na  Na4  1  0.750000  0.000000  0.750000  1
  Na  Na5  1  0.250000  0.000000  0.250000  1
  Er  Er6  1  0.750000  0.500000  0.250000  1
  Lu  Lu7  1  0.250000  0.500000  0.750000  1
  As  As8  1  0.404515  0.186117  0.777575  1
  As  As9  1  0.591458  0.813883  0.218398  1
  As  As10  1  0.095485  0.373061  0.281602  1
  As  As11  1  0.908542  0.626939  0.722425  1
