# generated using pymatgen
data_Cs12MnZn3Br20
_symmetry_space_group_name_H-M   'P 1'
_cell_length_a   9.64740330
_cell_length_b   11.13188900
_cell_length_c   14.32415245
_cell_angle_alpha   90.00000000
_cell_angle_beta   89.97127187
_cell_angle_gamma   90.00000000
_symmetry_Int_Tables_number   1
_chemical_formula_structural   Cs12MnZn3Br20
_chemical_formula_sum   'Cs12 Mn1 Zn3 Br20'
_cell_volume   1538.32529532
_cell_formula_units_Z   1
loop_
 _symmetry_equiv_pos_site_id
 _symmetry_equiv_pos_as_xyz
  1  'x, y, z'
loop_
 _atom_site_type_symbol
 _atom_site_label
 _atom_site_symmetry_multiplicity
 _atom_site_fract_x
 _atom_site_fract_y
 _atom_site_fract_z
 _atom_site_occupancy
  Cs  Cs0  1  0.089669  0.750000  0.046197  1
  Cs  Cs1  1  0.587334  0.519267  0.172890  1
  Cs  Cs2  1  0.587334  0.980732  0.172890  1
  Cs  Cs3  1  0.086996  0.519042  0.327231  1
  Cs  Cs4  1  0.086996  0.980957  0.327231  1
  Cs  Cs5  1  0.589929  0.750000  0.453743  1
  Cs  Cs6  1  0.410105  0.250000  0.546240  1
  Cs  Cs7  1  0.912963  0.018923  0.672873  1
  Cs  Cs8  1  0.912963  0.481078  0.672873  1
  Cs  Cs9  1  0.413010  0.018816  0.827110  1
  Cs  Cs10  1  0.413010  0.481185  0.827110  1
  Cs  Cs11  1  0.909928  0.250000  0.953558  1
  Mn  Mn12  1  0.310973  0.250000  0.105436  1
  Zn  Zn13  1  0.811398  0.250000  0.394432  1
  Zn  Zn14  1  0.188597  0.750000  0.605759  1
  Zn  Zn15  1  0.688691  0.750000  0.894294  1
  Br  Br16  1  0.532327  0.250000  0.013583  1
  Br  Br17  1  0.188111  0.060978  0.062506  1
  Br  Br18  1  0.188111  0.439022  0.062506  1
  Br  Br19  1  0.861235  0.250000  0.227735  1
  Br  Br20  1  0.838200  0.750000  0.238797  1
  Br  Br21  1  0.338405  0.750000  0.261298  1
  Br  Br22  1  0.362320  0.250000  0.275986  1
  Br  Br23  1  0.690877  0.065570  0.436458  1
  Br  Br24  1  0.690877  0.434430  0.436458  1
  Br  Br25  1  0.027809  0.250000  0.484757  1
  Br  Br26  1  0.972138  0.750000  0.515147  1
  Br  Br27  1  0.309197  0.565601  0.563512  1
  Br  Br28  1  0.309197  0.934399  0.563512  1
  Br  Br29  1  0.638837  0.750000  0.727825  1
  Br  Br30  1  0.661656  0.250000  0.738673  1
  Br  Br31  1  0.161749  0.250000  0.761402  1
  Br  Br32  1  0.138895  0.750000  0.772166  1
  Br  Br33  1  0.809017  0.565604  0.936462  1
  Br  Br34  1  0.809017  0.934396  0.936462  1
  Br  Br35  1  0.472113  0.750000  0.984885  1
