# generated using pymatgen
data_AcTb(CuP)3
_symmetry_space_group_name_H-M   'P 1'
_cell_length_a   4.09906800
_cell_length_b   11.07193700
_cell_length_c   12.88573000
_cell_angle_alpha   90.00000000
_cell_angle_beta   90.00000000
_cell_angle_gamma   90.00000000
_symmetry_Int_Tables_number   1
_chemical_formula_structural   AcTb(CuP)3
_chemical_formula_sum   'Ac4 Tb4 Cu12 P12'
_cell_volume   584.81399368
_cell_formula_units_Z   4
loop_
 _symmetry_equiv_pos_site_id
 _symmetry_equiv_pos_as_xyz
  1  'x, y, z'
loop_
 _atom_site_type_symbol
 _atom_site_label
 _atom_site_symmetry_multiplicity
 _atom_site_fract_x
 _atom_site_fract_y
 _atom_site_fract_z
 _atom_site_occupancy
  Ac  Ac0  1  0.250000  0.935984  0.798642  1
  Ac  Ac1  1  0.750000  0.435984  0.701358  1
  Ac  Ac2  1  0.250000  0.564016  0.298642  1
  Ac  Ac3  1  0.750000  0.064016  0.201358  1
  Tb  Tb4  1  0.250000  0.848340  0.498946  1
  Tb  Tb5  1  0.750000  0.348340  0.001054  1
  Tb  Tb6  1  0.250000  0.651660  0.998946  1
  Tb  Tb7  1  0.750000  0.151660  0.501054  1
  Cu  Cu8  1  0.250000  0.377881  0.510167  1
  Cu  Cu9  1  0.750000  0.877881  0.989833  1
  Cu  Cu10  1  0.250000  0.122119  0.010167  1
  Cu  Cu11  1  0.750000  0.622119  0.489833  1
  Cu  Cu12  1  0.250000  0.263765  0.333412  1
  Cu  Cu13  1  0.750000  0.763765  0.166588  1
  Cu  Cu14  1  0.250000  0.236235  0.833412  1
  Cu  Cu15  1  0.750000  0.736235  0.666588  1
  Cu  Cu16  1  0.250000  0.855369  0.272902  1
  Cu  Cu17  1  0.750000  0.355369  0.227098  1
  Cu  Cu18  1  0.250000  0.644631  0.772902  1
  Cu  Cu19  1  0.750000  0.144631  0.727098  1
  P  P20  1  0.250000  0.225328  0.647183  1
  P  P21  1  0.750000  0.725328  0.852817  1
  P  P22  1  0.250000  0.274672  0.147183  1
  P  P23  1  0.750000  0.774672  0.352817  1
  P  P24  1  0.250000  0.608996  0.588038  1
  P  P25  1  0.750000  0.108996  0.911962  1
  P  P26  1  0.250000  0.891004  0.088038  1
  P  P27  1  0.750000  0.391004  0.411962  1
  P  P28  1  0.250000  0.058056  0.375074  1
  P  P29  1  0.750000  0.558056  0.124926  1
  P  P30  1  0.250000  0.441944  0.875074  1
  P  P31  1  0.750000  0.941944  0.624926  1
