# generated using pymatgen
data_Cs3Rb(ThS3)2
_symmetry_space_group_name_H-M   'P 1'
_cell_length_a   7.53432520
_cell_length_b   7.53432618
_cell_length_c   8.59050900
_cell_angle_alpha   81.49814166
_cell_angle_beta   81.49814055
_cell_angle_gamma   120.08345488
_symmetry_Int_Tables_number   1
_chemical_formula_structural   Cs3Rb(ThS3)2
_chemical_formula_sum   'Cs3 Rb1 Th2 S6'
_cell_volume   403.04481654
_cell_formula_units_Z   1
loop_
 _symmetry_equiv_pos_site_id
 _symmetry_equiv_pos_as_xyz
  1  'x, y, z'
loop_
 _atom_site_type_symbol
 _atom_site_label
 _atom_site_symmetry_multiplicity
 _atom_site_fract_x
 _atom_site_fract_y
 _atom_site_fract_z
 _atom_site_occupancy
  Cs  Cs0  1  0.652979  0.347021  0.500000  1
  Cs  Cs1  1  0.347021  0.652979  0.500000  1
  Cs  Cs2  1  0.000000  0.000000  0.500000  1
  Rb  Rb3  1  0.500000  0.500000  0.000000  1
  Th  Th4  1  0.832689  0.167311  0.000000  1
  Th  Th5  1  0.167311  0.832689  0.000000  1
  S  S6  1  0.819785  0.819785  0.188195  1
  S  S7  1  0.180215  0.180215  0.811805  1
  S  S8  1  0.433950  0.048195  0.193593  1
  S  S9  1  0.566050  0.951805  0.806407  1
  S  S10  1  0.951805  0.566050  0.806407  1
  S  S11  1  0.048195  0.433950  0.193593  1
