# generated using pymatgen
data_YbDy6Co6AgSn22
_symmetry_space_group_name_H-M   'P 1'
_cell_length_a   9.66970400
_cell_length_b   9.66970323
_cell_length_c   10.00367200
_cell_angle_alpha   90.00000000
_cell_angle_beta   90.00000000
_cell_angle_gamma   119.99999579
_symmetry_Int_Tables_number   1
_chemical_formula_structural   YbDy6Co6AgSn22
_chemical_formula_sum   'Yb1 Dy6 Co6 Ag1 Sn22'
_cell_volume   810.05856696
_cell_formula_units_Z   1
loop_
 _symmetry_equiv_pos_site_id
 _symmetry_equiv_pos_as_xyz
  1  'x, y, z'
loop_
 _atom_site_type_symbol
 _atom_site_label
 _atom_site_symmetry_multiplicity
 _atom_site_fract_x
 _atom_site_fract_y
 _atom_site_fract_z
 _atom_site_occupancy
  Yb  Yb0  1  0.000000  0.000000  0.000000  1
  Dy  Dy1  1  0.479222  0.520778  0.306762  1
  Dy  Dy2  1  0.520778  0.479222  0.693238  1
  Dy  Dy3  1  0.479222  0.958445  0.306762  1
  Dy  Dy4  1  0.520778  0.041555  0.693238  1
  Dy  Dy5  1  0.041555  0.520778  0.306762  1
  Dy  Dy6  1  0.958445  0.479222  0.693238  1
  Co  Co7  1  0.830697  0.169303  0.197859  1
  Co  Co8  1  0.169303  0.830697  0.802141  1
  Co  Co9  1  0.830697  0.661393  0.197859  1
  Co  Co10  1  0.169303  0.338607  0.802141  1
  Co  Co11  1  0.338607  0.169303  0.197859  1
  Co  Co12  1  0.661393  0.830697  0.802141  1
  Ag  Ag13  1  0.000000  0.000000  0.500000  1
  Sn  Sn14  1  0.345775  0.000000  0.000000  1
  Sn  Sn15  1  0.654225  0.000000  0.000000  1
  Sn  Sn16  1  0.000000  0.345775  0.000000  1
  Sn  Sn17  1  0.000000  0.654225  0.000000  1
  Sn  Sn18  1  0.654225  0.654225  0.000000  1
  Sn  Sn19  1  0.345775  0.345775  0.000000  1
  Sn  Sn20  1  0.333333  0.666667  0.815650  1
  Sn  Sn21  1  0.666667  0.333333  0.184350  1
  Sn  Sn22  1  0.783527  0.216473  0.453566  1
  Sn  Sn23  1  0.216473  0.783527  0.546434  1
  Sn  Sn24  1  0.783527  0.567056  0.453566  1
  Sn  Sn25  1  0.216473  0.432944  0.546434  1
  Sn  Sn26  1  0.432944  0.216473  0.453566  1
  Sn  Sn27  1  0.567056  0.783527  0.546434  1
  Sn  Sn28  1  0.333333  0.666667  0.119028  1
  Sn  Sn29  1  0.666667  0.333333  0.880972  1
  Sn  Sn30  1  0.114022  0.885978  0.274930  1
  Sn  Sn31  1  0.885978  0.114022  0.725070  1
  Sn  Sn32  1  0.114022  0.228045  0.274930  1
  Sn  Sn33  1  0.885978  0.771955  0.725070  1
  Sn  Sn34  1  0.771955  0.885978  0.274930  1
  Sn  Sn35  1  0.228045  0.114022  0.725070  1
