# generated using pymatgen
data_Pr3Nd5(AgIr)2
_symmetry_space_group_name_H-M   'P 1'
_cell_length_a   9.91628139
_cell_length_b   9.91628091
_cell_length_c   9.91628100
_cell_angle_alpha   60.00000305
_cell_angle_beta   60.00000465
_cell_angle_gamma   60.00000728
_symmetry_Int_Tables_number   1
_chemical_formula_structural   Pr3Nd5(AgIr)2
_chemical_formula_sum   'Pr6 Nd10 Ag4 Ir4'
_cell_volume   689.49566460
_cell_formula_units_Z   2
loop_
 _symmetry_equiv_pos_site_id
 _symmetry_equiv_pos_as_xyz
  1  'x, y, z'
loop_
 _atom_site_type_symbol
 _atom_site_label
 _atom_site_symmetry_multiplicity
 _atom_site_fract_x
 _atom_site_fract_y
 _atom_site_fract_z
 _atom_site_occupancy
  Pr  Pr0  1  0.939143  0.560857  0.560857  1
  Pr  Pr1  1  0.560857  0.939143  0.939143  1
  Pr  Pr2  1  0.560857  0.939143  0.560857  1
  Pr  Pr3  1  0.939143  0.560857  0.939143  1
  Pr  Pr4  1  0.560857  0.560857  0.939143  1
  Pr  Pr5  1  0.939143  0.939143  0.560857  1
  Nd  Nd6  1  0.350411  0.350411  0.350411  1
  Nd  Nd7  1  0.350411  0.350411  0.948767  1
  Nd  Nd8  1  0.350411  0.948767  0.350411  1
  Nd  Nd9  1  0.948767  0.350411  0.350411  1
  Nd  Nd10  1  0.810525  0.189475  0.189475  1
  Nd  Nd11  1  0.189475  0.810525  0.810525  1
  Nd  Nd12  1  0.189475  0.810525  0.189475  1
  Nd  Nd13  1  0.810525  0.189475  0.810525  1
  Nd  Nd14  1  0.189475  0.189475  0.810525  1
  Nd  Nd15  1  0.810525  0.810525  0.189475  1
  Ag  Ag16  1  0.580305  0.580305  0.580305  1
  Ag  Ag17  1  0.580305  0.580305  0.259082  1
  Ag  Ag18  1  0.580305  0.259082  0.580305  1
  Ag  Ag19  1  0.259082  0.580305  0.580305  1
  Ir  Ir20  1  0.141933  0.141933  0.141933  1
  Ir  Ir21  1  0.141933  0.141933  0.574202  1
  Ir  Ir22  1  0.141933  0.574202  0.141933  1
  Ir  Ir23  1  0.574202  0.141933  0.141933  1
