# generated using pymatgen
data_Hf4CuSi3Ge
_symmetry_space_group_name_H-M   'P 1'
_cell_length_a   5.22983586
_cell_length_b   5.22983559
_cell_length_c   8.75258009
_cell_angle_alpha   71.43002952
_cell_angle_beta   71.43003211
_cell_angle_gamma   42.33122185
_symmetry_Int_Tables_number   1
_chemical_formula_structural   Hf4CuSi3Ge
_chemical_formula_sum   'Hf4 Cu1 Si3 Ge1'
_cell_volume   151.51949758
_cell_formula_units_Z   1
loop_
 _symmetry_equiv_pos_site_id
 _symmetry_equiv_pos_as_xyz
  1  'x, y, z'
loop_
 _atom_site_type_symbol
 _atom_site_label
 _atom_site_symmetry_multiplicity
 _atom_site_fract_x
 _atom_site_fract_y
 _atom_site_fract_z
 _atom_site_occupancy
  Hf  Hf0  1  0.105230  0.105230  0.618854  1
  Hf  Hf1  1  0.893677  0.893677  0.376858  1
  Hf  Hf2  1  0.753577  0.753577  0.847599  1
  Hf  Hf3  1  0.245685  0.245685  0.156618  1
  Cu  Cu4  1  0.000476  0.000476  0.000405  1
  Si  Si5  1  0.619162  0.619162  0.383439  1
  Si  Si6  1  0.464165  0.464165  0.853415  1
  Si  Si7  1  0.537078  0.537078  0.149724  1
  Ge  Ge8  1  0.380950  0.380950  0.613088  1
