# generated using pymatgen
data_Tb6Pr2Sc12Ga3Si13
_symmetry_space_group_name_H-M   'P 1'
_cell_length_a   7.17765708
_cell_length_b   7.45321048
_cell_length_c   14.21735851
_cell_angle_alpha   89.96795010
_cell_angle_beta   90.15311420
_cell_angle_gamma   90.05651734
_symmetry_Int_Tables_number   1
_chemical_formula_structural   Tb6Pr2Sc12Ga3Si13
_chemical_formula_sum   'Tb6 Pr2 Sc12 Ga3 Si13'
_cell_volume   760.57698078
_cell_formula_units_Z   1
loop_
 _symmetry_equiv_pos_site_id
 _symmetry_equiv_pos_as_xyz
  1  'x, y, z'
loop_
 _atom_site_type_symbol
 _atom_site_label
 _atom_site_symmetry_multiplicity
 _atom_site_fract_x
 _atom_site_fract_y
 _atom_site_fract_z
 _atom_site_occupancy
  Tb  Tb0  1  0.011955  0.174138  0.402719  1
  Tb  Tb1  1  0.513716  0.323953  0.402553  1
  Tb  Tb2  1  0.488925  0.674688  0.896917  1
  Tb  Tb3  1  0.488777  0.678504  0.598659  1
  Tb  Tb4  1  0.986113  0.825733  0.598556  1
  Tb  Tb5  1  0.988979  0.826157  0.897015  1
  Pr  Pr6  1  0.510772  0.327042  0.097231  1
  Pr  Pr7  1  0.010836  0.172886  0.097399  1
  Sc  Sc8  1  0.332523  0.173992  0.626297  1
  Sc  Sc9  1  0.669625  0.823521  0.377164  1
  Sc  Sc10  1  0.662407  0.998775  0.749116  1
  Sc  Sc11  1  0.172009  0.677372  0.376629  1
  Sc  Sc12  1  0.830292  0.323103  0.872141  1
  Sc  Sc13  1  0.827019  0.323863  0.625156  1
  Sc  Sc14  1  0.837646  0.499655  0.254093  1
  Sc  Sc15  1  0.337215  0.000241  0.253720  1
  Sc  Sc16  1  0.330176  0.175747  0.872074  1
  Sc  Sc17  1  0.169352  0.673186  0.127175  1
  Sc  Sc18  1  0.669648  0.826705  0.127015  1
  Sc  Sc19  1  0.161352  0.500716  0.750784  1
  Ga  Ga20  1  0.159262  0.460668  0.539927  1
  Ga  Ga21  1  0.844099  0.546545  0.035328  1
  Ga  Ga22  1  0.343832  0.953633  0.035616  1
  Si  Si23  1  0.285742  0.873415  0.748224  1
  Si  Si24  1  0.465723  0.621539  0.252937  1
  Si  Si25  1  0.033224  0.119288  0.748918  1
  Si  Si26  1  0.532426  0.383324  0.748472  1
  Si  Si27  1  0.965068  0.877938  0.253017  1
  Si  Si28  1  0.713542  0.122439  0.254608  1
  Si  Si29  1  0.157068  0.467158  0.957454  1
  Si  Si30  1  0.655855  0.036376  0.539242  1
  Si  Si31  1  0.344305  0.964640  0.461985  1
  Si  Si32  1  0.843389  0.536324  0.461777  1
  Si  Si33  1  0.786798  0.626779  0.748511  1
  Si  Si34  1  0.213705  0.377088  0.254630  1
  Si  Si35  1  0.656622  0.032864  0.956941  1
