# generated using pymatgen
data_Nd8YEr11Pt16
_symmetry_space_group_name_H-M   'P 1'
_cell_length_a   7.56080358
_cell_length_b   7.65663694
_cell_length_c   14.67007600
_cell_angle_alpha   89.78005465
_cell_angle_beta   89.90416097
_cell_angle_gamma   90.28281778
_symmetry_Int_Tables_number   1
_chemical_formula_structural   Nd8YEr11Pt16
_chemical_formula_sum   'Nd8 Y1 Er11 Pt16'
_cell_volume   849.23769189
_cell_formula_units_Z   1
loop_
 _symmetry_equiv_pos_site_id
 _symmetry_equiv_pos_as_xyz
  1  'x, y, z'
loop_
 _atom_site_type_symbol
 _atom_site_label
 _atom_site_symmetry_multiplicity
 _atom_site_fract_x
 _atom_site_fract_y
 _atom_site_fract_z
 _atom_site_occupancy
  Nd  Nd0  1  0.659162  0.832640  0.879971  1
  Nd  Nd1  1  0.998866  0.823891  0.404132  1
  Nd  Nd2  1  0.498785  0.675632  0.098035  1
  Nd  Nd3  1  0.501708  0.325317  0.593954  1
  Nd  Nd4  1  0.003591  0.177539  0.906704  1
  Nd  Nd5  1  0.000981  0.175303  0.593255  1
  Nd  Nd6  1  0.500842  0.324571  0.904403  1
  Nd  Nd7  1  0.496915  0.675801  0.403863  1
  Y  Y8  1  0.999238  0.822992  0.097498  1
  Er  Er9  1  0.678671  0.992868  0.249691  1
  Er  Er10  1  0.177990  0.507499  0.250003  1
  Er  Er11  1  0.823542  0.490501  0.748119  1
  Er  Er12  1  0.320157  0.009558  0.748372  1
  Er  Er13  1  0.658136  0.832550  0.621987  1
  Er  Er14  1  0.157302  0.667944  0.877422  1
  Er  Er15  1  0.841526  0.332514  0.376554  1
  Er  Er16  1  0.339740  0.167928  0.123111  1
  Er  Er17  1  0.341109  0.166866  0.376683  1
  Er  Er18  1  0.843479  0.333678  0.124239  1
  Er  Er19  1  0.159184  0.666941  0.621380  1
  Pt  Pt20  1  0.814168  0.638950  0.248952  1
  Pt  Pt21  1  0.308212  0.862944  0.249395  1
  Pt  Pt22  1  0.688787  0.139545  0.747070  1
  Pt  Pt23  1  0.185664  0.361304  0.748771  1
  Pt  Pt24  1  0.546219  0.374731  0.250573  1
  Pt  Pt25  1  0.044967  0.123682  0.249767  1
  Pt  Pt26  1  0.958057  0.876054  0.747006  1
  Pt  Pt27  1  0.452105  0.621589  0.747368  1
  Pt  Pt28  1  0.822871  0.536880  0.542628  1
  Pt  Pt29  1  0.314009  0.963544  0.960981  1
  Pt  Pt30  1  0.676129  0.035822  0.455630  1
  Pt  Pt31  1  0.177516  0.469648  0.045975  1
  Pt  Pt32  1  0.175807  0.463401  0.455356  1
  Pt  Pt33  1  0.681018  0.035811  0.049920  1
  Pt  Pt34  1  0.324224  0.963970  0.543021  1
  Pt  Pt35  1  0.829321  0.529588  0.958212  1
