# generated using pymatgen
data_K2Zr(AgTe2)2
_symmetry_space_group_name_H-M   'P 1'
_cell_length_a   8.08172168
_cell_length_b   8.08172224
_cell_length_c   6.53609900
_cell_angle_alpha   90.00000000
_cell_angle_beta   90.00000000
_cell_angle_gamma   132.25457211
_symmetry_Int_Tables_number   1
_chemical_formula_structural   K2Zr(AgTe2)2
_chemical_formula_sum   'K2 Zr1 Ag2 Te4'
_cell_volume   315.97641473
_cell_formula_units_Z   1
loop_
 _symmetry_equiv_pos_site_id
 _symmetry_equiv_pos_as_xyz
  1  'x, y, z'
loop_
 _atom_site_type_symbol
 _atom_site_label
 _atom_site_symmetry_multiplicity
 _atom_site_fract_x
 _atom_site_fract_y
 _atom_site_fract_z
 _atom_site_occupancy
  K  K0  1  0.500000  0.000000  0.252155  1
  K  K1  1  0.000000  0.500000  0.747845  1
  Zr  Zr2  1  0.000000  0.000000  0.000000  1
  Ag  Ag3  1  0.000000  0.000000  0.500000  1
  Ag  Ag4  1  0.500000  0.500000  0.000000  1
  Te  Te5  1  0.870989  0.646761  0.240583  1
  Te  Te6  1  0.129011  0.353239  0.240583  1
  Te  Te7  1  0.646761  0.870989  0.759417  1
  Te  Te8  1  0.353239  0.129011  0.759417  1
