# generated using pymatgen
data_Sc2B2MoRu5
_symmetry_space_group_name_H-M   'P 1'
_cell_length_a   9.46132000
_cell_length_b   9.46132000
_cell_length_c   3.04998500
_cell_angle_alpha   90.00000000
_cell_angle_beta   90.00000000
_cell_angle_gamma   90.00000000
_symmetry_Int_Tables_number   1
_chemical_formula_structural   Sc2B2MoRu5
_chemical_formula_sum   'Sc4 B4 Mo2 Ru10'
_cell_volume   273.02421449
_cell_formula_units_Z   2
loop_
 _symmetry_equiv_pos_site_id
 _symmetry_equiv_pos_as_xyz
  1  'x, y, z'
loop_
 _atom_site_type_symbol
 _atom_site_label
 _atom_site_symmetry_multiplicity
 _atom_site_fract_x
 _atom_site_fract_y
 _atom_site_fract_z
 _atom_site_occupancy
  Sc  Sc0  1  0.674069  0.174069  0.000000  1
  Sc  Sc1  1  0.325931  0.825931  0.000000  1
  Sc  Sc2  1  0.174069  0.325931  0.000000  1
  Sc  Sc3  1  0.825931  0.674069  0.000000  1
  B  B4  1  0.121174  0.621174  0.000000  1
  B  B5  1  0.878826  0.378826  0.000000  1
  B  B6  1  0.621174  0.878826  0.000000  1
  B  B7  1  0.378826  0.121174  0.000000  1
  Mo  Mo8  1  0.000000  0.000000  0.000000  1
  Mo  Mo9  1  0.500000  0.500000  0.000000  1
  Ru  Ru10  1  0.215545  0.071112  0.500000  1
  Ru  Ru11  1  0.784455  0.928888  0.500000  1
  Ru  Ru12  1  0.071112  0.784455  0.500000  1
  Ru  Ru13  1  0.715545  0.428888  0.500000  1
  Ru  Ru14  1  0.928888  0.215545  0.500000  1
  Ru  Ru15  1  0.284455  0.571112  0.500000  1
  Ru  Ru16  1  0.571112  0.715545  0.500000  1
  Ru  Ru17  1  0.428888  0.284455  0.500000  1
  Ru  Ru18  1  0.500000  0.000000  0.500000  1
  Ru  Ru19  1  0.000000  0.500000  0.500000  1
