# generated using pymatgen
data_PaCuSi2Ni
_symmetry_space_group_name_H-M   'P 1'
_cell_length_a   5.57764621
_cell_length_b   5.57764588
_cell_length_c   5.57764596
_cell_angle_alpha   137.98978425
_cell_angle_beta   137.98977526
_cell_angle_gamma   60.91864916
_symmetry_Int_Tables_number   1
_chemical_formula_structural   PaCuSi2Ni
_chemical_formula_sum   'Pa1 Cu1 Si2 Ni1'
_cell_volume   76.87317119
_cell_formula_units_Z   1
loop_
 _symmetry_equiv_pos_site_id
 _symmetry_equiv_pos_as_xyz
  1  'x, y, z'
loop_
 _atom_site_type_symbol
 _atom_site_label
 _atom_site_symmetry_multiplicity
 _atom_site_fract_x
 _atom_site_fract_y
 _atom_site_fract_z
 _atom_site_occupancy
  Pa  Pa0  1  0.000000  0.000000  0.000000  1
  Cu  Cu1  1  0.250000  0.750000  0.500000  1
  Si  Si2  1  0.622186  0.622186  0.000000  1
  Si  Si3  1  0.377814  0.377814  0.000000  1
  Ni  Ni4  1  0.750000  0.250000  0.500000  1
