# generated using pymatgen
data_Lu16In6TcPt
_symmetry_space_group_name_H-M   'P 1'
_cell_length_a   10.24380500
_cell_length_b   10.24380580
_cell_length_c   6.87817200
_cell_angle_alpha   90.00000000
_cell_angle_beta   90.00000000
_cell_angle_gamma   120.00000064
_symmetry_Int_Tables_number   1
_chemical_formula_structural   Lu16In6TcPt
_chemical_formula_sum   'Lu16 In6 Tc1 Pt1'
_cell_volume   625.06660995
_cell_formula_units_Z   1
loop_
 _symmetry_equiv_pos_site_id
 _symmetry_equiv_pos_as_xyz
  1  'x, y, z'
loop_
 _atom_site_type_symbol
 _atom_site_label
 _atom_site_symmetry_multiplicity
 _atom_site_fract_x
 _atom_site_fract_y
 _atom_site_fract_z
 _atom_site_occupancy
  Lu  Lu0  1  0.531839  0.063678  0.524219  1
  Lu  Lu1  1  0.936322  0.468161  0.524219  1
  Lu  Lu2  1  0.531839  0.468161  0.524219  1
  Lu  Lu3  1  0.471404  0.942808  0.026118  1
  Lu  Lu4  1  0.057192  0.528596  0.026118  1
  Lu  Lu5  1  0.471404  0.528596  0.026118  1
  Lu  Lu6  1  0.175886  0.351772  0.731273  1
  Lu  Lu7  1  0.648228  0.824114  0.731273  1
  Lu  Lu8  1  0.175886  0.824114  0.731273  1
  Lu  Lu9  1  0.823184  0.646368  0.230929  1
  Lu  Lu10  1  0.353632  0.176816  0.230929  1
  Lu  Lu11  1  0.823184  0.176816  0.230929  1
  Lu  Lu12  1  0.666667  0.333333  0.898498  1
  Lu  Lu13  1  0.333333  0.666667  0.399560  1
  Lu  Lu14  1  0.000000  0.000000  0.506966  1
  Lu  Lu15  1  0.000000  0.000000  0.006809  1
  In  In16  1  0.837036  0.674070  0.767429  1
  In  In17  1  0.325930  0.162964  0.767429  1
  In  In18  1  0.837036  0.162964  0.767429  1
  In  In19  1  0.163483  0.326966  0.268653  1
  In  In20  1  0.673034  0.836517  0.268653  1
  In  In21  1  0.163483  0.836517  0.268653  1
  Tc  Tc22  1  0.666667  0.333333  0.298722  1
  Pt  Pt23  1  0.333333  0.666667  0.799257  1
