# generated using pymatgen
data_Tb5YTh2(TlIr)2
_symmetry_space_group_name_H-M   'P 1'
_cell_length_a   9.86906930
_cell_length_b   9.86906920
_cell_length_c   9.87165100
_cell_angle_alpha   59.99134913
_cell_angle_beta   59.99134947
_cell_angle_gamma   60.01730183
_symmetry_Int_Tables_number   1
_chemical_formula_structural   Tb5YTh2(TlIr)2
_chemical_formula_sum   'Tb10 Y2 Th4 Tl4 Ir4'
_cell_volume   679.87195956
_cell_formula_units_Z   2
loop_
 _symmetry_equiv_pos_site_id
 _symmetry_equiv_pos_as_xyz
  1  'x, y, z'
loop_
 _atom_site_type_symbol
 _atom_site_label
 _atom_site_symmetry_multiplicity
 _atom_site_fract_x
 _atom_site_fract_y
 _atom_site_fract_z
 _atom_site_occupancy
  Tb  Tb0  1  0.811624  0.188376  0.188376  1
  Tb  Tb1  1  0.188376  0.811624  0.811624  1
  Tb  Tb2  1  0.188376  0.811624  0.188376  1
  Tb  Tb3  1  0.811624  0.188376  0.811624  1
  Tb  Tb4  1  0.188362  0.188362  0.811638  1
  Tb  Tb5  1  0.811638  0.811638  0.188362  1
  Tb  Tb6  1  0.938547  0.561453  0.561453  1
  Tb  Tb7  1  0.561453  0.938547  0.938547  1
  Tb  Tb8  1  0.561453  0.938547  0.561453  1
  Tb  Tb9  1  0.938547  0.561453  0.938547  1
  Y  Y10  1  0.561075  0.561075  0.938925  1
  Y  Y11  1  0.938925  0.938925  0.561075  1
  Th  Th12  1  0.347850  0.347850  0.348598  1
  Th  Th13  1  0.347850  0.347850  0.955702  1
  Th  Th14  1  0.348598  0.955702  0.347850  1
  Th  Th15  1  0.955702  0.348598  0.347850  1
  Tl  Tl16  1  0.587562  0.587562  0.587963  1
  Tl  Tl17  1  0.587562  0.587562  0.236915  1
  Tl  Tl18  1  0.587963  0.236915  0.587562  1
  Tl  Tl19  1  0.236915  0.587963  0.587562  1
  Ir  Ir20  1  0.143056  0.143056  0.143557  1
  Ir  Ir21  1  0.143056  0.143056  0.570329  1
  Ir  Ir22  1  0.143557  0.570329  0.143056  1
  Ir  Ir23  1  0.570329  0.143557  0.143056  1
