# generated using pymatgen
data_HoEr2Si3Pd
_symmetry_space_group_name_H-M   'P 1'
_cell_length_a   5.63569819
_cell_length_b   5.63569648
_cell_length_c   13.55338204
_cell_angle_alpha   71.40147622
_cell_angle_beta   71.40148232
_cell_angle_gamma   44.08024851
_symmetry_Int_Tables_number   1
_chemical_formula_structural   HoEr2Si3Pd
_chemical_formula_sum   'Ho2 Er4 Si6 Pd2'
_cell_volume   281.17798764
_cell_formula_units_Z   2
loop_
 _symmetry_equiv_pos_site_id
 _symmetry_equiv_pos_as_xyz
  1  'x, y, z'
loop_
 _atom_site_type_symbol
 _atom_site_label
 _atom_site_symmetry_multiplicity
 _atom_site_fract_x
 _atom_site_fract_y
 _atom_site_fract_z
 _atom_site_occupancy
  Ho  Ho0  1  0.472539  0.472539  0.376207  1
  Ho  Ho1  1  0.602994  0.602994  0.077386  1
  Er  Er2  1  0.744667  0.744667  0.774847  1
  Er  Er3  1  0.527618  0.527618  0.623750  1
  Er  Er4  1  0.397205  0.397205  0.922485  1
  Er  Er5  1  0.255296  0.255296  0.225102  1
  Si  Si6  1  0.876725  0.876725  0.544649  1
  Si  Si7  1  0.961223  0.961223  0.229626  1
  Si  Si8  1  0.886819  0.886819  0.074434  1
  Si  Si9  1  0.113250  0.113250  0.925404  1
  Si  Si10  1  0.123275  0.123275  0.455593  1
  Si  Si11  1  0.038578  0.038578  0.770317  1
  Pd  Pd12  1  0.753512  0.753512  0.400931  1
  Pd  Pd13  1  0.246298  0.246298  0.599269  1
