# generated using pymatgen
data_ErTm2Si3Ru2
_symmetry_space_group_name_H-M   'P 1'
_cell_length_a   5.68562411
_cell_length_b   5.68562421
_cell_length_c   13.65526700
_cell_angle_alpha   90.00000000
_cell_angle_beta   90.00000000
_cell_angle_gamma   137.17522793
_symmetry_Int_Tables_number   1
_chemical_formula_structural   ErTm2Si3Ru2
_chemical_formula_sum   'Er2 Tm4 Si6 Ru4'
_cell_volume   300.06208429
_cell_formula_units_Z   2
loop_
 _symmetry_equiv_pos_site_id
 _symmetry_equiv_pos_as_xyz
  1  'x, y, z'
loop_
 _atom_site_type_symbol
 _atom_site_label
 _atom_site_symmetry_multiplicity
 _atom_site_fract_x
 _atom_site_fract_y
 _atom_site_fract_z
 _atom_site_occupancy
  Er  Er0  1  0.643335  0.356665  0.250000  1
  Er  Er1  1  0.356665  0.643335  0.750000  1
  Tm  Tm2  1  0.924506  0.075494  0.385717  1
  Tm  Tm3  1  0.075494  0.924506  0.614283  1
  Tm  Tm4  1  0.924506  0.075494  0.114283  1
  Tm  Tm5  1  0.075494  0.924506  0.885717  1
  Si  Si6  1  0.615963  0.384037  0.461835  1
  Si  Si7  1  0.384037  0.615963  0.538165  1
  Si  Si8  1  0.615963  0.384037  0.038165  1
  Si  Si9  1  0.384037  0.615963  0.961835  1
  Si  Si10  1  0.332560  0.667440  0.250000  1
  Si  Si11  1  0.667440  0.332560  0.750000  1
  Ru  Ru12  1  0.787188  0.212812  0.918213  1
  Ru  Ru13  1  0.212812  0.787188  0.081787  1
  Ru  Ru14  1  0.787188  0.212812  0.581787  1
  Ru  Ru15  1  0.212812  0.787188  0.418213  1
