# generated using pymatgen
data_Tb2LuPa(ZnRh)4
_symmetry_space_group_name_H-M   'P 1'
_cell_length_a   3.87641400
_cell_length_b   7.08874283
_cell_length_c   8.30360281
_cell_angle_alpha   91.15562846
_cell_angle_beta   90.00000000
_cell_angle_gamma   90.00000000
_symmetry_Int_Tables_number   1
_chemical_formula_structural   Tb2LuPa(ZnRh)4
_chemical_formula_sum   'Tb2 Lu1 Pa1 Zn4 Rh4'
_cell_volume   228.12747726
_cell_formula_units_Z   1
loop_
 _symmetry_equiv_pos_site_id
 _symmetry_equiv_pos_as_xyz
  1  'x, y, z'
loop_
 _atom_site_type_symbol
 _atom_site_label
 _atom_site_symmetry_multiplicity
 _atom_site_fract_x
 _atom_site_fract_y
 _atom_site_fract_z
 _atom_site_occupancy
  Tb  Tb0  1  0.250000  0.051974  0.321377  1
  Tb  Tb1  1  0.750000  0.942623  0.688136  1
  Lu  Lu2  1  0.750000  0.443161  0.809473  1
  Pa  Pa3  1  0.250000  0.552091  0.176754  1
  Zn  Zn4  1  0.250000  0.130364  0.934450  1
  Zn  Zn5  1  0.750000  0.893064  0.062421  1
  Zn  Zn6  1  0.250000  0.619639  0.564196  1
  Zn  Zn7  1  0.750000  0.369884  0.442959  1
  Rh  Rh8  1  0.750000  0.738399  0.355348  1
  Rh  Rh9  1  0.250000  0.241283  0.628434  1
  Rh  Rh10  1  0.750000  0.282353  0.126320  1
  Rh  Rh11  1  0.250000  0.735164  0.890132  1
