# generated using pymatgen
data_Cs(PtO2)6
_symmetry_space_group_name_H-M   'P 1'
_cell_length_a   8.81128493
_cell_length_b   8.81128488
_cell_length_c   8.81128397
_cell_angle_alpha   107.46762914
_cell_angle_beta   107.46763394
_cell_angle_gamma   113.55730046
_symmetry_Int_Tables_number   1
_chemical_formula_structural   Cs(PtO2)6
_chemical_formula_sum   'Cs2 Pt12 O24'
_cell_volume   524.59433101
_cell_formula_units_Z   2
loop_
 _symmetry_equiv_pos_site_id
 _symmetry_equiv_pos_as_xyz
  1  'x, y, z'
loop_
 _atom_site_type_symbol
 _atom_site_label
 _atom_site_symmetry_multiplicity
 _atom_site_fract_x
 _atom_site_fract_y
 _atom_site_fract_z
 _atom_site_occupancy
  Cs  Cs0  1  0.795814  0.795814  0.000000  1
  Cs  Cs1  1  0.204186  0.204186  0.000000  1
  Pt  Pt2  1  0.314148  0.833522  0.814433  1
  Pt  Pt3  1  0.648097  0.166605  0.814702  1
  Pt  Pt4  1  0.980910  0.500283  0.814433  1
  Pt  Pt5  1  0.019090  0.499717  0.185567  1
  Pt  Pt6  1  0.351903  0.833395  0.185298  1
  Pt  Pt7  1  0.685852  0.166478  0.185567  1
  Pt  Pt8  1  0.833395  0.648097  0.481493  1
  Pt  Pt9  1  0.166478  0.980910  0.480627  1
  Pt  Pt10  1  0.499717  0.314148  0.480627  1
  Pt  Pt11  1  0.500283  0.685852  0.519373  1
  Pt  Pt12  1  0.833522  0.019090  0.519373  1
  Pt  Pt13  1  0.166605  0.351903  0.518507  1
  O  O14  1  0.785697  0.499958  0.619586  1
  O  O15  1  0.119627  0.833888  0.619586  1
  O  O16  1  0.452980  0.160950  0.613930  1
  O  O17  1  0.880373  0.166112  0.380414  1
  O  O18  1  0.214303  0.500042  0.380414  1
  O  O19  1  0.547020  0.839050  0.386070  1
  O  O20  1  0.500042  0.119627  0.285740  1
  O  O21  1  0.839050  0.452980  0.292029  1
  O  O22  1  0.166112  0.785697  0.285740  1
  O  O23  1  0.160950  0.547020  0.707971  1
  O  O24  1  0.499958  0.880373  0.714260  1
  O  O25  1  0.833888  0.214303  0.714260  1
  O  O26  1  0.508794  0.871547  0.049468  1
  O  O27  1  0.845452  0.205000  0.050451  1
  O  O28  1  0.177922  0.540675  0.049468  1
  O  O29  1  0.154548  0.795000  0.949549  1
  O  O30  1  0.491206  0.128453  0.950532  1
  O  O31  1  0.822078  0.459325  0.950532  1
  O  O32  1  0.128453  0.177922  0.637247  1
  O  O33  1  0.459325  0.508794  0.637247  1
  O  O34  1  0.795000  0.845452  0.640452  1
  O  O35  1  0.540675  0.491206  0.362753  1
  O  O36  1  0.871547  0.822078  0.362753  1
  O  O37  1  0.205000  0.154548  0.359548  1
