# generated using pymatgen
data_TbEu3Er4(Si3Pd)4
_symmetry_space_group_name_H-M   'P 1'
_cell_length_a   8.20636600
_cell_length_b   8.21808190
_cell_length_c   8.24524700
_cell_angle_alpha   90.00000000
_cell_angle_beta   90.00000000
_cell_angle_gamma   119.95285994
_symmetry_Int_Tables_number   1
_chemical_formula_structural   TbEu3Er4(Si3Pd)4
_chemical_formula_sum   'Tb1 Eu3 Er4 Si12 Pd4'
_cell_volume   481.79440218
_cell_formula_units_Z   1
loop_
 _symmetry_equiv_pos_site_id
 _symmetry_equiv_pos_as_xyz
  1  'x, y, z'
loop_
 _atom_site_type_symbol
 _atom_site_label
 _atom_site_symmetry_multiplicity
 _atom_site_fract_x
 _atom_site_fract_y
 _atom_site_fract_z
 _atom_site_occupancy
  Tb  Tb0  1  0.999739  0.999478  0.750000  1
  Eu  Eu1  1  0.997131  0.498530  0.250000  1
  Eu  Eu2  1  0.501401  0.498530  0.250000  1
  Eu  Eu3  1  0.000179  0.000358  0.250000  1
  Er  Er4  1  0.500669  0.001335  0.250000  1
  Er  Er5  1  0.498866  0.997732  0.750000  1
  Er  Er6  1  0.002698  0.501651  0.750000  1
  Er  Er7  1  0.498952  0.501651  0.750000  1
  Si  Si8  1  0.166172  0.332344  0.991469  1
  Si  Si9  1  0.833988  0.667977  0.991167  1
  Si  Si10  1  0.668955  0.834809  0.993378  1
  Si  Si11  1  0.833988  0.667977  0.508833  1
  Si  Si12  1  0.331023  0.165197  0.993336  1
  Si  Si13  1  0.166172  0.332344  0.508531  1
  Si  Si14  1  0.165854  0.834809  0.993378  1
  Si  Si15  1  0.331023  0.165197  0.506664  1
  Si  Si16  1  0.834173  0.165197  0.993336  1
  Si  Si17  1  0.668955  0.834809  0.506622  1
  Si  Si18  1  0.834173  0.165197  0.506664  1
  Si  Si19  1  0.165854  0.834809  0.506622  1
  Pd  Pd20  1  0.334959  0.669919  0.989661  1
  Pd  Pd21  1  0.665059  0.330117  0.982242  1
  Pd  Pd22  1  0.665059  0.330117  0.517758  1
  Pd  Pd23  1  0.334959  0.669919  0.510339  1
