# generated using pymatgen
data_La7Nd13Pb16
_symmetry_space_group_name_H-M   'P 1'
_cell_length_a   8.53355197
_cell_length_b   8.63934770
_cell_length_c   16.36167528
_cell_angle_alpha   90.03763626
_cell_angle_beta   89.95238111
_cell_angle_gamma   90.02677250
_symmetry_Int_Tables_number   1
_chemical_formula_structural   La7Nd13Pb16
_chemical_formula_sum   'La7 Nd13 Pb16'
_cell_volume   1206.25261936
_cell_formula_units_Z   1
loop_
 _symmetry_equiv_pos_site_id
 _symmetry_equiv_pos_as_xyz
  1  'x, y, z'
loop_
 _atom_site_type_symbol
 _atom_site_label
 _atom_site_symmetry_multiplicity
 _atom_site_fract_x
 _atom_site_fract_y
 _atom_site_fract_z
 _atom_site_occupancy
  La  La0  1  0.528933  0.320212  0.399164  1
  La  La1  1  0.470958  0.679551  0.899367  1
  La  La2  1  0.971188  0.820400  0.600657  1
  La  La3  1  0.971160  0.820675  0.899548  1
  La  La4  1  0.471094  0.679619  0.600627  1
  La  La5  1  0.528741  0.320004  0.100699  1
  La  La6  1  0.028901  0.179595  0.399349  1
  Nd  Nd7  1  0.879398  0.659424  0.118207  1
  Nd  Nd8  1  0.379124  0.840536  0.381751  1
  Nd  Nd9  1  0.620828  0.159678  0.881994  1
  Nd  Nd10  1  0.120860  0.340403  0.618103  1
  Nd  Nd11  1  0.120786  0.340267  0.882124  1
  Nd  Nd12  1  0.620920  0.159465  0.618117  1
  Nd  Nd13  1  0.378856  0.840674  0.118126  1
  Nd  Nd14  1  0.879121  0.659538  0.381683  1
  Nd  Nd15  1  0.029240  0.179167  0.101361  1
  Nd  Nd16  1  0.709701  0.996428  0.249704  1
  Nd  Nd17  1  0.209262  0.503654  0.249770  1
  Nd  Nd18  1  0.790562  0.496082  0.749963  1
  Nd  Nd19  1  0.290565  0.003775  0.750045  1
  Pb  Pb20  1  0.075621  0.875677  0.249714  1
  Pb  Pb21  1  0.575690  0.624710  0.249921  1
  Pb  Pb22  1  0.424470  0.375181  0.750051  1
  Pb  Pb23  1  0.924446  0.124842  0.749964  1
  Pb  Pb24  1  0.838000  0.354521  0.249274  1
  Pb  Pb25  1  0.336520  0.144588  0.249679  1
  Pb  Pb26  1  0.662827  0.855492  0.750039  1
  Pb  Pb27  1  0.162764  0.644650  0.749993  1
  Pb  Pb28  1  0.781508  0.466279  0.956300  1
  Pb  Pb29  1  0.281173  0.033657  0.543822  1
  Pb  Pb30  1  0.720083  0.967714  0.044155  1
  Pb  Pb31  1  0.218646  0.533645  0.456183  1
  Pb  Pb32  1  0.218193  0.532818  0.043805  1
  Pb  Pb33  1  0.718760  0.966377  0.456134  1
  Pb  Pb34  1  0.279939  0.034331  0.956868  1
  Pb  Pb35  1  0.781162  0.466373  0.543741  1
