# generated using pymatgen
data_Ba6YMg(BO3)6
_symmetry_space_group_name_H-M   'P 1'
_cell_length_a   8.15395010
_cell_length_b   8.15627482
_cell_length_c   8.14993591
_cell_angle_alpha   105.75284656
_cell_angle_beta   105.75053546
_cell_angle_gamma   105.86327588
_symmetry_Int_Tables_number   1
_chemical_formula_structural   Ba6YMg(BO3)6
_chemical_formula_sum   'Ba6 Y1 Mg1 B6 O18'
_cell_volume   465.50675893
_cell_formula_units_Z   1
loop_
 _symmetry_equiv_pos_site_id
 _symmetry_equiv_pos_as_xyz
  1  'x, y, z'
loop_
 _atom_site_type_symbol
 _atom_site_label
 _atom_site_symmetry_multiplicity
 _atom_site_fract_x
 _atom_site_fract_y
 _atom_site_fract_z
 _atom_site_occupancy
  Ba  Ba0  1  0.349029  0.729598  0.830254  1
  Ba  Ba1  1  0.830389  0.349117  0.729741  1
  Ba  Ba2  1  0.729981  0.830359  0.349160  1
  Ba  Ba3  1  0.650971  0.270402  0.169746  1
  Ba  Ba4  1  0.169611  0.650883  0.270259  1
  Ba  Ba5  1  0.270019  0.169641  0.650840  1
  Y  Y6  1  0.000000  0.000000  0.000000  1
  Mg  Mg7  1  0.500000  0.500000  0.500000  1
  B  B8  1  0.375351  0.052290  0.295635  1
  B  B9  1  0.295646  0.375337  0.052336  1
  B  B10  1  0.052256  0.295639  0.375248  1
  B  B11  1  0.704354  0.624663  0.947664  1
  B  B12  1  0.947744  0.704361  0.624752  1
  B  B13  1  0.624649  0.947710  0.704365  1
  O  O14  1  0.428783  0.490736  0.223858  1
  O  O15  1  0.224017  0.428860  0.490533  1
  O  O16  1  0.812897  0.011468  0.737578  1
  O  O17  1  0.011495  0.737512  0.812981  1
  O  O18  1  0.737527  0.812717  0.011332  1
  O  O19  1  0.262473  0.187283  0.988668  1
  O  O20  1  0.187103  0.988532  0.262422  1
  O  O21  1  0.988505  0.262488  0.187019  1
  O  O22  1  0.553912  0.060658  0.798552  1
  O  O23  1  0.060987  0.798795  0.553889  1
  O  O24  1  0.798834  0.554103  0.061061  1
  O  O25  1  0.446088  0.939342  0.201448  1
  O  O26  1  0.939013  0.201205  0.446111  1
  O  O27  1  0.201166  0.445897  0.938939  1
  O  O28  1  0.509421  0.776041  0.571274  1
  O  O29  1  0.775983  0.571140  0.509467  1
  O  O30  1  0.571217  0.509264  0.776142  1
  O  O31  1  0.490579  0.223959  0.428726  1
