# generated using pymatgen
data_La6Pr4SnBi5C2
_symmetry_space_group_name_H-M   'P 1'
_cell_length_a   9.58468021
_cell_length_b   9.58548693
_cell_length_c   6.85910600
_cell_angle_alpha   90.00000000
_cell_angle_beta   90.00000000
_cell_angle_gamma   120.00278739
_symmetry_Int_Tables_number   1
_chemical_formula_structural   La6Pr4SnBi5C2
_chemical_formula_sum   'La6 Pr4 Sn1 Bi5 C2'
_cell_volume   545.72990620
_cell_formula_units_Z   1
loop_
 _symmetry_equiv_pos_site_id
 _symmetry_equiv_pos_as_xyz
  1  'x, y, z'
loop_
 _atom_site_type_symbol
 _atom_site_label
 _atom_site_symmetry_multiplicity
 _atom_site_fract_x
 _atom_site_fract_y
 _atom_site_fract_z
 _atom_site_occupancy
  La  La0  1  0.788137  0.788698  0.250000  1
  La  La1  1  0.211863  0.000561  0.250000  1
  La  La2  1  0.000000  0.214478  0.250000  1
  La  La3  1  0.210255  0.213658  0.750000  1
  La  La4  1  0.789745  0.003404  0.750000  1
  La  La5  1  0.000000  0.786935  0.750000  1
  Pr  Pr6  1  0.670710  0.334089  0.501834  1
  Pr  Pr7  1  0.329290  0.663379  0.501834  1
  Pr  Pr8  1  0.329290  0.663379  0.998166  1
  Pr  Pr9  1  0.670710  0.334089  0.998166  1
  Sn  Sn10  1  0.000000  0.405023  0.750000  1
  Bi  Bi11  1  0.403423  0.402612  0.250000  1
  Bi  Bi12  1  0.596577  0.999189  0.250000  1
  Bi  Bi13  1  0.000000  0.596168  0.250000  1
  Bi  Bi14  1  0.596573  0.596898  0.750000  1
  Bi  Bi15  1  0.403427  0.000326  0.750000  1
  C  C16  1  0.000000  0.998557  0.499105  1
  C  C17  1  0.000000  0.998557  0.000895  1
