# generated using pymatgen
data_Hf2MnBe2Rh5
_symmetry_space_group_name_H-M   'P 1'
_cell_length_a   9.35107500
_cell_length_b   9.35107500
_cell_length_c   3.23000900
_cell_angle_alpha   90.00000000
_cell_angle_beta   90.00000000
_cell_angle_gamma   90.00000000
_symmetry_Int_Tables_number   1
_chemical_formula_structural   Hf2MnBe2Rh5
_chemical_formula_sum   'Hf4 Mn2 Be4 Rh10'
_cell_volume   282.44039679
_cell_formula_units_Z   2
loop_
 _symmetry_equiv_pos_site_id
 _symmetry_equiv_pos_as_xyz
  1  'x, y, z'
loop_
 _atom_site_type_symbol
 _atom_site_label
 _atom_site_symmetry_multiplicity
 _atom_site_fract_x
 _atom_site_fract_y
 _atom_site_fract_z
 _atom_site_occupancy
  Hf  Hf0  1  0.823832  0.323832  0.000000  1
  Hf  Hf1  1  0.323832  0.176168  0.000000  1
  Hf  Hf2  1  0.676168  0.823832  0.000000  1
  Hf  Hf3  1  0.176168  0.676168  0.000000  1
  Mn  Mn4  1  0.000000  0.000000  0.000000  1
  Mn  Mn5  1  0.500000  0.500000  0.000000  1
  Be  Be6  1  0.622547  0.122547  0.000000  1
  Be  Be7  1  0.122547  0.377453  0.000000  1
  Be  Be8  1  0.877453  0.622547  0.000000  1
  Be  Be9  1  0.377453  0.877453  0.000000  1
  Rh  Rh10  1  0.071313  0.211550  0.500000  1
  Rh  Rh11  1  0.211550  0.928687  0.500000  1
  Rh  Rh12  1  0.788450  0.071313  0.500000  1
  Rh  Rh13  1  0.928687  0.788450  0.500000  1
  Rh  Rh14  1  0.428687  0.711550  0.500000  1
  Rh  Rh15  1  0.571313  0.288450  0.500000  1
  Rh  Rh16  1  0.711550  0.571313  0.500000  1
  Rh  Rh17  1  0.288450  0.428687  0.500000  1
  Rh  Rh18  1  0.500000  0.000000  0.500000  1
  Rh  Rh19  1  0.000000  0.500000  0.500000  1
