# generated using pymatgen
data_Er2Tc2B4Ru3
_symmetry_space_group_name_H-M   'P 1'
_cell_length_a   3.08727900
_cell_length_b   8.75287967
_cell_length_c   10.16255960
_cell_angle_alpha   89.95789506
_cell_angle_beta   90.00000000
_cell_angle_gamma   90.00000000
_symmetry_Int_Tables_number   1
_chemical_formula_structural   Er2Tc2B4Ru3
_chemical_formula_sum   'Er4 Tc4 B8 Ru6'
_cell_volume   274.61852184
_cell_formula_units_Z   2
loop_
 _symmetry_equiv_pos_site_id
 _symmetry_equiv_pos_as_xyz
  1  'x, y, z'
loop_
 _atom_site_type_symbol
 _atom_site_label
 _atom_site_symmetry_multiplicity
 _atom_site_fract_x
 _atom_site_fract_y
 _atom_site_fract_z
 _atom_site_occupancy
  Er  Er0  1  0.500000  0.838646  0.182047  1
  Er  Er1  1  0.500000  0.161354  0.817953  1
  Er  Er2  1  0.500000  0.661414  0.681954  1
  Er  Er3  1  0.500000  0.338586  0.318046  1
  Tc  Tc4  1  0.000000  0.658926  0.953888  1
  Tc  Tc5  1  0.000000  0.341074  0.046112  1
  Tc  Tc6  1  0.000000  0.841042  0.453918  1
  Tc  Tc7  1  0.000000  0.158958  0.546082  1
  B  B8  1  0.500000  0.967477  0.586830  1
  B  B9  1  0.500000  0.032523  0.413170  1
  B  B10  1  0.500000  0.849530  0.901857  1
  B  B11  1  0.500000  0.150470  0.098143  1
  B  B12  1  0.500000  0.650507  0.401909  1
  B  B13  1  0.500000  0.349493  0.598091  1
  B  B14  1  0.500000  0.467480  0.913146  1
  B  B15  1  0.500000  0.532520  0.086854  1
  Ru  Ru16  1  0.000000  0.000000  0.000000  1
  Ru  Ru17  1  0.000000  0.408400  0.760264  1
  Ru  Ru18  1  0.000000  0.591600  0.239736  1
  Ru  Ru19  1  0.000000  0.500000  0.500000  1
  Ru  Ru20  1  0.000000  0.908396  0.739750  1
  Ru  Ru21  1  0.000000  0.091604  0.260250  1
