# generated using pymatgen
data_Ho5TmFeCo17P12
_symmetry_space_group_name_H-M   'P 1'
_cell_length_a   3.68409900
_cell_length_b   10.49845203
_cell_length_c   12.14029303
_cell_angle_alpha   89.99203777
_cell_angle_beta   90.00000000
_cell_angle_gamma   90.00000000
_symmetry_Int_Tables_number   1
_chemical_formula_structural   Ho5TmFeCo17P12
_chemical_formula_sum   'Ho5 Tm1 Fe1 Co17 P12'
_cell_volume   469.55419548
_cell_formula_units_Z   1
loop_
 _symmetry_equiv_pos_site_id
 _symmetry_equiv_pos_as_xyz
  1  'x, y, z'
loop_
 _atom_site_type_symbol
 _atom_site_label
 _atom_site_symmetry_multiplicity
 _atom_site_fract_x
 _atom_site_fract_y
 _atom_site_fract_z
 _atom_site_occupancy
  Ho  Ho0  1  0.000000  0.499971  0.521671  1
  Ho  Ho1  1  0.500000  0.999900  0.477631  1
  Ho  Ho2  1  0.500000  0.182065  0.206271  1
  Ho  Ho3  1  0.000000  0.682350  0.794367  1
  Ho  Ho4  1  0.000000  0.317798  0.794632  1
  Tm  Tm5  1  0.500000  0.817741  0.206179  1
  Fe  Fe6  1  0.500000  0.500266  0.158112  1
  Co  Co7  1  0.000000  0.500404  0.987263  1
  Co  Co8  1  0.500000  0.999625  0.013853  1
  Co  Co9  1  0.500000  0.297177  0.430546  1
  Co  Co10  1  0.500000  0.702786  0.429906  1
  Co  Co11  1  0.000000  0.202769  0.569195  1
  Co  Co12  1  0.000000  0.797045  0.568625  1
  Co  Co13  1  0.500000  0.879086  0.708895  1
  Co  Co14  1  0.500000  0.120847  0.709290  1
  Co  Co15  1  0.000000  0.621628  0.290415  1
  Co  Co16  1  0.000000  0.379122  0.290879  1
  Co  Co17  1  0.500000  0.332930  0.994590  1
  Co  Co18  1  0.500000  0.667546  0.994786  1
  Co  Co19  1  0.000000  0.166642  0.005940  1
  Co  Co20  1  0.000000  0.833016  0.006261  1
  Co  Co21  1  0.000000  0.999667  0.841167  1
  Co  Co22  1  0.500000  0.500125  0.703276  1
  Co  Co23  1  0.000000  0.999362  0.296287  1
  P  P24  1  0.500000  0.311182  0.616203  1
  P  P25  1  0.500000  0.688875  0.615795  1
  P  P26  1  0.000000  0.188911  0.383826  1
  P  P27  1  0.000000  0.810934  0.382944  1
  P  P28  1  0.500000  0.500227  0.882982  1
  P  P29  1  0.000000  0.999394  0.117673  1
  P  P30  1  0.500000  0.847488  0.892392  1
  P  P31  1  0.500000  0.152508  0.892727  1
  P  P32  1  0.000000  0.653301  0.108199  1
  P  P33  1  0.000000  0.347384  0.107853  1
  P  P34  1  0.500000  0.499942  0.343840  1
  P  P35  1  0.000000  0.999987  0.655534  1
