# generated using pymatgen
data_K5As6
_symmetry_space_group_name_H-M   'P 1'
_cell_length_a   15.93779635
_cell_length_b   15.93779651
_cell_length_c   5.19277600
_cell_angle_alpha   90.00000000
_cell_angle_beta   90.00000000
_cell_angle_gamma   163.99331807
_symmetry_Int_Tables_number   1
_chemical_formula_structural   K5As6
_chemical_formula_sum   'K5 As6'
_cell_volume   363.72303569
_cell_formula_units_Z   1
loop_
 _symmetry_equiv_pos_site_id
 _symmetry_equiv_pos_as_xyz
  1  'x, y, z'
loop_
 _atom_site_type_symbol
 _atom_site_label
 _atom_site_symmetry_multiplicity
 _atom_site_fract_x
 _atom_site_fract_y
 _atom_site_fract_z
 _atom_site_occupancy
  K  K0  1  0.000000  0.000000  0.000000  1
  K  K1  1  0.617391  0.382607  0.000000  1
  K  K2  1  0.382607  0.617391  0.000000  1
  K  K3  1  0.804918  0.195080  0.500001  1
  K  K4  1  0.195080  0.804918  0.500001  1
  As  As5  1  0.733009  0.266989  0.000000  1
  As  As6  1  0.266989  0.733009  0.000000  1
  As  As7  1  0.919190  0.080809  0.500001  1
  As  As8  1  0.549034  0.450964  0.500001  1
  As  As9  1  0.450964  0.549034  0.500001  1
  As  As10  1  0.080809  0.919190  0.500001  1
