# generated using pymatgen
data_Tm3TaB4(Ru5W)2
_symmetry_space_group_name_H-M   'P 1'
_cell_length_a   9.53928740
_cell_length_b   9.53928800
_cell_length_c   3.08348500
_cell_angle_alpha   90.00000000
_cell_angle_beta   90.00000000
_cell_angle_gamma   90.14585153
_symmetry_Int_Tables_number   1
_chemical_formula_structural   Tm3TaB4(Ru5W)2
_chemical_formula_sum   'Tm3 Ta1 B4 Ru10 W2'
_cell_volume   280.59008927
_cell_formula_units_Z   1
loop_
 _symmetry_equiv_pos_site_id
 _symmetry_equiv_pos_as_xyz
  1  'x, y, z'
loop_
 _atom_site_type_symbol
 _atom_site_label
 _atom_site_symmetry_multiplicity
 _atom_site_fract_x
 _atom_site_fract_y
 _atom_site_fract_z
 _atom_site_occupancy
  Tm  Tm0  1  0.824767  0.675335  0.000000  1
  Tm  Tm1  1  0.175335  0.324767  0.000000  1
  Tm  Tm2  1  0.325218  0.825218  0.000000  1
  Ta  Ta3  1  0.675989  0.175989  0.000000  1
  B  B4  1  0.622231  0.880497  0.000000  1
  B  B5  1  0.380497  0.122231  0.000000  1
  B  B6  1  0.118684  0.618684  0.000000  1
  B  B7  1  0.877711  0.377711  0.000000  1
  Ru  Ru8  1  0.570710  0.718587  0.500000  1
  Ru  Ru9  1  0.439752  0.282493  0.500000  1
  Ru  Ru10  1  0.068340  0.783322  0.500000  1
  Ru  Ru11  1  0.918348  0.211888  0.500000  1
  Ru  Ru12  1  0.283322  0.568340  0.500000  1
  Ru  Ru13  1  0.711888  0.418348  0.500000  1
  Ru  Ru14  1  0.218587  0.070710  0.500000  1
  Ru  Ru15  1  0.782493  0.939752  0.500000  1
  Ru  Ru16  1  0.508579  0.008579  0.500000  1
  Ru  Ru17  1  0.996623  0.496623  0.500000  1
  W  W18  1  0.498032  0.502895  0.000000  1
  W  W19  1  0.002895  0.998032  0.000000  1
