# generated using pymatgen
data_Tb4DyTcMoO12
_symmetry_space_group_name_H-M   'P 1'
_cell_length_a   6.85326539
_cell_length_b   6.85326470
_cell_length_c   7.55321600
_cell_angle_alpha   73.84778919
_cell_angle_beta   73.84779272
_cell_angle_gamma   50.05266588
_symmetry_Int_Tables_number   1
_chemical_formula_structural   Tb4DyTcMoO12
_chemical_formula_sum   'Tb4 Dy1 Tc1 Mo1 O12'
_cell_volume   258.83193108
_cell_formula_units_Z   1
loop_
 _symmetry_equiv_pos_site_id
 _symmetry_equiv_pos_as_xyz
  1  'x, y, z'
loop_
 _atom_site_type_symbol
 _atom_site_label
 _atom_site_symmetry_multiplicity
 _atom_site_fract_x
 _atom_site_fract_y
 _atom_site_fract_z
 _atom_site_occupancy
  Tb  Tb0  1  0.313879  0.294687  0.359725  1
  Tb  Tb1  1  0.705313  0.686121  0.640275  1
  Tb  Tb2  1  0.316966  0.309223  0.824517  1
  Tb  Tb3  1  0.690777  0.683034  0.175483  1
  Dy  Dy4  1  0.006280  0.993720  0.500000  1
  Tc  Tc5  1  0.766414  0.233586  0.000000  1
  Mo  Mo6  1  0.210633  0.789367  0.000000  1
  O  O7  1  0.909865  0.428170  0.915213  1
  O  O8  1  0.416208  0.904091  0.916804  1
  O  O9  1  0.095909  0.583792  0.083196  1
  O  O10  1  0.571830  0.090135  0.084787  1
  O  O11  1  0.104488  0.592275  0.571507  1
  O  O12  1  0.598534  0.090442  0.576356  1
  O  O13  1  0.909558  0.401466  0.423644  1
  O  O14  1  0.407725  0.895512  0.428493  1
  O  O15  1  0.992306  0.005223  0.798393  1
  O  O16  1  0.994777  0.007694  0.201607  1
  O  O17  1  0.494486  0.505947  0.820546  1
  O  O18  1  0.494053  0.505514  0.179454  1
