# generated using pymatgen
data_SiB2Mo2Ru5
_symmetry_space_group_name_H-M   'P 1'
_cell_length_a   9.28074600
_cell_length_b   9.28074600
_cell_length_c   2.87877200
_cell_angle_alpha   90.00000000
_cell_angle_beta   90.00000000
_cell_angle_gamma   90.00000000
_symmetry_Int_Tables_number   1
_chemical_formula_structural   SiB2Mo2Ru5
_chemical_formula_sum   'Si2 B4 Mo4 Ru10'
_cell_volume   247.95509899
_cell_formula_units_Z   2
loop_
 _symmetry_equiv_pos_site_id
 _symmetry_equiv_pos_as_xyz
  1  'x, y, z'
loop_
 _atom_site_type_symbol
 _atom_site_label
 _atom_site_symmetry_multiplicity
 _atom_site_fract_x
 _atom_site_fract_y
 _atom_site_fract_z
 _atom_site_occupancy
  Si  Si0  1  0.000000  0.000000  0.000000  1
  Si  Si1  1  0.500000  0.500000  0.000000  1
  B  B2  1  0.374195  0.874195  0.000000  1
  B  B3  1  0.874195  0.625805  0.000000  1
  B  B4  1  0.125805  0.374195  0.000000  1
  B  B5  1  0.625805  0.125805  0.000000  1
  Mo  Mo6  1  0.178605  0.678605  0.000000  1
  Mo  Mo7  1  0.678605  0.821395  0.000000  1
  Mo  Mo8  1  0.321395  0.178605  0.000000  1
  Mo  Mo9  1  0.821395  0.321395  0.000000  1
  Ru  Ru10  1  0.000000  0.500000  0.500000  1
  Ru  Ru11  1  0.500000  0.000000  0.500000  1
  Ru  Ru12  1  0.289354  0.436058  0.500000  1
  Ru  Ru13  1  0.710647  0.563942  0.500000  1
  Ru  Ru14  1  0.563942  0.289354  0.500000  1
  Ru  Ru15  1  0.436058  0.710647  0.500000  1
  Ru  Ru16  1  0.936058  0.789353  0.500000  1
  Ru  Ru17  1  0.789353  0.063942  0.500000  1
  Ru  Ru18  1  0.210646  0.936058  0.500000  1
  Ru  Ru19  1  0.063942  0.210646  0.500000  1
