# generated using pymatgen
data_Be3CoReOs
_symmetry_space_group_name_H-M   'P 1'
_cell_length_a   4.42625322
_cell_length_b   4.40564149
_cell_length_c   7.21154109
_cell_angle_alpha   90.63214883
_cell_angle_beta   89.68540114
_cell_angle_gamma   119.84607119
_symmetry_Int_Tables_number   1
_chemical_formula_structural   Be3CoReOs
_chemical_formula_sum   'Be6 Co2 Re2 Os2'
_cell_volume   121.96893475
_cell_formula_units_Z   2
loop_
 _symmetry_equiv_pos_site_id
 _symmetry_equiv_pos_as_xyz
  1  'x, y, z'
loop_
 _atom_site_type_symbol
 _atom_site_label
 _atom_site_symmetry_multiplicity
 _atom_site_fract_x
 _atom_site_fract_y
 _atom_site_fract_z
 _atom_site_occupancy
  Be  Be0  1  0.999431  0.000582  0.000324  1
  Be  Be1  1  0.000569  0.001152  0.500324  1
  Be  Be2  1  0.662218  0.828390  0.749907  1
  Be  Be3  1  0.337782  0.166172  0.249907  1
  Be  Be4  1  0.829439  0.166477  0.249895  1
  Be  Be5  1  0.170561  0.337037  0.749895  1
  Co  Co6  1  0.836690  0.668773  0.250788  1
  Co  Co7  1  0.163310  0.832083  0.750788  1
  Re  Re8  1  0.664165  0.333183  0.937916  1
  Re  Re9  1  0.335835  0.669019  0.437916  1
  Os  Os10  1  0.340525  0.668829  0.061169  1
  Os  Os11  1  0.659475  0.328303  0.561169  1
