# generated using pymatgen
data_Tm8Cr(B8Ir)3
_symmetry_space_group_name_H-M   'P 1'
_cell_length_a   3.59525900
_cell_length_b   9.10413153
_cell_length_c   11.44913298
_cell_angle_alpha   90.08878195
_cell_angle_beta   90.00000000
_cell_angle_gamma   90.00000000
_symmetry_Int_Tables_number   1
_chemical_formula_structural   Tm8Cr(B8Ir)3
_chemical_formula_sum   'Tm8 Cr1 B24 Ir3'
_cell_volume   374.74925982
_cell_formula_units_Z   1
loop_
 _symmetry_equiv_pos_site_id
 _symmetry_equiv_pos_as_xyz
  1  'x, y, z'
loop_
 _atom_site_type_symbol
 _atom_site_label
 _atom_site_symmetry_multiplicity
 _atom_site_fract_x
 _atom_site_fract_y
 _atom_site_fract_z
 _atom_site_occupancy
  Tm  Tm0  1  0.500000  0.316149  0.408561  1
  Tm  Tm1  1  0.500000  0.679350  0.585256  1
  Tm  Tm2  1  0.500000  0.178713  0.919189  1
  Tm  Tm3  1  0.500000  0.825460  0.088328  1
  Tm  Tm4  1  0.500000  0.440890  0.125378  1
  Tm  Tm5  1  0.500000  0.556315  0.874696  1
  Tm  Tm6  1  0.500000  0.056125  0.626400  1
  Tm  Tm7  1  0.500000  0.947846  0.372126  1
  Cr  Cr8  1  0.500000  0.137956  0.179399  1
  B  B9  1  0.000000  0.108427  0.470773  1
  B  B10  1  0.000000  0.891468  0.529865  1
  B  B11  1  0.000000  0.391464  0.969438  1
  B  B12  1  0.000000  0.609661  0.030063  1
  B  B13  1  0.000000  0.131724  0.314430  1
  B  B14  1  0.000000  0.867630  0.683586  1
  B  B15  1  0.000000  0.368354  0.816476  1
  B  B16  1  0.000000  0.632011  0.184091  1
  B  B17  1  0.000000  0.052938  0.066945  1
  B  B18  1  0.000000  0.947193  0.934812  1
  B  B19  1  0.000000  0.446454  0.565122  1
  B  B20  1  0.000000  0.552182  0.433657  1
  B  B21  1  0.000000  0.480481  0.286497  1
  B  B22  1  0.000000  0.519208  0.712884  1
  B  B23  1  0.000000  0.019015  0.787536  1
  B  B24  1  0.000000  0.982849  0.212753  1
  B  B25  1  0.000000  0.247483  0.080299  1
  B  B26  1  0.000000  0.751455  0.921893  1
  B  B27  1  0.000000  0.250005  0.578414  1
  B  B28  1  0.000000  0.750212  0.420798  1
  B  B29  1  0.000000  0.291990  0.234238  1
  B  B30  1  0.000000  0.706597  0.764453  1
  B  B31  1  0.000000  0.207381  0.735496  1
  B  B32  1  0.000000  0.793300  0.265651  1
  Ir  Ir33  1  0.500000  0.861947  0.820548  1
  Ir  Ir34  1  0.500000  0.362426  0.678178  1
  Ir  Ir35  1  0.500000  0.637342  0.321770  1
