# generated using pymatgen
data_U2Pa2Re7P6
_symmetry_space_group_name_H-M   'P 1'
_cell_length_a   7.10282344
_cell_length_b   7.12313689
_cell_length_c   7.10282342
_cell_angle_alpha   109.43301609
_cell_angle_beta   109.43200323
_cell_angle_gamma   109.43299849
_symmetry_Int_Tables_number   1
_chemical_formula_structural   U2Pa2Re7P6
_chemical_formula_sum   'U2 Pa2 Re7 P6'
_cell_volume   277.03186046
_cell_formula_units_Z   1
loop_
 _symmetry_equiv_pos_site_id
 _symmetry_equiv_pos_as_xyz
  1  'x, y, z'
loop_
 _atom_site_type_symbol
 _atom_site_label
 _atom_site_symmetry_multiplicity
 _atom_site_fract_x
 _atom_site_fract_y
 _atom_site_fract_z
 _atom_site_occupancy
  U  U0  1  0.000000  0.500000  0.000000  1
  U  U1  1  0.500000  0.500000  0.500000  1
  Pa  Pa2  1  0.000000  0.000000  0.500000  1
  Pa  Pa3  1  0.500000  0.000000  0.000000  1
  Re  Re4  1  0.750000  0.500000  0.250000  1
  Re  Re5  1  0.496246  0.746268  0.250021  1
  Re  Re6  1  0.503754  0.253732  0.749979  1
  Re  Re7  1  0.749979  0.253732  0.503754  1
  Re  Re8  1  0.250021  0.746268  0.496246  1
  Re  Re9  1  0.250000  0.500000  0.750000  1
  Re  Re10  1  0.000000  0.000000  0.000000  1
  P  P11  1  0.311928  0.000000  0.311928  1
  P  P12  1  0.001369  0.313394  0.312025  1
  P  P13  1  0.998631  0.686606  0.687975  1
  P  P14  1  0.312025  0.313394  0.001369  1
  P  P15  1  0.687975  0.686606  0.998631  1
  P  P16  1  0.688072  0.000000  0.688072  1
