# generated using pymatgen
data_Rb4CdPbAu6
_symmetry_space_group_name_H-M   'P 1'
_cell_length_a   5.82511700
_cell_length_b   6.99442900
_cell_length_c   9.11355900
_cell_angle_alpha   90.00000000
_cell_angle_beta   90.00000000
_cell_angle_gamma   90.00000000
_symmetry_Int_Tables_number   1
_chemical_formula_structural   Rb4CdPbAu6
_chemical_formula_sum   'Rb4 Cd1 Pb1 Au6'
_cell_volume   371.31708150
_cell_formula_units_Z   1
loop_
 _symmetry_equiv_pos_site_id
 _symmetry_equiv_pos_as_xyz
  1  'x, y, z'
loop_
 _atom_site_type_symbol
 _atom_site_label
 _atom_site_symmetry_multiplicity
 _atom_site_fract_x
 _atom_site_fract_y
 _atom_site_fract_z
 _atom_site_occupancy
  Rb  Rb0  1  0.250000  0.000000  0.131653  1
  Rb  Rb1  1  0.250000  0.500000  0.363899  1
  Rb  Rb2  1  0.749999  0.500000  0.631273  1
  Rb  Rb3  1  0.749999  0.000000  0.871863  1
  Cd  Cd4  1  0.749999  0.500000  0.073736  1
  Pb  Pb5  1  0.250000  0.500000  0.927493  1
  Au  Au6  1  0.749999  0.208385  0.280349  1
  Au  Au7  1  0.749999  0.791615  0.280349  1
  Au  Au8  1  0.997614  0.000000  0.501872  1
  Au  Au9  1  0.502386  0.000000  0.501872  1
  Au  Au10  1  0.250000  0.208532  0.717819  1
  Au  Au11  1  0.250000  0.791468  0.717819  1
