# generated using pymatgen
data_KHg3Pt
_symmetry_space_group_name_H-M   'P 1'
_cell_length_a   5.38141676
_cell_length_b   5.38129353
_cell_length_c   5.38200247
_cell_angle_alpha   89.98896054
_cell_angle_beta   90.04074894
_cell_angle_gamma   89.95542752
_symmetry_Int_Tables_number   1
_chemical_formula_structural   KHg3Pt
_chemical_formula_sum   'K1 Hg3 Pt1'
_cell_volume   155.85722974
_cell_formula_units_Z   1
loop_
 _symmetry_equiv_pos_site_id
 _symmetry_equiv_pos_as_xyz
  1  'x, y, z'
loop_
 _atom_site_type_symbol
 _atom_site_label
 _atom_site_symmetry_multiplicity
 _atom_site_fract_x
 _atom_site_fract_y
 _atom_site_fract_z
 _atom_site_occupancy
  K  K0  1  0.000692  0.000924  0.993214  1
  Hg  Hg1  1  0.999420  0.496233  0.487596  1
  Hg  Hg2  1  0.501829  0.500879  0.985144  1
  Hg  Hg3  1  0.498660  0.996005  0.488947  1
  Pt  Pt4  1  0.499399  0.495958  0.485097  1
