# generated using pymatgen
data_SmPRuN
_symmetry_space_group_name_H-M   'P 1'
_cell_length_a   3.95365500
_cell_length_b   3.95365500
_cell_length_c   7.86555200
_cell_angle_alpha   90.00000000
_cell_angle_beta   90.00000000
_cell_angle_gamma   90.00000000
_symmetry_Int_Tables_number   1
_chemical_formula_structural   SmPRuN
_chemical_formula_sum   'Sm2 P2 Ru2 N2'
_cell_volume   122.94949404
_cell_formula_units_Z   2
loop_
 _symmetry_equiv_pos_site_id
 _symmetry_equiv_pos_as_xyz
  1  'x, y, z'
loop_
 _atom_site_type_symbol
 _atom_site_label
 _atom_site_symmetry_multiplicity
 _atom_site_fract_x
 _atom_site_fract_y
 _atom_site_fract_z
 _atom_site_occupancy
  Sm  Sm0  1  0.500001  0.000000  0.167673  1
  Sm  Sm1  1  0.000000  0.500001  0.832327  1
  P  P2  1  0.000000  0.500001  0.346808  1
  P  P3  1  0.500001  0.000000  0.653192  1
  Ru  Ru4  1  0.000000  0.000000  0.500000  1
  Ru  Ru5  1  0.500001  0.500001  0.500000  1
  N  N6  1  0.000000  0.500001  0.131945  1
  N  N7  1  0.500001  0.000000  0.868055  1
