# generated using pymatgen
data_HfPa2(Fe3P2)3
_symmetry_space_group_name_H-M   'P 1'
_cell_length_a   3.71603800
_cell_length_b   10.53873700
_cell_length_c   11.93919300
_cell_angle_alpha   90.00000000
_cell_angle_beta   90.00000000
_cell_angle_gamma   90.00000000
_symmetry_Int_Tables_number   1
_chemical_formula_structural   HfPa2(Fe3P2)3
_chemical_formula_sum   'Hf2 Pa4 Fe18 P12'
_cell_volume   467.56682112
_cell_formula_units_Z   2
loop_
 _symmetry_equiv_pos_site_id
 _symmetry_equiv_pos_as_xyz
  1  'x, y, z'
loop_
 _atom_site_type_symbol
 _atom_site_label
 _atom_site_symmetry_multiplicity
 _atom_site_fract_x
 _atom_site_fract_y
 _atom_site_fract_z
 _atom_site_occupancy
  Hf  Hf0  1  0.250000  0.698068  0.992617  1
  Hf  Hf1  1  0.250000  0.801932  0.492617  1
  Pa  Pa2  1  0.250000  0.571316  0.697093  1
  Pa  Pa3  1  0.250000  0.928684  0.197093  1
  Pa  Pa4  1  0.750000  0.416402  0.292249  1
  Pa  Pa5  1  0.750000  0.083598  0.792249  1
  Fe  Fe6  1  0.750000  0.296268  0.006591  1
  Fe  Fe7  1  0.750000  0.203732  0.506591  1
  Fe  Fe8  1  0.250000  0.393460  0.483603  1
  Fe  Fe9  1  0.250000  0.106540  0.983603  1
  Fe  Fe10  1  0.750000  0.584269  0.519522  1
  Fe  Fe11  1  0.750000  0.915731  0.019522  1
  Fe  Fe12  1  0.250000  0.228521  0.169724  1
  Fe  Fe13  1  0.250000  0.271479  0.669724  1
  Fe  Fe14  1  0.750000  0.780322  0.830780  1
  Fe  Fe15  1  0.750000  0.719678  0.330780  1
  Fe  Fe16  1  0.250000  0.885921  0.709846  1
  Fe  Fe17  1  0.250000  0.614079  0.209846  1
  Fe  Fe18  1  0.750000  0.121480  0.296626  1
  Fe  Fe19  1  0.750000  0.378520  0.796626  1
  Fe  Fe20  1  0.250000  0.457835  0.930263  1
  Fe  Fe21  1  0.250000  0.042165  0.430263  1
  Fe  Fe22  1  0.750000  0.527719  0.069038  1
  Fe  Fe23  1  0.750000  0.972281  0.569038  1
  P  P24  1  0.250000  0.422258  0.108844  1
  P  P25  1  0.250000  0.077742  0.608844  1
  P  P26  1  0.750000  0.568164  0.883205  1
  P  P27  1  0.750000  0.931836  0.383205  1
  P  P28  1  0.250000  0.271682  0.860533  1
  P  P29  1  0.250000  0.228318  0.360533  1
  P  P30  1  0.750000  0.723775  0.146714  1
  P  P31  1  0.750000  0.776225  0.646714  1
  P  P32  1  0.250000  0.584337  0.398166  1
  P  P33  1  0.250000  0.915663  0.898166  1
  P  P34  1  0.750000  0.383637  0.604585  1
  P  P35  1  0.750000  0.116363  0.104585  1
