# generated using pymatgen
data_Tb10(GaSb)3
_symmetry_space_group_name_H-M   'P 1'
_cell_length_a   8.83629800
_cell_length_b   8.83439011
_cell_length_c   6.49915700
_cell_angle_alpha   90.00000000
_cell_angle_beta   90.00000000
_cell_angle_gamma   120.00713672
_symmetry_Int_Tables_number   1
_chemical_formula_structural   Tb10(GaSb)3
_chemical_formula_sum   'Tb10 Ga3 Sb3'
_cell_volume   439.34263490
_cell_formula_units_Z   1
loop_
 _symmetry_equiv_pos_site_id
 _symmetry_equiv_pos_as_xyz
  1  'x, y, z'
loop_
 _atom_site_type_symbol
 _atom_site_label
 _atom_site_symmetry_multiplicity
 _atom_site_fract_x
 _atom_site_fract_y
 _atom_site_fract_z
 _atom_site_occupancy
  Tb  Tb0  1  0.010220  0.767773  0.750000  1
  Tb  Tb1  1  0.011662  0.248619  0.250000  1
  Tb  Tb2  1  0.763043  0.751381  0.250000  1
  Tb  Tb3  1  0.754639  0.000000  0.750000  1
  Tb  Tb4  1  0.242447  0.232227  0.750000  1
  Tb  Tb5  1  0.235650  0.000000  0.250000  1
  Tb  Tb6  1  0.327382  0.666712  0.497536  1
  Tb  Tb7  1  0.660672  0.333288  0.002464  1
  Tb  Tb8  1  0.660672  0.333288  0.497536  1
  Tb  Tb9  1  0.327382  0.666712  0.002464  1
  Ga  Ga10  1  0.397944  0.000000  0.750000  1
  Ga  Ga11  1  0.395744  0.396219  0.250000  1
  Ga  Ga12  1  0.999525  0.603781  0.250000  1
  Sb  Sb13  1  0.997657  0.392512  0.750000  1
  Sb  Sb14  1  0.605145  0.607488  0.750000  1
  Sb  Sb15  1  0.610216  0.000000  0.250000  1
