# generated using pymatgen
data_Tb7HoIn3Fe
_symmetry_space_group_name_H-M   'P 1'
_cell_length_a   10.37798178
_cell_length_b   10.37808686
_cell_length_c   7.07334590
_cell_angle_alpha   90.05152621
_cell_angle_beta   89.94848586
_cell_angle_gamma   119.93630243
_symmetry_Int_Tables_number   1
_chemical_formula_structural   Tb7HoIn3Fe
_chemical_formula_sum   'Tb14 Ho2 In6 Fe2'
_cell_volume   660.18233158
_cell_formula_units_Z   2
loop_
 _symmetry_equiv_pos_site_id
 _symmetry_equiv_pos_as_xyz
  1  'x, y, z'
loop_
 _atom_site_type_symbol
 _atom_site_label
 _atom_site_symmetry_multiplicity
 _atom_site_fract_x
 _atom_site_fract_y
 _atom_site_fract_z
 _atom_site_occupancy
  Tb  Tb0  1  0.822083  0.177922  0.492896  1
  Tb  Tb1  1  0.177985  0.355977  0.992496  1
  Tb  Tb2  1  0.644026  0.822014  0.992493  1
  Tb  Tb3  1  0.178093  0.821908  0.992552  1
  Tb  Tb4  1  0.666362  0.333632  0.178556  1
  Tb  Tb5  1  0.333340  0.666666  0.677369  1
  Tb  Tb6  1  0.536486  0.073743  0.787513  1
  Tb  Tb7  1  0.926254  0.463512  0.787511  1
  Tb  Tb8  1  0.537186  0.462812  0.786763  1
  Tb  Tb9  1  0.463209  0.926568  0.287942  1
  Tb  Tb10  1  0.073440  0.536795  0.287944  1
  Tb  Tb11  1  0.463341  0.536661  0.287972  1
  Tb  Tb12  1  0.000083  0.999918  0.775053  1
  Tb  Tb13  1  0.000080  0.999917  0.275642  1
  Ho  Ho14  1  0.822091  0.644022  0.492287  1
  Ho  Ho15  1  0.355977  0.177908  0.492289  1
  In  In16  1  0.836702  0.673483  0.036910  1
  In  In17  1  0.326497  0.163292  0.036898  1
  In  In18  1  0.836808  0.163190  0.036446  1
  In  In19  1  0.163580  0.325966  0.536202  1
  In  In20  1  0.674038  0.836425  0.536191  1
  In  In21  1  0.162664  0.837334  0.535928  1
  Fe  Fe22  1  0.666490  0.333507  0.559735  1
  Fe  Fe23  1  0.333183  0.666827  0.060487  1
