# generated using pymatgen
data_Ti6Si6Tc5Os
_symmetry_space_group_name_H-M   'P 1'
_cell_length_a   7.52468786
_cell_length_b   7.52664076
_cell_length_c   7.52377284
_cell_angle_alpha   126.31309670
_cell_angle_beta   129.07982484
_cell_angle_gamma   77.13027537
_symmetry_Int_Tables_number   1
_chemical_formula_structural   Ti6Si6Tc5Os
_chemical_formula_sum   'Ti6 Si6 Tc5 Os1'
_cell_volume   258.69976137
_cell_formula_units_Z   1
loop_
 _symmetry_equiv_pos_site_id
 _symmetry_equiv_pos_as_xyz
  1  'x, y, z'
loop_
 _atom_site_type_symbol
 _atom_site_label
 _atom_site_symmetry_multiplicity
 _atom_site_fract_x
 _atom_site_fract_y
 _atom_site_fract_z
 _atom_site_occupancy
  Ti  Ti0  1  0.451886  0.408418  0.458069  1
  Ti  Ti1  1  0.551702  0.003070  0.953653  1
  Ti  Ti2  1  0.047966  0.003471  0.453095  1
  Ti  Ti3  1  0.951627  0.410885  0.957859  1
  Ti  Ti4  1  0.248642  0.595620  0.848580  1
  Ti  Ti5  1  0.748546  0.597155  0.346938  1
  Si  Si6  1  0.250950  0.003059  0.254282  1
  Si  Si7  1  0.749529  0.003541  0.751849  1
  Si  Si8  1  0.167509  0.671792  0.506450  1
  Si  Si9  1  0.831964  0.336305  0.502012  1
  Si  Si10  1  0.665587  0.670339  0.002719  1
  Si  Si11  1  0.332980  0.334750  0.004201  1
  Tc  Tc12  1  0.000694  0.264069  0.263449  1
  Tc  Tc13  1  0.499572  0.263744  0.764339  1
  Tc  Tc14  1  0.369515  0.742183  0.373042  1
  Tc  Tc15  1  0.630412  0.003273  0.371665  1
  Tc  Tc16  1  0.870213  0.743277  0.872685  1
  Os  Os17  1  0.130706  0.003049  0.873115  1
