# generated using pymatgen
data_Nd4Cr3Co17As12
_symmetry_space_group_name_H-M   'P 1'
_cell_length_a   3.84749400
_cell_length_b   10.84856070
_cell_length_c   12.37190644
_cell_angle_alpha   90.04609415
_cell_angle_beta   90.00000000
_cell_angle_gamma   90.00000000
_symmetry_Int_Tables_number   1
_chemical_formula_structural   Nd4Cr3Co17As12
_chemical_formula_sum   'Nd4 Cr3 Co17 As12'
_cell_volume   516.40038933
_cell_formula_units_Z   1
loop_
 _symmetry_equiv_pos_site_id
 _symmetry_equiv_pos_as_xyz
  1  'x, y, z'
loop_
 _atom_site_type_symbol
 _atom_site_label
 _atom_site_symmetry_multiplicity
 _atom_site_fract_x
 _atom_site_fract_y
 _atom_site_fract_z
 _atom_site_occupancy
  Nd  Nd0  1  0.250000  0.917942  0.203424  1
  Nd  Nd1  1  0.750000  0.079226  0.797232  1
  Nd  Nd2  1  0.750000  0.418125  0.297376  1
  Nd  Nd3  1  0.250000  0.581701  0.704362  1
  Cr  Cr4  1  0.250000  0.796973  0.491275  1
  Cr  Cr5  1  0.750000  0.202909  0.508663  1
  Cr  Cr6  1  0.750000  0.297554  0.008800  1
  Co  Co7  1  0.250000  0.705456  0.989582  1
  Co  Co8  1  0.250000  0.095731  0.990007  1
  Co  Co9  1  0.750000  0.905422  0.010529  1
  Co  Co10  1  0.750000  0.595256  0.509591  1
  Co  Co11  1  0.250000  0.405402  0.489710  1
  Co  Co12  1  0.250000  0.283438  0.674140  1
  Co  Co13  1  0.750000  0.716879  0.324077  1
  Co  Co14  1  0.750000  0.782690  0.825932  1
  Co  Co15  1  0.250000  0.217650  0.174564  1
  Co  Co16  1  0.250000  0.617059  0.195859  1
  Co  Co17  1  0.750000  0.384004  0.802982  1
  Co  Co18  1  0.750000  0.116775  0.301878  1
  Co  Co19  1  0.250000  0.881800  0.698708  1
  Co  Co20  1  0.250000  0.033537  0.431859  1
  Co  Co21  1  0.750000  0.966602  0.567491  1
  Co  Co22  1  0.750000  0.532294  0.067271  1
  Co  Co23  1  0.250000  0.467976  0.934146  1
  As  As24  1  0.250000  0.080828  0.613127  1
  As  As25  1  0.750000  0.918209  0.387122  1
  As  As26  1  0.750000  0.583513  0.888615  1
  As  As27  1  0.250000  0.418072  0.113967  1
  As  As28  1  0.250000  0.228240  0.366081  1
  As  As29  1  0.750000  0.771446  0.634099  1
  As  As30  1  0.750000  0.728444  0.131154  1
  As  As31  1  0.250000  0.272322  0.865265  1
  As  As32  1  0.250000  0.895506  0.894292  1
  As  As33  1  0.750000  0.099071  0.108092  1
  As  As34  1  0.750000  0.401190  0.608104  1
  As  As35  1  0.250000  0.600756  0.390626  1
