# generated using pymatgen
data_Tb4Tc2B16IrRu
_symmetry_space_group_name_H-M   'P 1'
_cell_length_a   3.58979200
_cell_length_b   5.98531202
_cell_length_c   11.58275500
_cell_angle_alpha   89.80535278
_cell_angle_beta   90.00000000
_cell_angle_gamma   90.00000000
_symmetry_Int_Tables_number   1
_chemical_formula_structural   Tb4Tc2B16IrRu
_chemical_formula_sum   'Tb4 Tc2 B16 Ir1 Ru1'
_cell_volume   248.86592984
_cell_formula_units_Z   1
loop_
 _symmetry_equiv_pos_site_id
 _symmetry_equiv_pos_as_xyz
  1  'x, y, z'
loop_
 _atom_site_type_symbol
 _atom_site_label
 _atom_site_symmetry_multiplicity
 _atom_site_fract_x
 _atom_site_fract_y
 _atom_site_fract_z
 _atom_site_occupancy
  Tb  Tb0  1  0.500000  0.128540  0.148652  1
  Tb  Tb1  1  0.500000  0.872160  0.849702  1
  Tb  Tb2  1  0.500000  0.627592  0.351538  1
  Tb  Tb3  1  0.500000  0.371603  0.650651  1
  Tc  Tc4  1  0.500000  0.133368  0.410923  1
  Tc  Tc5  1  0.500000  0.867077  0.588074  1
  B  B6  1  0.000000  0.472393  0.191340  1
  B  B7  1  0.000000  0.525317  0.808481  1
  B  B8  1  0.000000  0.976445  0.308045  1
  B  B9  1  0.000000  0.023415  0.691738  1
  B  B10  1  0.000000  0.287457  0.314671  1
  B  B11  1  0.000000  0.713013  0.685302  1
  B  B12  1  0.000000  0.790898  0.185533  1
  B  B13  1  0.000000  0.211382  0.815020  1
  B  B14  1  0.000000  0.363964  0.469035  1
  B  B15  1  0.000000  0.636003  0.531035  1
  B  B16  1  0.000000  0.864031  0.030711  1
  B  B17  1  0.000000  0.135350  0.968277  1
  B  B18  1  0.000000  0.386073  0.045947  1
  B  B19  1  0.000000  0.611584  0.952525  1
  B  B20  1  0.000000  0.887919  0.453497  1
  B  B21  1  0.000000  0.112487  0.546408  1
  Ir  Ir22  1  0.500000  0.641321  0.095202  1
  Ru  Ru23  1  0.500000  0.360608  0.907694  1
