# generated using pymatgen
data_Rb2TaFeSe4
_symmetry_space_group_name_H-M   'P 1'
_cell_length_a   14.58246453
_cell_length_b   13.03248747
_cell_length_c   7.71581287
_cell_angle_alpha   85.22785319
_cell_angle_beta   62.95018029
_cell_angle_gamma   31.82196062
_symmetry_Int_Tables_number   1
_chemical_formula_structural   Rb2TaFeSe4
_chemical_formula_sum   'Rb4 Ta2 Fe2 Se8'
_cell_volume   525.82132577
_cell_formula_units_Z   2
loop_
 _symmetry_equiv_pos_site_id
 _symmetry_equiv_pos_as_xyz
  1  'x, y, z'
loop_
 _atom_site_type_symbol
 _atom_site_label
 _atom_site_symmetry_multiplicity
 _atom_site_fract_x
 _atom_site_fract_y
 _atom_site_fract_z
 _atom_site_occupancy
  Rb  Rb0  1  0.821483  0.821483  0.178517  1
  Rb  Rb1  1  0.178517  0.178517  0.821483  1
  Rb  Rb2  1  0.071483  0.071483  0.428517  1
  Rb  Rb3  1  0.428517  0.428517  0.071483  1
  Ta  Ta4  1  0.250000  0.250000  0.250000  1
  Ta  Ta5  1  0.000000  0.000000  0.000000  1
  Fe  Fe6  1  0.750000  0.750000  0.750000  1
  Fe  Fe7  1  0.500000  0.500000  0.500000  1
  Se  Se8  1  0.707683  0.401556  0.096793  1
  Se  Se9  1  0.793969  0.096793  0.401556  1
  Se  Se10  1  0.096793  0.793969  0.707683  1
  Se  Se11  1  0.401556  0.707683  0.793969  1
  Se  Se12  1  0.153207  0.456031  0.542317  1
  Se  Se13  1  0.848444  0.542317  0.456031  1
  Se  Se14  1  0.456031  0.153207  0.848444  1
  Se  Se15  1  0.542317  0.848444  0.153207  1
