# generated using pymatgen
data_Zr10InHgBi6
_symmetry_space_group_name_H-M   'P 1'
_cell_length_a   8.99792700
_cell_length_b   8.99792644
_cell_length_c   6.01053400
_cell_angle_alpha   90.00000000
_cell_angle_beta   90.00000000
_cell_angle_gamma   119.99999840
_symmetry_Int_Tables_number   1
_chemical_formula_structural   Zr10InHgBi6
_chemical_formula_sum   'Zr10 In1 Hg1 Bi6'
_cell_volume   421.43305896
_cell_formula_units_Z   1
loop_
 _symmetry_equiv_pos_site_id
 _symmetry_equiv_pos_as_xyz
  1  'x, y, z'
loop_
 _atom_site_type_symbol
 _atom_site_label
 _atom_site_symmetry_multiplicity
 _atom_site_fract_x
 _atom_site_fract_y
 _atom_site_fract_z
 _atom_site_occupancy
  Zr  Zr0  1  0.666667  0.333333  0.000000  1
  Zr  Zr1  1  0.333333  0.666667  0.000000  1
  Zr  Zr2  1  0.333333  0.666667  0.500000  1
  Zr  Zr3  1  0.666667  0.333333  0.500000  1
  Zr  Zr4  1  0.720416  0.720416  0.749501  1
  Zr  Zr5  1  0.279584  0.000000  0.749501  1
  Zr  Zr6  1  0.000000  0.279584  0.749501  1
  Zr  Zr7  1  0.279584  0.279584  0.250499  1
  Zr  Zr8  1  0.720416  0.000000  0.250499  1
  Zr  Zr9  1  0.000000  0.720416  0.250499  1
  In  In10  1  0.000000  0.000000  0.500000  1
  Hg  Hg11  1  0.000000  0.000000  0.000000  1
  Bi  Bi12  1  0.382789  0.382789  0.749932  1
  Bi  Bi13  1  0.617211  0.000000  0.749932  1
  Bi  Bi14  1  0.000000  0.617211  0.749932  1
  Bi  Bi15  1  0.617211  0.617211  0.250068  1
  Bi  Bi16  1  0.382789  0.000000  0.250068  1
  Bi  Bi17  1  0.000000  0.382789  0.250068  1
