# generated using pymatgen
data_CeYB8(Ir3Rh)2
_symmetry_space_group_name_H-M   'P 1'
_cell_length_a   7.66188176
_cell_length_b   7.66809077
_cell_length_c   3.97958400
_cell_angle_alpha   90.00000000
_cell_angle_beta   90.00000000
_cell_angle_gamma   90.15225834
_symmetry_Int_Tables_number   1
_chemical_formula_structural   CeYB8(Ir3Rh)2
_chemical_formula_sum   'Ce1 Y1 B8 Ir6 Rh2'
_cell_volume   233.80771280
_cell_formula_units_Z   1
loop_
 _symmetry_equiv_pos_site_id
 _symmetry_equiv_pos_as_xyz
  1  'x, y, z'
loop_
 _atom_site_type_symbol
 _atom_site_label
 _atom_site_symmetry_multiplicity
 _atom_site_fract_x
 _atom_site_fract_y
 _atom_site_fract_z
 _atom_site_occupancy
  Ce  Ce0  1  0.000000  0.000000  0.000017  1
  Y  Y1  1  0.500000  0.500000  0.501290  1
  B  B2  1  0.340026  0.781819  0.885701  1
  B  B3  1  0.659974  0.218181  0.885701  1
  B  B4  1  0.779114  0.660367  0.113751  1
  B  B5  1  0.220886  0.339633  0.113751  1
  B  B6  1  0.279977  0.156560  0.393160  1
  B  B7  1  0.720023  0.843440  0.393160  1
  B  B8  1  0.841441  0.279345  0.606632  1
  B  B9  1  0.158559  0.720655  0.606632  1
  Ir  Ir10  1  0.837093  0.392275  0.108873  1
  Ir  Ir11  1  0.162907  0.607725  0.108873  1
  Ir  Ir12  1  0.342545  0.891000  0.384574  1
  Ir  Ir13  1  0.657455  0.109000  0.384574  1
  Ir  Ir14  1  0.890149  0.660741  0.613795  1
  Ir  Ir15  1  0.109851  0.339259  0.613795  1
  Rh  Rh16  1  0.390871  0.161969  0.892861  1
  Rh  Rh17  1  0.609129  0.838031  0.892861  1
