# generated using pymatgen
data_Ho3ErIr7Ru
_symmetry_space_group_name_H-M   'P 1'
_cell_length_a   5.33852701
_cell_length_b   5.33853493
_cell_length_c   8.70908200
_cell_angle_alpha   90.00021307
_cell_angle_beta   89.99826228
_cell_angle_gamma   119.77771703
_symmetry_Int_Tables_number   1
_chemical_formula_structural   Ho3ErIr7Ru
_chemical_formula_sum   'Ho3 Er1 Ir7 Ru1'
_cell_volume   215.43435276
_cell_formula_units_Z   1
loop_
 _symmetry_equiv_pos_site_id
 _symmetry_equiv_pos_as_xyz
  1  'x, y, z'
loop_
 _atom_site_type_symbol
 _atom_site_label
 _atom_site_symmetry_multiplicity
 _atom_site_fract_x
 _atom_site_fract_y
 _atom_site_fract_z
 _atom_site_occupancy
  Ho  Ho0  1  0.333320  0.666677  0.433355  1
  Ho  Ho1  1  0.666585  0.333416  0.567560  1
  Ho  Ho2  1  0.666583  0.333421  0.932511  1
  Er  Er3  1  0.333336  0.666663  0.066558  1
  Ir  Ir4  1  0.169219  0.338929  0.750089  1
  Ir  Ir5  1  0.170147  0.829845  0.750088  1
  Ir  Ir6  1  0.340984  0.168317  0.249856  1
  Ir  Ir7  1  0.831671  0.659021  0.249869  1
  Ir  Ir8  1  0.661081  0.830789  0.750095  1
  Ir  Ir9  1  0.998527  0.001466  0.001013  1
  Ir  Ir10  1  0.998519  0.001472  0.499119  1
  Ru  Ru11  1  0.830028  0.169985  0.249888  1
