# generated using pymatgen
data_Ho7Er3In8(IrPt)2
_symmetry_space_group_name_H-M   'P 1'
_cell_length_a   3.61581000
_cell_length_b   8.10689105
_cell_length_c   18.19655900
_cell_angle_alpha   89.95934855
_cell_angle_beta   90.00000000
_cell_angle_gamma   90.00000000
_symmetry_Int_Tables_number   1
_chemical_formula_structural   Ho7Er3In8(IrPt)2
_chemical_formula_sum   'Ho7 Er3 In8 Ir2 Pt2'
_cell_volume   533.39519451
_cell_formula_units_Z   1
loop_
 _symmetry_equiv_pos_site_id
 _symmetry_equiv_pos_as_xyz
  1  'x, y, z'
loop_
 _atom_site_type_symbol
 _atom_site_label
 _atom_site_symmetry_multiplicity
 _atom_site_fract_x
 _atom_site_fract_y
 _atom_site_fract_z
 _atom_site_occupancy
  Ho  Ho0  1  0.000000  0.616840  0.085984  1
  Ho  Ho1  1  0.000000  0.236365  0.221899  1
  Ho  Ho2  1  0.000000  0.763600  0.778122  1
  Ho  Ho3  1  0.000000  0.248973  0.720102  1
  Ho  Ho4  1  0.000000  0.751076  0.279917  1
  Ho  Ho5  1  0.000000  0.000051  0.999988  1
  Ho  Ho6  1  0.000000  0.500004  0.499996  1
  Er  Er7  1  0.000000  0.115061  0.411927  1
  Er  Er8  1  0.000000  0.884930  0.588115  1
  Er  Er9  1  0.000000  0.383303  0.913813  1
  In  In10  1  0.500000  0.423423  0.351032  1
  In  In11  1  0.500000  0.576554  0.648969  1
  In  In12  1  0.500000  0.074795  0.850733  1
  In  In13  1  0.500000  0.925421  0.149326  1
  In  In14  1  0.500000  0.292495  0.066496  1
  In  In15  1  0.500000  0.707308  0.933422  1
  In  In16  1  0.500000  0.206425  0.567271  1
  In  In17  1  0.500000  0.793591  0.432710  1
  Ir  Ir18  1  0.500000  0.021886  0.303980  1
  Ir  Ir19  1  0.500000  0.978101  0.696009  1
  Pt  Pt20  1  0.500000  0.476913  0.803650  1
  Pt  Pt21  1  0.500000  0.522886  0.196541  1
