# generated using pymatgen
data_YLuMn6P7Ir6
_symmetry_space_group_name_H-M   'P 1'
_cell_length_a   9.41729751
_cell_length_b   9.41641286
_cell_length_c   3.82179000
_cell_angle_alpha   90.00000000
_cell_angle_beta   90.00000000
_cell_angle_gamma   119.99904469
_symmetry_Int_Tables_number   1
_chemical_formula_structural   YLuMn6P7Ir6
_chemical_formula_sum   'Y1 Lu1 Mn6 P7 Ir6'
_cell_volume   293.50358779
_cell_formula_units_Z   1
loop_
 _symmetry_equiv_pos_site_id
 _symmetry_equiv_pos_as_xyz
  1  'x, y, z'
loop_
 _atom_site_type_symbol
 _atom_site_label
 _atom_site_symmetry_multiplicity
 _atom_site_fract_x
 _atom_site_fract_y
 _atom_site_fract_z
 _atom_site_occupancy
  Y  Y0  1  0.666656  0.333331  0.000000  1
  Lu  Lu1  1  0.999919  0.999881  0.500000  1
  Mn  Mn2  1  0.491958  0.937631  0.000000  1
  Mn  Mn3  1  0.062978  0.554638  0.000000  1
  Mn  Mn4  1  0.445209  0.508197  0.000000  1
  Mn  Mn5  1  0.549783  0.764999  0.500000  1
  Mn  Mn6  1  0.235133  0.784800  0.500000  1
  Mn  Mn7  1  0.215186  0.450005  0.500000  1
  P  P8  1  0.452929  0.063408  0.500000  1
  P  P9  1  0.936762  0.389500  0.500000  1
  P  P10  1  0.610405  0.547240  0.500000  1
  P  P11  1  0.744317  0.966860  0.000000  1
  P  P12  1  0.032963  0.777377  0.000000  1
  P  P13  1  0.222480  0.255517  0.000000  1
  P  P14  1  0.333501  0.666948  0.000000  1
  Ir  Ir15  1  0.761637  0.734587  0.000000  1
  Ir  Ir16  1  0.265077  0.026918  0.000000  1
  Ir  Ir17  1  0.972983  0.238188  0.000000  1
  Ir  Ir18  1  0.721169  0.109077  0.500000  1
  Ir  Ir19  1  0.890916  0.611978  0.500000  1
  Ir  Ir20  1  0.388035  0.278920  0.500000  1
