# generated using pymatgen
data_Y10Co4PdPt
_symmetry_space_group_name_H-M   'P 1'
_cell_length_a   7.21603073
_cell_length_b   7.21602877
_cell_length_c   8.67808100
_cell_angle_alpha   114.56730760
_cell_angle_beta   114.56730048
_cell_angle_gamma   89.99999769
_symmetry_Int_Tables_number   1
_chemical_formula_structural   Y10Co4PdPt
_chemical_formula_sum   'Y10 Co4 Pd1 Pt1'
_cell_volume   365.51359129
_cell_formula_units_Z   1
loop_
 _symmetry_equiv_pos_site_id
 _symmetry_equiv_pos_as_xyz
  1  'x, y, z'
loop_
 _atom_site_type_symbol
 _atom_site_label
 _atom_site_symmetry_multiplicity
 _atom_site_fract_x
 _atom_site_fract_y
 _atom_site_fract_z
 _atom_site_occupancy
  Y  Y0  1  0.995776  0.995776  0.991550  1
  Y  Y1  1  0.504224  0.504224  0.008450  1
  Y  Y2  1  0.462465  0.311062  0.280876  1
  Y  Y3  1  0.969814  0.462465  0.280876  1
  Y  Y4  1  0.311062  0.818410  0.280876  1
  Y  Y5  1  0.818410  0.969814  0.280876  1
  Y  Y6  1  0.188938  0.037535  0.719123  1
  Y  Y7  1  0.681588  0.188938  0.719123  1
  Y  Y8  1  0.037535  0.530186  0.719123  1
  Y  Y9  1  0.530186  0.681588  0.719123  1
  Co  Co10  1  0.612140  0.112140  0.000000  1
  Co  Co11  1  0.112140  0.387861  0.000000  1
  Co  Co12  1  0.887860  0.612140  0.000000  1
  Co  Co13  1  0.387861  0.887860  0.000000  1
  Pd  Pd14  1  0.750000  0.750000  0.500000  1
  Pt  Pt15  1  0.250000  0.250000  0.500000  1
