# generated using pymatgen
data_Tb4InPt11
_symmetry_space_group_name_H-M   'P 1'
_cell_length_a   4.20391900
_cell_length_b   5.88191885
_cell_length_c   11.69860057
_cell_angle_alpha   87.92966707
_cell_angle_beta   90.00000000
_cell_angle_gamma   90.00000000
_symmetry_Int_Tables_number   1
_chemical_formula_structural   Tb4InPt11
_chemical_formula_sum   'Tb4 In1 Pt11'
_cell_volume   289.08376023
_cell_formula_units_Z   1
loop_
 _symmetry_equiv_pos_site_id
 _symmetry_equiv_pos_as_xyz
  1  'x, y, z'
loop_
 _atom_site_type_symbol
 _atom_site_label
 _atom_site_symmetry_multiplicity
 _atom_site_fract_x
 _atom_site_fract_y
 _atom_site_fract_z
 _atom_site_occupancy
  Tb  Tb0  1  0.500000  0.754631  0.376011  1
  Tb  Tb1  1  0.500000  0.719541  0.862157  1
  Tb  Tb2  1  0.500000  0.280459  0.137843  1
  Tb  Tb3  1  0.500000  0.245369  0.623989  1
  In  In4  1  0.000000  0.000000  0.000000  1
  Pt  Pt5  1  0.000000  0.013508  0.249606  1
  Pt  Pt6  1  0.000000  0.986492  0.750394  1
  Pt  Pt7  1  0.000000  0.500000  0.000000  1
  Pt  Pt8  1  0.000000  0.500000  0.500000  1
  Pt  Pt9  1  0.000000  0.516374  0.249863  1
  Pt  Pt10  1  0.000000  0.483626  0.750137  1
  Pt  Pt11  1  0.500000  0.253500  0.377657  1
  Pt  Pt12  1  0.500000  0.229147  0.881203  1
  Pt  Pt13  1  0.500000  0.770853  0.118797  1
  Pt  Pt14  1  0.500000  0.746500  0.622343  1
  Pt  Pt15  1  0.000000  0.000000  0.500000  1
