# generated using pymatgen
data_Sc8Ta7Nb4Si16W
_symmetry_space_group_name_H-M   'P 1'
_cell_length_a   6.69244903
_cell_length_b   6.88292106
_cell_length_c   13.11929307
_cell_angle_alpha   90.00416795
_cell_angle_beta   89.98891876
_cell_angle_gamma   89.99316778
_symmetry_Int_Tables_number   1
_chemical_formula_structural   Sc8Ta7Nb4Si16W
_chemical_formula_sum   'Sc8 Ta7 Nb4 Si16 W1'
_cell_volume   604.32182973
_cell_formula_units_Z   1
loop_
 _symmetry_equiv_pos_site_id
 _symmetry_equiv_pos_as_xyz
  1  'x, y, z'
loop_
 _atom_site_type_symbol
 _atom_site_label
 _atom_site_symmetry_multiplicity
 _atom_site_fract_x
 _atom_site_fract_y
 _atom_site_fract_z
 _atom_site_occupancy
  Sc  Sc0  1  0.499856  0.673495  0.594945  1
  Sc  Sc1  1  0.999433  0.825829  0.905402  1
  Sc  Sc2  1  0.501226  0.326115  0.094618  1
  Sc  Sc3  1  0.001820  0.173847  0.405435  1
  Sc  Sc4  1  0.501187  0.326139  0.405350  1
  Sc  Sc5  1  0.001810  0.174019  0.094588  1
  Sc  Sc6  1  0.499891  0.673574  0.905042  1
  Sc  Sc7  1  0.999395  0.825758  0.594674  1
  Ta  Ta8  1  0.336349  0.827625  0.374159  1
  Ta  Ta9  1  0.836278  0.673657  0.125721  1
  Ta  Ta10  1  0.662762  0.173984  0.875278  1
  Ta  Ta11  1  0.163283  0.325801  0.625030  1
  Ta  Ta12  1  0.837857  0.493992  0.750131  1
  Ta  Ta13  1  0.338484  0.006694  0.749869  1
  Ta  Ta14  1  0.162096  0.506595  0.250125  1
  Nb  Nb15  1  0.663385  0.174047  0.624516  1
  Nb  Nb16  1  0.163931  0.325697  0.875091  1
  Nb  Nb17  1  0.335463  0.827455  0.125618  1
  Nb  Nb18  1  0.835825  0.673634  0.374436  1
  Si  Si19  1  0.668990  0.967110  0.458955  1
  Si  Si20  1  0.169156  0.532709  0.039949  1
  Si  Si21  1  0.330640  0.032505  0.960442  1
  Si  Si22  1  0.830807  0.467492  0.539838  1
  Si  Si23  1  0.330082  0.032434  0.539406  1
  Si  Si24  1  0.830253  0.467510  0.960331  1
  Si  Si25  1  0.669349  0.967198  0.040926  1
  Si  Si26  1  0.169678  0.532718  0.460160  1
  Si  Si27  1  0.460544  0.387980  0.749870  1
  Si  Si28  1  0.959510  0.113063  0.750124  1
  Si  Si29  1  0.539747  0.612175  0.249858  1
  Si  Si30  1  0.035961  0.889713  0.250206  1
  Si  Si31  1  0.704462  0.860609  0.750057  1
  Si  Si32  1  0.204297  0.640053  0.749939  1
  Si  Si33  1  0.299595  0.139862  0.250031  1
  Si  Si34  1  0.795803  0.355720  0.249961  1
  W  W35  1  0.660790  0.993190  0.249918  1
