# generated using pymatgen
data_Tb10Nd6AlCd3Ir4
_symmetry_space_group_name_H-M   'P 1'
_cell_length_a   9.73084024
_cell_length_b   9.73084183
_cell_length_c   9.73086774
_cell_angle_alpha   60.16575076
_cell_angle_beta   60.16575352
_cell_angle_gamma   60.16571226
_symmetry_Int_Tables_number   1
_chemical_formula_structural   Tb10Nd6AlCd3Ir4
_chemical_formula_sum   'Tb10 Nd6 Al1 Cd3 Ir4'
_cell_volume   653.98007497
_cell_formula_units_Z   1
loop_
 _symmetry_equiv_pos_site_id
 _symmetry_equiv_pos_as_xyz
  1  'x, y, z'
loop_
 _atom_site_type_symbol
 _atom_site_label
 _atom_site_symmetry_multiplicity
 _atom_site_fract_x
 _atom_site_fract_y
 _atom_site_fract_z
 _atom_site_occupancy
  Tb  Tb0  1  0.347658  0.347658  0.347659  1
  Tb  Tb1  1  0.350268  0.350268  0.952188  1
  Tb  Tb2  1  0.350268  0.952188  0.350268  1
  Tb  Tb3  1  0.952188  0.350268  0.350268  1
  Tb  Tb4  1  0.811278  0.188035  0.188035  1
  Tb  Tb5  1  0.189548  0.809458  0.809458  1
  Tb  Tb6  1  0.188035  0.811278  0.188035  1
  Tb  Tb7  1  0.809458  0.189548  0.809457  1
  Tb  Tb8  1  0.188035  0.188035  0.811278  1
  Tb  Tb9  1  0.809458  0.809457  0.189549  1
  Nd  Nd10  1  0.939101  0.559992  0.559991  1
  Nd  Nd11  1  0.558340  0.941369  0.941369  1
  Nd  Nd12  1  0.559992  0.939101  0.559991  1
  Nd  Nd13  1  0.941369  0.558340  0.941369  1
  Nd  Nd14  1  0.559992  0.559992  0.939101  1
  Nd  Nd15  1  0.941369  0.941369  0.558341  1
  Al  Al16  1  0.579087  0.579087  0.579087  1
  Cd  Cd17  1  0.579735  0.579735  0.263956  1
  Cd  Cd18  1  0.579734  0.263956  0.579735  1
  Cd  Cd19  1  0.263956  0.579735  0.579735  1
  Ir  Ir20  1  0.142042  0.142042  0.142042  1
  Ir  Ir21  1  0.141841  0.141841  0.575406  1
  Ir  Ir22  1  0.141841  0.575406  0.141841  1
  Ir  Ir23  1  0.575406  0.141840  0.141840  1
