# generated using pymatgen
data_La4InGeIr4
_symmetry_space_group_name_H-M   'P 1'
_cell_length_a   5.84535866
_cell_length_b   5.84535882
_cell_length_c   8.14463032
_cell_angle_alpha   102.00353295
_cell_angle_beta   102.00353772
_cell_angle_gamma   58.94836214
_symmetry_Int_Tables_number   1
_chemical_formula_structural   La4InGeIr4
_chemical_formula_sum   'La4 In1 Ge1 Ir4'
_cell_volume   231.50693474
_cell_formula_units_Z   1
loop_
 _symmetry_equiv_pos_site_id
 _symmetry_equiv_pos_as_xyz
  1  'x, y, z'
loop_
 _atom_site_type_symbol
 _atom_site_label
 _atom_site_symmetry_multiplicity
 _atom_site_fract_x
 _atom_site_fract_y
 _atom_site_fract_z
 _atom_site_occupancy
  La  La0  1  0.985231  0.305751  0.142811  1
  La  La1  1  0.694249  0.014769  0.357189  1
  La  La2  1  0.297657  0.993488  0.650674  1
  La  La3  1  0.006512  0.702343  0.849325  1
  In  In4  1  0.346277  0.653723  0.249999  1
  Ge  Ge5  1  0.637720  0.362278  0.749999  1
  Ir  Ir6  1  0.504840  0.220961  0.990766  1
  Ir  Ir7  1  0.779039  0.495160  0.509234  1
  Ir  Ir8  1  0.237303  0.488828  0.511778  1
  Ir  Ir9  1  0.511172  0.762697  0.988222  1
