# generated using pymatgen
data_Zr4V2GaOs5
_symmetry_space_group_name_H-M   'P 1'
_cell_length_a   5.16963809
_cell_length_b   5.27289463
_cell_length_c   8.47015900
_cell_angle_alpha   90.00000000
_cell_angle_beta   90.57253086
_cell_angle_gamma   120.66296416
_symmetry_Int_Tables_number   1
_chemical_formula_structural   Zr4V2GaOs5
_chemical_formula_sum   'Zr4 V2 Ga1 Os5'
_cell_volume   198.59206658
_cell_formula_units_Z   1
loop_
 _symmetry_equiv_pos_site_id
 _symmetry_equiv_pos_as_xyz
  1  'x, y, z'
loop_
 _atom_site_type_symbol
 _atom_site_label
 _atom_site_symmetry_multiplicity
 _atom_site_fract_x
 _atom_site_fract_y
 _atom_site_fract_z
 _atom_site_occupancy
  Zr  Zr0  1  0.332876  0.666438  0.062367  1
  Zr  Zr1  1  0.667215  0.333607  0.568787  1
  Zr  Zr2  1  0.667124  0.333562  0.937633  1
  Zr  Zr3  1  0.332785  0.666393  0.431213  1
  V  V4  1  0.673027  0.836513  0.754813  1
  V  V5  1  0.326973  0.163487  0.245187  1
  Ga  Ga6  1  0.000000  0.000000  0.500000  1
  Os  Os7  1  0.000000  0.000000  0.000000  1
  Os  Os8  1  0.185054  0.351376  0.747974  1
  Os  Os9  1  0.814946  0.166322  0.252026  1
  Os  Os10  1  0.814946  0.648624  0.252026  1
  Os  Os11  1  0.185054  0.833678  0.747974  1
