# generated using pymatgen
data_Tm4CrTc5Ge8
_symmetry_space_group_name_H-M   'P 1'
_cell_length_a   6.89168806
_cell_length_b   6.85912274
_cell_length_c   6.91088002
_cell_angle_alpha   69.83175419
_cell_angle_beta   90.00989962
_cell_angle_gamma   90.20214969
_symmetry_Int_Tables_number   1
_chemical_formula_structural   Tm4CrTc5Ge8
_chemical_formula_sum   'Tm4 Cr1 Tc5 Ge8'
_cell_volume   306.65079723
_cell_formula_units_Z   1
loop_
 _symmetry_equiv_pos_site_id
 _symmetry_equiv_pos_as_xyz
  1  'x, y, z'
loop_
 _atom_site_type_symbol
 _atom_site_label
 _atom_site_symmetry_multiplicity
 _atom_site_fract_x
 _atom_site_fract_y
 _atom_site_fract_z
 _atom_site_occupancy
  Tm  Tm0  1  0.328195  0.554734  0.806857  1
  Tm  Tm1  1  0.829760  0.945467  0.193361  1
  Tm  Tm2  1  0.668758  0.449061  0.189427  1
  Tm  Tm3  1  0.169298  0.051840  0.808847  1
  Cr  Cr4  1  0.648367  0.254263  0.756400  1
  Tc  Tc5  1  0.499380  0.005183  0.501140  1
  Tc  Tc6  1  0.998941  0.495835  0.500798  1
  Tc  Tc7  1  0.853682  0.757146  0.764639  1
  Tc  Tc8  1  0.352835  0.744893  0.238980  1
  Tc  Tc9  1  0.147403  0.243315  0.236049  1
  Ge  Ge10  1  0.553269  0.868440  0.899688  1
  Ge  Ge11  1  0.052642  0.630597  0.102116  1
  Ge  Ge12  1  0.450648  0.136496  0.096533  1
  Ge  Ge13  1  0.944120  0.364559  0.898422  1
  Ge  Ge14  1  0.143748  0.864562  0.488521  1
  Ge  Ge15  1  0.646291  0.632202  0.516716  1
  Ge  Ge16  1  0.856311  0.137055  0.510385  1
  Ge  Ge17  1  0.356352  0.364350  0.491120  1
