# generated using pymatgen
data_Li4Yb3SmSi8
_symmetry_space_group_name_H-M   'P 1'
_cell_length_a   3.80944500
_cell_length_b   7.83250120
_cell_length_c   10.52154272
_cell_angle_alpha   89.83311990
_cell_angle_beta   90.00000000
_cell_angle_gamma   90.00000000
_symmetry_Int_Tables_number   1
_chemical_formula_structural   Li4Yb3SmSi8
_chemical_formula_sum   'Li4 Yb3 Sm1 Si8'
_cell_volume   313.93501552
_cell_formula_units_Z   1
loop_
 _symmetry_equiv_pos_site_id
 _symmetry_equiv_pos_as_xyz
  1  'x, y, z'
loop_
 _atom_site_type_symbol
 _atom_site_label
 _atom_site_symmetry_multiplicity
 _atom_site_fract_x
 _atom_site_fract_y
 _atom_site_fract_z
 _atom_site_occupancy
  Li  Li0  1  0.250000  0.997727  0.388539  1
  Li  Li1  1  0.750000  0.000597  0.609780  1
  Li  Li2  1  0.250000  0.498013  0.110354  1
  Li  Li3  1  0.750000  0.506802  0.888390  1
  Yb  Yb4  1  0.750000  0.866030  0.134917  1
  Yb  Yb5  1  0.250000  0.635037  0.636441  1
  Yb  Yb6  1  0.750000  0.364218  0.365412  1
  Sm  Sm7  1  0.250000  0.130851  0.865628  1
  Si  Si8  1  0.750000  0.269090  0.065334  1
  Si  Si9  1  0.250000  0.736407  0.933108  1
  Si  Si10  1  0.750000  0.766751  0.432329  1
  Si  Si11  1  0.250000  0.228838  0.570412  1
  Si  Si12  1  0.750000  0.837705  0.822991  1
  Si  Si13  1  0.250000  0.164299  0.173092  1
  Si  Si14  1  0.750000  0.333498  0.678632  1
  Si  Si15  1  0.250000  0.664135  0.324642  1
