# generated using pymatgen
data_TmTaB6Os
_symmetry_space_group_name_H-M   'P 1'
_cell_length_a   3.48394000
_cell_length_b   8.97205500
_cell_length_c   11.23707400
_cell_angle_alpha   90.00000000
_cell_angle_beta   90.00000000
_cell_angle_gamma   90.00000000
_symmetry_Int_Tables_number   1
_chemical_formula_structural   TmTaB6Os
_chemical_formula_sum   'Tm4 Ta4 B24 Os4'
_cell_volume   351.24959737
_cell_formula_units_Z   4
loop_
 _symmetry_equiv_pos_site_id
 _symmetry_equiv_pos_as_xyz
  1  'x, y, z'
loop_
 _atom_site_type_symbol
 _atom_site_label
 _atom_site_symmetry_multiplicity
 _atom_site_fract_x
 _atom_site_fract_y
 _atom_site_fract_z
 _atom_site_occupancy
  Tm  Tm0  1  0.000000  0.323707  0.412889  1
  Tm  Tm1  1  0.000000  0.676293  0.587111  1
  Tm  Tm2  1  0.000000  0.823707  0.087111  1
  Tm  Tm3  1  0.000000  0.176293  0.912889  1
  Ta  Ta4  1  0.000000  0.946870  0.377275  1
  Ta  Ta5  1  0.000000  0.053130  0.622725  1
  Ta  Ta6  1  0.000000  0.446870  0.122725  1
  Ta  Ta7  1  0.000000  0.553130  0.877275  1
  B  B8  1  0.500000  0.554346  0.434678  1
  B  B9  1  0.500000  0.445654  0.565322  1
  B  B10  1  0.500000  0.054346  0.065322  1
  B  B11  1  0.500000  0.945654  0.934678  1
  B  B12  1  0.500000  0.753973  0.419835  1
  B  B13  1  0.500000  0.246027  0.580165  1
  B  B14  1  0.500000  0.253973  0.080165  1
  B  B15  1  0.500000  0.746027  0.919835  1
  B  B16  1  0.500000  0.798034  0.262529  1
  B  B17  1  0.500000  0.201966  0.737470  1
  B  B18  1  0.500000  0.298034  0.237471  1
  B  B19  1  0.500000  0.701966  0.762530  1
  B  B20  1  0.500000  0.629526  0.180941  1
  B  B21  1  0.500000  0.370474  0.819059  1
  B  B22  1  0.500000  0.129526  0.319059  1
  B  B23  1  0.500000  0.870474  0.680941  1
  B  B24  1  0.500000  0.980048  0.213415  1
  B  B25  1  0.500000  0.019952  0.786585  1
  B  B26  1  0.500000  0.480048  0.286585  1
  B  B27  1  0.500000  0.519952  0.713415  1
  B  B28  1  0.500000  0.601121  0.027044  1
  B  B29  1  0.500000  0.398879  0.972956  1
  B  B30  1  0.500000  0.101121  0.472956  1
  B  B31  1  0.500000  0.898879  0.527044  1
  Os  Os32  1  0.000000  0.643398  0.317918  1
  Os  Os33  1  0.000000  0.356602  0.682082  1
  Os  Os34  1  0.000000  0.143398  0.182082  1
  Os  Os35  1  0.000000  0.856602  0.817918  1
