# generated using pymatgen
data_Y7HoIn2RuRh
_symmetry_space_group_name_H-M   'P 1'
_cell_length_a   9.68463967
_cell_length_b   9.73529467
_cell_length_c   9.68463949
_cell_angle_alpha   59.82683274
_cell_angle_beta   59.71808998
_cell_angle_gamma   59.82683794
_symmetry_Int_Tables_number   1
_chemical_formula_structural   Y7HoIn2RuRh
_chemical_formula_sum   'Y14 Ho2 In4 Ru2 Rh2'
_cell_volume   642.58467240
_cell_formula_units_Z   2
loop_
 _symmetry_equiv_pos_site_id
 _symmetry_equiv_pos_as_xyz
  1  'x, y, z'
loop_
 _atom_site_type_symbol
 _atom_site_label
 _atom_site_symmetry_multiplicity
 _atom_site_fract_x
 _atom_site_fract_y
 _atom_site_fract_z
 _atom_site_occupancy
  Y  Y0  1  0.189423  0.190221  0.807999  1
  Y  Y1  1  0.598305  0.598422  0.204851  1
  Y  Y2  1  0.441376  0.058624  0.441376  1
  Y  Y3  1  0.440335  0.442986  0.059684  1
  Y  Y4  1  0.811595  0.188405  0.811595  1
  Y  Y5  1  0.191342  0.808658  0.191342  1
  Y  Y6  1  0.440335  0.056995  0.059684  1
  Y  Y7  1  0.189423  0.812357  0.807999  1
  Y  Y8  1  0.057405  0.442595  0.057405  1
  Y  Y9  1  0.807999  0.812357  0.189423  1
  Y  Y10  1  0.204851  0.598422  0.598305  1
  Y  Y11  1  0.059684  0.442986  0.440335  1
  Y  Y12  1  0.059684  0.056995  0.440335  1
  Y  Y13  1  0.807999  0.190221  0.189423  1
  Ho  Ho14  1  0.598130  0.205105  0.598130  1
  Ho  Ho15  1  0.598130  0.598635  0.598130  1
  In  In16  1  0.831956  0.832967  0.831956  1
  In  In17  1  0.832637  0.833087  0.501191  1
  In  In18  1  0.501191  0.833087  0.832637  1
  In  In19  1  0.831956  0.503122  0.831956  1
  Ru  Ru20  1  0.393039  0.826881  0.393039  1
  Ru  Ru21  1  0.393039  0.387041  0.393039  1
  Rh  Rh22  1  0.825498  0.389916  0.394671  1
  Rh  Rh23  1  0.394671  0.389916  0.825498  1
