# generated using pymatgen
data_Rb2TcTe6Mo5
_symmetry_space_group_name_H-M   'P 1'
_cell_length_a   10.21053382
_cell_length_b   10.10536673
_cell_length_c   4.59835500
_cell_angle_alpha   90.00000000
_cell_angle_beta   90.00000000
_cell_angle_gamma   120.27490168
_symmetry_Int_Tables_number   1
_chemical_formula_structural   Rb2TcTe6Mo5
_chemical_formula_sum   'Rb2 Tc1 Te6 Mo5'
_cell_volume   409.75469861
_cell_formula_units_Z   1
loop_
 _symmetry_equiv_pos_site_id
 _symmetry_equiv_pos_as_xyz
  1  'x, y, z'
loop_
 _atom_site_type_symbol
 _atom_site_label
 _atom_site_symmetry_multiplicity
 _atom_site_fract_x
 _atom_site_fract_y
 _atom_site_fract_z
 _atom_site_occupancy
  Rb  Rb0  1  0.334968  0.669357  0.250000  1
  Rb  Rb1  1  0.664752  0.331868  0.750000  1
  Tc  Tc2  1  0.833201  0.974535  0.250000  1
  Te  Te3  1  0.349383  0.052591  0.250000  1
  Te  Te4  1  0.945930  0.287549  0.250000  1
  Te  Te5  1  0.706878  0.659956  0.250000  1
  Te  Te6  1  0.654288  0.949110  0.750000  1
  Te  Te7  1  0.294474  0.346879  0.750000  1
  Te  Te8  1  0.048662  0.703450  0.750000  1
  Mo  Mo9  1  0.139517  0.161646  0.250000  1
  Mo  Mo10  1  0.026160  0.863041  0.250000  1
  Mo  Mo11  1  0.163696  0.024466  0.750000  1
  Mo  Mo12  1  0.975344  0.135677  0.750000  1
  Mo  Mo13  1  0.862747  0.839873  0.750000  1
