# generated using pymatgen
data_Yb6YHoSb6
_symmetry_space_group_name_H-M   'P 1'
_cell_length_a   8.11341254
_cell_length_b   8.11437180
_cell_length_c   9.39404322
_cell_angle_alpha   55.04796175
_cell_angle_beta   55.05484465
_cell_angle_gamma   70.82790483
_symmetry_Int_Tables_number   1
_chemical_formula_structural   Yb6YHoSb6
_chemical_formula_sum   'Yb6 Y1 Ho1 Sb6'
_cell_volume   415.51350382
_cell_formula_units_Z   1
loop_
 _symmetry_equiv_pos_site_id
 _symmetry_equiv_pos_as_xyz
  1  'x, y, z'
loop_
 _atom_site_type_symbol
 _atom_site_label
 _atom_site_symmetry_multiplicity
 _atom_site_fract_x
 _atom_site_fract_y
 _atom_site_fract_z
 _atom_site_occupancy
  Yb  Yb0  1  0.999533  0.137746  0.109085  1
  Yb  Yb1  1  0.862333  0.999964  0.891208  1
  Yb  Yb2  1  0.499138  0.853033  0.750989  1
  Yb  Yb3  1  0.146990  0.500906  0.248984  1
  Yb  Yb4  1  0.998943  0.649104  0.601089  1
  Yb  Yb5  1  0.350938  0.001039  0.398941  1
  Y  Y6  1  0.500556  0.357779  0.752567  1
  Ho  Ho7  1  0.641840  0.499506  0.247277  1
  Sb  Sb8  1  0.865852  0.134295  0.499757  1
  Sb  Sb9  1  0.626175  0.374074  0.000445  1
  Sb  Sb10  1  0.260176  0.257323  0.620946  1
  Sb  Sb11  1  0.743072  0.740340  0.378212  1
  Sb  Sb12  1  0.122238  0.618164  0.878816  1
  Sb  Sb13  1  0.382219  0.876725  0.121685  1
