# generated using pymatgen
data_Hf4Si3Ge3Ir7
_symmetry_space_group_name_H-M   'P 1'
_cell_length_a   7.05470878
_cell_length_b   7.05470889
_cell_length_c   7.05470782
_cell_angle_alpha   109.39753320
_cell_angle_beta   109.39753217
_cell_angle_gamma   109.39754577
_symmetry_Int_Tables_number   1
_chemical_formula_structural   Hf4Si3Ge3Ir7
_chemical_formula_sum   'Hf4 Si3 Ge3 Ir7'
_cell_volume   271.01571859
_cell_formula_units_Z   1
loop_
 _symmetry_equiv_pos_site_id
 _symmetry_equiv_pos_as_xyz
  1  'x, y, z'
loop_
 _atom_site_type_symbol
 _atom_site_label
 _atom_site_symmetry_multiplicity
 _atom_site_fract_x
 _atom_site_fract_y
 _atom_site_fract_z
 _atom_site_occupancy
  Hf  Hf0  1  0.539756  0.539756  0.539756  1
  Hf  Hf1  1  0.997153  0.997153  0.513170  1
  Hf  Hf2  1  0.997153  0.513170  0.997153  1
  Hf  Hf3  1  0.513170  0.997153  0.997153  1
  Si  Si4  1  0.005854  0.675914  0.675914  1
  Si  Si5  1  0.675914  0.005854  0.675914  1
  Si  Si6  1  0.675914  0.675914  0.005854  1
  Ge  Ge7  1  0.008099  0.308312  0.308312  1
  Ge  Ge8  1  0.308312  0.008099  0.308312  1
  Ge  Ge9  1  0.308312  0.308312  0.008099  1
  Ir  Ir10  1  0.502023  0.751892  0.251495  1
  Ir  Ir11  1  0.251495  0.502023  0.751892  1
  Ir  Ir12  1  0.751892  0.251495  0.502023  1
  Ir  Ir13  1  0.751892  0.502023  0.251495  1
  Ir  Ir14  1  0.502023  0.251495  0.751892  1
  Ir  Ir15  1  0.251495  0.751892  0.502023  1
  Ir  Ir16  1  0.959544  0.959544  0.959544  1
