# generated using pymatgen
data_Ho2Ga3Tc
_symmetry_space_group_name_H-M   'P 1'
_cell_length_a   5.47056400
_cell_length_b   5.47056366
_cell_length_c   8.78546900
_cell_angle_alpha   90.00000000
_cell_angle_beta   90.00000000
_cell_angle_gamma   120.00000208
_symmetry_Int_Tables_number   1
_chemical_formula_structural   Ho2Ga3Tc
_chemical_formula_sum   'Ho4 Ga6 Tc2'
_cell_volume   227.69828122
_cell_formula_units_Z   2
loop_
 _symmetry_equiv_pos_site_id
 _symmetry_equiv_pos_as_xyz
  1  'x, y, z'
loop_
 _atom_site_type_symbol
 _atom_site_label
 _atom_site_symmetry_multiplicity
 _atom_site_fract_x
 _atom_site_fract_y
 _atom_site_fract_z
 _atom_site_occupancy
  Ho  Ho0  1  0.333333  0.666667  0.451158  1
  Ho  Ho1  1  0.666667  0.333333  0.548842  1
  Ho  Ho2  1  0.666667  0.333333  0.951158  1
  Ho  Ho3  1  0.333333  0.666667  0.048842  1
  Ga  Ga4  1  0.835937  0.164063  0.250000  1
  Ga  Ga5  1  0.835937  0.671874  0.250000  1
  Ga  Ga6  1  0.328126  0.164063  0.250000  1
  Ga  Ga7  1  0.164063  0.835937  0.750000  1
  Ga  Ga8  1  0.164063  0.328126  0.750000  1
  Ga  Ga9  1  0.671874  0.835937  0.750000  1
  Tc  Tc10  1  0.000000  0.000000  0.500000  1
  Tc  Tc11  1  0.000000  0.000000  0.000000  1
