# generated using pymatgen
data_Dy2Tc5(PRh)7
_symmetry_space_group_name_H-M   'P 1'
_cell_length_a   3.94202300
_cell_length_b   9.46301785
_cell_length_c   9.48910024
_cell_angle_alpha   119.59299674
_cell_angle_beta   89.99992952
_cell_angle_gamma   90.00010854
_symmetry_Int_Tables_number   1
_chemical_formula_structural   Dy2Tc5(PRh)7
_chemical_formula_sum   'Dy2 Tc5 P7 Rh7'
_cell_volume   307.80172788
_cell_formula_units_Z   1
loop_
 _symmetry_equiv_pos_site_id
 _symmetry_equiv_pos_as_xyz
  1  'x, y, z'
loop_
 _atom_site_type_symbol
 _atom_site_label
 _atom_site_symmetry_multiplicity
 _atom_site_fract_x
 _atom_site_fract_y
 _atom_site_fract_z
 _atom_site_occupancy
  Dy  Dy0  1  0.262027  0.668846  0.333311  1
  Dy  Dy1  1  0.762132  0.333404  0.666560  1
  Tc  Tc2  1  0.761887  0.093609  0.870467  1
  Tc  Tc3  1  0.761830  0.127882  0.219438  1
  Tc  Tc4  1  0.761827  0.780431  0.907039  1
  Tc  Tc5  1  0.261833  0.885826  0.160382  1
  Tc  Tc6  1  0.261899  0.840595  0.726016  1
  P  P7  1  0.261394  0.996578  0.997620  1
  P  P8  1  0.761946  0.881133  0.599069  1
  P  P9  1  0.761875  0.402632  0.286768  1
  P  P10  1  0.761824  0.718671  0.121051  1
  P  P11  1  0.262109  0.115772  0.410507  1
  P  P12  1  0.262081  0.587787  0.704210  1
  P  P13  1  0.261999  0.294455  0.881322  1
  Rh  Rh14  1  0.261808  0.272583  0.112313  1
  Rh  Rh15  1  0.761969  0.608201  0.556264  1
  Rh  Rh16  1  0.761878  0.443823  0.056024  1
  Rh  Rh17  1  0.761942  0.946707  0.392173  1
  Rh  Rh18  1  0.261933  0.368739  0.436083  1
  Rh  Rh19  1  0.261831  0.561899  0.931714  1
  Rh  Rh20  1  0.261976  0.070427  0.631671  1
