# generated using pymatgen
data_TbYTh2(ReB6)2
_symmetry_space_group_name_H-M   'P 1'
_cell_length_a   3.77755200
_cell_length_b   9.28664003
_cell_length_c   11.70914303
_cell_angle_alpha   89.99138749
_cell_angle_beta   90.00000000
_cell_angle_gamma   90.00000000
_symmetry_Int_Tables_number   1
_chemical_formula_structural   TbYTh2(ReB6)2
_chemical_formula_sum   'Tb2 Y2 Th4 Re4 B24'
_cell_volume   410.76569753
_cell_formula_units_Z   2
loop_
 _symmetry_equiv_pos_site_id
 _symmetry_equiv_pos_as_xyz
  1  'x, y, z'
loop_
 _atom_site_type_symbol
 _atom_site_label
 _atom_site_symmetry_multiplicity
 _atom_site_fract_x
 _atom_site_fract_y
 _atom_site_fract_z
 _atom_site_occupancy
  Tb  Tb0  1  0.000000  0.444270  0.127387  1
  Tb  Tb1  1  0.000000  0.555730  0.872613  1
  Y  Y2  1  0.000000  0.944408  0.372877  1
  Y  Y3  1  0.000000  0.055592  0.627123  1
  Th  Th4  1  0.000000  0.822718  0.085933  1
  Th  Th5  1  0.000000  0.177282  0.914067  1
  Th  Th6  1  0.000000  0.322635  0.413980  1
  Th  Th7  1  0.000000  0.677365  0.586020  1
  Re  Re8  1  0.000000  0.138252  0.179749  1
  Re  Re9  1  0.000000  0.861748  0.820251  1
  Re  Re10  1  0.000000  0.638641  0.320435  1
  Re  Re11  1  0.000000  0.361359  0.679565  1
  B  B12  1  0.500000  0.055627  0.069908  1
  B  B13  1  0.500000  0.944373  0.930093  1
  B  B14  1  0.500000  0.555771  0.430168  1
  B  B15  1  0.500000  0.444229  0.569831  1
  B  B16  1  0.500000  0.248392  0.082838  1
  B  B17  1  0.500000  0.751608  0.917162  1
  B  B18  1  0.500000  0.748734  0.417233  1
  B  B19  1  0.500000  0.251266  0.582767  1
  B  B20  1  0.500000  0.289806  0.233145  1
  B  B21  1  0.500000  0.710194  0.766855  1
  B  B22  1  0.500000  0.790250  0.266852  1
  B  B23  1  0.500000  0.209750  0.733148  1
  B  B24  1  0.500000  0.130426  0.313503  1
  B  B25  1  0.500000  0.869574  0.686497  1
  B  B26  1  0.500000  0.630737  0.186663  1
  B  B27  1  0.500000  0.369263  0.813337  1
  B  B28  1  0.500000  0.485262  0.286442  1
  B  B29  1  0.500000  0.514738  0.713558  1
  B  B30  1  0.500000  0.984979  0.213695  1
  B  B31  1  0.500000  0.015021  0.786305  1
  B  B32  1  0.500000  0.104063  0.471223  1
  B  B33  1  0.500000  0.895937  0.528777  1
  B  B34  1  0.500000  0.604572  0.028915  1
  B  B35  1  0.500000  0.395428  0.971085  1
