# generated using pymatgen
data_Tb20Fe3Bi8Ir
_symmetry_space_group_name_H-M   'P 1'
_cell_length_a   8.02638028
_cell_length_b   8.98040100
_cell_length_c   12.48754289
_cell_angle_alpha   90.00000000
_cell_angle_beta   89.79774297
_cell_angle_gamma   90.00000000
_symmetry_Int_Tables_number   1
_chemical_formula_structural   Tb20Fe3Bi8Ir
_chemical_formula_sum   'Tb20 Fe3 Bi8 Ir1'
_cell_volume   900.09790081
_cell_formula_units_Z   1
loop_
 _symmetry_equiv_pos_site_id
 _symmetry_equiv_pos_as_xyz
  1  'x, y, z'
loop_
 _atom_site_type_symbol
 _atom_site_label
 _atom_site_symmetry_multiplicity
 _atom_site_fract_x
 _atom_site_fract_y
 _atom_site_fract_z
 _atom_site_occupancy
  Tb  Tb0  1  0.843984  0.750000  0.792727  1
  Tb  Tb1  1  0.151678  0.250000  0.198757  1
  Tb  Tb2  1  0.347606  0.250000  0.700699  1
  Tb  Tb3  1  0.650165  0.750000  0.302511  1
  Tb  Tb4  1  0.382928  0.750000  0.688932  1
  Tb  Tb5  1  0.616338  0.250000  0.310506  1
  Tb  Tb6  1  0.882957  0.250000  0.810667  1
  Tb  Tb7  1  0.122812  0.750000  0.193902  1
  Tb  Tb8  1  0.949030  0.750000  0.503170  1
  Tb  Tb9  1  0.056229  0.250000  0.494924  1
  Tb  Tb10  1  0.449768  0.250000  0.996075  1
  Tb  Tb11  1  0.554963  0.750000  0.004109  1
  Tb  Tb12  1  0.674032  0.033988  0.561576  1
  Tb  Tb13  1  0.324298  0.962615  0.438029  1
  Tb  Tb14  1  0.173833  0.969557  0.936811  1
  Tb  Tb15  1  0.324298  0.537385  0.438029  1
  Tb  Tb16  1  0.821047  0.045868  0.065614  1
  Tb  Tb17  1  0.674032  0.466012  0.561576  1
  Tb  Tb18  1  0.821047  0.454132  0.065614  1
  Tb  Tb19  1  0.173833  0.530443  0.936811  1
  Fe  Fe20  1  0.574101  0.750000  0.512316  1
  Fe  Fe21  1  0.430467  0.250000  0.491040  1
  Fe  Fe22  1  0.071400  0.250000  0.989161  1
  Bi  Bi23  1  0.571200  0.492629  0.826333  1
  Bi  Bi24  1  0.428414  0.507669  0.173694  1
  Bi  Bi25  1  0.071819  0.506752  0.672075  1
  Bi  Bi26  1  0.428414  0.992331  0.173694  1
  Bi  Bi27  1  0.927706  0.492141  0.326861  1
  Bi  Bi28  1  0.571200  0.007371  0.826333  1
  Bi  Bi29  1  0.927706  0.007859  0.326861  1
  Bi  Bi30  1  0.071819  0.993248  0.672075  1
  Ir  Ir31  1  0.930872  0.750000  0.008514  1
