# generated using pymatgen
data_Yb2PaSb7
_symmetry_space_group_name_H-M   'P 1'
_cell_length_a   14.22676576
_cell_length_b   14.22676681
_cell_length_c   4.17652400
_cell_angle_alpha   90.00000000
_cell_angle_beta   90.00000000
_cell_angle_gamma   160.83144284
_symmetry_Int_Tables_number   1
_chemical_formula_structural   Yb2PaSb7
_chemical_formula_sum   'Yb2 Pa1 Sb7'
_cell_volume   277.56340221
_cell_formula_units_Z   1
loop_
 _symmetry_equiv_pos_site_id
 _symmetry_equiv_pos_as_xyz
  1  'x, y, z'
loop_
 _atom_site_type_symbol
 _atom_site_label
 _atom_site_symmetry_multiplicity
 _atom_site_fract_x
 _atom_site_fract_y
 _atom_site_fract_z
 _atom_site_occupancy
  Yb  Yb0  1  0.685273  0.314729  0.000000  1
  Yb  Yb1  1  0.314729  0.685273  0.000000  1
  Pa  Pa2  1  0.000000  0.000000  0.499999  1
  Sb  Sb3  1  0.905480  0.094522  0.000000  1
  Sb  Sb4  1  0.500001  0.500001  0.000000  1
  Sb  Sb5  1  0.094522  0.905480  0.000000  1
  Sb  Sb6  1  0.777581  0.222421  0.499999  1
  Sb  Sb7  1  0.593796  0.406206  0.499999  1
  Sb  Sb8  1  0.406206  0.593796  0.499999  1
  Sb  Sb9  1  0.222421  0.777581  0.499999  1
