# generated using pymatgen
data_Tb5Ho3(ErPt4)2
_symmetry_space_group_name_H-M   'P 1'
_cell_length_a   7.46905600
_cell_length_b   7.57518421
_cell_length_c   14.75577142
_cell_angle_alpha   90.02720132
_cell_angle_beta   90.00000000
_cell_angle_gamma   90.00000000
_symmetry_Int_Tables_number   1
_chemical_formula_structural   Tb5Ho3(ErPt4)2
_chemical_formula_sum   'Tb10 Ho6 Er4 Pt16'
_cell_volume   834.87370732
_cell_formula_units_Z   2
loop_
 _symmetry_equiv_pos_site_id
 _symmetry_equiv_pos_as_xyz
  1  'x, y, z'
loop_
 _atom_site_type_symbol
 _atom_site_label
 _atom_site_symmetry_multiplicity
 _atom_site_fract_x
 _atom_site_fract_y
 _atom_site_fract_z
 _atom_site_occupancy
  Tb  Tb0  1  0.657025  0.167905  0.877374  1
  Tb  Tb1  1  0.157025  0.332095  0.622626  1
  Tb  Tb2  1  0.501589  0.679989  0.592984  1
  Tb  Tb3  1  0.001589  0.820011  0.907016  1
  Tb  Tb4  1  0.498475  0.320257  0.093138  1
  Tb  Tb5  1  0.998475  0.179743  0.406862  1
  Tb  Tb6  1  0.498549  0.320152  0.406926  1
  Tb  Tb7  1  0.998549  0.179848  0.093074  1
  Tb  Tb8  1  0.501341  0.679788  0.906972  1
  Tb  Tb9  1  0.001341  0.820212  0.593028  1
  Ho  Ho10  1  0.657006  0.167867  0.622654  1
  Ho  Ho11  1  0.157006  0.332133  0.877346  1
  Ho  Ho12  1  0.342933  0.832035  0.122742  1
  Ho  Ho13  1  0.842933  0.667965  0.377258  1
  Ho  Ho14  1  0.342978  0.832058  0.377290  1
  Ho  Ho15  1  0.842978  0.667942  0.122710  1
  Er  Er16  1  0.818853  0.512683  0.749987  1
  Er  Er17  1  0.318853  0.987317  0.750013  1
  Er  Er18  1  0.181121  0.487591  0.249998  1
  Er  Er19  1  0.681121  0.012409  0.250002  1
  Pt  Pt20  1  0.683172  0.967455  0.458015  1
  Pt  Pt21  1  0.183172  0.532545  0.041985  1
  Pt  Pt22  1  0.316512  0.032396  0.958101  1
  Pt  Pt23  1  0.816512  0.467604  0.541899  1
  Pt  Pt24  1  0.317157  0.032026  0.541833  1
  Pt  Pt25  1  0.817157  0.467974  0.958167  1
  Pt  Pt26  1  0.683194  0.967125  0.042197  1
  Pt  Pt27  1  0.183194  0.532875  0.457803  1
  Pt  Pt28  1  0.454420  0.387903  0.749983  1
  Pt  Pt29  1  0.954420  0.112097  0.750017  1
  Pt  Pt30  1  0.545679  0.612410  0.250007  1
  Pt  Pt31  1  0.045679  0.887590  0.249993  1
  Pt  Pt32  1  0.682732  0.856049  0.749892  1
  Pt  Pt33  1  0.182732  0.643951  0.750108  1
  Pt  Pt34  1  0.317263  0.143641  0.250012  1
  Pt  Pt35  1  0.817263  0.356359  0.249988  1
