# generated using pymatgen
data_La2Y4TaNbO14
_symmetry_space_group_name_H-M   'P 1'
_cell_length_a   6.54465539
_cell_length_b   6.54465403
_cell_length_c   7.67159263
_cell_angle_alpha   89.96210837
_cell_angle_beta   90.03788711
_cell_angle_gamma   109.13996523
_symmetry_Int_Tables_number   1
_chemical_formula_structural   La2Y4TaNbO14
_chemical_formula_sum   'La2 Y4 Ta1 Nb1 O14'
_cell_volume   310.42892369
_cell_formula_units_Z   1
loop_
 _symmetry_equiv_pos_site_id
 _symmetry_equiv_pos_as_xyz
  1  'x, y, z'
loop_
 _atom_site_type_symbol
 _atom_site_label
 _atom_site_symmetry_multiplicity
 _atom_site_fract_x
 _atom_site_fract_y
 _atom_site_fract_z
 _atom_site_occupancy
  La  La0  1  0.500000  0.500000  0.500000  1
  La  La1  1  0.500000  0.500000  0.000000  1
  Y  Y2  1  0.533191  0.000857  0.750638  1
  Y  Y3  1  0.000857  0.533191  0.249362  1
  Y  Y4  1  0.466809  0.999143  0.249362  1
  Y  Y5  1  0.999143  0.466809  0.750638  1
  Ta  Ta6  1  0.000000  0.000000  0.000000  1
  Nb  Nb7  1  0.000000  0.000000  0.500000  1
  O  O8  1  0.680166  0.932777  0.468242  1
  O  O9  1  0.932777  0.680166  0.531758  1
  O  O10  1  0.681691  0.933409  0.032422  1
  O  O11  1  0.933409  0.681691  0.967578  1
  O  O12  1  0.319834  0.067223  0.531758  1
  O  O13  1  0.067223  0.319834  0.468242  1
  O  O14  1  0.318309  0.066591  0.967578  1
  O  O15  1  0.066591  0.318309  0.032422  1
  O  O16  1  0.936725  0.063275  0.751597  1
  O  O17  1  0.063275  0.936725  0.248403  1
  O  O18  1  0.362977  0.637023  0.750066  1
  O  O19  1  0.637023  0.362977  0.249934  1
  O  O20  1  0.643666  0.356334  0.750094  1
  O  O21  1  0.356334  0.643666  0.249906  1
