# generated using pymatgen
data_GdU(WC2)2
_symmetry_space_group_name_H-M   'P 1'
_cell_length_a   5.70061600
_cell_length_b   3.32663700
_cell_length_c   10.89721800
_cell_angle_alpha   90.00000000
_cell_angle_beta   90.00000000
_cell_angle_gamma   90.00000000
_symmetry_Int_Tables_number   1
_chemical_formula_structural   GdU(WC2)2
_chemical_formula_sum   'Gd2 U2 W4 C8'
_cell_volume   206.65353567
_cell_formula_units_Z   2
loop_
 _symmetry_equiv_pos_site_id
 _symmetry_equiv_pos_as_xyz
  1  'x, y, z'
loop_
 _atom_site_type_symbol
 _atom_site_label
 _atom_site_symmetry_multiplicity
 _atom_site_fract_x
 _atom_site_fract_y
 _atom_site_fract_z
 _atom_site_occupancy
  Gd  Gd0  1  0.086251  0.250000  0.140956  1
  Gd  Gd1  1  0.413751  0.750000  0.640955  1
  U  U2  1  0.579087  0.250000  0.360261  1
  U  U3  1  0.920913  0.750000  0.860260  1
  W  W4  1  0.416788  0.250000  0.894188  1
  W  W5  1  0.083212  0.750000  0.394189  1
  W  W6  1  0.912677  0.250000  0.602555  1
  W  W7  1  0.587322  0.750000  0.102555  1
  C  C8  1  0.739522  0.250000  0.007433  1
  C  C9  1  0.760479  0.750000  0.507434  1
  C  C10  1  0.234831  0.250000  0.484099  1
  C  C11  1  0.265170  0.750000  0.984100  1
  C  C12  1  0.152171  0.250000  0.758487  1
  C  C13  1  0.347829  0.750000  0.258487  1
  C  C14  1  0.672084  0.250000  0.752020  1
  C  C15  1  0.827916  0.750000  0.252020  1
