# generated using pymatgen
data_TbDyTa3Si4
_symmetry_space_group_name_H-M   'P 1'
_cell_length_a   7.05111408
_cell_length_b   7.05081110
_cell_length_c   13.02778301
_cell_angle_alpha   89.99245762
_cell_angle_beta   89.99381486
_cell_angle_gamma   90.00632075
_symmetry_Int_Tables_number   1
_chemical_formula_structural   TbDyTa3Si4
_chemical_formula_sum   'Tb4 Dy4 Ta12 Si16'
_cell_volume   647.69020291
_cell_formula_units_Z   4
loop_
 _symmetry_equiv_pos_site_id
 _symmetry_equiv_pos_as_xyz
  1  'x, y, z'
loop_
 _atom_site_type_symbol
 _atom_site_label
 _atom_site_symmetry_multiplicity
 _atom_site_fract_x
 _atom_site_fract_y
 _atom_site_fract_z
 _atom_site_occupancy
  Tb  Tb0  1  0.842349  0.503370  0.968193  1
  Tb  Tb1  1  0.496660  0.157669  0.531827  1
  Tb  Tb2  1  0.342315  0.996770  0.781725  1
  Tb  Tb3  1  0.657683  0.003244  0.281741  1
  Dy  Dy4  1  0.997114  0.342536  0.218253  1
  Dy  Dy5  1  0.002897  0.657498  0.718307  1
  Dy  Dy6  1  0.157416  0.496977  0.468144  1
  Dy  Dy7  1  0.502982  0.842539  0.031868  1
  Ta  Ta8  1  0.171873  0.171915  0.000062  1
  Ta  Ta9  1  0.828276  0.827940  0.499978  1
  Ta  Ta10  1  0.328151  0.671706  0.249983  1
  Ta  Ta11  1  0.671812  0.328310  0.750014  1
  Ta  Ta12  1  0.152695  0.992266  0.375813  1
  Ta  Ta13  1  0.847200  0.007478  0.875957  1
  Ta  Ta14  1  0.507540  0.652748  0.626078  1
  Ta  Ta15  1  0.347130  0.492722  0.873894  1
  Ta  Ta16  1  0.492561  0.347218  0.126202  1
  Ta  Ta17  1  0.652930  0.507215  0.373750  1
  Ta  Ta18  1  0.992724  0.152906  0.624024  1
  Ta  Ta19  1  0.007532  0.847207  0.124160  1
  Si  Si20  1  0.365020  0.297456  0.317909  1
  Si  Si21  1  0.634529  0.702860  0.817804  1
  Si  Si22  1  0.202228  0.864902  0.567829  1
  Si  Si23  1  0.134615  0.797387  0.932285  1
  Si  Si24  1  0.797370  0.134384  0.068007  1
  Si  Si25  1  0.866048  0.203009  0.432071  1
  Si  Si26  1  0.296779  0.366132  0.682085  1
  Si  Si27  1  0.702884  0.634330  0.181970  1
  Si  Si28  1  0.292728  0.046410  0.185958  1
  Si  Si29  1  0.707512  0.953524  0.686029  1
  Si  Si30  1  0.453596  0.792582  0.436057  1
  Si  Si31  1  0.207137  0.546212  0.064077  1
  Si  Si32  1  0.546125  0.206780  0.936189  1
  Si  Si33  1  0.793561  0.454067  0.563957  1
  Si  Si34  1  0.046188  0.293200  0.813869  1
  Si  Si35  1  0.953841  0.706533  0.313930  1
