# generated using pymatgen
data_Th2SiH4
_symmetry_space_group_name_H-M   'P 1'
_cell_length_a   6.18854333
_cell_length_b   6.18854320
_cell_length_c   6.18854357
_cell_angle_alpha   106.66394643
_cell_angle_beta   106.66394042
_cell_angle_gamma   115.24467397
_symmetry_Int_Tables_number   1
_chemical_formula_structural   Th2SiH4
_chemical_formula_sum   'Th4 Si2 H8'
_cell_volume   181.04641272
_cell_formula_units_Z   2
loop_
 _symmetry_equiv_pos_site_id
 _symmetry_equiv_pos_as_xyz
  1  'x, y, z'
loop_
 _atom_site_type_symbol
 _atom_site_label
 _atom_site_symmetry_multiplicity
 _atom_site_fract_x
 _atom_site_fract_y
 _atom_site_fract_z
 _atom_site_occupancy
  Th  Th0  1  0.829258  0.670742  0.500000  1
  Th  Th1  1  0.670742  0.170742  0.841485  1
  Th  Th2  1  0.170742  0.329258  0.500000  1
  Th  Th3  1  0.329258  0.829258  0.158515  1
  Si  Si4  1  0.750000  0.750000  0.000000  1
  Si  Si5  1  0.250000  0.250000  0.000000  1
  H  H6  1  0.223543  0.970294  0.500000  1
  H  H7  1  0.470294  0.723543  0.500000  1
  H  H8  1  0.723543  0.223543  0.253250  1
  H  H9  1  0.970294  0.470294  0.746750  1
  H  H10  1  0.276457  0.776457  0.746750  1
  H  H11  1  0.529706  0.276457  0.500000  1
  H  H12  1  0.029706  0.529706  0.253250  1
  H  H13  1  0.776457  0.029706  0.500000  1
