# generated using pymatgen
data_ZnCo20(ReB3)2
_symmetry_space_group_name_H-M   'P 1'
_cell_length_a   7.41118420
_cell_length_b   7.41119384
_cell_length_c   7.41117900
_cell_angle_alpha   59.99998234
_cell_angle_beta   60.00001874
_cell_angle_gamma   59.99997075
_symmetry_Int_Tables_number   1
_chemical_formula_structural   ZnCo20(ReB3)2
_chemical_formula_sum   'Zn1 Co20 Re2 B6'
_cell_volume   287.83790981
_cell_formula_units_Z   1
loop_
 _symmetry_equiv_pos_site_id
 _symmetry_equiv_pos_as_xyz
  1  'x, y, z'
loop_
 _atom_site_type_symbol
 _atom_site_label
 _atom_site_symmetry_multiplicity
 _atom_site_fract_x
 _atom_site_fract_y
 _atom_site_fract_z
 _atom_site_occupancy
  Zn  Zn0  1  0.000000  0.000000  0.000000  1
  Co  Co1  1  0.618429  0.618435  0.144697  1
  Co  Co2  1  0.618435  0.144703  0.618432  1
  Co  Co3  1  0.144700  0.618438  0.618428  1
  Co  Co4  1  0.618432  0.618432  0.618437  1
  Co  Co5  1  0.381571  0.381565  0.855303  1
  Co  Co6  1  0.381565  0.855297  0.381568  1
  Co  Co7  1  0.855300  0.381562  0.381572  1
  Co  Co8  1  0.381568  0.381568  0.381563  1
  Co  Co9  1  0.000001  0.999998  0.343016  1
  Co  Co10  1  0.656985  0.000003  0.343014  1
  Co  Co11  1  0.000003  0.656986  0.343013  1
  Co  Co12  1  0.656985  0.343014  0.999999  1
  Co  Co13  1  0.999998  0.343013  0.000001  1
  Co  Co14  1  0.999997  0.343014  0.656987  1
  Co  Co15  1  0.343015  0.656986  0.000001  1
  Co  Co16  1  0.343015  0.999997  0.656986  1
  Co  Co17  1  0.343016  0.999996  0.000002  1
  Co  Co18  1  0.999999  0.000002  0.656984  1
  Co  Co19  1  0.000002  0.656987  0.999999  1
  Co  Co20  1  0.656984  0.000004  0.999998  1
  Re  Re21  1  0.749997  0.750001  0.750000  1
  Re  Re22  1  0.250003  0.249999  0.250000  1
  B  B23  1  0.723637  0.723642  0.276363  1
  B  B24  1  0.276357  0.723643  0.276356  1
  B  B25  1  0.723639  0.276356  0.276360  1
  B  B26  1  0.276363  0.276358  0.723637  1
  B  B27  1  0.723643  0.276357  0.723644  1
  B  B28  1  0.276361  0.723644  0.723640  1
