# generated using pymatgen
data_Li2TbEr(SiO4)2
_symmetry_space_group_name_H-M   'P 1'
_cell_length_a   6.22453746
_cell_length_b   5.43629185
_cell_length_c   10.92111715
_cell_angle_alpha   66.36980753
_cell_angle_beta   90.23341875
_cell_angle_gamma   90.20562920
_symmetry_Int_Tables_number   1
_chemical_formula_structural   Li2TbEr(SiO4)2
_chemical_formula_sum   'Li4 Tb2 Er2 Si4 O16'
_cell_volume   338.56314626
_cell_formula_units_Z   2
loop_
 _symmetry_equiv_pos_site_id
 _symmetry_equiv_pos_as_xyz
  1  'x, y, z'
loop_
 _atom_site_type_symbol
 _atom_site_label
 _atom_site_symmetry_multiplicity
 _atom_site_fract_x
 _atom_site_fract_y
 _atom_site_fract_z
 _atom_site_occupancy
  Li  Li0  1  0.134300  0.918377  0.430534  1
  Li  Li1  1  0.633728  0.079986  0.070053  1
  Li  Li2  1  0.865700  0.081623  0.569466  1
  Li  Li3  1  0.366272  0.920014  0.929947  1
  Tb  Tb4  1  0.117101  0.446038  0.846807  1
  Tb  Tb5  1  0.882899  0.553962  0.153193  1
  Er  Er6  1  0.615952  0.554372  0.651287  1
  Er  Er7  1  0.384048  0.445628  0.348713  1
  Si  Si8  1  0.649234  0.902910  0.360723  1
  Si  Si9  1  0.350766  0.097090  0.639277  1
  Si  Si10  1  0.154233  0.094482  0.142209  1
  Si  Si11  1  0.845767  0.905518  0.857791  1
  O  O12  1  0.855317  0.232988  0.774405  1
  O  O13  1  0.637787  0.230314  0.278471  1
  O  O14  1  0.164641  0.187069  0.522682  1
  O  O15  1  0.834257  0.758747  0.751439  1
  O  O16  1  0.144683  0.767012  0.225595  1
  O  O17  1  0.572321  0.231611  0.553096  1
  O  O18  1  0.658932  0.758160  0.253401  1
  O  O19  1  0.427679  0.768389  0.446904  1
  O  O20  1  0.070581  0.777095  0.943052  1
  O  O21  1  0.662273  0.815487  0.975031  1
  O  O22  1  0.165743  0.241253  0.248561  1
  O  O23  1  0.929419  0.222905  0.056948  1
  O  O24  1  0.337727  0.184513  0.024969  1
  O  O25  1  0.341068  0.241840  0.746599  1
  O  O26  1  0.362213  0.769686  0.721529  1
  O  O27  1  0.835359  0.812931  0.477318  1
