# generated using pymatgen
data_Dy5Er3Mg2(SiB4)4
_symmetry_space_group_name_H-M   'P 1'
_cell_length_a   7.15554018
_cell_length_b   7.15553918
_cell_length_c   7.81507100
_cell_angle_alpha   90.00126323
_cell_angle_beta   90.00142393
_cell_angle_gamma   89.97429691
_symmetry_Int_Tables_number   1
_chemical_formula_structural   Dy5Er3Mg2(SiB4)4
_chemical_formula_sum   'Dy5 Er3 Mg2 Si4 B16'
_cell_volume   400.14525645
_cell_formula_units_Z   1
loop_
 _symmetry_equiv_pos_site_id
 _symmetry_equiv_pos_as_xyz
  1  'x, y, z'
loop_
 _atom_site_type_symbol
 _atom_site_label
 _atom_site_symmetry_multiplicity
 _atom_site_fract_x
 _atom_site_fract_y
 _atom_site_fract_z
 _atom_site_occupancy
  Dy  Dy0  1  0.816997  0.683136  0.233658  1
  Dy  Dy1  1  0.816954  0.683045  0.766236  1
  Dy  Dy2  1  0.682884  0.182882  0.766300  1
  Dy  Dy3  1  0.183046  0.316952  0.766236  1
  Dy  Dy4  1  0.183135  0.316997  0.233659  1
  Er  Er5  1  0.682731  0.182729  0.232663  1
  Er  Er6  1  0.317102  0.817111  0.767437  1
  Er  Er7  1  0.317154  0.817162  0.232442  1
  Mg  Mg8  1  0.000137  0.999918  0.499896  1
  Mg  Mg9  1  0.499921  0.500151  0.499867  1
  Si  Si10  1  0.116225  0.616222  0.499796  1
  Si  Si11  1  0.884529  0.384527  0.499278  1
  Si  Si12  1  0.384529  0.114534  0.499419  1
  Si  Si13  1  0.614534  0.884527  0.499416  1
  B  B14  1  0.173900  0.039419  0.000167  1
  B  B15  1  0.826398  0.960161  0.000349  1
  B  B16  1  0.960025  0.173562  0.000198  1
  B  B17  1  0.326205  0.540398  0.000180  1
  B  B18  1  0.040403  0.826205  0.000183  1
  B  B19  1  0.673560  0.460026  0.000200  1
  B  B20  1  0.539422  0.673898  0.000167  1
  B  B21  1  0.460161  0.326397  0.000351  1
  B  B22  1  0.089697  0.589698  0.000094  1
  B  B23  1  0.910369  0.410369  0.000066  1
  B  B24  1  0.410414  0.089366  0.000439  1
  B  B25  1  0.589368  0.910409  0.000440  1
  B  B26  1  0.000044  0.999890  0.163440  1
  B  B27  1  0.000507  0.999759  0.836990  1
  B  B28  1  0.499761  0.500507  0.836989  1
  B  B29  1  0.499889  0.500044  0.163442  1
