# generated using pymatgen
data_Y5Er15(Bi2Te)4
_symmetry_space_group_name_H-M   'P 1'
_cell_length_a   8.05164782
_cell_length_b   9.23777500
_cell_length_c   12.05045800
_cell_angle_alpha   90.00000000
_cell_angle_beta   90.02593082
_cell_angle_gamma   90.00000000
_symmetry_Int_Tables_number   1
_chemical_formula_structural   Y5Er15(Bi2Te)4
_chemical_formula_sum   'Y5 Er15 Bi8 Te4'
_cell_volume   896.30467127
_cell_formula_units_Z   1
loop_
 _symmetry_equiv_pos_site_id
 _symmetry_equiv_pos_as_xyz
  1  'x, y, z'
loop_
 _atom_site_type_symbol
 _atom_site_label
 _atom_site_symmetry_multiplicity
 _atom_site_fract_x
 _atom_site_fract_y
 _atom_site_fract_z
 _atom_site_occupancy
  Y  Y0  1  0.663137  0.750000  0.720002  1
  Y  Y1  1  0.337016  0.250000  0.279690  1
  Y  Y2  1  0.163666  0.250000  0.779631  1
  Y  Y3  1  0.835609  0.750000  0.221342  1
  Y  Y4  1  0.152486  0.750000  0.790016  1
  Er  Er5  1  0.845818  0.250000  0.210230  1
  Er  Er6  1  0.654330  0.250000  0.710300  1
  Er  Er7  1  0.345701  0.750000  0.289549  1
  Er  Er8  1  0.521765  0.750000  0.002281  1
  Er  Er9  1  0.478580  0.250000  0.997953  1
  Er  Er10  1  0.021768  0.250000  0.497388  1
  Er  Er11  1  0.978316  0.750000  0.501778  1
  Er  Er12  1  0.813943  0.437776  0.935487  1
  Er  Er13  1  0.186213  0.562337  0.064796  1
  Er  Er14  1  0.313641  0.562440  0.563925  1
  Er  Er15  1  0.186213  0.937663  0.064796  1
  Er  Er16  1  0.686646  0.437599  0.435521  1
  Er  Er17  1  0.813943  0.062224  0.935487  1
  Er  Er18  1  0.686646  0.062401  0.435521  1
  Er  Er19  1  0.313641  0.937560  0.563925  1
  Bi  Bi20  1  0.929983  0.007185  0.671789  1
  Bi  Bi21  1  0.069676  0.993402  0.327434  1
  Bi  Bi22  1  0.431223  0.993869  0.827535  1
  Bi  Bi23  1  0.069676  0.506598  0.327434  1
  Bi  Bi24  1  0.569532  0.006774  0.172692  1
  Bi  Bi25  1  0.929983  0.492815  0.671789  1
  Bi  Bi26  1  0.569532  0.493226  0.172692  1
  Bi  Bi27  1  0.431223  0.506131  0.827535  1
  Te  Te28  1  0.899186  0.750000  0.973499  1
  Te  Te29  1  0.100560  0.250000  0.028366  1
  Te  Te30  1  0.399569  0.250000  0.528611  1
  Te  Te31  1  0.600785  0.750000  0.471007  1
