# generated using pymatgen
data_Ca2Al20NiRu3
_symmetry_space_group_name_H-M   'P 1'
_cell_length_a   6.86558883
_cell_length_b   6.87480788
_cell_length_c   9.10831632
_cell_angle_alpha   90.05748799
_cell_angle_beta   90.51344840
_cell_angle_gamma   96.95224790
_symmetry_Int_Tables_number   1
_chemical_formula_structural   Ca2Al20NiRu3
_chemical_formula_sum   'Ca2 Al20 Ni1 Ru3'
_cell_volume   426.72988756
_cell_formula_units_Z   1
loop_
 _symmetry_equiv_pos_site_id
 _symmetry_equiv_pos_as_xyz
  1  'x, y, z'
loop_
 _atom_site_type_symbol
 _atom_site_label
 _atom_site_symmetry_multiplicity
 _atom_site_fract_x
 _atom_site_fract_y
 _atom_site_fract_z
 _atom_site_occupancy
  Ca  Ca0  1  0.876981  0.126299  0.750531  1
  Ca  Ca1  1  0.123019  0.873701  0.249469  1
  Al  Al2  1  0.772926  0.775011  0.000124  1
  Al  Al3  1  0.775287  0.775368  0.499133  1
  Al  Al4  1  0.227074  0.224989  0.999876  1
  Al  Al5  1  0.224713  0.224632  0.500867  1
  Al  Al6  1  0.622445  0.377477  0.952066  1
  Al  Al7  1  0.377555  0.622523  0.047934  1
  Al  Al8  1  0.622912  0.376391  0.546495  1
  Al  Al9  1  0.377088  0.623609  0.453505  1
  Al  Al10  1  0.842627  0.156133  0.402157  1
  Al  Al11  1  0.157373  0.843867  0.597843  1
  Al  Al12  1  0.840554  0.156985  0.100376  1
  Al  Al13  1  0.159446  0.843015  0.899624  1
  Al  Al14  1  0.414197  0.139110  0.751863  1
  Al  Al15  1  0.139906  0.411991  0.250558  1
  Al  Al16  1  0.585803  0.860890  0.248137  1
  Al  Al17  1  0.860094  0.588009  0.749442  1
  Al  Al18  1  0.520867  0.776414  0.748233  1
  Al  Al19  1  0.778545  0.521029  0.248567  1
  Al  Al20  1  0.479133  0.223586  0.251767  1
  Al  Al21  1  0.221455  0.478971  0.751433  1
  Ni  Ni22  1  0.500000  0.000000  0.000000  1
  Ru  Ru23  1  0.000000  0.500000  0.000000  1
  Ru  Ru24  1  0.500000  0.000000  0.500000  1
  Ru  Ru25  1  0.000000  0.500000  0.500000  1
