# generated using pymatgen
data_BaCa(Ga4Cu9)2
_symmetry_space_group_name_H-M   'P 1'
_cell_length_a   8.42315247
_cell_length_b   8.42315268
_cell_length_c   8.42315100
_cell_angle_alpha   120.34815510
_cell_angle_beta   120.34815595
_cell_angle_gamma   89.39803270
_symmetry_Int_Tables_number   1
_chemical_formula_structural   BaCa(Ga4Cu9)2
_chemical_formula_sum   'Ba1 Ca1 Ga8 Cu18'
_cell_volume   420.33104709
_cell_formula_units_Z   1
loop_
 _symmetry_equiv_pos_site_id
 _symmetry_equiv_pos_as_xyz
  1  'x, y, z'
loop_
 _atom_site_type_symbol
 _atom_site_label
 _atom_site_symmetry_multiplicity
 _atom_site_fract_x
 _atom_site_fract_y
 _atom_site_fract_z
 _atom_site_occupancy
  Ba  Ba0  1  0.749991  0.750009  0.000000  1
  Ca  Ca1  1  0.250008  0.249992  0.000000  1
  Ga  Ga2  1  0.804038  0.298620  0.862531  1
  Ga  Ga3  1  0.558454  0.063879  0.862584  1
  Ga  Ga4  1  0.201380  0.695962  0.137469  1
  Ga  Ga5  1  0.695892  0.558407  0.494593  1
  Ga  Ga6  1  0.063835  0.201272  0.505441  1
  Ga  Ga7  1  0.298728  0.436165  0.494559  1
  Ga  Ga8  1  0.941593  0.804108  0.505407  1
  Ga  Ga9  1  0.436121  0.941546  0.137416  1
  Cu  Cu10  1  0.065714  0.562994  0.269307  1
  Cu  Cu11  1  0.703804  0.206496  0.269545  1
  Cu  Cu12  1  0.937006  0.434286  0.730693  1
  Cu  Cu13  1  0.434235  0.703742  0.497246  1
  Cu  Cu14  1  0.206425  0.936904  0.502723  1
  Cu  Cu15  1  0.563096  0.293575  0.497277  1
  Cu  Cu16  1  0.796258  0.065765  0.502754  1
  Cu  Cu17  1  0.293504  0.796196  0.730455  1
  Cu  Cu18  1  0.436075  0.294526  0.733311  1
  Cu  Cu19  1  0.797224  0.938761  0.733287  1
  Cu  Cu20  1  0.999917  0.500083  0.500000  1
  Cu  Cu21  1  0.499996  0.000004  0.500000  1
  Cu  Cu22  1  0.561239  0.702776  0.266713  1
  Cu  Cu23  1  0.702739  0.436085  0.141578  1
  Cu  Cu24  1  0.294513  0.561175  0.858472  1
  Cu  Cu25  1  0.938825  0.205487  0.141528  1
  Cu  Cu26  1  0.063915  0.797261  0.858422  1
  Cu  Cu27  1  0.205474  0.063925  0.266689  1
