# generated using pymatgen
data_Tb3Dy3(Tm2Sb3)2
_symmetry_space_group_name_H-M   'P 1'
_cell_length_a   8.96223211
_cell_length_b   8.96691719
_cell_length_c   6.26402000
_cell_angle_alpha   90.00000000
_cell_angle_beta   90.00000000
_cell_angle_gamma   120.00027294
_symmetry_Int_Tables_number   1
_chemical_formula_structural   Tb3Dy3(Tm2Sb3)2
_chemical_formula_sum   'Tb3 Dy3 Tm4 Sb6'
_cell_volume   435.95525735
_cell_formula_units_Z   1
loop_
 _symmetry_equiv_pos_site_id
 _symmetry_equiv_pos_as_xyz
  1  'x, y, z'
loop_
 _atom_site_type_symbol
 _atom_site_label
 _atom_site_symmetry_multiplicity
 _atom_site_fract_x
 _atom_site_fract_y
 _atom_site_fract_z
 _atom_site_occupancy
  Tb  Tb0  1  0.752519  0.000009  0.750000  1
  Tb  Tb1  1  0.247505  0.247556  0.750000  1
  Tb  Tb2  1  0.247452  0.999958  0.250000  1
  Dy  Dy3  1  0.999958  0.752418  0.750000  1
  Dy  Dy4  1  0.000008  0.247558  0.250000  1
  Dy  Dy5  1  0.752516  0.752465  0.250000  1
  Tm  Tm6  1  0.333355  0.666688  0.500014  1
  Tm  Tm7  1  0.666661  0.333327  0.999987  1
  Tm  Tm8  1  0.666661  0.333327  0.500013  1
  Tm  Tm9  1  0.333355  0.666688  0.999986  1
  Sb  Sb10  1  0.389998  0.999869  0.750000  1
  Sb  Sb11  1  0.390093  0.390228  0.250000  1
  Sb  Sb12  1  0.999869  0.609790  0.250000  1
  Sb  Sb13  1  0.000005  0.390231  0.750000  1
  Sb  Sb14  1  0.610020  0.609886  0.750000  1
  Sb  Sb15  1  0.610024  0.000003  0.250000  1
