# generated using pymatgen
data_Y12Ho4Cd4OsPt3
_symmetry_space_group_name_H-M   'P 1'
_cell_length_a   9.72335344
_cell_length_b   9.72335417
_cell_length_c   9.72335357
_cell_angle_alpha   59.58379073
_cell_angle_beta   59.58379628
_cell_angle_gamma   59.58378969
_symmetry_Int_Tables_number   1
_chemical_formula_structural   Y12Ho4Cd4OsPt3
_chemical_formula_sum   'Y12 Ho4 Cd4 Os1 Pt3'
_cell_volume   643.87994887
_cell_formula_units_Z   1
loop_
 _symmetry_equiv_pos_site_id
 _symmetry_equiv_pos_as_xyz
  1  'x, y, z'
loop_
 _atom_site_type_symbol
 _atom_site_label
 _atom_site_symmetry_multiplicity
 _atom_site_fract_x
 _atom_site_fract_y
 _atom_site_fract_z
 _atom_site_occupancy
  Y  Y0  1  0.814182  0.189411  0.189411  1
  Y  Y1  1  0.189357  0.809348  0.809348  1
  Y  Y2  1  0.189411  0.814182  0.189411  1
  Y  Y3  1  0.809348  0.189357  0.809348  1
  Y  Y4  1  0.189411  0.189411  0.814182  1
  Y  Y5  1  0.809348  0.809348  0.189357  1
  Y  Y6  1  0.936141  0.564735  0.564735  1
  Y  Y7  1  0.558442  0.937954  0.937954  1
  Y  Y8  1  0.564735  0.936141  0.564735  1
  Y  Y9  1  0.937954  0.558442  0.937954  1
  Y  Y10  1  0.564735  0.564735  0.936141  1
  Y  Y11  1  0.937954  0.937954  0.558442  1
  Ho  Ho12  1  0.351468  0.351468  0.351468  1
  Ho  Ho13  1  0.349687  0.349687  0.948606  1
  Ho  Ho14  1  0.349687  0.948606  0.349687  1
  Ho  Ho15  1  0.948606  0.349687  0.349687  1
  Cd  Cd16  1  0.580298  0.580298  0.580298  1
  Cd  Cd17  1  0.580999  0.580999  0.254787  1
  Cd  Cd18  1  0.580999  0.254787  0.580999  1
  Cd  Cd19  1  0.254787  0.580999  0.580999  1
  Os  Os20  1  0.144006  0.144006  0.144006  1
  Pt  Pt21  1  0.144289  0.144289  0.569870  1
  Pt  Pt22  1  0.144289  0.569870  0.144289  1
  Pt  Pt23  1  0.569870  0.144289  0.144289  1
