# generated using pymatgen
data_TbY(HCl)2
_symmetry_space_group_name_H-M   'P 1'
_cell_length_a   9.87816935
_cell_length_b   9.87816919
_cell_length_c   9.87816988
_cell_angle_alpha   22.08933409
_cell_angle_beta   22.08933871
_cell_angle_gamma   22.08933748
_symmetry_Int_Tables_number   1
_chemical_formula_structural   TbY(HCl)2
_chemical_formula_sum   'Tb1 Y1 H2 Cl2'
_cell_volume   119.50868395
_cell_formula_units_Z   1
loop_
 _symmetry_equiv_pos_site_id
 _symmetry_equiv_pos_as_xyz
  1  'x, y, z'
loop_
 _atom_site_type_symbol
 _atom_site_label
 _atom_site_symmetry_multiplicity
 _atom_site_fract_x
 _atom_site_fract_y
 _atom_site_fract_z
 _atom_site_occupancy
  Tb  Tb0  1  0.118802  0.118802  0.118802  1
  Y  Y1  1  0.881132  0.881132  0.881132  1
  H  H2  1  0.195611  0.195611  0.195611  1
  H  H3  1  0.804530  0.804530  0.804530  1
  Cl  Cl4  1  0.393654  0.393654  0.393654  1
  Cl  Cl5  1  0.606272  0.606272  0.606272  1
