# generated using pymatgen
data_Eu2MnZn(CuNi)4
_symmetry_space_group_name_H-M   'P 1'
_cell_length_a   4.03779600
_cell_length_b   5.08975000
_cell_length_c   8.78041600
_cell_angle_alpha   90.00000000
_cell_angle_beta   90.00000000
_cell_angle_gamma   90.00000000
_symmetry_Int_Tables_number   1
_chemical_formula_structural   Eu2MnZn(CuNi)4
_chemical_formula_sum   'Eu2 Mn1 Zn1 Cu4 Ni4'
_cell_volume   180.44959721
_cell_formula_units_Z   1
loop_
 _symmetry_equiv_pos_site_id
 _symmetry_equiv_pos_as_xyz
  1  'x, y, z'
loop_
 _atom_site_type_symbol
 _atom_site_label
 _atom_site_symmetry_multiplicity
 _atom_site_fract_x
 _atom_site_fract_y
 _atom_site_fract_z
 _atom_site_occupancy
  Eu  Eu0  1  0.000000  0.500000  0.000000  1
  Eu  Eu1  1  0.000000  0.000000  0.500000  1
  Mn  Mn2  1  0.500000  0.500000  0.500000  1
  Zn  Zn3  1  0.500000  0.000000  0.000000  1
  Cu  Cu4  1  0.000000  0.500000  0.327073  1
  Cu  Cu5  1  0.000000  0.000000  0.826320  1
  Cu  Cu6  1  0.000000  0.000000  0.173680  1
  Cu  Cu7  1  0.000000  0.500000  0.672927  1
  Ni  Ni8  1  0.500000  0.752451  0.254039  1
  Ni  Ni9  1  0.500000  0.247549  0.745961  1
  Ni  Ni10  1  0.500000  0.247549  0.254039  1
  Ni  Ni11  1  0.500000  0.752451  0.745961  1
