# generated using pymatgen
data_Tb3Dy(Pd2Pb)2
_symmetry_space_group_name_H-M   'P 1'
_cell_length_a   7.96554294
_cell_length_b   7.96554294
_cell_length_c   3.61813300
_cell_angle_alpha   90.00000000
_cell_angle_beta   90.00000000
_cell_angle_gamma   90.11395079
_symmetry_Int_Tables_number   1
_chemical_formula_structural   Tb3Dy(Pd2Pb)2
_chemical_formula_sum   'Tb3 Dy1 Pd4 Pb2'
_cell_volume   229.56963004
_cell_formula_units_Z   1
loop_
 _symmetry_equiv_pos_site_id
 _symmetry_equiv_pos_as_xyz
  1  'x, y, z'
loop_
 _atom_site_type_symbol
 _atom_site_label
 _atom_site_symmetry_multiplicity
 _atom_site_fract_x
 _atom_site_fract_y
 _atom_site_fract_z
 _atom_site_occupancy
  Tb  Tb0  1  0.670608  0.170608  0.500000  1
  Tb  Tb1  1  0.170715  0.329429  0.500000  1
  Tb  Tb2  1  0.829429  0.670715  0.500000  1
  Dy  Dy3  1  0.329472  0.829472  0.500000  1
  Pd  Pd4  1  0.374105  0.124649  0.000000  1
  Pd  Pd5  1  0.126278  0.626278  0.000000  1
  Pd  Pd6  1  0.624649  0.874105  0.000000  1
  Pd  Pd7  1  0.874745  0.374745  0.000000  1
  Pb  Pb8  1  0.000198  0.999802  0.000000  1
  Pb  Pb9  1  0.499802  0.500198  0.000000  1
