# generated using pymatgen
data_LiLu5(Rh2Pb)6
_symmetry_space_group_name_H-M   'P 1'
_cell_length_a   4.57146902
_cell_length_b   7.01727200
_cell_length_c   13.61042407
_cell_angle_alpha   90.00000000
_cell_angle_beta   89.98816055
_cell_angle_gamma   90.00000000
_symmetry_Int_Tables_number   1
_chemical_formula_structural   LiLu5(Rh2Pb)6
_chemical_formula_sum   'Li1 Lu5 Rh12 Pb6'
_cell_volume   436.61207256
_cell_formula_units_Z   1
loop_
 _symmetry_equiv_pos_site_id
 _symmetry_equiv_pos_as_xyz
  1  'x, y, z'
loop_
 _atom_site_type_symbol
 _atom_site_label
 _atom_site_symmetry_multiplicity
 _atom_site_fract_x
 _atom_site_fract_y
 _atom_site_fract_z
 _atom_site_occupancy
  Li  Li0  1  0.500215  0.500000  0.833326  1
  Lu  Lu1  1  0.000010  0.000000  0.997330  1
  Lu  Lu2  1  0.499799  0.500000  0.165617  1
  Lu  Lu3  1  0.999824  0.000000  0.333387  1
  Lu  Lu4  1  0.500000  0.500000  0.501166  1
  Lu  Lu5  1  0.000195  0.000000  0.669307  1
  Rh  Rh6  1  0.499995  0.257523  0.998571  1
  Rh  Rh7  1  0.499995  0.742476  0.998571  1
  Rh  Rh8  1  0.999771  0.252140  0.166919  1
  Rh  Rh9  1  0.999771  0.747859  0.166919  1
  Rh  Rh10  1  0.499743  0.249401  0.333444  1
  Rh  Rh11  1  0.499743  0.750599  0.333444  1
  Rh  Rh12  1  0.999996  0.252192  0.500000  1
  Rh  Rh13  1  0.999996  0.747807  0.500000  1
  Rh  Rh14  1  0.500275  0.257444  0.667947  1
  Rh  Rh15  1  0.500275  0.742556  0.667947  1
  Rh  Rh16  1  0.000247  0.254903  0.833108  1
  Rh  Rh17  1  0.000247  0.745096  0.833108  1
  Pb  Pb18  1  0.999952  0.500000  0.991004  1
  Pb  Pb19  1  0.499800  0.000000  0.163325  1
  Pb  Pb20  1  0.999548  0.500000  0.333280  1
  Pb  Pb21  1  0.499989  0.000000  0.503374  1
  Pb  Pb22  1  0.000162  0.500000  0.675668  1
  Pb  Pb23  1  0.500453  0.000000  0.833242  1
