# generated using pymatgen
data_YbCr2(Sb6Ru)2
_symmetry_space_group_name_H-M   'P 1'
_cell_length_a   8.20497535
_cell_length_b   8.20497486
_cell_length_c   8.17199146
_cell_angle_alpha   109.43558138
_cell_angle_beta   109.35353773
_cell_angle_gamma   109.78715182
_symmetry_Int_Tables_number   1
_chemical_formula_structural   YbCr2(Sb6Ru)2
_chemical_formula_sum   'Yb1 Cr2 Sb12 Ru2'
_cell_volume   422.64979618
_cell_formula_units_Z   1
loop_
 _symmetry_equiv_pos_site_id
 _symmetry_equiv_pos_as_xyz
  1  'x, y, z'
loop_
 _atom_site_type_symbol
 _atom_site_label
 _atom_site_symmetry_multiplicity
 _atom_site_fract_x
 _atom_site_fract_y
 _atom_site_fract_z
 _atom_site_occupancy
  Yb  Yb0  1  0.000000  0.000000  0.000000  1
  Cr  Cr1  1  0.500000  0.500000  0.500000  1
  Cr  Cr2  1  0.000000  0.000000  0.500000  1
  Sb  Sb3  1  0.847089  0.656422  0.503512  1
  Sb  Sb4  1  0.152911  0.343578  0.496488  1
  Sb  Sb5  1  0.157429  0.663310  0.820741  1
  Sb  Sb6  1  0.842571  0.336690  0.179259  1
  Sb  Sb7  1  0.664170  0.504228  0.848865  1
  Sb  Sb8  1  0.335830  0.495772  0.151135  1
  Sb  Sb9  1  0.655363  0.815306  0.151135  1
  Sb  Sb10  1  0.344637  0.184694  0.848865  1
  Sb  Sb11  1  0.503790  0.848311  0.663141  1
  Sb  Sb12  1  0.496210  0.151689  0.336859  1
  Sb  Sb13  1  0.185170  0.840649  0.336859  1
  Sb  Sb14  1  0.814830  0.159351  0.663141  1
  Ru  Ru15  1  0.500000  0.000000  0.000000  1
  Ru  Ru16  1  0.000000  0.500000  0.000000  1
