# generated using pymatgen
data_Sr12SiGe3I8
_symmetry_space_group_name_H-M   'P 1'
_cell_length_a   15.78994182
_cell_length_b   15.05643856
_cell_length_c   8.36327107
_cell_angle_alpha   79.17039007
_cell_angle_beta   69.48227159
_cell_angle_gamma   31.35692858
_symmetry_Int_Tables_number   1
_chemical_formula_structural   Sr12SiGe3I8
_chemical_formula_sum   'Sr12 Si1 Ge3 I8'
_cell_volume   943.34524695
_cell_formula_units_Z   1
loop_
 _symmetry_equiv_pos_site_id
 _symmetry_equiv_pos_as_xyz
  1  'x, y, z'
loop_
 _atom_site_type_symbol
 _atom_site_label
 _atom_site_symmetry_multiplicity
 _atom_site_fract_x
 _atom_site_fract_y
 _atom_site_fract_z
 _atom_site_occupancy
  Sr  Sr0  1  0.365432  0.950278  0.589369  1
  Sr  Sr1  1  0.588757  0.095503  0.364420  1
  Sr  Sr2  1  0.299782  0.884187  0.154892  1
  Sr  Sr3  1  0.950278  0.365432  0.094922  1
  Sr  Sr4  1  0.451559  0.048633  0.048339  1
  Sr  Sr5  1  0.884187  0.299782  0.661138  1
  Sr  Sr6  1  0.095503  0.588757  0.951322  1
  Sr  Sr7  1  0.659876  0.155636  0.885292  1
  Sr  Sr8  1  0.798065  0.202283  0.202431  1
  Sr  Sr9  1  0.202283  0.798065  0.797221  1
  Sr  Sr10  1  0.155636  0.659876  0.299196  1
  Sr  Sr11  1  0.048633  0.451559  0.451469  1
  Si  Si12  1  0.334023  0.334023  0.165977  1
  Ge  Ge13  1  0.084081  0.084081  0.915919  1
  Ge  Ge14  1  0.916334  0.916334  0.083666  1
  Ge  Ge15  1  0.165582  0.165582  0.334418  1
  I  I16  1  0.672839  0.672839  0.827161  1
  I  I17  1  0.744831  0.744831  0.255169  1
  I  I18  1  0.255006  0.255006  0.744994  1
  I  I19  1  0.577165  0.577165  0.422835  1
  I  I20  1  0.994969  0.994969  0.505031  1
  I  I21  1  0.827203  0.827203  0.672797  1
  I  I22  1  0.422792  0.422792  0.577208  1
  I  I23  1  0.505184  0.505184  0.994816  1
