# generated using pymatgen
data_Tm10(AlSb)3
_symmetry_space_group_name_H-M   'P 1'
_cell_length_a   8.70978836
_cell_length_b   8.72849459
_cell_length_c   6.37385100
_cell_angle_alpha   90.00000000
_cell_angle_beta   90.00000000
_cell_angle_gamma   119.76181000
_symmetry_Int_Tables_number   1
_chemical_formula_structural   Tm10(AlSb)3
_chemical_formula_sum   'Tm10 Al3 Sb3'
_cell_volume   420.64610175
_cell_formula_units_Z   1
loop_
 _symmetry_equiv_pos_site_id
 _symmetry_equiv_pos_as_xyz
  1  'x, y, z'
loop_
 _atom_site_type_symbol
 _atom_site_label
 _atom_site_symmetry_multiplicity
 _atom_site_fract_x
 _atom_site_fract_y
 _atom_site_fract_z
 _atom_site_occupancy
  Tm  Tm0  1  0.332897  0.678886  0.002779  1
  Tm  Tm1  1  0.666560  0.325805  0.497375  1
  Tm  Tm2  1  0.666560  0.325805  0.002625  1
  Tm  Tm3  1  0.332897  0.678886  0.497221  1
  Tm  Tm4  1  0.233938  0.989467  0.250000  1
  Tm  Tm5  1  0.759172  0.001958  0.750000  1
  Tm  Tm6  1  0.988180  0.233793  0.250000  1
  Tm  Tm7  1  0.764379  0.765039  0.250000  1
  Tm  Tm8  1  0.242723  0.231852  0.750000  1
  Tm  Tm9  1  0.012380  0.770339  0.750000  1
  Al  Al10  1  0.600245  0.999076  0.250000  1
  Al  Al11  1  0.403359  0.003586  0.750000  1
  Al  Al12  1  0.994989  0.600479  0.250000  1
  Sb  Sb13  1  0.387689  0.391595  0.250000  1
  Sb  Sb14  1  0.609140  0.607333  0.750000  1
  Sb  Sb15  1  0.004892  0.396099  0.750000  1
