# generated using pymatgen
data_LiTaNb2(CoSb)4
_symmetry_space_group_name_H-M   'P 1'
_cell_length_a   7.28521467
_cell_length_b   7.28521449
_cell_length_c   7.28521503
_cell_angle_alpha   131.62138187
_cell_angle_beta   131.62138738
_cell_angle_gamma   70.82766980
_symmetry_Int_Tables_number   1
_chemical_formula_structural   LiTaNb2(CoSb)4
_chemical_formula_sum   'Li1 Ta1 Nb2 Co4 Sb4'
_cell_volume   211.63237381
_cell_formula_units_Z   1
loop_
 _symmetry_equiv_pos_site_id
 _symmetry_equiv_pos_as_xyz
  1  'x, y, z'
loop_
 _atom_site_type_symbol
 _atom_site_label
 _atom_site_symmetry_multiplicity
 _atom_site_fract_x
 _atom_site_fract_y
 _atom_site_fract_z
 _atom_site_occupancy
  Li  Li0  1  0.500000  0.500000  0.000000  1
  Ta  Ta1  1  0.000000  0.000000  0.000000  1
  Nb  Nb2  1  0.750000  0.250000  0.500000  1
  Nb  Nb3  1  0.250000  0.750000  0.500000  1
  Co  Co4  1  0.895711  0.365139  0.000000  1
  Co  Co5  1  0.365139  0.895711  0.000000  1
  Co  Co6  1  0.104289  0.104289  0.469428  1
  Co  Co7  1  0.634861  0.634861  0.530571  1
  Sb  Sb8  1  0.261962  0.261962  0.000000  1
  Sb  Sb9  1  0.738038  0.738038  0.000000  1
  Sb  Sb10  1  0.500000  0.000000  0.500000  1
  Sb  Sb11  1  0.000000  0.500000  0.500000  1
