# generated using pymatgen
data_Zr2TaSnC2
_symmetry_space_group_name_H-M   'P 1'
_cell_length_a   3.31140600
_cell_length_b   3.31140624
_cell_length_c   19.83735800
_cell_angle_alpha   90.00000000
_cell_angle_beta   90.00000000
_cell_angle_gamma   119.99999756
_symmetry_Int_Tables_number   1
_chemical_formula_structural   Zr2TaSnC2
_chemical_formula_sum   'Zr4 Ta2 Sn2 C4'
_cell_volume   188.38198469
_cell_formula_units_Z   2
loop_
 _symmetry_equiv_pos_site_id
 _symmetry_equiv_pos_as_xyz
  1  'x, y, z'
loop_
 _atom_site_type_symbol
 _atom_site_label
 _atom_site_symmetry_multiplicity
 _atom_site_fract_x
 _atom_site_fract_y
 _atom_site_fract_z
 _atom_site_occupancy
  Zr  Zr0  1  0.333334  0.666667  0.125851  1
  Zr  Zr1  1  0.333334  0.666667  0.374149  1
  Zr  Zr2  1  0.666666  0.333334  0.625851  1
  Zr  Zr3  1  0.666666  0.333334  0.874149  1
  Ta  Ta4  1  0.000000  0.000000  0.000000  1
  Ta  Ta5  1  0.000000  0.000000  0.500000  1
  Sn  Sn6  1  0.000000  0.000000  0.250000  1
  Sn  Sn7  1  0.000000  0.000000  0.750000  1
  C  C8  1  0.666666  0.333334  0.063483  1
  C  C9  1  0.666666  0.333334  0.436517  1
  C  C10  1  0.333334  0.666667  0.563483  1
  C  C11  1  0.333334  0.666667  0.936517  1
