# generated using pymatgen
data_CrB3W4
_symmetry_space_group_name_H-M   'P 1'
_cell_length_a   5.76258986
_cell_length_b   5.76268065
_cell_length_c   6.84836317
_cell_angle_alpha   114.89036243
_cell_angle_beta   114.89000012
_cell_angle_gamma   90.00507437
_symmetry_Int_Tables_number   1
_chemical_formula_structural   CrB3W4
_chemical_formula_sum   'Cr2 B6 W8'
_cell_volume   182.74286107
_cell_formula_units_Z   2
loop_
 _symmetry_equiv_pos_site_id
 _symmetry_equiv_pos_as_xyz
  1  'x, y, z'
loop_
 _atom_site_type_symbol
 _atom_site_label
 _atom_site_symmetry_multiplicity
 _atom_site_fract_x
 _atom_site_fract_y
 _atom_site_fract_z
 _atom_site_occupancy
  Cr  Cr0  1  0.999919  0.999909  0.999811  1
  Cr  Cr1  1  0.499933  0.499982  0.999884  1
  B  B2  1  0.378194  0.121777  0.000011  1
  B  B3  1  0.878457  0.378437  0.000034  1
  B  B4  1  0.121560  0.621582  0.999996  1
  B  B5  1  0.621834  0.878231  0.000021  1
  B  B6  1  0.249890  0.250058  0.499953  1
  B  B7  1  0.750149  0.749975  0.500132  1
  W  W8  1  0.815665  0.315611  0.288482  1
  W  W9  1  0.315643  0.472953  0.288631  1
  W  W10  1  0.972993  0.815693  0.288621  1
  W  W11  1  0.472826  0.972870  0.288467  1
  W  W12  1  0.527153  0.027108  0.711578  1
  W  W13  1  0.026992  0.184371  0.711411  1
  W  W14  1  0.684403  0.527036  0.711417  1
  W  W15  1  0.184390  0.684412  0.711551  1
