# generated using pymatgen
data_HoTmWO6
_symmetry_space_group_name_H-M   'P 1'
_cell_length_a   5.36070300
_cell_length_b   7.65082006
_cell_length_c   11.37320330
_cell_angle_alpha   75.41927804
_cell_angle_beta   90.00000000
_cell_angle_gamma   90.00000000
_symmetry_Int_Tables_number   1
_chemical_formula_structural   HoTmWO6
_chemical_formula_sum   'Ho4 Tm4 W4 O24'
_cell_volume   451.43521058
_cell_formula_units_Z   4
loop_
 _symmetry_equiv_pos_site_id
 _symmetry_equiv_pos_as_xyz
  1  'x, y, z'
loop_
 _atom_site_type_symbol
 _atom_site_label
 _atom_site_symmetry_multiplicity
 _atom_site_fract_x
 _atom_site_fract_y
 _atom_site_fract_z
 _atom_site_occupancy
  Ho  Ho0  1  0.740041  0.000000  0.750000  1
  Ho  Ho1  1  0.259959  0.000000  0.250000  1
  Ho  Ho2  1  0.683968  0.500000  0.750000  1
  Ho  Ho3  1  0.316032  0.500000  0.250000  1
  Tm  Tm4  1  0.185152  0.795223  0.578587  1
  Tm  Tm5  1  0.814848  0.795223  0.078587  1
  Tm  Tm6  1  0.185152  0.204777  0.921413  1
  Tm  Tm7  1  0.814848  0.204777  0.421413  1
  W  W8  1  0.255069  0.722798  0.886197  1
  W  W9  1  0.744931  0.722798  0.386197  1
  W  W10  1  0.255069  0.277202  0.613803  1
  W  W11  1  0.744931  0.277202  0.113803  1
  O  O12  1  0.042518  0.940640  0.896359  1
  O  O13  1  0.534146  0.847490  0.931939  1
  O  O14  1  0.957482  0.940640  0.396359  1
  O  O15  1  0.459373  0.790055  0.726658  1
  O  O16  1  0.465854  0.847490  0.431939  1
  O  O17  1  0.981467  0.710973  0.770366  1
  O  O18  1  0.540627  0.790055  0.226658  1
  O  O19  1  0.853624  0.634149  0.549887  1
  O  O20  1  0.361367  0.487674  0.887094  1
  O  O21  1  0.018533  0.710973  0.270366  1
  O  O22  1  0.361367  0.512326  0.612906  1
  O  O23  1  0.853624  0.365851  0.950113  1
  O  O24  1  0.146376  0.634149  0.049887  1
  O  O25  1  0.638633  0.487674  0.387094  1
  O  O26  1  0.981467  0.289027  0.729634  1
  O  O27  1  0.638633  0.512326  0.112906  1
  O  O28  1  0.146376  0.365851  0.450113  1
  O  O29  1  0.459373  0.209945  0.773342  1
  O  O30  1  0.018533  0.289027  0.229634  1
  O  O31  1  0.534146  0.152510  0.568061  1
  O  O32  1  0.540627  0.209945  0.273342  1
  O  O33  1  0.042518  0.059360  0.603641  1
  O  O34  1  0.465854  0.152510  0.068061  1
  O  O35  1  0.957482  0.059360  0.103641  1
