# generated using pymatgen
data_Tb2ErNi6B2Ru
_symmetry_space_group_name_H-M   'P 1'
_cell_length_a   5.08492700
_cell_length_b   5.08477929
_cell_length_c   14.62507200
_cell_angle_alpha   89.99981308
_cell_angle_beta   89.99975069
_cell_angle_gamma   120.00083477
_symmetry_Int_Tables_number   1
_chemical_formula_structural   Tb2ErNi6B2Ru
_chemical_formula_sum   'Tb4 Er2 Ni12 B4 Ru2'
_cell_volume   327.47776737
_cell_formula_units_Z   2
loop_
 _symmetry_equiv_pos_site_id
 _symmetry_equiv_pos_as_xyz
  1  'x, y, z'
loop_
 _atom_site_type_symbol
 _atom_site_label
 _atom_site_symmetry_multiplicity
 _atom_site_fract_x
 _atom_site_fract_y
 _atom_site_fract_z
 _atom_site_occupancy
  Tb  Tb0  1  0.333333  0.666658  0.469954  1
  Tb  Tb1  1  0.666683  0.333349  0.970045  1
  Tb  Tb2  1  0.666668  0.333348  0.530065  1
  Tb  Tb3  1  0.333317  0.666648  0.029944  1
  Er  Er4  1  0.666662  0.333319  0.750135  1
  Er  Er5  1  0.333343  0.666686  0.249867  1
  Ni  Ni6  1  0.835273  0.164831  0.345808  1
  Ni  Ni7  1  0.835230  0.670469  0.345808  1
  Ni  Ni8  1  0.835253  0.670478  0.153754  1
  Ni  Ni9  1  0.164735  0.835178  0.654191  1
  Ni  Ni10  1  0.670465  0.835178  0.654196  1
  Ni  Ni11  1  0.329549  0.164810  0.153771  1
  Ni  Ni12  1  0.835297  0.164849  0.153757  1
  Ni  Ni13  1  0.164727  0.329514  0.846237  1
  Ni  Ni14  1  0.164715  0.835164  0.846249  1
  Ni  Ni15  1  0.164762  0.329529  0.654192  1
  Ni  Ni16  1  0.670450  0.835183  0.846236  1
  Ni  Ni17  1  0.329540  0.164814  0.345795  1
  B  B18  1  0.666668  0.333329  0.249822  1
  B  B19  1  0.333337  0.666675  0.750176  1
  B  B20  1  0.000007  0.999984  0.750175  1
  B  B21  1  0.999986  0.000005  0.249825  1
  Ru  Ru22  1  0.999996  0.999993  0.000014  1
  Ru  Ru23  1  0.000002  0.000009  0.499985  1
