# generated using pymatgen
data_Ba4La3(USe4)5
_symmetry_space_group_name_H-M   'P 1'
_cell_length_a   8.06046055
_cell_length_b   8.78709682
_cell_length_c   12.59660837
_cell_angle_alpha   89.70036169
_cell_angle_beta   89.93644253
_cell_angle_gamma   90.30307470
_symmetry_Int_Tables_number   1
_chemical_formula_structural   Ba4La3(USe4)5
_chemical_formula_sum   'Ba4 La3 U5 Se20'
_cell_volume   892.16791345
_cell_formula_units_Z   1
loop_
 _symmetry_equiv_pos_site_id
 _symmetry_equiv_pos_as_xyz
  1  'x, y, z'
loop_
 _atom_site_type_symbol
 _atom_site_label
 _atom_site_symmetry_multiplicity
 _atom_site_fract_x
 _atom_site_fract_y
 _atom_site_fract_z
 _atom_site_occupancy
  Ba  Ba0  1  0.053145  0.494356  0.328904  1
  Ba  Ba1  1  0.553647  0.506355  0.167207  1
  Ba  Ba2  1  0.945538  0.507425  0.671046  1
  Ba  Ba3  1  0.443629  0.494360  0.830455  1
  La  La4  1  0.038565  0.000845  0.322320  1
  La  La5  1  0.541055  0.001145  0.177993  1
  La  La6  1  0.960084  0.000491  0.676391  1
  U  U7  1  0.465635  0.999212  0.823582  1
  U  U8  1  0.059927  0.755305  0.004677  1
  U  U9  1  0.560498  0.246070  0.495968  1
  U  U10  1  0.940525  0.242825  0.992457  1
  U  U11  1  0.436955  0.753507  0.505960  1
  Se  Se12  1  0.666020  0.959734  0.415276  1
  Se  Se13  1  0.165545  0.041675  0.087246  1
  Se  Se14  1  0.337813  0.039512  0.596803  1
  Se  Se15  1  0.829224  0.956910  0.910324  1
  Se  Se16  1  0.442643  0.785990  0.997161  1
  Se  Se17  1  0.938234  0.226850  0.496484  1
  Se  Se18  1  0.552929  0.214204  0.988353  1
  Se  Se19  1  0.062131  0.776683  0.504529  1
  Se  Se20  1  0.851707  0.768973  0.185620  1
  Se  Se21  1  0.353147  0.230578  0.314620  1
  Se  Se22  1  0.157076  0.222084  0.814696  1
  Se  Se23  1  0.640401  0.774828  0.692858  1
  Se  Se24  1  0.328139  0.765849  0.290120  1
  Se  Se25  1  0.824750  0.234987  0.204782  1
  Se  Se26  1  0.670984  0.226794  0.711915  1
  Se  Se27  1  0.179905  0.773919  0.792441  1
  Se  Se28  1  0.176045  0.463369  0.068288  1
  Se  Se29  1  0.671426  0.539054  0.429137  1
  Se  Se30  1  0.825175  0.534332  0.927763  1
  Se  Se31  1  0.327500  0.461780  0.574627  1
