# generated using pymatgen
data_Y12In2SiRu3
_symmetry_space_group_name_H-M   'P 1'
_cell_length_a   8.53545167
_cell_length_b   8.53545276
_cell_length_c   8.53545249
_cell_angle_alpha   112.58873181
_cell_angle_beta   111.65111165
_cell_angle_gamma   104.29605704
_symmetry_Int_Tables_number   1
_chemical_formula_structural   Y12In2SiRu3
_chemical_formula_sum   'Y12 In2 Si1 Ru3'
_cell_volume   475.76494813
_cell_formula_units_Z   1
loop_
 _symmetry_equiv_pos_site_id
 _symmetry_equiv_pos_as_xyz
  1  'x, y, z'
loop_
 _atom_site_type_symbol
 _atom_site_label
 _atom_site_symmetry_multiplicity
 _atom_site_fract_x
 _atom_site_fract_y
 _atom_site_fract_z
 _atom_site_occupancy
  Y  Y0  1  0.444417  0.241012  0.203405  1
  Y  Y1  1  0.557132  0.759383  0.797748  1
  Y  Y2  1  0.037606  0.241012  0.796595  1
  Y  Y3  1  0.961636  0.759383  0.202252  1
  Y  Y4  1  0.184283  0.285316  0.463585  1
  Y  Y5  1  0.821730  0.720698  0.536415  1
  Y  Y6  1  0.184283  0.720698  0.898969  1
  Y  Y7  1  0.821730  0.285316  0.101031  1
  Y  Y8  1  0.329146  0.641329  0.312184  1
  Y  Y9  1  0.664008  0.353700  0.689691  1
  Y  Y10  1  0.329146  0.016962  0.687816  1
  Y  Y11  1  0.664008  0.974318  0.310309  1
  In  In12  1  0.500128  0.500128  0.000000  1
  In  In13  1  0.999578  0.999578  0.000000  1
  Si  Si14  1  0.878727  0.378727  0.500000  1
  Ru  Ru15  1  0.332714  0.002071  0.330643  1
  Ru  Ru16  1  0.671429  0.002071  0.669357  1
  Ru  Ru17  1  0.118296  0.618296  0.500000  1
