# generated using pymatgen
data_Er2Al9Pd2Rh
_symmetry_space_group_name_H-M   'P 1'
_cell_length_a   7.60016600
_cell_length_b   7.60016585
_cell_length_c   9.43614300
_cell_angle_alpha   90.00000000
_cell_angle_beta   90.00000000
_cell_angle_gamma   119.56115614
_symmetry_Int_Tables_number   1
_chemical_formula_structural   Er2Al9Pd2Rh
_chemical_formula_sum   'Er4 Al18 Pd4 Rh2'
_cell_volume   474.10533662
_cell_formula_units_Z   2
loop_
 _symmetry_equiv_pos_site_id
 _symmetry_equiv_pos_as_xyz
  1  'x, y, z'
loop_
 _atom_site_type_symbol
 _atom_site_label
 _atom_site_symmetry_multiplicity
 _atom_site_fract_x
 _atom_site_fract_y
 _atom_site_fract_z
 _atom_site_occupancy
  Er  Er0  1  0.994361  0.669197  0.750000  1
  Er  Er1  1  0.005639  0.330803  0.250000  1
  Er  Er2  1  0.669197  0.994361  0.750000  1
  Er  Er3  1  0.330803  0.005639  0.250000  1
  Al  Al4  1  0.125907  0.125907  0.750000  1
  Al  Al5  1  0.874093  0.874093  0.250000  1
  Al  Al6  1  0.999783  0.331301  0.576188  1
  Al  Al7  1  0.000217  0.668699  0.423812  1
  Al  Al8  1  0.000217  0.668699  0.076188  1
  Al  Al9  1  0.331301  0.999783  0.923812  1
  Al  Al10  1  0.999783  0.331301  0.923812  1
  Al  Al11  1  0.668699  0.000217  0.076188  1
  Al  Al12  1  0.668699  0.000217  0.423812  1
  Al  Al13  1  0.331301  0.999783  0.576188  1
  Al  Al14  1  0.329920  0.329920  0.055744  1
  Al  Al15  1  0.670080  0.670080  0.944256  1
  Al  Al16  1  0.670080  0.670080  0.555744  1
  Al  Al17  1  0.329920  0.329920  0.444256  1
  Al  Al18  1  0.339973  0.547669  0.750000  1
  Al  Al19  1  0.660027  0.452331  0.250000  1
  Al  Al20  1  0.547669  0.339973  0.750000  1
  Al  Al21  1  0.452331  0.660027  0.250000  1
  Pd  Pd22  1  0.672665  0.327335  0.500000  1
  Pd  Pd23  1  0.327335  0.672665  0.500000  1
  Pd  Pd24  1  0.327335  0.672665  0.000000  1
  Pd  Pd25  1  0.672665  0.327335  0.000000  1
  Rh  Rh26  1  0.000000  0.000000  0.500000  1
  Rh  Rh27  1  0.000000  0.000000  0.000000  1
