# generated using pymatgen
data_CsRbBr8
_symmetry_space_group_name_H-M   'P 1'
_cell_length_a   8.23234300
_cell_length_b   9.93883045
_cell_length_c   10.88427680
_cell_angle_alpha   68.43109468
_cell_angle_beta   90.00000000
_cell_angle_gamma   90.00000000
_symmetry_Int_Tables_number   1
_chemical_formula_structural   CsRbBr8
_chemical_formula_sum   'Cs2 Rb2 Br16'
_cell_volume   828.19026015
_cell_formula_units_Z   2
loop_
 _symmetry_equiv_pos_site_id
 _symmetry_equiv_pos_as_xyz
  1  'x, y, z'
loop_
 _atom_site_type_symbol
 _atom_site_label
 _atom_site_symmetry_multiplicity
 _atom_site_fract_x
 _atom_site_fract_y
 _atom_site_fract_z
 _atom_site_occupancy
  Cs  Cs0  1  0.627768  0.727617  0.700913  1
  Cs  Cs1  1  0.127768  0.272383  0.799087  1
  Rb  Rb2  1  0.376471  0.263745  0.295876  1
  Rb  Rb3  1  0.876471  0.736255  0.204124  1
  Br  Br4  1  0.365241  0.547914  0.507218  1
  Br  Br5  1  0.865241  0.452086  0.992782  1
  Br  Br6  1  0.634653  0.459080  0.477470  1
  Br  Br7  1  0.134653  0.540920  0.022530  1
  Br  Br8  1  0.042488  0.665318  0.552562  1
  Br  Br9  1  0.542488  0.334682  0.947438  1
  Br  Br10  1  0.954410  0.343366  0.433603  1
  Br  Br11  1  0.454410  0.656634  0.066397  1
  Br  Br12  1  0.201330  0.871276  0.600458  1
  Br  Br13  1  0.701330  0.128724  0.899542  1
  Br  Br14  1  0.796560  0.137133  0.384857  1
  Br  Br15  1  0.296560  0.862867  0.115143  1
  Br  Br16  1  0.371501  0.060789  0.643555  1
  Br  Br17  1  0.871501  0.939211  0.856445  1
  Br  Br18  1  0.629575  0.948913  0.337425  1
  Br  Br19  1  0.129575  0.051087  0.162575  1
