# generated using pymatgen
data_Y3Bi5O14
_symmetry_space_group_name_H-M   'P 1'
_cell_length_a   6.64140242
_cell_length_b   6.75905082
_cell_length_c   7.83188951
_cell_angle_alpha   106.70501318
_cell_angle_beta   89.60547575
_cell_angle_gamma   98.71076549
_symmetry_Int_Tables_number   1
_chemical_formula_structural   Y3Bi5O14
_chemical_formula_sum   'Y3 Bi5 O14'
_cell_volume   332.59949553
_cell_formula_units_Z   1
loop_
 _symmetry_equiv_pos_site_id
 _symmetry_equiv_pos_as_xyz
  1  'x, y, z'
loop_
 _atom_site_type_symbol
 _atom_site_label
 _atom_site_symmetry_multiplicity
 _atom_site_fract_x
 _atom_site_fract_y
 _atom_site_fract_z
 _atom_site_occupancy
  Y  Y0  1  0.462037  0.001397  0.252343  1
  Y  Y1  1  0.539687  0.995855  0.752206  1
  Y  Y2  1  0.262802  0.535341  0.885048  1
  Bi  Bi3  1  0.002691  0.007225  0.501755  1
  Bi  Bi4  1  0.003296  0.001395  0.999276  1
  Bi  Bi5  1  0.738044  0.480124  0.115977  1
  Bi  Bi6  1  0.721234  0.464111  0.614187  1
  Bi  Bi7  1  0.268576  0.527272  0.392375  1
  O  O8  1  0.450311  0.650205  0.165229  1
  O  O9  1  0.540320  0.345416  0.823627  1
  O  O10  1  0.302739  0.917907  0.951169  1
  O  O11  1  0.698138  0.053171  0.048601  1
  O  O12  1  0.299332  0.921072  0.513163  1
  O  O13  1  0.701512  0.083952  0.490771  1
  O  O14  1  0.531675  0.355138  0.351476  1
  O  O15  1  0.455537  0.643113  0.658014  1
  O  O16  1  0.935022  0.669390  0.959103  1
  O  O17  1  0.084479  0.323723  0.030268  1
  O  O18  1  0.096289  0.334093  0.623622  1
  O  O19  1  0.902880  0.683311  0.371842  1
  O  O20  1  0.878382  0.927112  0.731363  1
  O  O21  1  0.125017  0.079679  0.268585  1
