# generated using pymatgen
data_Pr6HoRhO12
_symmetry_space_group_name_H-M   'P 1'
_cell_length_a   6.89990502
_cell_length_b   6.89990601
_cell_length_c   6.89990500
_cell_angle_alpha   97.05918621
_cell_angle_beta   97.05917885
_cell_angle_gamma   97.05919019
_symmetry_Int_Tables_number   1
_chemical_formula_structural   Pr6HoRhO12
_chemical_formula_sum   'Pr6 Ho1 Rh1 O12'
_cell_volume   320.34265760
_cell_formula_units_Z   1
loop_
 _symmetry_equiv_pos_site_id
 _symmetry_equiv_pos_as_xyz
  1  'x, y, z'
loop_
 _atom_site_type_symbol
 _atom_site_label
 _atom_site_symmetry_multiplicity
 _atom_site_fract_x
 _atom_site_fract_y
 _atom_site_fract_z
 _atom_site_occupancy
  Pr  Pr0  1  0.725132  0.898849  0.412650  1
  Pr  Pr1  1  0.412650  0.725132  0.898849  1
  Pr  Pr2  1  0.101151  0.587350  0.274868  1
  Pr  Pr3  1  0.898849  0.412650  0.725132  1
  Pr  Pr4  1  0.587350  0.274868  0.101151  1
  Pr  Pr5  1  0.274868  0.101151  0.587350  1
  Ho  Ho6  1  0.000000  0.000000  0.000000  1
  Rh  Rh7  1  0.500000  0.500000  0.500000  1
  O  O8  1  0.061876  0.924981  0.313715  1
  O  O9  1  0.686285  0.938124  0.075019  1
  O  O10  1  0.439225  0.792950  0.571247  1
  O  O11  1  0.075019  0.686285  0.938124  1
  O  O12  1  0.792950  0.571247  0.439225  1
  O  O13  1  0.428753  0.560775  0.207050  1
  O  O14  1  0.571247  0.439225  0.792950  1
  O  O15  1  0.207050  0.428753  0.560775  1
  O  O16  1  0.924981  0.313715  0.061876  1
  O  O17  1  0.560775  0.207050  0.428753  1
  O  O18  1  0.313715  0.061876  0.924981  1
  O  O19  1  0.938124  0.075019  0.686285  1
