# generated using pymatgen
data_LiDy3CoAg4
_symmetry_space_group_name_H-M   'P 1'
_cell_length_a   7.76787700
_cell_length_b   7.76787704
_cell_length_c   3.53919800
_cell_angle_alpha   90.00000000
_cell_angle_beta   90.00000000
_cell_angle_gamma   120.00001259
_symmetry_Int_Tables_number   1
_chemical_formula_structural   LiDy3CoAg4
_chemical_formula_sum   'Li1 Dy3 Co1 Ag4'
_cell_volume   184.94394584
_cell_formula_units_Z   1
loop_
 _symmetry_equiv_pos_site_id
 _symmetry_equiv_pos_as_xyz
  1  'x, y, z'
loop_
 _atom_site_type_symbol
 _atom_site_label
 _atom_site_symmetry_multiplicity
 _atom_site_fract_x
 _atom_site_fract_y
 _atom_site_fract_z
 _atom_site_occupancy
  Li  Li0  1  0.666667  0.333333  0.500000  1
  Dy  Dy1  1  0.055031  0.295258  0.500000  1
  Dy  Dy2  1  0.704742  0.759772  0.500000  1
  Dy  Dy3  1  0.240228  0.944969  0.500000  1
  Co  Co4  1  0.000000  0.000000  0.000000  1
  Ag  Ag5  1  0.662858  0.072373  0.000000  1
  Ag  Ag6  1  0.927627  0.590485  0.000000  1
  Ag  Ag7  1  0.409515  0.337142  0.000000  1
  Ag  Ag8  1  0.333333  0.666667  0.000000  1
