# generated using pymatgen
data_Tm2Os3W
_symmetry_space_group_name_H-M   'P 1'
_cell_length_a   5.47601601
_cell_length_b   5.47601570
_cell_length_c   8.45055900
_cell_angle_alpha   90.00000000
_cell_angle_beta   90.00000000
_cell_angle_gamma   119.98413987
_symmetry_Int_Tables_number   1
_chemical_formula_structural   Tm2Os3W
_chemical_formula_sum   'Tm4 Os6 W2'
_cell_volume   219.49005600
_cell_formula_units_Z   2
loop_
 _symmetry_equiv_pos_site_id
 _symmetry_equiv_pos_as_xyz
  1  'x, y, z'
loop_
 _atom_site_type_symbol
 _atom_site_label
 _atom_site_symmetry_multiplicity
 _atom_site_fract_x
 _atom_site_fract_y
 _atom_site_fract_z
 _atom_site_occupancy
  Tm  Tm0  1  0.666677  0.333323  0.564559  1
  Tm  Tm1  1  0.333323  0.666677  0.435441  1
  Tm  Tm2  1  0.333323  0.666677  0.064559  1
  Tm  Tm3  1  0.666677  0.333323  0.935441  1
  Os  Os4  1  0.173226  0.346445  0.750000  1
  Os  Os5  1  0.173223  0.826777  0.750000  1
  Os  Os6  1  0.653555  0.826774  0.750000  1
  Os  Os7  1  0.826774  0.653555  0.250000  1
  Os  Os8  1  0.826777  0.173223  0.250000  1
  Os  Os9  1  0.346445  0.173226  0.250000  1
  W  W10  1  0.000000  0.000000  0.500000  1
  W  W11  1  0.000000  0.000000  0.000000  1
