# generated using pymatgen
data_Ce2Dy3Pu(Al3Ru)8
_symmetry_space_group_name_H-M   'P 1'
_cell_length_a   8.85061530
_cell_length_b   8.82715912
_cell_length_c   9.54934900
_cell_angle_alpha   90.00000000
_cell_angle_beta   90.00000000
_cell_angle_gamma   119.91236251
_symmetry_Int_Tables_number   1
_chemical_formula_structural   Ce2Dy3Pu(Al3Ru)8
_chemical_formula_sum   'Ce2 Dy3 Pu1 Al24 Ru8'
_cell_volume   646.66843452
_cell_formula_units_Z   1
loop_
 _symmetry_equiv_pos_site_id
 _symmetry_equiv_pos_as_xyz
  1  'x, y, z'
loop_
 _atom_site_type_symbol
 _atom_site_label
 _atom_site_symmetry_multiplicity
 _atom_site_fract_x
 _atom_site_fract_y
 _atom_site_fract_z
 _atom_site_occupancy
  Ce  Ce0  1  0.195951  0.803306  0.250000  1
  Ce  Ce1  1  0.195951  0.392646  0.250000  1
  Dy  Dy2  1  0.808175  0.193087  0.750000  1
  Dy  Dy3  1  0.808175  0.615088  0.750000  1
  Dy  Dy4  1  0.385586  0.192793  0.750000  1
  Pu  Pu5  1  0.607211  0.803605  0.250000  1
  Al  Al6  1  0.563715  0.438722  0.250000  1
  Al  Al7  1  0.563715  0.124993  0.250000  1
  Al  Al8  1  0.871832  0.435915  0.250000  1
  Al  Al9  1  0.440995  0.560499  0.750000  1
  Al  Al10  1  0.440995  0.880496  0.750000  1
  Al  Al11  1  0.120129  0.560064  0.750000  1
  Al  Al12  1  0.325306  0.162654  0.424213  1
  Al  Al13  1  0.836423  0.160866  0.422926  1
  Al  Al14  1  0.836423  0.675557  0.422926  1
  Al  Al15  1  0.676229  0.838114  0.577651  1
  Al  Al16  1  0.162639  0.837882  0.579178  1
  Al  Al17  1  0.162639  0.324756  0.579178  1
  Al  Al18  1  0.676229  0.838114  0.922349  1
  Al  Al19  1  0.162639  0.837882  0.920822  1
  Al  Al20  1  0.162639  0.324756  0.920822  1
  Al  Al21  1  0.325306  0.162654  0.075787  1
  Al  Al22  1  0.836423  0.160866  0.077074  1
  Al  Al23  1  0.836423  0.675557  0.077074  1
  Al  Al24  1  0.666600  0.333300  0.519173  1
  Al  Al25  1  0.333566  0.666784  0.488712  1
  Al  Al26  1  0.333566  0.666784  0.011288  1
  Al  Al27  1  0.666600  0.333300  0.980827  1
  Al  Al28  1  0.994429  0.997214  0.250000  1
  Al  Al29  1  0.001532  0.000766  0.750000  1
  Ru  Ru30  1  0.000352  0.000176  0.500840  1
  Ru  Ru31  1  0.000352  0.000176  0.999160  1
  Ru  Ru32  1  0.500108  0.501865  0.496961  1
  Ru  Ru33  1  0.500108  0.998244  0.496961  1
  Ru  Ru34  1  0.000409  0.500205  0.497503  1
  Ru  Ru35  1  0.500108  0.501865  0.003039  1
  Ru  Ru36  1  0.500108  0.998244  0.003039  1
  Ru  Ru37  1  0.000409  0.500205  0.002497  1
