# generated using pymatgen
data_Na(TbB8)3
_symmetry_space_group_name_H-M   'P 1'
_cell_length_a   7.06514933
_cell_length_b   7.06514989
_cell_length_c   5.88306400
_cell_angle_alpha   90.00000000
_cell_angle_beta   90.00000000
_cell_angle_gamma   108.80197266
_symmetry_Int_Tables_number   1
_chemical_formula_structural   Na(TbB8)3
_chemical_formula_sum   'Na1 Tb3 B24'
_cell_volume   277.99072611
_cell_formula_units_Z   1
loop_
 _symmetry_equiv_pos_site_id
 _symmetry_equiv_pos_as_xyz
  1  'x, y, z'
loop_
 _atom_site_type_symbol
 _atom_site_label
 _atom_site_symmetry_multiplicity
 _atom_site_fract_x
 _atom_site_fract_y
 _atom_site_fract_z
 _atom_site_occupancy
  Na  Na0  1  0.000000  0.000000  0.000000  1
  Tb  Tb1  1  0.752686  0.247314  0.500000  1
  Tb  Tb2  1  0.500000  0.500000  0.000000  1
  Tb  Tb3  1  0.247314  0.752686  0.500000  1
  B  B4  1  0.175322  0.326344  0.649366  1
  B  B5  1  0.922988  0.575467  0.147631  1
  B  B6  1  0.673656  0.824678  0.649366  1
  B  B7  1  0.424533  0.077012  0.147631  1
  B  B8  1  0.175322  0.326344  0.350634  1
  B  B9  1  0.922988  0.575467  0.852369  1
  B  B10  1  0.673656  0.824678  0.350634  1
  B  B11  1  0.424533  0.077012  0.852369  1
  B  B12  1  0.400685  0.400685  0.500000  1
  B  B13  1  0.148329  0.651901  0.000000  1
  B  B14  1  0.899353  0.899353  0.500000  1
  B  B15  1  0.651901  0.148329  0.000000  1
  B  B16  1  0.326344  0.175322  0.649366  1
  B  B17  1  0.077012  0.424533  0.147631  1
  B  B18  1  0.824678  0.673656  0.649366  1
  B  B19  1  0.575467  0.922988  0.147631  1
  B  B20  1  0.100647  0.100647  0.500000  1
  B  B21  1  0.851671  0.348099  0.000000  1
  B  B22  1  0.599315  0.599315  0.500000  1
  B  B23  1  0.348099  0.851671  0.000000  1
  B  B24  1  0.326344  0.175322  0.350634  1
  B  B25  1  0.077012  0.424533  0.852369  1
  B  B26  1  0.824678  0.673656  0.350634  1
  B  B27  1  0.575467  0.922988  0.852369  1
