# generated using pymatgen
data_Er7Zr(Si3Pt)4
_symmetry_space_group_name_H-M   'P 1'
_cell_length_a   8.11057600
_cell_length_b   8.11057613
_cell_length_c   7.95868500
_cell_angle_alpha   90.00000000
_cell_angle_beta   90.00000000
_cell_angle_gamma   119.99999949
_symmetry_Int_Tables_number   1
_chemical_formula_structural   Er7Zr(Si3Pt)4
_chemical_formula_sum   'Er7 Zr1 Si12 Pt4'
_cell_volume   453.39356610
_cell_formula_units_Z   1
loop_
 _symmetry_equiv_pos_site_id
 _symmetry_equiv_pos_as_xyz
  1  'x, y, z'
loop_
 _atom_site_type_symbol
 _atom_site_label
 _atom_site_symmetry_multiplicity
 _atom_site_fract_x
 _atom_site_fract_y
 _atom_site_fract_z
 _atom_site_occupancy
  Er  Er0  1  0.000000  0.000000  0.750000  1
  Er  Er1  1  0.497784  0.502216  0.250000  1
  Er  Er2  1  0.497784  0.995568  0.250000  1
  Er  Er3  1  0.004432  0.502216  0.250000  1
  Er  Er4  1  0.502169  0.497831  0.750000  1
  Er  Er5  1  0.995661  0.497831  0.750000  1
  Er  Er6  1  0.502169  0.004339  0.750000  1
  Zr  Zr7  1  0.000000  0.000000  0.250000  1
  Si  Si8  1  0.835333  0.164667  0.496563  1
  Si  Si9  1  0.835333  0.670669  0.496563  1
  Si  Si10  1  0.329331  0.164667  0.496563  1
  Si  Si11  1  0.835333  0.164667  0.003437  1
  Si  Si12  1  0.835333  0.670669  0.003437  1
  Si  Si13  1  0.329331  0.164667  0.003437  1
  Si  Si14  1  0.164759  0.835241  0.000061  1
  Si  Si15  1  0.670483  0.835241  0.000061  1
  Si  Si16  1  0.164759  0.329517  0.000061  1
  Si  Si17  1  0.164759  0.835241  0.499939  1
  Si  Si18  1  0.670483  0.835241  0.499939  1
  Si  Si19  1  0.164759  0.329517  0.499939  1
  Pt  Pt20  1  0.666667  0.333333  0.494283  1
  Pt  Pt21  1  0.666667  0.333333  0.005717  1
  Pt  Pt22  1  0.333333  0.666667  0.995513  1
  Pt  Pt23  1  0.333333  0.666667  0.504487  1
