# generated using pymatgen
data_DyLu3Ga5Ru3
_symmetry_space_group_name_H-M   'P 1'
_cell_length_a   5.32799988
_cell_length_b   5.34892293
_cell_length_c   8.78184539
_cell_angle_alpha   90.00007900
_cell_angle_beta   90.11019036
_cell_angle_gamma   120.12993321
_symmetry_Int_Tables_number   1
_chemical_formula_structural   DyLu3Ga5Ru3
_chemical_formula_sum   'Dy1 Lu3 Ga5 Ru3'
_cell_volume   216.45906664
_cell_formula_units_Z   1
loop_
 _symmetry_equiv_pos_site_id
 _symmetry_equiv_pos_as_xyz
  1  'x, y, z'
loop_
 _atom_site_type_symbol
 _atom_site_label
 _atom_site_symmetry_multiplicity
 _atom_site_fract_x
 _atom_site_fract_y
 _atom_site_fract_z
 _atom_site_occupancy
  Dy  Dy0  1  0.659979  0.329998  0.945862  1
  Lu  Lu1  1  0.660217  0.330132  0.552598  1
  Lu  Lu2  1  0.341269  0.670704  0.439950  1
  Lu  Lu3  1  0.340772  0.670462  0.061086  1
  Ga  Ga4  1  0.161746  0.330785  0.749236  1
  Ga  Ga5  1  0.161694  0.830879  0.749271  1
  Ga  Ga6  1  0.665205  0.832644  0.749208  1
  Ga  Ga7  1  0.838236  0.668048  0.250828  1
  Ga  Ga8  1  0.838326  0.170213  0.250837  1
  Ru  Ru9  1  0.992558  0.996174  0.501733  1
  Ru  Ru10  1  0.993371  0.996622  0.998589  1
  Ru  Ru11  1  0.346626  0.173339  0.250803  1
