# generated using pymatgen
data_Y2Er13Tm(InRh)4
_symmetry_space_group_name_H-M   'P 1'
_cell_length_a   9.59546482
_cell_length_b   9.59138611
_cell_length_c   9.60598100
_cell_angle_alpha   59.94965434
_cell_angle_beta   59.96374300
_cell_angle_gamma   59.92555557
_symmetry_Int_Tables_number   1
_chemical_formula_structural   Y2Er13Tm(InRh)4
_chemical_formula_sum   'Y2 Er13 Tm1 In4 Rh4'
_cell_volume   624.37417604
_cell_formula_units_Z   1
loop_
 _symmetry_equiv_pos_site_id
 _symmetry_equiv_pos_as_xyz
  1  'x, y, z'
loop_
 _atom_site_type_symbol
 _atom_site_label
 _atom_site_symmetry_multiplicity
 _atom_site_fract_x
 _atom_site_fract_y
 _atom_site_fract_z
 _atom_site_occupancy
  Y  Y0  1  0.437230  0.062066  0.061725  1
  Y  Y1  1  0.437230  0.062066  0.438979  1
  Er  Er2  1  0.061166  0.438479  0.062059  1
  Er  Er3  1  0.648956  0.049350  0.650847  1
  Er  Er4  1  0.189840  0.810710  0.810909  1
  Er  Er5  1  0.059900  0.061015  0.439543  1
  Er  Er6  1  0.811842  0.189895  0.188082  1
  Er  Er7  1  0.811937  0.810043  0.189010  1
  Er  Er8  1  0.650498  0.650098  0.047855  1
  Er  Er9  1  0.650498  0.650098  0.651549  1
  Er  Er10  1  0.061166  0.438479  0.438297  1
  Er  Er11  1  0.049307  0.648620  0.651037  1
  Er  Er12  1  0.811842  0.189895  0.810180  1
  Er  Er13  1  0.437840  0.439806  0.061177  1
  Er  Er14  1  0.189840  0.810710  0.188540  1
  Tm  Tm15  1  0.188660  0.189322  0.811009  1
  In  In16  1  0.416977  0.748192  0.417415  1
  In  In17  1  0.416787  0.417337  0.749369  1
  In  In18  1  0.749768  0.416715  0.416758  1
  In  In19  1  0.416787  0.417337  0.416507  1
  Rh  Rh20  1  0.857415  0.427350  0.857618  1
  Rh  Rh21  1  0.858811  0.857764  0.426809  1
  Rh  Rh22  1  0.426889  0.856885  0.858113  1
  Rh  Rh23  1  0.858811  0.857764  0.856616  1
