# generated using pymatgen
data_La3Y2P12Ru17Rh2
_symmetry_space_group_name_H-M   'P 1'
_cell_length_a   12.68771300
_cell_length_b   12.63478124
_cell_length_c   4.02656100
_cell_angle_alpha   90.00000000
_cell_angle_beta   90.00000000
_cell_angle_gamma   120.13867761
_symmetry_Int_Tables_number   1
_chemical_formula_structural   La3Y2P12Ru17Rh2
_chemical_formula_sum   'La3 Y2 P12 Ru17 Rh2'
_cell_volume   558.22258503
_cell_formula_units_Z   1
loop_
 _symmetry_equiv_pos_site_id
 _symmetry_equiv_pos_as_xyz
  1  'x, y, z'
loop_
 _atom_site_type_symbol
 _atom_site_label
 _atom_site_symmetry_multiplicity
 _atom_site_fract_x
 _atom_site_fract_y
 _atom_site_fract_z
 _atom_site_occupancy
  La  La0  1  0.000938  0.182994  0.500000  1
  La  La1  1  0.817944  0.817006  0.500000  1
  La  La2  1  0.183635  0.000000  0.500000  1
  Y  Y3  1  0.665567  0.331105  0.000000  1
  Y  Y4  1  0.334462  0.668895  0.000000  1
  P  P5  1  0.999280  0.808045  0.000000  1
  P  P6  1  0.191235  0.191955  0.000000  1
  P  P7  1  0.810255  0.000000  0.000000  1
  P  P8  1  0.695595  0.174117  0.500000  1
  P  P9  1  0.820274  0.518701  0.500000  1
  P  P10  1  0.478564  0.300982  0.500000  1
  P  P11  1  0.177582  0.699018  0.500000  1
  P  P12  1  0.521479  0.825883  0.500000  1
  P  P13  1  0.301573  0.481299  0.500000  1
  P  P14  1  0.000148  0.373161  0.000000  1
  P  P15  1  0.626987  0.626839  0.000000  1
  P  P16  1  0.375726  0.000000  0.000000  1
  Ru  Ru17  1  0.554336  0.000000  0.000000  1
  Ru  Ru18  1  0.998997  0.708420  0.500000  1
  Ru  Ru19  1  0.290577  0.291580  0.500000  1
  Ru  Ru20  1  0.712193  0.000000  0.500000  1
  Ru  Ru21  1  0.804355  0.186143  0.000000  1
  Ru  Ru22  1  0.812907  0.616183  0.000000  1
  Ru  Ru23  1  0.381318  0.195689  0.000000  1
  Ru  Ru24  1  0.185629  0.804311  0.000000  1
  Ru  Ru25  1  0.618213  0.813857  0.000000  1
  Ru  Ru26  1  0.196725  0.383817  0.000000  1
  Ru  Ru27  1  0.873766  0.368397  0.500000  1
  Ru  Ru28  1  0.629357  0.505394  0.500000  1
  Ru  Ru29  1  0.494307  0.124991  0.500000  1
  Ru  Ru30  1  0.369316  0.875009  0.500000  1
  Ru  Ru31  1  0.505369  0.631603  0.500000  1
  Ru  Ru32  1  0.123963  0.494606  0.500000  1
  Ru  Ru33  1  0.001041  0.000000  0.000000  1
  Rh  Rh34  1  0.999443  0.552498  0.000000  1
  Rh  Rh35  1  0.446945  0.447502  0.000000  1
