# generated using pymatgen
data_Y3Ho9(OsRh)2
_symmetry_space_group_name_H-M   'P 1'
_cell_length_a   6.39028306
_cell_length_b   7.32145481
_cell_length_c   9.09010600
_cell_angle_alpha   90.00000000
_cell_angle_beta   90.00000000
_cell_angle_gamma   90.19406843
_symmetry_Int_Tables_number   1
_chemical_formula_structural   Y3Ho9(OsRh)2
_chemical_formula_sum   'Y3 Ho9 Os2 Rh2'
_cell_volume   425.28879252
_cell_formula_units_Z   1
loop_
 _symmetry_equiv_pos_site_id
 _symmetry_equiv_pos_as_xyz
  1  'x, y, z'
loop_
 _atom_site_type_symbol
 _atom_site_label
 _atom_site_symmetry_multiplicity
 _atom_site_fract_x
 _atom_site_fract_y
 _atom_site_fract_z
 _atom_site_occupancy
  Y  Y0  1  0.370215  0.964409  0.750000  1
  Y  Y1  1  0.123863  0.462783  0.750000  1
  Y  Y2  1  0.876005  0.536766  0.250000  1
  Ho  Ho3  1  0.631234  0.037222  0.250000  1
  Ho  Ho4  1  0.175602  0.179049  0.065707  1
  Ho  Ho5  1  0.824605  0.820816  0.934796  1
  Ho  Ho6  1  0.666418  0.325900  0.939334  1
  Ho  Ho7  1  0.824605  0.820816  0.565204  1
  Ho  Ho8  1  0.334118  0.673857  0.060997  1
  Ho  Ho9  1  0.175602  0.179049  0.434293  1
  Ho  Ho10  1  0.334118  0.673857  0.439003  1
  Ho  Ho11  1  0.666418  0.325900  0.560666  1
  Os  Os12  1  0.463716  0.383072  0.250000  1
  Os  Os13  1  0.537135  0.615843  0.750000  1
  Rh  Rh14  1  0.950503  0.112643  0.750000  1
  Rh  Rh15  1  0.045844  0.888017  0.250000  1
