# generated using pymatgen
data_Tm2AlSi4Ir3
_symmetry_space_group_name_H-M   'P 1'
_cell_length_a   8.17750280
_cell_length_b   8.17750281
_cell_length_c   5.73816900
_cell_angle_alpha   71.65988787
_cell_angle_beta   71.65988786
_cell_angle_gamma   94.24640118
_symmetry_Int_Tables_number   1
_chemical_formula_structural   Tm2AlSi4Ir3
_chemical_formula_sum   'Tm4 Al2 Si8 Ir6'
_cell_volume   339.29132295
_cell_formula_units_Z   2
loop_
 _symmetry_equiv_pos_site_id
 _symmetry_equiv_pos_as_xyz
  1  'x, y, z'
loop_
 _atom_site_type_symbol
 _atom_site_label
 _atom_site_symmetry_multiplicity
 _atom_site_fract_x
 _atom_site_fract_y
 _atom_site_fract_z
 _atom_site_occupancy
  Tm  Tm0  1  0.867198  0.597658  0.758237  1
  Tm  Tm1  1  0.132802  0.402342  0.241763  1
  Tm  Tm2  1  0.402342  0.132802  0.741763  1
  Tm  Tm3  1  0.597658  0.867198  0.258237  1
  Al  Al4  1  0.772728  0.227272  0.750000  1
  Al  Al5  1  0.227272  0.772728  0.250000  1
  Si  Si6  1  0.518445  0.481555  0.750000  1
  Si  Si7  1  0.481555  0.518445  0.250000  1
  Si  Si8  1  0.211555  0.788445  0.750000  1
  Si  Si9  1  0.788445  0.211555  0.250000  1
  Si  Si10  1  0.264682  0.062255  0.337681  1
  Si  Si11  1  0.735318  0.937745  0.662319  1
  Si  Si12  1  0.937745  0.735318  0.162319  1
  Si  Si13  1  0.062255  0.264682  0.837681  1
  Ir  Ir14  1  0.534509  0.259491  0.140000  1
  Ir  Ir15  1  0.740509  0.465491  0.360000  1
  Ir  Ir16  1  0.465491  0.740509  0.860000  1
  Ir  Ir17  1  0.259491  0.534509  0.640000  1
  Ir  Ir18  1  0.993953  0.006047  0.250000  1
  Ir  Ir19  1  0.006047  0.993953  0.750000  1
