# generated using pymatgen
data_Ti6Ga3Cu3N2
_symmetry_space_group_name_H-M   'P 1'
_cell_length_a   8.07268450
_cell_length_b   8.05334965
_cell_length_c   8.05335068
_cell_angle_alpha   59.84020387
_cell_angle_beta   59.92055605
_cell_angle_gamma   59.92054939
_symmetry_Int_Tables_number   1
_chemical_formula_structural   Ti6Ga3Cu3N2
_chemical_formula_sum   'Ti12 Ga6 Cu6 N4'
_cell_volume   369.32407245
_cell_formula_units_Z   2
loop_
 _symmetry_equiv_pos_site_id
 _symmetry_equiv_pos_as_xyz
  1  'x, y, z'
loop_
 _atom_site_type_symbol
 _atom_site_label
 _atom_site_symmetry_multiplicity
 _atom_site_fract_x
 _atom_site_fract_y
 _atom_site_fract_z
 _atom_site_occupancy
  Ti  Ti0  1  0.932366  0.569574  0.565695  1
  Ti  Ti1  1  0.681386  0.318677  0.681098  1
  Ti  Ti2  1  0.931161  0.568902  0.931323  1
  Ti  Ti3  1  0.566296  0.933065  0.934343  1
  Ti  Ti4  1  0.315359  0.685853  0.316261  1
  Ti  Ti5  1  0.567472  0.933739  0.564147  1
  Ti  Ti6  1  0.682528  0.685853  0.316261  1
  Ti  Ti7  1  0.934641  0.933739  0.564147  1
  Ti  Ti8  1  0.318839  0.318677  0.681098  1
  Ti  Ti9  1  0.683704  0.315657  0.316935  1
  Ti  Ti10  1  0.568614  0.568902  0.931323  1
  Ti  Ti11  1  0.317634  0.684305  0.680426  1
  Ga  Ga12  1  0.253305  0.913111  0.919950  1
  Ga  Ga13  1  0.336365  0.330050  0.336889  1
  Ga  Ga14  1  0.337129  0.331158  0.994583  1
  Ga  Ga15  1  0.912871  0.255417  0.918842  1
  Ga  Ga16  1  0.913635  0.913111  0.919950  1
  Ga  Ga17  1  0.996695  0.330050  0.336889  1
  Cu  Cu18  1  0.915248  0.914402  0.255103  1
  Cu  Cu19  1  0.334752  0.994897  0.335598  1
  Cu  Cu20  1  0.126558  0.621195  0.125690  1
  Cu  Cu21  1  0.123442  0.124310  0.628805  1
  Cu  Cu22  1  0.625000  0.125726  0.124274  1
  Cu  Cu23  1  0.125000  0.125726  0.124274  1
  N  N24  1  0.626182  0.123539  0.624098  1
  N  N25  1  0.623818  0.625902  0.126461  1
  N  N26  1  0.125000  0.627233  0.622767  1
  N  N27  1  0.625000  0.627233  0.622767  1
