# generated using pymatgen
data_Tb2Cr3Co9P7
_symmetry_space_group_name_H-M   'P 1'
_cell_length_a   3.64757500
_cell_length_b   8.96917701
_cell_length_c   8.96958305
_cell_angle_alpha   119.99784904
_cell_angle_beta   90.00000000
_cell_angle_gamma   90.00000000
_symmetry_Int_Tables_number   1
_chemical_formula_structural   Tb2Cr3Co9P7
_chemical_formula_sum   'Tb2 Cr3 Co9 P7'
_cell_volume   254.13771744
_cell_formula_units_Z   1
loop_
 _symmetry_equiv_pos_site_id
 _symmetry_equiv_pos_as_xyz
  1  'x, y, z'
loop_
 _atom_site_type_symbol
 _atom_site_label
 _atom_site_symmetry_multiplicity
 _atom_site_fract_x
 _atom_site_fract_y
 _atom_site_fract_z
 _atom_site_occupancy
  Tb  Tb0  1  0.000000  0.666608  0.333283  1
  Tb  Tb1  1  0.500000  0.333374  0.666696  1
  Cr  Cr2  1  0.500000  0.120862  0.905054  1
  Cr  Cr3  1  0.500000  0.094931  0.215784  1
  Cr  Cr4  1  0.500000  0.784226  0.879207  1
  Co  Co5  1  0.000000  0.371860  0.939918  1
  Co  Co6  1  0.000000  0.060098  0.431950  1
  Co  Co7  1  0.000000  0.568050  0.628133  1
  Co  Co8  1  0.000000  0.879661  0.723646  1
  Co  Co9  1  0.000000  0.276357  0.156001  1
  Co  Co10  1  0.000000  0.843995  0.120359  1
  Co  Co11  1  0.500000  0.950812  0.567069  1
  Co  Co12  1  0.500000  0.432926  0.383722  1
  Co  Co13  1  0.500000  0.616225  0.049181  1
  P  P14  1  0.000000  0.111922  0.704868  1
  P  P15  1  0.000000  0.295138  0.407029  1
  P  P16  1  0.000000  0.592952  0.888092  1
  P  P17  1  0.500000  0.709295  0.598075  1
  P  P18  1  0.500000  0.401929  0.111218  1
  P  P19  1  0.500000  0.888782  0.290706  1
  P  P20  1  0.000000  0.999998  0.000008  1
