# generated using pymatgen
data_Tm3CdSn3IrRu
_symmetry_space_group_name_H-M   'P 1'
_cell_length_a   7.77040900
_cell_length_b   7.77040824
_cell_length_c   3.79116900
_cell_angle_alpha   90.00000000
_cell_angle_beta   90.00000000
_cell_angle_gamma   119.99999899
_symmetry_Int_Tables_number   1
_chemical_formula_structural   Tm3CdSn3IrRu
_chemical_formula_sum   'Tm3 Cd1 Sn3 Ir1 Ru1'
_cell_volume   198.24009425
_cell_formula_units_Z   1
loop_
 _symmetry_equiv_pos_site_id
 _symmetry_equiv_pos_as_xyz
  1  'x, y, z'
loop_
 _atom_site_type_symbol
 _atom_site_label
 _atom_site_symmetry_multiplicity
 _atom_site_fract_x
 _atom_site_fract_y
 _atom_site_fract_z
 _atom_site_occupancy
  Tm  Tm0  1  0.968940  0.380673  0.500000  1
  Tm  Tm1  1  0.619327  0.588267  0.500000  1
  Tm  Tm2  1  0.411733  0.031060  0.500000  1
  Cd  Cd3  1  0.333333  0.666667  0.000000  1
  Sn  Sn4  1  0.002627  0.743718  0.000000  1
  Sn  Sn5  1  0.256282  0.258910  0.000000  1
  Sn  Sn6  1  0.741090  0.997373  0.000000  1
  Ir  Ir7  1  0.666667  0.333333  0.000000  1
  Ru  Ru8  1  0.000000  0.000000  0.500000  1
