# generated using pymatgen
data_Ho6Al24Fe5Pt3
_symmetry_space_group_name_H-M   'P 1'
_cell_length_a   8.75186525
_cell_length_b   8.73536343
_cell_length_c   9.37126313
_cell_angle_alpha   90.06322742
_cell_angle_beta   90.00523791
_cell_angle_gamma   119.89142389
_symmetry_Int_Tables_number   1
_chemical_formula_structural   Ho6Al24Fe5Pt3
_chemical_formula_sum   'Ho6 Al24 Fe5 Pt3'
_cell_volume   621.13227582
_cell_formula_units_Z   1
loop_
 _symmetry_equiv_pos_site_id
 _symmetry_equiv_pos_as_xyz
  1  'x, y, z'
loop_
 _atom_site_type_symbol
 _atom_site_label
 _atom_site_symmetry_multiplicity
 _atom_site_fract_x
 _atom_site_fract_y
 _atom_site_fract_z
 _atom_site_occupancy
  Ho  Ho0  1  0.189702  0.386738  0.253281  1
  Ho  Ho1  1  0.810298  0.613262  0.746719  1
  Ho  Ho2  1  0.614215  0.809346  0.251581  1
  Ho  Ho3  1  0.385785  0.190654  0.748419  1
  Ho  Ho4  1  0.191930  0.805182  0.251619  1
  Ho  Ho5  1  0.808070  0.194818  0.748381  1
  Al  Al6  1  0.320538  0.660311  0.022540  1
  Al  Al7  1  0.679462  0.339689  0.977460  1
  Al  Al8  1  0.672306  0.327772  0.521133  1
  Al  Al9  1  0.327694  0.672228  0.478867  1
  Al  Al10  1  0.153338  0.321859  0.575582  1
  Al  Al11  1  0.846662  0.678141  0.424418  1
  Al  Al12  1  0.679625  0.847209  0.575231  1
  Al  Al13  1  0.847556  0.679955  0.076811  1
  Al  Al14  1  0.320375  0.152791  0.424769  1
  Al  Al15  1  0.152444  0.320045  0.923189  1
  Al  Al16  1  0.161366  0.837537  0.575647  1
  Al  Al17  1  0.316446  0.158285  0.078290  1
  Al  Al18  1  0.838634  0.162463  0.424353  1
  Al  Al19  1  0.683554  0.841715  0.921710  1
  Al  Al20  1  0.846679  0.167864  0.077646  1
  Al  Al21  1  0.153321  0.832136  0.922354  1
  Al  Al22  1  0.561310  0.122081  0.258525  1
  Al  Al23  1  0.438690  0.877919  0.741475  1
  Al  Al24  1  0.882743  0.441424  0.250124  1
  Al  Al25  1  0.117257  0.558576  0.749876  1
  Al  Al26  1  0.564827  0.435880  0.249987  1
  Al  Al27  1  0.435173  0.564120  0.750013  1
  Al  Al28  1  0.998077  0.000186  0.250350  1
  Al  Al29  1  0.001923  0.999814  0.749650  1
  Fe  Fe30  1  0.000000  0.500000  0.000000  1
  Fe  Fe31  1  0.500000  0.000000  0.500000  1
  Fe  Fe32  1  0.000000  0.500000  0.500000  1
  Fe  Fe33  1  0.000000  0.000000  0.000000  1
  Fe  Fe34  1  0.000000  0.000000  0.500000  1
  Pt  Pt35  1  0.500000  0.000000  0.000000  1
  Pt  Pt36  1  0.500000  0.500000  0.000000  1
  Pt  Pt37  1  0.500000  0.500000  0.500000  1
