# generated using pymatgen
data_CaHoTm2(B6Os)2
_symmetry_space_group_name_H-M   'P 1'
_cell_length_a   3.62446500
_cell_length_b   9.11885895
_cell_length_c   11.51895806
_cell_angle_alpha   89.82233803
_cell_angle_beta   90.00000000
_cell_angle_gamma   90.00000000
_symmetry_Int_Tables_number   1
_chemical_formula_structural   CaHoTm2(B6Os)2
_chemical_formula_sum   'Ca2 Ho2 Tm4 B24 Os4'
_cell_volume   380.71108105
_cell_formula_units_Z   2
loop_
 _symmetry_equiv_pos_site_id
 _symmetry_equiv_pos_as_xyz
  1  'x, y, z'
loop_
 _atom_site_type_symbol
 _atom_site_label
 _atom_site_symmetry_multiplicity
 _atom_site_fract_x
 _atom_site_fract_y
 _atom_site_fract_z
 _atom_site_occupancy
  Ca  Ca0  1  0.000000  0.323186  0.414651  1
  Ca  Ca1  1  0.000000  0.676814  0.585349  1
  Ho  Ho2  1  0.000000  0.821782  0.086218  1
  Ho  Ho3  1  0.000000  0.178218  0.913782  1
  Tm  Tm4  1  0.000000  0.942496  0.370223  1
  Tm  Tm5  1  0.000000  0.057504  0.629778  1
  Tm  Tm6  1  0.000000  0.442983  0.129622  1
  Tm  Tm7  1  0.000000  0.557017  0.870377  1
  B  B8  1  0.500000  0.554356  0.431814  1
  B  B9  1  0.500000  0.445644  0.568186  1
  B  B10  1  0.500000  0.053581  0.066259  1
  B  B11  1  0.500000  0.946419  0.933741  1
  B  B12  1  0.500000  0.748988  0.417087  1
  B  B13  1  0.500000  0.251012  0.582913  1
  B  B14  1  0.500000  0.248688  0.080651  1
  B  B15  1  0.500000  0.751312  0.919349  1
  B  B16  1  0.500000  0.791857  0.264020  1
  B  B17  1  0.500000  0.208143  0.735980  1
  B  B18  1  0.500000  0.290261  0.233336  1
  B  B19  1  0.500000  0.709738  0.766664  1
  B  B20  1  0.500000  0.631208  0.184355  1
  B  B21  1  0.500000  0.368792  0.815645  1
  B  B22  1  0.500000  0.129993  0.313369  1
  B  B23  1  0.500000  0.870007  0.686631  1
  B  B24  1  0.500000  0.982415  0.211382  1
  B  B25  1  0.500000  0.017585  0.788618  1
  B  B26  1  0.500000  0.483655  0.286868  1
  B  B27  1  0.500000  0.516345  0.713132  1
  B  B28  1  0.500000  0.602994  0.028278  1
  B  B29  1  0.500000  0.397006  0.971722  1
  B  B30  1  0.500000  0.098460  0.472756  1
  B  B31  1  0.500000  0.901540  0.527244  1
  Os  Os32  1  0.000000  0.640531  0.317470  1
  Os  Os33  1  0.000000  0.359469  0.682530  1
  Os  Os34  1  0.000000  0.136559  0.177268  1
  Os  Os35  1  0.000000  0.863441  0.822732  1
