# generated using pymatgen
data_KTl7Fe8P8(O4F)8
_symmetry_space_group_name_H-M   'P 1'
_cell_length_a   6.44680100
_cell_length_b   10.80440100
_cell_length_c   13.05242200
_cell_angle_alpha   90.00000000
_cell_angle_beta   90.00000000
_cell_angle_gamma   90.00000000
_symmetry_Int_Tables_number   1
_chemical_formula_structural   KTl7Fe8P8(O4F)8
_chemical_formula_sum   'K1 Tl7 Fe8 P8 O32 F8'
_cell_volume   909.15109394
_cell_formula_units_Z   1
loop_
 _symmetry_equiv_pos_site_id
 _symmetry_equiv_pos_as_xyz
  1  'x, y, z'
loop_
 _atom_site_type_symbol
 _atom_site_label
 _atom_site_symmetry_multiplicity
 _atom_site_fract_x
 _atom_site_fract_y
 _atom_site_fract_z
 _atom_site_occupancy
  K  K0  1  0.224277  0.700643  0.622678  1
  Tl  Tl1  1  0.779239  0.190371  0.384723  1
  Tl  Tl2  1  0.313096  0.940133  0.898994  1
  Tl  Tl3  1  0.808535  0.439607  0.601452  1
  Tl  Tl4  1  0.189638  0.940808  0.398536  1
  Tl  Tl5  1  0.688093  0.440284  0.100863  1
  Tl  Tl6  1  0.279196  0.689665  0.115262  1
  Tl  Tl7  1  0.721028  0.190339  0.884478  1
  Fe  Fe8  1  0.751341  0.749512  0.253824  1
  Fe  Fe9  1  0.248021  0.249204  0.746168  1
  Fe  Fe10  1  0.749710  0.748150  0.752519  1
  Fe  Fe11  1  0.252024  0.250237  0.246267  1
  Fe  Fe12  1  0.490407  0.500040  0.389799  1
  Fe  Fe13  1  0.508316  0.998327  0.611752  1
  Fe  Fe14  1  0.008823  0.499648  0.887138  1
  Fe  Fe15  1  0.991821  0.999185  0.111547  1
  P  P16  1  0.997707  0.496839  0.316925  1
  P  P17  1  0.498557  0.996613  0.183459  1
  P  P18  1  0.501535  0.497034  0.815270  1
  P  P19  1  0.001800  0.995664  0.683396  1
  P  P20  1  0.171682  0.250045  0.000719  1
  P  P21  1  0.828464  0.749560  0.998457  1
  P  P22  1  0.327898  0.248996  0.500954  1
  P  P23  1  0.671029  0.747365  0.500266  1
  O  O24  1  0.306243  0.968303  0.115643  1
  O  O25  1  0.811794  0.023144  0.614981  1
  O  O26  1  0.312438  0.523982  0.884573  1
  O  O27  1  0.688147  0.023790  0.114657  1
  O  O28  1  0.039607  0.383461  0.245772  1
  O  O29  1  0.960662  0.882054  0.754401  1
  O  O30  1  0.459559  0.383172  0.744600  1
  O  O31  1  0.540181  0.883519  0.254873  1
  O  O32  1  0.521534  0.859796  0.513210  1
  O  O33  1  0.478039  0.361254  0.489137  1
  O  O34  1  0.977951  0.862145  0.010596  1
  O  O35  1  0.021795  0.362378  0.988338  1
  O  O36  1  0.804914  0.469172  0.384586  1
  O  O37  1  0.193561  0.966896  0.615550  1
  O  O38  1  0.694708  0.469641  0.882727  1
  O  O39  1  0.186708  0.524194  0.386072  1
  O  O40  1  0.528943  0.631009  0.490769  1
  O  O41  1  0.465191  0.130974  0.513024  1
  O  O42  1  0.966815  0.631999  0.986020  1
  O  O43  1  0.451916  0.108798  0.255000  1
  O  O44  1  0.807444  0.764695  0.404355  1
  O  O45  1  0.187973  0.266480  0.595526  1
  O  O46  1  0.689175  0.766346  0.903510  1
  O  O47  1  0.311358  0.267746  0.095391  1
  O  O48  1  0.699658  0.733311  0.097455  1
  O  O49  1  0.300822  0.233627  0.901843  1
  O  O50  1  0.807824  0.731334  0.596857  1
  O  O51  1  0.199178  0.233218  0.401934  1
  O  O52  1  0.951798  0.608595  0.244770  1
  O  O53  1  0.048584  0.107612  0.755166  1
  O  O54  1  0.546075  0.608784  0.743161  1
  O  O55  1  0.034207  0.132110  0.013072  1
  F  F56  1  0.977452  0.868973  0.224423  1
  F  F57  1  0.022322  0.368489  0.775354  1
  F  F58  1  0.521694  0.866615  0.723640  1
  F  F59  1  0.477158  0.369663  0.276168  1
  F  F60  1  0.028274  0.123264  0.225665  1
  F  F61  1  0.977466  0.622709  0.770732  1
  F  F62  1  0.471846  0.122280  0.725880  1
  F  F63  1  0.526752  0.623403  0.275124  1
