# generated using pymatgen
data_Hf3TiPt2N
_symmetry_space_group_name_H-M   'P 1'
_cell_length_a   8.63212856
_cell_length_b   8.63233148
_cell_length_c   8.63226300
_cell_angle_alpha   60.00016242
_cell_angle_beta   59.99942763
_cell_angle_gamma   59.99955029
_symmetry_Int_Tables_number   1
_chemical_formula_structural   Hf3TiPt2N
_chemical_formula_sum   'Hf12 Ti4 Pt8 N4'
_cell_volume   454.83392751
_cell_formula_units_Z   4
loop_
 _symmetry_equiv_pos_site_id
 _symmetry_equiv_pos_as_xyz
  1  'x, y, z'
loop_
 _atom_site_type_symbol
 _atom_site_label
 _atom_site_symmetry_multiplicity
 _atom_site_fract_x
 _atom_site_fract_y
 _atom_site_fract_z
 _atom_site_occupancy
  Hf  Hf0  1  0.814643  0.185351  0.185357  1
  Hf  Hf1  1  0.185348  0.814647  0.185356  1
  Hf  Hf2  1  0.814646  0.814652  0.185353  1
  Hf  Hf3  1  0.185350  0.814649  0.814648  1
  Hf  Hf4  1  0.814642  0.185356  0.814644  1
  Hf  Hf5  1  0.185352  0.185352  0.814645  1
  Hf  Hf6  1  0.435357  0.064649  0.064643  1
  Hf  Hf7  1  0.064652  0.435353  0.064644  1
  Hf  Hf8  1  0.435354  0.435348  0.064647  1
  Hf  Hf9  1  0.064650  0.435351  0.435352  1
  Hf  Hf10  1  0.435358  0.064644  0.435356  1
  Hf  Hf11  1  0.064648  0.064648  0.435355  1
  Ti  Ti12  1  0.625000  0.625000  0.125000  1
  Ti  Ti13  1  0.625000  0.625000  0.625000  1
  Ti  Ti14  1  0.125000  0.625000  0.625000  1
  Ti  Ti15  1  0.625000  0.125000  0.625000  1
  Pt  Pt16  1  0.410001  0.409979  0.770028  1
  Pt  Pt17  1  0.409998  0.409975  0.409992  1
  Pt  Pt18  1  0.770027  0.409983  0.409996  1
  Pt  Pt19  1  0.409994  0.770042  0.409984  1
  Pt  Pt20  1  0.839999  0.840021  0.479972  1
  Pt  Pt21  1  0.840002  0.840025  0.840008  1
  Pt  Pt22  1  0.479973  0.840017  0.840004  1
  Pt  Pt23  1  0.840006  0.479958  0.840016  1
  N  N24  1  0.125000  0.125000  0.625000  1
  N  N25  1  0.125000  0.125000  0.125000  1
  N  N26  1  0.625000  0.125000  0.125000  1
  N  N27  1  0.125000  0.625000  0.125000  1
