# generated using pymatgen
data_Dy10AlIn2Sb3
_symmetry_space_group_name_H-M   'P 1'
_cell_length_a   6.53930400
_cell_length_b   8.92548646
_cell_length_c   8.94773006
_cell_angle_alpha   120.09510914
_cell_angle_beta   90.00294875
_cell_angle_gamma   89.99934317
_symmetry_Int_Tables_number   1
_chemical_formula_structural   Dy10AlIn2Sb3
_chemical_formula_sum   'Dy10 Al1 In2 Sb3'
_cell_volume   451.84544531
_cell_formula_units_Z   1
loop_
 _symmetry_equiv_pos_site_id
 _symmetry_equiv_pos_as_xyz
  1  'x, y, z'
loop_
 _atom_site_type_symbol
 _atom_site_label
 _atom_site_symmetry_multiplicity
 _atom_site_fract_x
 _atom_site_fract_y
 _atom_site_fract_z
 _atom_site_occupancy
  Dy  Dy0  1  0.498175  0.336131  0.672591  1
  Dy  Dy1  1  0.498586  0.658142  0.325509  1
  Dy  Dy2  1  0.001439  0.658060  0.325419  1
  Dy  Dy3  1  0.001821  0.336183  0.672594  1
  Dy  Dy4  1  0.750026  0.238737  0.005759  1
  Dy  Dy5  1  0.749957  0.759992  0.765610  1
  Dy  Dy6  1  0.749986  0.999777  0.239958  1
  Dy  Dy7  1  0.250074  0.758051  0.997095  1
  Dy  Dy8  1  0.250042  0.243007  0.229908  1
  Dy  Dy9  1  0.249936  0.008442  0.765595  1
  Al  Al10  1  0.250032  0.399289  0.996267  1
  In  In11  1  0.749977  0.600125  0.999557  1
  In  In12  1  0.749895  0.396124  0.399646  1
  Sb  Sb13  1  0.750045  0.997490  0.606253  1
  Sb  Sb14  1  0.250032  0.609524  0.606343  1
  Sb  Sb15  1  0.249982  0.000927  0.391898  1
