# generated using pymatgen
data_Th4Al51Cr7
_symmetry_space_group_name_H-M   'P 1'
_cell_length_a   10.23899600
_cell_length_b   10.23899631
_cell_length_c   11.50998400
_cell_angle_alpha   90.00000000
_cell_angle_beta   90.00000000
_cell_angle_gamma   119.99999901
_symmetry_Int_Tables_number   1
_chemical_formula_structural   Th4Al51Cr7
_chemical_formula_sum   'Th4 Al51 Cr7'
_cell_volume   1045.00920427
_cell_formula_units_Z   1
loop_
 _symmetry_equiv_pos_site_id
 _symmetry_equiv_pos_as_xyz
  1  'x, y, z'
loop_
 _atom_site_type_symbol
 _atom_site_label
 _atom_site_symmetry_multiplicity
 _atom_site_fract_x
 _atom_site_fract_y
 _atom_site_fract_z
 _atom_site_occupancy
  Th  Th0  1  0.000000  0.000000  0.148130  1
  Th  Th1  1  0.333334  0.666667  0.311526  1
  Th  Th2  1  0.333334  0.666667  0.636623  1
  Th  Th3  1  0.000000  0.000000  0.823054  1
  Al  Al4  1  0.245424  0.490848  0.075079  1
  Al  Al5  1  0.245423  0.754575  0.075079  1
  Al  Al6  1  0.509152  0.754575  0.075079  1
  Al  Al7  1  0.483374  0.241687  0.127223  1
  Al  Al8  1  0.758313  0.241687  0.127223  1
  Al  Al9  1  0.758313  0.516626  0.127223  1
  Al  Al10  1  0.030535  0.333383  0.229807  1
  Al  Al11  1  0.302849  0.333383  0.229807  1
  Al  Al12  1  0.030536  0.697151  0.229807  1
  Al  Al13  1  0.666616  0.697151  0.229807  1
  Al  Al14  1  0.302849  0.969464  0.229807  1
  Al  Al15  1  0.666616  0.969464  0.229807  1
  Al  Al16  1  0.575027  0.150054  0.332557  1
  Al  Al17  1  0.575027  0.424974  0.332557  1
  Al  Al18  1  0.849946  0.424974  0.332557  1
  Al  Al19  1  0.087923  0.175846  0.384511  1
  Al  Al20  1  0.087922  0.912077  0.384511  1
  Al  Al21  1  0.824154  0.912077  0.384511  1
  Al  Al22  1  0.064415  0.400394  0.481700  1
  Al  Al23  1  0.335978  0.400394  0.481700  1
  Al  Al24  1  0.064415  0.664022  0.481700  1
  Al  Al25  1  0.599607  0.664022  0.481700  1
  Al  Al26  1  0.335978  0.935584  0.481700  1
  Al  Al27  1  0.599606  0.935584  0.481700  1
  Al  Al28  1  0.485936  0.242968  0.556868  1
  Al  Al29  1  0.757031  0.242968  0.556868  1
  Al  Al30  1  0.757032  0.514063  0.556868  1
  Al  Al31  1  0.908734  0.091266  0.585287  1
  Al  Al32  1  0.182532  0.091266  0.585287  1
  Al  Al33  1  0.908734  0.817468  0.585287  1
  Al  Al34  1  0.512594  0.025187  0.685152  1
  Al  Al35  1  0.512595  0.487406  0.685152  1
  Al  Al36  1  0.974812  0.487406  0.685152  1
  Al  Al37  1  0.166663  0.333326  0.729766  1
  Al  Al38  1  0.166663  0.833337  0.729766  1
  Al  Al39  1  0.666674  0.833337  0.729766  1
  Al  Al40  1  0.358486  0.179243  0.774539  1
  Al  Al41  1  0.820758  0.179243  0.774539  1
  Al  Al42  1  0.820758  0.641515  0.774539  1
  Al  Al43  1  0.150767  0.575384  0.874312  1
  Al  Al44  1  0.424617  0.575384  0.874312  1
  Al  Al45  1  0.424616  0.849232  0.874312  1
  Al  Al46  1  0.576315  0.152630  0.902835  1
  Al  Al47  1  0.576316  0.423685  0.902835  1
  Al  Al48  1  0.847369  0.423685  0.902835  1
  Al  Al49  1  0.268903  0.002645  0.978017  1
  Al  Al50  1  0.733741  0.002645  0.978017  1
  Al  Al51  1  0.268903  0.266259  0.978017  1
  Al  Al52  1  0.997356  0.266259  0.978017  1
  Al  Al53  1  0.733741  0.731097  0.978017  1
  Al  Al54  1  0.997355  0.731097  0.978017  1
  Cr  Cr55  1  0.005681  0.502840  0.074262  1
  Cr  Cr56  1  0.497160  0.502840  0.074262  1
  Cr  Cr57  1  0.497160  0.994319  0.074262  1
  Cr  Cr58  1  0.327886  0.163943  0.385225  1
  Cr  Cr59  1  0.836058  0.163943  0.385225  1
  Cr  Cr60  1  0.836057  0.672113  0.385225  1
  Cr  Cr61  1  0.666667  0.333333  0.729901  1
