# generated using pymatgen
data_Li5PaO5
_symmetry_space_group_name_H-M   'P 1'
_cell_length_a   5.58503314
_cell_length_b   5.58503336
_cell_length_c   6.12936268
_cell_angle_alpha   70.87500662
_cell_angle_beta   70.87500674
_cell_angle_gamma   46.13620147
_symmetry_Int_Tables_number   1
_chemical_formula_structural   Li5PaO5
_chemical_formula_sum   'Li5 Pa1 O5'
_cell_volume   128.81008126
_cell_formula_units_Z   1
loop_
 _symmetry_equiv_pos_site_id
 _symmetry_equiv_pos_as_xyz
  1  'x, y, z'
loop_
 _atom_site_type_symbol
 _atom_site_label
 _atom_site_symmetry_multiplicity
 _atom_site_fract_x
 _atom_site_fract_y
 _atom_site_fract_z
 _atom_site_occupancy
  Li  Li0  1  0.714941  0.714941  0.637915  1
  Li  Li1  1  0.986320  0.986320  0.480835  1
  Li  Li2  1  0.302168  0.302168  0.845571  1
  Li  Li3  1  0.687349  0.687349  0.124454  1
  Li  Li4  1  0.270154  0.270154  0.336061  1
  Pa  Pa5  1  0.995158  0.995158  0.982589  1
  O  O6  1  0.845729  0.845729  0.801532  1
  O  O7  1  0.495454  0.495454  0.978905  1
  O  O8  1  0.168012  0.168012  0.662642  1
  O  O9  1  0.825114  0.825114  0.309674  1
  O  O10  1  0.141600  0.141600  0.169822  1
