# generated using pymatgen
data_Er4Al18Ga6Ir2Pt7
_symmetry_space_group_name_H-M   'P 1'
_cell_length_a   7.49537737
_cell_length_b   7.49058874
_cell_length_c   13.20835529
_cell_angle_alpha   84.65282213
_cell_angle_beta   100.69457594
_cell_angle_gamma   119.78390006
_symmetry_Int_Tables_number   1
_chemical_formula_structural   Er4Al18Ga6Ir2Pt7
_chemical_formula_sum   'Er4 Al18 Ga6 Ir2 Pt7'
_cell_volume   632.44141290
_cell_formula_units_Z   1
loop_
 _symmetry_equiv_pos_site_id
 _symmetry_equiv_pos_as_xyz
  1  'x, y, z'
loop_
 _atom_site_type_symbol
 _atom_site_label
 _atom_site_symmetry_multiplicity
 _atom_site_fract_x
 _atom_site_fract_y
 _atom_site_fract_z
 _atom_site_occupancy
  Er  Er0  1  0.736726  0.003244  0.189369  1
  Er  Er1  1  0.262866  0.997228  0.810323  1
  Er  Er2  1  0.058510  0.665685  0.188386  1
  Er  Er3  1  0.942088  0.334584  0.811911  1
  Al  Al4  1  0.881549  0.664610  0.671347  1
  Al  Al5  1  0.118660  0.335210  0.327732  1
  Al  Al6  1  0.602741  0.457140  0.815981  1
  Al  Al7  1  0.398145  0.545944  0.182356  1
  Al  Al8  1  0.230667  0.339780  0.670172  1
  Al  Al9  1  0.769701  0.660257  0.329863  1
  Al  Al10  1  0.854385  0.333246  0.559512  1
  Al  Al11  1  0.186904  0.999645  0.559250  1
  Al  Al12  1  0.813968  0.999979  0.440722  1
  Al  Al13  1  0.349115  0.997663  0.053637  1
  Al  Al14  1  0.647704  0.996640  0.946439  1
  Al  Al15  1  0.556809  0.993882  0.672421  1
  Al  Al16  1  0.443780  0.005834  0.328411  1
  Al  Al17  1  0.520723  0.669655  0.560150  1
  Al  Al18  1  0.479219  0.330724  0.439620  1
  Al  Al19  1  0.683171  0.670713  0.044816  1
  Al  Al20  1  0.313376  0.333022  0.955488  1
  Al  Al21  1  0.145956  0.665841  0.440772  1
  Ga  Ga22  1  0.806363  0.871130  0.816834  1
  Ga  Ga23  1  0.194401  0.127889  0.183184  1
  Ga  Ga24  1  0.984728  0.668349  0.940617  1
  Ga  Ga25  1  0.020116  0.334362  0.059577  1
  Ga  Ga26  1  0.398655  0.662409  0.818757  1
  Ga  Ga27  1  0.599374  0.336274  0.182896  1
  Ir  Ir28  1  0.334343  0.673686  0.003001  1
  Ir  Ir29  1  0.000013  0.000206  0.999904  1
  Pt  Pt30  1  0.546356  0.325407  0.637616  1
  Pt  Pt31  1  0.453804  0.674227  0.361877  1
  Pt  Pt32  1  0.887829  0.008746  0.636876  1
  Pt  Pt33  1  0.112328  0.991042  0.363107  1
  Pt  Pt34  1  0.664113  0.325820  0.996504  1
  Pt  Pt35  1  0.203969  0.667301  0.637475  1
  Pt  Pt36  1  0.796843  0.332623  0.363098  1
