# generated using pymatgen
data_Zr4Al4Mo3Ru
_symmetry_space_group_name_H-M   'P 1'
_cell_length_a   5.25954170
_cell_length_b   5.25954239
_cell_length_c   8.84417100
_cell_angle_alpha   90.00000000
_cell_angle_beta   90.00000000
_cell_angle_gamma   119.52139730
_symmetry_Int_Tables_number   1
_chemical_formula_structural   Zr4Al4Mo3Ru
_chemical_formula_sum   'Zr4 Al4 Mo3 Ru1'
_cell_volume   212.89132647
_cell_formula_units_Z   1
loop_
 _symmetry_equiv_pos_site_id
 _symmetry_equiv_pos_as_xyz
  1  'x, y, z'
loop_
 _atom_site_type_symbol
 _atom_site_label
 _atom_site_symmetry_multiplicity
 _atom_site_fract_x
 _atom_site_fract_y
 _atom_site_fract_z
 _atom_site_occupancy
  Zr  Zr0  1  0.335114  0.664886  0.184793  1
  Zr  Zr1  1  0.667493  0.332507  0.315018  1
  Zr  Zr2  1  0.667493  0.332507  0.684982  1
  Zr  Zr3  1  0.335114  0.664886  0.815207  1
  Al  Al4  1  0.994226  0.005774  0.243520  1
  Al  Al5  1  0.994226  0.005774  0.756480  1
  Al  Al6  1  0.835649  0.653253  0.000000  1
  Al  Al7  1  0.346747  0.164351  0.000000  1
  Mo  Mo8  1  0.164789  0.341863  0.500000  1
  Mo  Mo9  1  0.658137  0.835211  0.500000  1
  Mo  Mo10  1  0.166013  0.833987  0.500000  1
  Ru  Ru11  1  0.835152  0.164848  0.000000  1
