# generated using pymatgen
data_Pr8Dy10ScSi16Ag
_symmetry_space_group_name_H-M   'P 1'
_cell_length_a   7.42343206
_cell_length_b   7.80703137
_cell_length_c   14.83706400
_cell_angle_alpha   90.00000000
_cell_angle_beta   90.00000000
_cell_angle_gamma   90.00765705
_symmetry_Int_Tables_number   1
_chemical_formula_structural   Pr8Dy10ScSi16Ag
_chemical_formula_sum   'Pr8 Dy10 Sc1 Si16 Ag1'
_cell_volume   859.88154708
_cell_formula_units_Z   1
loop_
 _symmetry_equiv_pos_site_id
 _symmetry_equiv_pos_as_xyz
  1  'x, y, z'
loop_
 _atom_site_type_symbol
 _atom_site_label
 _atom_site_symmetry_multiplicity
 _atom_site_fract_x
 _atom_site_fract_y
 _atom_site_fract_z
 _atom_site_occupancy
  Pr  Pr0  1  0.020008  0.179562  0.404235  1
  Pr  Pr1  1  0.519668  0.322701  0.403773  1
  Pr  Pr2  1  0.481520  0.689817  0.896538  1
  Pr  Pr3  1  0.481520  0.689817  0.603462  1
  Pr  Pr4  1  0.970924  0.822659  0.603173  1
  Pr  Pr5  1  0.970924  0.822659  0.896827  1
  Pr  Pr6  1  0.519668  0.322701  0.096227  1
  Pr  Pr7  1  0.020008  0.179562  0.095765  1
  Dy  Dy8  1  0.331726  0.174171  0.626956  1
  Dy  Dy9  1  0.677790  0.817523  0.376362  1
  Dy  Dy10  1  0.178547  0.677840  0.379121  1
  Dy  Dy11  1  0.818478  0.313258  0.872881  1
  Dy  Dy12  1  0.818478  0.313258  0.627119  1
  Dy  Dy13  1  0.847547  0.487426  0.250000  1
  Dy  Dy14  1  0.343510  0.012808  0.250000  1
  Dy  Dy15  1  0.331726  0.174171  0.873044  1
  Dy  Dy16  1  0.178547  0.677840  0.120879  1
  Dy  Dy17  1  0.677790  0.817523  0.123638  1
  Sc  Sc18  1  0.151223  0.507597  0.750000  1
  Si  Si19  1  0.262158  0.873509  0.750000  1
  Si  Si20  1  0.470264  0.609400  0.250000  1
  Si  Si21  1  0.033915  0.107641  0.750000  1
  Si  Si22  1  0.517745  0.410880  0.750000  1
  Si  Si23  1  0.147406  0.470637  0.544936  1
  Si  Si24  1  0.970813  0.884902  0.250000  1
  Si  Si25  1  0.728061  0.118127  0.250000  1
  Si  Si26  1  0.854361  0.531054  0.034735  1
  Si  Si27  1  0.355238  0.968777  0.038493  1
  Si  Si28  1  0.147406  0.470637  0.955064  1
  Si  Si29  1  0.650936  0.037019  0.531681  1
  Si  Si30  1  0.355238  0.968777  0.461507  1
  Si  Si31  1  0.854361  0.531054  0.465265  1
  Si  Si32  1  0.780213  0.609393  0.750000  1
  Si  Si33  1  0.227858  0.381143  0.250000  1
  Si  Si34  1  0.650936  0.037019  0.968319  1
  Ag  Ag35  1  0.653486  0.987137  0.750000  1
