# generated using pymatgen
data_Pr8Sc12Bi7Pb9
_symmetry_space_group_name_H-M   'P 1'
_cell_length_a   8.17655833
_cell_length_b   8.16957205
_cell_length_c   15.33685300
_cell_angle_alpha   90.04049488
_cell_angle_beta   90.04326321
_cell_angle_gamma   90.00231187
_symmetry_Int_Tables_number   1
_chemical_formula_structural   Pr8Sc12Bi7Pb9
_chemical_formula_sum   'Pr8 Sc12 Bi7 Pb9'
_cell_volume   1024.48562457
_cell_formula_units_Z   1
loop_
 _symmetry_equiv_pos_site_id
 _symmetry_equiv_pos_as_xyz
  1  'x, y, z'
loop_
 _atom_site_type_symbol
 _atom_site_label
 _atom_site_symmetry_multiplicity
 _atom_site_fract_x
 _atom_site_fract_y
 _atom_site_fract_z
 _atom_site_occupancy
  Pr  Pr0  1  0.469683  0.674363  0.598165  1
  Pr  Pr1  1  0.971397  0.824767  0.901651  1
  Pr  Pr2  1  0.528333  0.324553  0.098458  1
  Pr  Pr3  1  0.028362  0.177387  0.401410  1
  Pr  Pr4  1  0.525942  0.325191  0.402044  1
  Pr  Pr5  1  0.028404  0.176039  0.098353  1
  Pr  Pr6  1  0.471616  0.676044  0.901647  1
  Pr  Pr7  1  0.972863  0.823154  0.597906  1
  Sc  Sc8  1  0.637184  0.156253  0.627066  1
  Sc  Sc9  1  0.137071  0.344063  0.873168  1
  Sc  Sc10  1  0.363271  0.844063  0.126730  1
  Sc  Sc11  1  0.866744  0.655467  0.372792  1
  Sc  Sc12  1  0.360740  0.840949  0.373688  1
  Sc  Sc13  1  0.862501  0.656283  0.126827  1
  Sc  Sc14  1  0.637232  0.156221  0.872760  1
  Sc  Sc15  1  0.137758  0.345310  0.626113  1
  Sc  Sc16  1  0.805041  0.496933  0.750064  1
  Sc  Sc17  1  0.305035  0.003090  0.749669  1
  Sc  Sc18  1  0.194435  0.503905  0.252175  1
  Sc  Sc19  1  0.694799  0.996541  0.250494  1
  Bi  Bi20  1  0.701690  0.953721  0.453734  1
  Bi  Bi21  1  0.201723  0.546316  0.046438  1
  Bi  Bi22  1  0.298358  0.046343  0.953707  1
  Bi  Bi23  1  0.799782  0.454233  0.545653  1
  Bi  Bi24  1  0.298469  0.045947  0.546424  1
  Bi  Bi25  1  0.797998  0.454028  0.953774  1
  Bi  Bi26  1  0.701701  0.954306  0.046056  1
  Pb  Pb27  1  0.202566  0.544448  0.454478  1
  Pb  Pb28  1  0.443489  0.363047  0.750252  1
  Pb  Pb29  1  0.944003  0.137208  0.749743  1
  Pb  Pb30  1  0.556724  0.637212  0.249724  1
  Pb  Pb31  1  0.056423  0.863652  0.249326  1
  Pb  Pb32  1  0.661584  0.853849  0.749672  1
  Pb  Pb33  1  0.161303  0.645818  0.750412  1
  Pb  Pb34  1  0.338299  0.145189  0.249764  1
  Pb  Pb35  1  0.837476  0.354110  0.249662  1
