# generated using pymatgen
data_Tb3Mg2ScRh3
_symmetry_space_group_name_H-M   'P 1'
_cell_length_a   7.36289800
_cell_length_b   7.36872180
_cell_length_c   4.08527400
_cell_angle_alpha   90.00000000
_cell_angle_beta   90.00000000
_cell_angle_gamma   119.97386815
_symmetry_Int_Tables_number   1
_chemical_formula_structural   Tb3Mg2ScRh3
_chemical_formula_sum   'Tb3 Mg2 Sc1 Rh3'
_cell_volume   192.00258044
_cell_formula_units_Z   1
loop_
 _symmetry_equiv_pos_site_id
 _symmetry_equiv_pos_as_xyz
  1  'x, y, z'
loop_
 _atom_site_type_symbol
 _atom_site_label
 _atom_site_symmetry_multiplicity
 _atom_site_fract_x
 _atom_site_fract_y
 _atom_site_fract_z
 _atom_site_occupancy
  Tb  Tb0  1  0.991034  0.576625  0.500000  1
  Tb  Tb1  1  0.414409  0.423375  0.500000  1
  Tb  Tb2  1  0.598792  0.000000  0.500000  1
  Mg  Mg3  1  0.754730  0.754424  0.000000  1
  Mg  Mg4  1  0.000305  0.245576  0.000000  1
  Sc  Sc5  1  0.245030  0.000000  0.000000  1
  Rh  Rh6  1  0.329573  0.677606  0.000000  1
  Rh  Rh7  1  0.014160  0.000000  0.500000  1
  Rh  Rh8  1  0.651968  0.322394  0.000000  1
