# generated using pymatgen
data_Dy8Er8In4Ru3Rh
_symmetry_space_group_name_H-M   'P 1'
_cell_length_a   9.61625472
_cell_length_b   9.60369565
_cell_length_c   9.60827708
_cell_angle_alpha   59.89236946
_cell_angle_beta   59.86653751
_cell_angle_gamma   59.90305501
_symmetry_Int_Tables_number   1
_chemical_formula_structural   Dy8Er8In4Ru3Rh
_chemical_formula_sum   'Dy8 Er8 In4 Ru3 Rh1'
_cell_volume   625.83963921
_cell_formula_units_Z   1
loop_
 _symmetry_equiv_pos_site_id
 _symmetry_equiv_pos_as_xyz
  1  'x, y, z'
loop_
 _atom_site_type_symbol
 _atom_site_label
 _atom_site_symmetry_multiplicity
 _atom_site_fract_x
 _atom_site_fract_y
 _atom_site_fract_z
 _atom_site_occupancy
  Dy  Dy0  1  0.191292  0.191707  0.810361  1
  Dy  Dy1  1  0.439106  0.060289  0.060288  1
  Dy  Dy2  1  0.440770  0.059937  0.440071  1
  Dy  Dy3  1  0.060227  0.439420  0.060494  1
  Dy  Dy4  1  0.650733  0.045887  0.650627  1
  Dy  Dy5  1  0.192973  0.808730  0.809625  1
  Dy  Dy6  1  0.060217  0.060588  0.438838  1
  Dy  Dy7  1  0.810353  0.191292  0.191234  1
  Er  Er8  1  0.809307  0.808905  0.193151  1
  Er  Er9  1  0.650355  0.650646  0.045731  1
  Er  Er10  1  0.651324  0.650304  0.650712  1
  Er  Er11  1  0.058977  0.441624  0.440739  1
  Er  Er12  1  0.045389  0.650587  0.650253  1
  Er  Er13  1  0.808595  0.193433  0.809146  1
  Er  Er14  1  0.441122  0.441387  0.059113  1
  Er  Er15  1  0.191749  0.809404  0.192084  1
  In  In16  1  0.417785  0.746740  0.417556  1
  In  In17  1  0.417789  0.417879  0.747193  1
  In  In18  1  0.747390  0.417972  0.417589  1
  In  In19  1  0.416936  0.418148  0.417067  1
  Ru  Ru20  1  0.857758  0.422247  0.857680  1
  Ru  Ru21  1  0.858936  0.857090  0.421613  1
  Ru  Ru22  1  0.421784  0.857180  0.859012  1
  Rh  Rh23  1  0.859134  0.858602  0.859823  1
