# generated using pymatgen
data_Tb4Al11Si7Os5Pd
_symmetry_space_group_name_H-M   'P 1'
_cell_length_a   7.49778401
_cell_length_b   7.46102668
_cell_length_c   9.37303877
_cell_angle_alpha   90.24174260
_cell_angle_beta   90.03496709
_cell_angle_gamma   119.72747386
_symmetry_Int_Tables_number   1
_chemical_formula_structural   Tb4Al11Si7Os5Pd
_chemical_formula_sum   'Tb4 Al11 Si7 Os5 Pd1'
_cell_volume   455.32625808
_cell_formula_units_Z   1
loop_
 _symmetry_equiv_pos_site_id
 _symmetry_equiv_pos_as_xyz
  1  'x, y, z'
loop_
 _atom_site_type_symbol
 _atom_site_label
 _atom_site_symmetry_multiplicity
 _atom_site_fract_x
 _atom_site_fract_y
 _atom_site_fract_z
 _atom_site_occupancy
  Tb  Tb0  1  0.999805  0.673276  0.252698  1
  Tb  Tb1  1  0.006838  0.331335  0.749685  1
  Tb  Tb2  1  0.681661  0.004849  0.250841  1
  Tb  Tb3  1  0.315146  0.994466  0.746424  1
  Al  Al4  1  0.659073  0.992822  0.581032  1
  Al  Al5  1  0.659239  0.994703  0.925451  1
  Al  Al6  1  0.341375  0.005785  0.070258  1
  Al  Al7  1  0.342138  0.341387  0.561157  1
  Al  Al8  1  0.655938  0.659831  0.437980  1
  Al  Al9  1  0.661284  0.665224  0.057668  1
  Al  Al10  1  0.338868  0.334253  0.941766  1
  Al  Al11  1  0.332349  0.546698  0.249050  1
  Al  Al12  1  0.666345  0.450158  0.751297  1
  Al  Al13  1  0.548895  0.339157  0.248515  1
  Al  Al14  1  0.449283  0.661666  0.750040  1
  Si  Si15  1  0.134428  0.131130  0.246072  1
  Si  Si16  1  0.865762  0.870636  0.755312  1
  Si  Si17  1  0.002287  0.331441  0.063032  1
  Si  Si18  1  0.997290  0.667617  0.937174  1
  Si  Si19  1  0.987498  0.654050  0.575790  1
  Si  Si20  1  0.353499  0.009649  0.423654  1
  Si  Si21  1  0.004630  0.341680  0.426956  1
  Os  Os22  1  0.688432  0.336860  0.001986  1
  Os  Os23  1  0.311140  0.662354  0.998893  1
  Os  Os24  1  0.311408  0.673014  0.499565  1
  Os  Os25  1  0.679870  0.327977  0.498013  1
  Os  Os26  1  0.000314  0.999348  0.001113  1
  Pd  Pd27  1  0.005206  0.998631  0.498576  1
