# generated using pymatgen
data_Y8Tm2OsRu3
_symmetry_space_group_name_H-M   'P 1'
_cell_length_a   6.36064211
_cell_length_b   7.30851658
_cell_length_c   8.48276548
_cell_angle_alpha   96.62620325
_cell_angle_beta   112.07839616
_cell_angle_gamma   90.01865986
_symmetry_Int_Tables_number   1
_chemical_formula_structural   Y8Tm2OsRu3
_chemical_formula_sum   'Y8 Tm2 Os1 Ru3'
_cell_volume   362.57030937
_cell_formula_units_Z   1
loop_
 _symmetry_equiv_pos_site_id
 _symmetry_equiv_pos_as_xyz
  1  'x, y, z'
loop_
 _atom_site_type_symbol
 _atom_site_label
 _atom_site_symmetry_multiplicity
 _atom_site_fract_x
 _atom_site_fract_y
 _atom_site_fract_z
 _atom_site_occupancy
  Y  Y0  1  0.791898  0.083305  0.814207  1
  Y  Y1  1  0.974629  0.415506  0.182027  1
  Y  Y2  1  0.207601  0.915588  0.185221  1
  Y  Y3  1  0.024243  0.584080  0.815207  1
  Y  Y4  1  0.206836  0.184812  0.567210  1
  Y  Y5  1  0.639207  0.317021  0.435467  1
  Y  Y6  1  0.794310  0.815894  0.433147  1
  Y  Y7  1  0.359676  0.683590  0.565832  1
  Tm  Tm8  1  0.422573  0.249960  0.999338  1
  Tm  Tm9  1  0.578062  0.750174  0.999898  1
  Os  Os10  1  0.602045  0.424779  0.785046  1
  Ru  Ru11  1  0.818778  0.075654  0.217356  1
  Ru  Ru12  1  0.398115  0.575348  0.216421  1
  Ru  Ru13  1  0.182028  0.924287  0.783623  1
