# generated using pymatgen
data_La16Ho4Ir11Ru
_symmetry_space_group_name_H-M   'P 1'
_cell_length_a   11.37564000
_cell_length_b   11.37564000
_cell_length_c   6.55130900
_cell_angle_alpha   90.00000000
_cell_angle_beta   90.00000000
_cell_angle_gamma   90.00000000
_symmetry_Int_Tables_number   1
_chemical_formula_structural   La16Ho4Ir11Ru
_chemical_formula_sum   'La16 Ho4 Ir11 Ru1'
_cell_volume   847.77335582
_cell_formula_units_Z   1
loop_
 _symmetry_equiv_pos_site_id
 _symmetry_equiv_pos_as_xyz
  1  'x, y, z'
loop_
 _atom_site_type_symbol
 _atom_site_label
 _atom_site_symmetry_multiplicity
 _atom_site_fract_x
 _atom_site_fract_y
 _atom_site_fract_z
 _atom_site_occupancy
  La  La0  1  0.288511  0.087368  0.390064  1
  La  La1  1  0.288734  0.912840  0.892371  1
  La  La2  1  0.711266  0.087160  0.892371  1
  La  La3  1  0.711489  0.912632  0.390064  1
  La  La4  1  0.587160  0.788734  0.892371  1
  La  La5  1  0.587368  0.211489  0.390064  1
  La  La6  1  0.412632  0.788511  0.390064  1
  La  La7  1  0.412840  0.211266  0.892371  1
  La  La8  1  0.212709  0.412312  0.609331  1
  La  La9  1  0.212484  0.587540  0.109139  1
  La  La10  1  0.787516  0.412460  0.109139  1
  La  La11  1  0.787291  0.587688  0.609331  1
  La  La12  1  0.912460  0.712484  0.109139  1
  La  La13  1  0.912312  0.287291  0.609331  1
  La  La14  1  0.087688  0.712709  0.609331  1
  La  La15  1  0.087540  0.287516  0.109139  1
  Ho  Ho16  1  0.000000  0.000000  0.499586  1
  Ho  Ho17  1  0.000000  0.000000  0.999603  1
  Ho  Ho18  1  0.500000  0.500000  0.999603  1
  Ho  Ho19  1  0.500000  0.500000  0.499586  1
  Ir  Ir20  1  0.852088  0.148598  0.250035  1
  Ir  Ir21  1  0.852161  0.851554  0.749930  1
  Ir  Ir22  1  0.147839  0.148446  0.749930  1
  Ir  Ir23  1  0.147912  0.851402  0.250035  1
  Ir  Ir24  1  0.648446  0.352161  0.749930  1
  Ir  Ir25  1  0.648598  0.647912  0.250035  1
  Ir  Ir26  1  0.351402  0.352088  0.250035  1
  Ir  Ir27  1  0.351554  0.647839  0.749930  1
  Ir  Ir28  1  0.500000  0.000000  0.621052  1
  Ir  Ir29  1  0.000000  0.500000  0.878729  1
  Ir  Ir30  1  0.000000  0.500000  0.378877  1
  Ru  Ru31  1  0.500000  0.000000  0.119492  1
