# generated using pymatgen
data_Dy3Y4Ho3Ru4
_symmetry_space_group_name_H-M   'P 1'
_cell_length_a   6.35906692
_cell_length_b   7.29816256
_cell_length_c   8.48921279
_cell_angle_alpha   96.74843514
_cell_angle_beta   112.05738852
_cell_angle_gamma   89.94313833
_symmetry_Int_Tables_number   1
_chemical_formula_structural   Dy3Y4Ho3Ru4
_chemical_formula_sum   'Dy3 Y4 Ho3 Ru4'
_cell_volume   362.21570805
_cell_formula_units_Z   1
loop_
 _symmetry_equiv_pos_site_id
 _symmetry_equiv_pos_as_xyz
  1  'x, y, z'
loop_
 _atom_site_type_symbol
 _atom_site_label
 _atom_site_symmetry_multiplicity
 _atom_site_fract_x
 _atom_site_fract_y
 _atom_site_fract_z
 _atom_site_occupancy
  Dy  Dy0  1  0.640038  0.814872  0.434472  1
  Dy  Dy1  1  0.205292  0.685175  0.565670  1
  Dy  Dy2  1  0.360018  0.185153  0.565429  1
  Y  Y3  1  0.977572  0.916381  0.187131  1
  Y  Y4  1  0.790936  0.583537  0.812749  1
  Y  Y5  1  0.022285  0.083762  0.812870  1
  Y  Y6  1  0.209211  0.416320  0.187223  1
  Ho  Ho7  1  0.794594  0.314884  0.434205  1
  Ho  Ho8  1  0.420549  0.749861  0.999915  1
  Ho  Ho9  1  0.579619  0.250175  0.000313  1
  Ru  Ru10  1  0.820493  0.575164  0.221148  1
  Ru  Ru11  1  0.599365  0.925099  0.778861  1
  Ru  Ru12  1  0.179228  0.424605  0.778772  1
  Ru  Ru13  1  0.400800  0.075014  0.221242  1
