# generated using pymatgen
data_Dy9HoSi6C
_symmetry_space_group_name_H-M   'P 1'
_cell_length_a   8.47195700
_cell_length_b   8.47195763
_cell_length_c   6.39272100
_cell_angle_alpha   90.00000000
_cell_angle_beta   90.00000000
_cell_angle_gamma   119.99999363
_symmetry_Int_Tables_number   1
_chemical_formula_structural   Dy9HoSi6C
_chemical_formula_sum   'Dy9 Ho1 Si6 C1'
_cell_volume   397.35979997
_cell_formula_units_Z   1
loop_
 _symmetry_equiv_pos_site_id
 _symmetry_equiv_pos_as_xyz
  1  'x, y, z'
loop_
 _atom_site_type_symbol
 _atom_site_label
 _atom_site_symmetry_multiplicity
 _atom_site_fract_x
 _atom_site_fract_y
 _atom_site_fract_z
 _atom_site_occupancy
  Dy  Dy0  1  0.000214  0.764902  0.270205  1
  Dy  Dy1  1  0.235098  0.235312  0.270205  1
  Dy  Dy2  1  0.764688  0.999786  0.270205  1
  Dy  Dy3  1  0.000214  0.235312  0.729795  1
  Dy  Dy4  1  0.764688  0.764902  0.729795  1
  Dy  Dy5  1  0.235098  0.999786  0.729795  1
  Dy  Dy6  1  0.333333  0.666667  0.000000  1
  Dy  Dy7  1  0.666667  0.333333  0.000000  1
  Dy  Dy8  1  0.666667  0.333333  0.500000  1
  Ho  Ho9  1  0.333333  0.666667  0.500000  1
  Si  Si10  1  0.000580  0.399606  0.254485  1
  Si  Si11  1  0.600394  0.600974  0.254485  1
  Si  Si12  1  0.399026  0.999420  0.254485  1
  Si  Si13  1  0.000580  0.600974  0.745515  1
  Si  Si14  1  0.399026  0.399606  0.745515  1
  Si  Si15  1  0.600394  0.999420  0.745515  1
  C  C16  1  0.000000  0.000000  0.500000  1
