# generated using pymatgen
data_Ho3Co7(As3Rh)2
_symmetry_space_group_name_H-M   'P 1'
_cell_length_a   3.82325500
_cell_length_b   11.01615500
_cell_length_c   12.86335000
_cell_angle_alpha   90.00000000
_cell_angle_beta   90.00000000
_cell_angle_gamma   90.00000000
_symmetry_Int_Tables_number   1
_chemical_formula_structural   Ho3Co7(As3Rh)2
_chemical_formula_sum   'Ho6 Co14 As12 Rh4'
_cell_volume   541.77304000
_cell_formula_units_Z   2
loop_
 _symmetry_equiv_pos_site_id
 _symmetry_equiv_pos_as_xyz
  1  'x, y, z'
loop_
 _atom_site_type_symbol
 _atom_site_label
 _atom_site_symmetry_multiplicity
 _atom_site_fract_x
 _atom_site_fract_y
 _atom_site_fract_z
 _atom_site_occupancy
  Ho  Ho0  1  0.000000  0.500000  0.522064  1
  Ho  Ho1  1  0.500000  0.000000  0.477936  1
  Ho  Ho2  1  0.500000  0.815450  0.208313  1
  Ho  Ho3  1  0.500000  0.184550  0.208313  1
  Ho  Ho4  1  0.000000  0.684550  0.791687  1
  Ho  Ho5  1  0.000000  0.315450  0.791687  1
  Co  Co6  1  0.000000  0.500000  0.989152  1
  Co  Co7  1  0.500000  0.000000  0.010848  1
  Co  Co8  1  0.500000  0.302968  0.429556  1
  Co  Co9  1  0.500000  0.697032  0.429556  1
  Co  Co10  1  0.000000  0.197032  0.570444  1
  Co  Co11  1  0.000000  0.802968  0.570444  1
  Co  Co12  1  0.500000  0.882257  0.709096  1
  Co  Co13  1  0.500000  0.117743  0.709096  1
  Co  Co14  1  0.000000  0.617743  0.290904  1
  Co  Co15  1  0.000000  0.382257  0.290904  1
  Co  Co16  1  0.500000  0.331482  0.995698  1
  Co  Co17  1  0.500000  0.668518  0.995698  1
  Co  Co18  1  0.000000  0.168518  0.004302  1
  Co  Co19  1  0.000000  0.831482  0.004302  1
  As  As20  1  0.500000  0.304549  0.613221  1
  As  As21  1  0.500000  0.695451  0.613221  1
  As  As22  1  0.000000  0.195451  0.386779  1
  As  As23  1  0.000000  0.804549  0.386779  1
  As  As24  1  0.500000  0.500000  0.888681  1
  As  As25  1  0.000000  0.000000  0.111319  1
  As  As26  1  0.500000  0.843471  0.891297  1
  As  As27  1  0.500000  0.156529  0.891297  1
  As  As28  1  0.000000  0.656529  0.108703  1
  As  As29  1  0.000000  0.343471  0.108703  1
  As  As30  1  0.500000  0.500000  0.351647  1
  As  As31  1  0.000000  0.000000  0.648353  1
  Rh  Rh32  1  0.500000  0.500000  0.157868  1
  Rh  Rh33  1  0.000000  0.000000  0.842132  1
  Rh  Rh34  1  0.500000  0.500000  0.703228  1
  Rh  Rh35  1  0.000000  0.000000  0.296772  1
