# generated using pymatgen
data_Tb2HoLu5Pt4
_symmetry_space_group_name_H-M   'P 1'
_cell_length_a   4.73878000
_cell_length_b   7.07855526
_cell_length_c   8.62398919
_cell_angle_alpha   90.24865848
_cell_angle_beta   90.00000000
_cell_angle_gamma   90.00000000
_symmetry_Int_Tables_number   1
_chemical_formula_structural   Tb2HoLu5Pt4
_chemical_formula_sum   'Tb2 Ho1 Lu5 Pt4'
_cell_volume   289.27792077
_cell_formula_units_Z   1
loop_
 _symmetry_equiv_pos_site_id
 _symmetry_equiv_pos_as_xyz
  1  'x, y, z'
loop_
 _atom_site_type_symbol
 _atom_site_label
 _atom_site_symmetry_multiplicity
 _atom_site_fract_x
 _atom_site_fract_y
 _atom_site_fract_z
 _atom_site_occupancy
  Tb  Tb0  1  0.250000  0.487925  0.170997  1
  Tb  Tb1  1  0.750000  0.012867  0.670786  1
  Ho  Ho2  1  0.750000  0.512001  0.829664  1
  Lu  Lu3  1  0.250000  0.856391  0.923553  1
  Lu  Lu4  1  0.250000  0.357701  0.576960  1
  Lu  Lu5  1  0.750000  0.142372  0.079513  1
  Lu  Lu6  1  0.750000  0.644295  0.422410  1
  Lu  Lu7  1  0.250000  0.987535  0.331137  1
  Pt  Pt8  1  0.250000  0.254435  0.903830  1
  Pt  Pt9  1  0.250000  0.755558  0.591093  1
  Pt  Pt10  1  0.750000  0.745326  0.094606  1
  Pt  Pt11  1  0.750000  0.243592  0.405452  1
