# generated using pymatgen
data_Zr6Al7Zn6(CuPd4)2
_symmetry_space_group_name_H-M   'P 1'
_cell_length_a   8.70773189
_cell_length_b   8.69971229
_cell_length_c   8.69971197
_cell_angle_alpha   59.93517086
_cell_angle_beta   59.96950292
_cell_angle_gamma   59.96949314
_symmetry_Int_Tables_number   1
_chemical_formula_structural   Zr6Al7Zn6(CuPd4)2
_chemical_formula_sum   'Zr6 Al7 Zn6 Cu2 Pd8'
_cell_volume   465.57151321
_cell_formula_units_Z   1
loop_
 _symmetry_equiv_pos_site_id
 _symmetry_equiv_pos_as_xyz
  1  'x, y, z'
loop_
 _atom_site_type_symbol
 _atom_site_label
 _atom_site_symmetry_multiplicity
 _atom_site_fract_x
 _atom_site_fract_y
 _atom_site_fract_z
 _atom_site_occupancy
  Zr  Zr0  1  0.706267  0.704394  0.294898  1
  Zr  Zr1  1  0.294441  0.704394  0.294898  1
  Zr  Zr2  1  0.705252  0.294748  0.294748  1
  Zr  Zr3  1  0.294441  0.294898  0.704394  1
  Zr  Zr4  1  0.706267  0.294898  0.704394  1
  Zr  Zr5  1  0.294495  0.705505  0.705505  1
  Al  Al6  1  0.999966  0.000034  0.000034  1
  Al  Al7  1  0.998626  0.007251  0.496926  1
  Al  Al8  1  0.497197  0.007251  0.496926  1
  Al  Al9  1  0.006352  0.493648  0.493648  1
  Al  Al10  1  0.497197  0.496926  0.007251  1
  Al  Al11  1  0.998626  0.496926  0.007251  1
  Al  Al12  1  0.499993  0.000007  0.000007  1
  Zn  Zn13  1  0.667225  0.666243  0.999307  1
  Zn  Zn14  1  0.667225  0.999307  0.666243  1
  Zn  Zn15  1  0.000633  0.666110  0.666110  1
  Zn  Zn16  1  0.667146  0.666110  0.666110  1
  Zn  Zn17  1  0.330676  0.331977  0.006672  1
  Zn  Zn18  1  0.330676  0.006672  0.331977  1
  Cu  Cu19  1  0.001498  0.332736  0.332736  1
  Cu  Cu20  1  0.333030  0.332736  0.332736  1
  Pd  Pd21  1  0.879228  0.878725  0.362821  1
  Pd  Pd22  1  0.879228  0.362821  0.878725  1
  Pd  Pd23  1  0.363178  0.878787  0.878787  1
  Pd  Pd24  1  0.879250  0.878787  0.878787  1
  Pd  Pd25  1  0.119939  0.118277  0.641842  1
  Pd  Pd26  1  0.119939  0.641842  0.118277  1
  Pd  Pd27  1  0.640863  0.118993  0.118993  1
  Pd  Pd28  1  0.121148  0.118993  0.118993  1
