# generated using pymatgen
data_Tm16ZnIn6Ag
_symmetry_space_group_name_H-M   'P 1'
_cell_length_a   10.53276000
_cell_length_b   10.53276023
_cell_length_c   6.74210600
_cell_angle_alpha   90.00000000
_cell_angle_beta   90.00000000
_cell_angle_gamma   119.99999927
_symmetry_Int_Tables_number   1
_chemical_formula_structural   Tm16ZnIn6Ag
_chemical_formula_sum   'Tm16 Zn1 In6 Ag1'
_cell_volume   647.75473693
_cell_formula_units_Z   1
loop_
 _symmetry_equiv_pos_site_id
 _symmetry_equiv_pos_as_xyz
  1  'x, y, z'
loop_
 _atom_site_type_symbol
 _atom_site_label
 _atom_site_symmetry_multiplicity
 _atom_site_fract_x
 _atom_site_fract_y
 _atom_site_fract_z
 _atom_site_occupancy
  Tm  Tm0  1  0.519927  0.039857  0.520415  1
  Tm  Tm1  1  0.960143  0.480073  0.520415  1
  Tm  Tm2  1  0.519927  0.480073  0.520415  1
  Tm  Tm3  1  0.478881  0.957762  0.019986  1
  Tm  Tm4  1  0.042238  0.521119  0.019986  1
  Tm  Tm5  1  0.478881  0.521119  0.019986  1
  Tm  Tm6  1  0.172402  0.344805  0.735689  1
  Tm  Tm7  1  0.655195  0.827598  0.735689  1
  Tm  Tm8  1  0.172402  0.827598  0.735689  1
  Tm  Tm9  1  0.827230  0.654462  0.230857  1
  Tm  Tm10  1  0.345538  0.172770  0.230857  1
  Tm  Tm11  1  0.827230  0.172770  0.230857  1
  Tm  Tm12  1  0.666667  0.333333  0.869729  1
  Tm  Tm13  1  0.333333  0.666667  0.371574  1
  Tm  Tm14  1  0.000000  0.000000  0.496904  1
  Tm  Tm15  1  0.000000  0.000000  0.996155  1
  Zn  Zn16  1  0.333333  0.666667  0.803177  1
  In  In17  1  0.835882  0.671765  0.749200  1
  In  In18  1  0.328235  0.164118  0.749200  1
  In  In19  1  0.835882  0.164118  0.749200  1
  In  In20  1  0.164678  0.329355  0.253296  1
  In  In21  1  0.670645  0.835322  0.253296  1
  In  In22  1  0.164678  0.835322  0.253296  1
  Ag  Ag23  1  0.666667  0.333333  0.292131  1
