# generated using pymatgen
data_La4DyHo5Ir4
_symmetry_space_group_name_H-M   'P 1'
_cell_length_a   6.57842979
_cell_length_b   7.23835163
_cell_length_c   8.84670004
_cell_angle_alpha   96.87812508
_cell_angle_beta   111.73836553
_cell_angle_gamma   90.13574365
_symmetry_Int_Tables_number   1
_chemical_formula_structural   La4DyHo5Ir4
_chemical_formula_sum   'La4 Dy1 Ho5 Ir4'
_cell_volume   387.98066008
_cell_formula_units_Z   1
loop_
 _symmetry_equiv_pos_site_id
 _symmetry_equiv_pos_as_xyz
  1  'x, y, z'
loop_
 _atom_site_type_symbol
 _atom_site_label
 _atom_site_symmetry_multiplicity
 _atom_site_fract_x
 _atom_site_fract_y
 _atom_site_fract_z
 _atom_site_occupancy
  La  La0  1  0.976608  0.918309  0.194712  1
  La  La1  1  0.781477  0.581600  0.805359  1
  La  La2  1  0.023690  0.081884  0.805420  1
  La  La3  1  0.218355  0.418243  0.194650  1
  Dy  Dy4  1  0.640393  0.816187  0.432865  1
  Ho  Ho5  1  0.207759  0.682828  0.566443  1
  Ho  Ho6  1  0.359598  0.183994  0.567565  1
  Ho  Ho7  1  0.792323  0.317067  0.433686  1
  Ho  Ho8  1  0.430039  0.750610  0.999826  1
  Ho  Ho9  1  0.569970  0.249294  0.999871  1
  Ir  Ir10  1  0.815565  0.575701  0.226623  1
  Ir  Ir11  1  0.588248  0.924321  0.773670  1
  Ir  Ir12  1  0.184584  0.423892  0.772913  1
  Ir  Ir13  1  0.411390  0.076069  0.226398  1
