# generated using pymatgen
data_Dy6Y7Th3(MgRh)4
_symmetry_space_group_name_H-M   'P 1'
_cell_length_a   9.77256427
_cell_length_b   9.79102105
_cell_length_c   9.79728307
_cell_angle_alpha   59.96517572
_cell_angle_beta   59.91153464
_cell_angle_gamma   59.91217232
_symmetry_Int_Tables_number   1
_chemical_formula_structural   Dy6Y7Th3(MgRh)4
_chemical_formula_sum   'Dy6 Y7 Th3 Mg4 Rh4'
_cell_volume   661.80972016
_cell_formula_units_Z   1
loop_
 _symmetry_equiv_pos_site_id
 _symmetry_equiv_pos_as_xyz
  1  'x, y, z'
loop_
 _atom_site_type_symbol
 _atom_site_label
 _atom_site_symmetry_multiplicity
 _atom_site_fract_x
 _atom_site_fract_y
 _atom_site_fract_z
 _atom_site_occupancy
  Dy  Dy0  1  0.203217  0.599461  0.598678  1
  Dy  Dy1  1  0.062317  0.437545  0.437608  1
  Dy  Dy2  1  0.436520  0.063172  0.063763  1
  Dy  Dy3  1  0.436543  0.063166  0.436543  1
  Dy  Dy4  1  0.062348  0.437516  0.062561  1
  Dy  Dy5  1  0.436888  0.437058  0.063028  1
  Y  Y6  1  0.062713  0.062694  0.437289  1
  Y  Y7  1  0.186116  0.814523  0.814999  1
  Y  Y8  1  0.815548  0.185000  0.183987  1
  Y  Y9  1  0.815592  0.184948  0.815499  1
  Y  Y10  1  0.186094  0.814558  0.184365  1
  Y  Y11  1  0.815918  0.815373  0.184335  1
  Y  Y12  1  0.185906  0.185201  0.814459  1
  Th  Th13  1  0.596182  0.598502  0.597328  1
  Th  Th14  1  0.596171  0.598546  0.207949  1
  Th  Th15  1  0.596483  0.206693  0.598427  1
  Mg  Mg16  1  0.830001  0.829691  0.830298  1
  Mg  Mg17  1  0.830037  0.829630  0.510055  1
  Mg  Mg18  1  0.829810  0.509798  0.830171  1
  Mg  Mg19  1  0.508528  0.829903  0.830810  1
  Rh  Rh20  1  0.396445  0.391878  0.392683  1
  Rh  Rh21  1  0.396460  0.391872  0.818922  1
  Rh  Rh22  1  0.397724  0.818416  0.391911  1
  Rh  Rh23  1  0.816440  0.394854  0.394332  1
