# generated using pymatgen
data_Ca2NpSi5AsPd20
_symmetry_space_group_name_H-M   'P 1'
_cell_length_a   8.74730771
_cell_length_b   8.79697634
_cell_length_c   8.79697677
_cell_angle_alpha   59.62682014
_cell_angle_beta   60.18659628
_cell_angle_gamma   60.18660301
_symmetry_Int_Tables_number   1
_chemical_formula_structural   Ca2NpSi5AsPd20
_chemical_formula_sum   'Ca2 Np1 Si5 As1 Pd20'
_cell_volume   478.62877557
_cell_formula_units_Z   1
loop_
 _symmetry_equiv_pos_site_id
 _symmetry_equiv_pos_as_xyz
  1  'x, y, z'
loop_
 _atom_site_type_symbol
 _atom_site_label
 _atom_site_symmetry_multiplicity
 _atom_site_fract_x
 _atom_site_fract_y
 _atom_site_fract_z
 _atom_site_occupancy
  Ca  Ca0  1  0.250297  0.249703  0.249703  1
  Ca  Ca1  1  0.750297  0.749703  0.749703  1
  Np  Np2  1  0.001320  0.998680  0.998680  1
  Si  Si3  1  0.269744  0.730256  0.730256  1
  Si  Si4  1  0.269590  0.730410  0.270026  1
  Si  Si5  1  0.729974  0.270026  0.730410  1
  Si  Si6  1  0.269590  0.270026  0.730410  1
  Si  Si7  1  0.729974  0.730410  0.270026  1
  As  As8  1  0.732966  0.267034  0.267034  1
  Pd  Pd9  1  0.344741  0.999131  0.999131  1
  Pd  Pd10  1  0.656996  0.999131  0.999131  1
  Pd  Pd11  1  0.000869  0.343004  0.655259  1
  Pd  Pd12  1  0.000869  0.655259  0.343004  1
  Pd  Pd13  1  0.007032  0.346371  0.992968  1
  Pd  Pd14  1  0.653629  0.992968  0.346371  1
  Pd  Pd15  1  0.999239  0.657228  0.000761  1
  Pd  Pd16  1  0.342772  0.000761  0.657228  1
  Pd  Pd17  1  0.007032  0.992968  0.346371  1
  Pd  Pd18  1  0.999239  0.000761  0.657228  1
  Pd  Pd19  1  0.653629  0.346371  0.992968  1
  Pd  Pd20  1  0.342772  0.657228  0.000761  1
  Pd  Pd21  1  0.379031  0.387403  0.387403  1
  Pd  Pd22  1  0.614141  0.615741  0.615741  1
  Pd  Pd23  1  0.384259  0.385859  0.845625  1
  Pd  Pd24  1  0.384259  0.845625  0.385859  1
  Pd  Pd25  1  0.612597  0.620969  0.153834  1
  Pd  Pd26  1  0.612597  0.153834  0.620969  1
  Pd  Pd27  1  0.846166  0.387403  0.387403  1
  Pd  Pd28  1  0.154375  0.615741  0.615741  1
