# generated using pymatgen
data_Ca6Yb4Bi5Pb
_symmetry_space_group_name_H-M   'P 1'
_cell_length_a   9.30567131
_cell_length_b   9.29894724
_cell_length_c   7.05753700
_cell_angle_alpha   90.00000000
_cell_angle_beta   90.00000000
_cell_angle_gamma   119.97611571
_symmetry_Int_Tables_number   1
_chemical_formula_structural   Ca6Yb4Bi5Pb
_chemical_formula_sum   'Ca6 Yb4 Bi5 Pb1'
_cell_volume   529.01716149
_cell_formula_units_Z   1
loop_
 _symmetry_equiv_pos_site_id
 _symmetry_equiv_pos_as_xyz
  1  'x, y, z'
loop_
 _atom_site_type_symbol
 _atom_site_label
 _atom_site_symmetry_multiplicity
 _atom_site_fract_x
 _atom_site_fract_y
 _atom_site_fract_z
 _atom_site_occupancy
  Ca  Ca0  1  0.739460  0.739685  0.250000  1
  Ca  Ca1  1  0.260540  0.000224  0.250000  1
  Ca  Ca2  1  0.000000  0.258863  0.250000  1
  Ca  Ca3  1  0.259993  0.264535  0.750000  1
  Ca  Ca4  1  0.740007  0.004542  0.750000  1
  Ca  Ca5  1  0.000000  0.734660  0.750000  1
  Yb  Yb6  1  0.669575  0.333428  0.502008  1
  Yb  Yb7  1  0.330425  0.663853  0.502008  1
  Yb  Yb8  1  0.330425  0.663853  0.997992  1
  Yb  Yb9  1  0.669575  0.333428  0.997992  1
  Bi  Bi10  1  0.387455  0.385263  0.250000  1
  Bi  Bi11  1  0.612545  0.997809  0.250000  1
  Bi  Bi12  1  0.000000  0.615412  0.250000  1
  Bi  Bi13  1  0.618151  0.619166  0.750000  1
  Bi  Bi14  1  0.381849  0.001016  0.750000  1
  Pb  Pb15  1  0.000000  0.384263  0.750000  1
