# generated using pymatgen
data_Tb3DyCo12(CuB3)2
_symmetry_space_group_name_H-M   'P 1'
_cell_length_a   5.04349400
_cell_length_b   5.04445087
_cell_length_c   12.75360300
_cell_angle_alpha   89.99989290
_cell_angle_beta   90.00022561
_cell_angle_gamma   119.99215290
_symmetry_Int_Tables_number   1
_chemical_formula_structural   Tb3DyCo12(CuB3)2
_chemical_formula_sum   'Tb3 Dy1 Co12 Cu2 B6'
_cell_volume   281.02390621
_cell_formula_units_Z   1
loop_
 _symmetry_equiv_pos_site_id
 _symmetry_equiv_pos_as_xyz
  1  'x, y, z'
loop_
 _atom_site_type_symbol
 _atom_site_label
 _atom_site_symmetry_multiplicity
 _atom_site_fract_x
 _atom_site_fract_y
 _atom_site_fract_z
 _atom_site_occupancy
  Tb  Tb0  1  0.999988  0.000000  0.000041  1
  Tb  Tb1  1  0.999986  0.000000  0.261625  1
  Tb  Tb2  1  0.000000  0.000000  0.738336  1
  Dy  Dy3  1  0.999992  0.000000  0.500000  1
  Co  Co4  1  0.499986  0.000000  0.159789  1
  Co  Co5  1  0.499987  0.500000  0.159808  1
  Co  Co6  1  0.999986  0.500000  0.159809  1
  Co  Co7  1  0.500000  0.000000  0.840247  1
  Co  Co8  1  0.499998  0.500003  0.840216  1
  Co  Co9  1  0.999994  0.499996  0.840216  1
  Co  Co10  1  0.499989  0.000000  0.385791  1
  Co  Co11  1  0.499990  0.500000  0.385810  1
  Co  Co12  1  0.999989  0.500000  0.385811  1
  Co  Co13  1  0.499996  0.000000  0.614171  1
  Co  Co14  1  0.499996  0.500000  0.614158  1
  Co  Co15  1  0.999996  0.500000  0.614157  1
  Cu  Cu16  1  0.333359  0.666745  0.000019  1
  Cu  Cu17  1  0.666614  0.333255  0.000019  1
  B  B18  1  0.333367  0.666749  0.500011  1
  B  B19  1  0.666617  0.333251  0.500011  1
  B  B20  1  0.333312  0.666643  0.269235  1
  B  B21  1  0.666661  0.333357  0.269235  1
  B  B22  1  0.666667  0.333340  0.730740  1
  B  B23  1  0.333328  0.666660  0.730740  1
