# generated using pymatgen
data_Sm6EuRuI12
_symmetry_space_group_name_H-M   'P 1'
_cell_length_a   9.95831399
_cell_length_b   9.95831324
_cell_length_c   9.95831257
_cell_angle_alpha   106.77546824
_cell_angle_beta   106.77546949
_cell_angle_gamma   106.77545426
_symmetry_Int_Tables_number   1
_chemical_formula_structural   Sm6EuRuI12
_chemical_formula_sum   'Sm6 Eu1 Ru1 I12'
_cell_volume   827.42361594
_cell_formula_units_Z   1
loop_
 _symmetry_equiv_pos_site_id
 _symmetry_equiv_pos_as_xyz
  1  'x, y, z'
loop_
 _atom_site_type_symbol
 _atom_site_label
 _atom_site_symmetry_multiplicity
 _atom_site_fract_x
 _atom_site_fract_y
 _atom_site_fract_z
 _atom_site_occupancy
  Sm  Sm0  1  0.903598  0.701016  0.976634  1
  Sm  Sm1  1  0.976634  0.903598  0.701016  1
  Sm  Sm2  1  0.701016  0.976634  0.903598  1
  Sm  Sm3  1  0.096402  0.298984  0.023366  1
  Sm  Sm4  1  0.023366  0.096402  0.298984  1
  Sm  Sm5  1  0.298984  0.023366  0.096402  1
  Eu  Eu6  1  0.500000  0.500000  0.500000  1
  Ru  Ru7  1  0.000000  0.000000  0.000000  1
  I  I8  1  0.624818  0.856187  0.545130  1
  I  I9  1  0.545130  0.624818  0.856187  1
  I  I10  1  0.856187  0.545130  0.624818  1
  I  I11  1  0.375182  0.143813  0.454870  1
  I  I12  1  0.454870  0.375182  0.143813  1
  I  I13  1  0.143813  0.454870  0.375182  1
  I  I14  1  0.680673  0.073911  0.224036  1
  I  I15  1  0.224036  0.680673  0.073911  1
  I  I16  1  0.073911  0.224036  0.680673  1
  I  I17  1  0.319327  0.926089  0.775964  1
  I  I18  1  0.775964  0.319327  0.926089  1
  I  I19  1  0.926089  0.775964  0.319327  1
