# generated using pymatgen
data_Tb16Sc4IrPt11
_symmetry_space_group_name_H-M   'P 1'
_cell_length_a   10.96528200
_cell_length_b   10.96528200
_cell_length_c   6.36061900
_cell_angle_alpha   90.00000000
_cell_angle_beta   90.00000000
_cell_angle_gamma   90.00000000
_symmetry_Int_Tables_number   1
_chemical_formula_structural   Tb16Sc4IrPt11
_chemical_formula_sum   'Tb16 Sc4 Ir1 Pt11'
_cell_volume   764.78435036
_cell_formula_units_Z   1
loop_
 _symmetry_equiv_pos_site_id
 _symmetry_equiv_pos_as_xyz
  1  'x, y, z'
loop_
 _atom_site_type_symbol
 _atom_site_label
 _atom_site_symmetry_multiplicity
 _atom_site_fract_x
 _atom_site_fract_y
 _atom_site_fract_z
 _atom_site_occupancy
  Tb  Tb0  1  0.288132  0.086894  0.378777  1
  Tb  Tb1  1  0.288085  0.912806  0.878489  1
  Tb  Tb2  1  0.711915  0.087194  0.878489  1
  Tb  Tb3  1  0.711868  0.913106  0.378777  1
  Tb  Tb4  1  0.587194  0.788085  0.878489  1
  Tb  Tb5  1  0.586894  0.211868  0.378777  1
  Tb  Tb6  1  0.413106  0.788132  0.378777  1
  Tb  Tb7  1  0.412806  0.211915  0.878489  1
  Tb  Tb8  1  0.210771  0.413444  0.618231  1
  Tb  Tb9  1  0.211194  0.586807  0.124985  1
  Tb  Tb10  1  0.788806  0.413193  0.124985  1
  Tb  Tb11  1  0.789229  0.586556  0.618231  1
  Tb  Tb12  1  0.913193  0.711194  0.124985  1
  Tb  Tb13  1  0.913444  0.289229  0.618231  1
  Tb  Tb14  1  0.086556  0.710771  0.618231  1
  Tb  Tb15  1  0.086807  0.288806  0.124985  1
  Sc  Sc16  1  0.000000  0.000000  0.500063  1
  Sc  Sc17  1  0.000000  0.000000  0.999820  1
  Sc  Sc18  1  0.500000  0.500000  0.999820  1
  Sc  Sc19  1  0.500000  0.500000  0.500063  1
  Ir  Ir20  1  0.000000  0.500000  0.379360  1
  Pt  Pt21  1  0.852794  0.146452  0.249937  1
  Pt  Pt22  1  0.852991  0.853309  0.750217  1
  Pt  Pt23  1  0.147009  0.146691  0.750217  1
  Pt  Pt24  1  0.147206  0.853548  0.249937  1
  Pt  Pt25  1  0.646691  0.352991  0.750217  1
  Pt  Pt26  1  0.646452  0.647206  0.249937  1
  Pt  Pt27  1  0.353548  0.352794  0.249937  1
  Pt  Pt28  1  0.353309  0.647009  0.750217  1
  Pt  Pt29  1  0.500000  0.000000  0.119909  1
  Pt  Pt30  1  0.500000  0.000000  0.619935  1
  Pt  Pt31  1  0.000000  0.500000  0.878480  1
