# generated using pymatgen
data_Nd5P12Ru6Rh13
_symmetry_space_group_name_H-M   'P 1'
_cell_length_a   12.73546104
_cell_length_b   12.74144103
_cell_length_c   3.98490000
_cell_angle_alpha   90.00000000
_cell_angle_beta   90.00000000
_cell_angle_gamma   120.08195305
_symmetry_Int_Tables_number   1
_chemical_formula_structural   Nd5P12Ru6Rh13
_chemical_formula_sum   'Nd5 P12 Ru6 Rh13'
_cell_volume   559.52827793
_cell_formula_units_Z   1
loop_
 _symmetry_equiv_pos_site_id
 _symmetry_equiv_pos_as_xyz
  1  'x, y, z'
loop_
 _atom_site_type_symbol
 _atom_site_label
 _atom_site_symmetry_multiplicity
 _atom_site_fract_x
 _atom_site_fract_y
 _atom_site_fract_z
 _atom_site_occupancy
  Nd  Nd0  1  0.668167  0.332408  0.000000  1
  Nd  Nd1  1  0.332615  0.667033  0.000000  1
  Nd  Nd2  1  0.813856  0.000851  0.500000  1
  Nd  Nd3  1  0.185273  0.187097  0.500000  1
  Nd  Nd4  1  0.999354  0.812791  0.500000  1
  P  P5  1  0.633508  0.999552  0.000000  1
  P  P6  1  0.367148  0.367674  0.000000  1
  P  P7  1  0.000476  0.630915  0.000000  1
  P  P8  1  0.688837  0.520446  0.500000  1
  P  P9  1  0.832716  0.308949  0.500000  1
  P  P10  1  0.315965  0.835251  0.500000  1
  P  P11  1  0.520341  0.692029  0.500000  1
  P  P12  1  0.183412  0.999956  0.000000  1
  P  P13  1  0.816014  0.815353  0.000000  1
  P  P14  1  0.996866  0.182112  0.000000  1
  P  P15  1  0.477530  0.167365  0.500000  1
  P  P16  1  0.164341  0.478699  0.500000  1
  Ru  Ru17  1  0.514633  0.875865  0.500000  1
  Ru  Ru18  1  0.713141  0.713108  0.500000  1
  Ru  Ru19  1  0.000376  0.286129  0.500000  1
  Ru  Ru20  1  0.003715  0.451901  0.000000  1
  Ru  Ru21  1  0.818618  0.197112  0.000000  1
  Ru  Ru22  1  0.283939  0.999341  0.500000  1
  Rh  Rh23  1  0.622067  0.802343  0.000000  1
  Rh  Rh24  1  0.181269  0.376367  0.000000  1
  Rh  Rh25  1  0.376841  0.181347  0.000000  1
  Rh  Rh26  1  0.196955  0.818615  0.000000  1
  Rh  Rh27  1  0.802010  0.619789  0.000000  1
  Rh  Rh28  1  0.874683  0.510850  0.500000  1
  Rh  Rh29  1  0.489737  0.360608  0.500000  1
  Rh  Rh30  1  0.636928  0.128217  0.500000  1
  Rh  Rh31  1  0.127821  0.640015  0.500000  1
  Rh  Rh32  1  0.359370  0.491361  0.500000  1
  Rh  Rh33  1  0.999546  0.998868  0.000000  1
  Rh  Rh34  1  0.453677  0.001444  0.000000  1
  Rh  Rh35  1  0.548254  0.548241  0.000000  1
