# generated using pymatgen
data_Y10In8Cu3Pd
_symmetry_space_group_name_H-M   'P 1'
_cell_length_a   3.66404500
_cell_length_b   8.08545669
_cell_length_c   18.12236113
_cell_angle_alpha   90.09384510
_cell_angle_beta   90.00000000
_cell_angle_gamma   90.00000000
_symmetry_Int_Tables_number   1
_chemical_formula_structural   Y10In8Cu3Pd
_chemical_formula_sum   'Y10 In8 Cu3 Pd1'
_cell_volume   536.88287540
_cell_formula_units_Z   1
loop_
 _symmetry_equiv_pos_site_id
 _symmetry_equiv_pos_as_xyz
  1  'x, y, z'
loop_
 _atom_site_type_symbol
 _atom_site_label
 _atom_site_symmetry_multiplicity
 _atom_site_fract_x
 _atom_site_fract_y
 _atom_site_fract_z
 _atom_site_occupancy
  Y  Y0  1  0.500000  0.241210  0.781212  1
  Y  Y1  1  0.500000  0.762012  0.219113  1
  Y  Y2  1  0.500000  0.260769  0.280882  1
  Y  Y3  1  0.500000  0.739471  0.718220  1
  Y  Y4  1  0.500000  0.117859  0.582643  1
  Y  Y5  1  0.500000  0.881115  0.416541  1
  Y  Y6  1  0.500000  0.379896  0.083782  1
  Y  Y7  1  0.500000  0.617792  0.918080  1
  Y  Y8  1  0.500000  0.000510  0.000802  1
  Y  Y9  1  0.500000  0.500616  0.499489  1
  In  In10  1  0.000000  0.078598  0.152002  1
  In  In11  1  0.000000  0.920757  0.848221  1
  In  In12  1  0.000000  0.419764  0.649476  1
  In  In13  1  0.000000  0.579174  0.348283  1
  In  In14  1  0.000000  0.206530  0.430008  1
  In  In15  1  0.000000  0.793228  0.568508  1
  In  In16  1  0.000000  0.291911  0.932355  1
  In  In17  1  0.000000  0.706796  0.069845  1
  Cu  Cu18  1  0.000000  0.025205  0.697003  1
  Cu  Cu19  1  0.000000  0.974984  0.302353  1
  Cu  Cu20  1  0.000000  0.474751  0.197902  1
  Pd  Pd21  1  0.000000  0.527052  0.803281  1
