# generated using pymatgen
data_Pr12Ir(RhCl4)3
_symmetry_space_group_name_H-M   'P 1'
_cell_length_a   10.28881563
_cell_length_b   10.29385638
_cell_length_c   10.29385915
_cell_angle_alpha   109.48119210
_cell_angle_beta   109.46137550
_cell_angle_gamma   109.46139219
_symmetry_Int_Tables_number   1
_chemical_formula_structural   Pr12Ir(RhCl4)3
_chemical_formula_sum   'Pr12 Ir1 Rh3 Cl12'
_cell_volume   839.36681997
_cell_formula_units_Z   1
loop_
 _symmetry_equiv_pos_site_id
 _symmetry_equiv_pos_as_xyz
  1  'x, y, z'
loop_
 _atom_site_type_symbol
 _atom_site_label
 _atom_site_symmetry_multiplicity
 _atom_site_fract_x
 _atom_site_fract_y
 _atom_site_fract_z
 _atom_site_occupancy
  Pr  Pr0  1  0.478283  0.489346  0.239015  1
  Pr  Pr1  1  0.750001  0.239061  0.260935  1
  Pr  Pr2  1  0.749998  0.010891  0.489108  1
  Pr  Pr3  1  0.239111  0.478222  0.489111  1
  Pr  Pr4  1  0.260733  0.749666  0.239013  1
  Pr  Pr5  1  0.021715  0.260982  0.010650  1
  Pr  Pr6  1  0.010935  0.021869  0.260935  1
  Pr  Pr7  1  0.488933  0.749667  0.010654  1
  Pr  Pr8  1  0.489061  0.239062  0.478127  1
  Pr  Pr9  1  0.011063  0.489346  0.750330  1
  Pr  Pr10  1  0.260891  0.010890  0.021781  1
  Pr  Pr11  1  0.239267  0.260982  0.750332  1
  Ir  Ir12  1  0.249999  0.499998  0.999999  1
  Rh  Rh13  1  0.250004  0.249609  0.250407  1
  Rh  Rh14  1  0.500406  0.000810  0.250406  1
  Rh  Rh15  1  0.999605  0.249609  0.499203  1
  Cl  Cl16  1  0.249999  0.750942  0.749056  1
  Cl  Cl17  1  0.501798  0.500898  0.750757  1
  Cl  Cl18  1  0.998197  0.749243  0.999098  1
  Cl  Cl19  1  0.748955  0.249854  0.750756  1
  Cl  Cl20  1  0.999057  0.998113  0.749057  1
  Cl  Cl21  1  0.249997  0.999171  0.500827  1
  Cl  Cl22  1  0.750830  0.501661  0.500830  1
  Cl  Cl23  1  0.500899  0.249854  0.999098  1
  Cl  Cl24  1  0.751045  0.749242  0.250144  1
  Cl  Cl25  1  0.749174  0.999171  0.998343  1
  Cl  Cl26  1  0.999102  0.500898  0.250142  1
  Cl  Cl27  1  0.500943  0.750941  0.501887  1
