# generated using pymatgen
data_Dy5Lu3Pt4
_symmetry_space_group_name_H-M   'P 1'
_cell_length_a   4.74136600
_cell_length_b   7.09840500
_cell_length_c   8.71214100
_cell_angle_alpha   89.99872442
_cell_angle_beta   90.00000000
_cell_angle_gamma   90.00000000
_symmetry_Int_Tables_number   1
_chemical_formula_structural   Dy5Lu3Pt4
_chemical_formula_sum   'Dy5 Lu3 Pt4'
_cell_volume   293.21700337
_cell_formula_units_Z   1
loop_
 _symmetry_equiv_pos_site_id
 _symmetry_equiv_pos_as_xyz
  1  'x, y, z'
loop_
 _atom_site_type_symbol
 _atom_site_label
 _atom_site_symmetry_multiplicity
 _atom_site_fract_x
 _atom_site_fract_y
 _atom_site_fract_z
 _atom_site_occupancy
  Dy  Dy0  1  0.750000  0.355718  0.420587  1
  Dy  Dy1  1  0.250000  0.009396  0.329641  1
  Dy  Dy2  1  0.250000  0.511399  0.169194  1
  Dy  Dy3  1  0.750000  0.988131  0.670906  1
  Dy  Dy4  1  0.750000  0.489903  0.830092  1
  Lu  Lu5  1  0.250000  0.143401  0.921340  1
  Lu  Lu6  1  0.250000  0.644708  0.579511  1
  Lu  Lu7  1  0.750000  0.856656  0.078631  1
  Pt  Pt8  1  0.250000  0.242951  0.595798  1
  Pt  Pt9  1  0.250000  0.744672  0.906444  1
  Pt  Pt10  1  0.750000  0.758071  0.406756  1
  Pt  Pt11  1  0.750000  0.254995  0.091099  1
