# generated using pymatgen
data_NbSb(NF10)2
_symmetry_space_group_name_H-M   'P 1'
_cell_length_a   5.69599573
_cell_length_b   7.73391354
_cell_length_c   9.14895642
_cell_angle_alpha   88.80299518
_cell_angle_beta   109.23628316
_cell_angle_gamma   96.70056876
_symmetry_Int_Tables_number   1
_chemical_formula_structural   NbSb(NF10)2
_chemical_formula_sum   'Nb1 Sb1 N2 F20'
_cell_volume   377.86533065
_cell_formula_units_Z   1
loop_
 _symmetry_equiv_pos_site_id
 _symmetry_equiv_pos_as_xyz
  1  'x, y, z'
loop_
 _atom_site_type_symbol
 _atom_site_label
 _atom_site_symmetry_multiplicity
 _atom_site_fract_x
 _atom_site_fract_y
 _atom_site_fract_z
 _atom_site_occupancy
  Nb  Nb0  1  0.993409  0.755313  0.297463  1
  Sb  Sb1  1  0.004120  0.244957  0.703623  1
  N  N2  1  0.295855  0.274329  0.215110  1
  N  N3  1  0.704816  0.725640  0.785375  1
  F  F4  1  0.061023  0.233468  0.213995  1
  F  F5  1  0.939218  0.766683  0.786610  1
  F  F6  1  0.370290  0.141223  0.156405  1
  F  F7  1  0.629617  0.858662  0.843738  1
  F  F8  1  0.932396  0.194462  0.893721  1
  F  F9  1  0.065900  0.805400  0.104432  1
  F  F10  1  0.076023  0.300328  0.517350  1
  F  F11  1  0.922458  0.699967  0.485219  1
  F  F12  1  0.782995  0.043129  0.606338  1
  F  F13  1  0.221003  0.957222  0.393249  1
  F  F14  1  0.279259  0.108417  0.777113  1
  F  F15  1  0.718171  0.894701  0.220714  1
  F  F16  1  0.214312  0.452039  0.804610  1
  F  F17  1  0.785838  0.544109  0.194515  1
  F  F18  1  0.724913  0.379450  0.639191  1
  F  F19  1  0.277605  0.620926  0.360344  1
  F  F20  1  0.695369  0.585972  0.873234  1
  F  F21  1  0.304699  0.414062  0.127327  1
  F  F22  1  0.551966  0.691404  0.640430  1
  F  F23  1  0.448746  0.308136  0.359892  1
