# generated using pymatgen
data_YRuI18
_symmetry_space_group_name_H-M   'P 1'
_cell_length_a   10.21403050
_cell_length_b   10.30018951
_cell_length_c   10.23297894
_cell_angle_alpha   93.54372359
_cell_angle_beta   93.49226700
_cell_angle_gamma   93.35813085
_symmetry_Int_Tables_number   1
_chemical_formula_structural   YRuI18
_chemical_formula_sum   'Y1 Ru1 I18'
_cell_volume   1070.41950569
_cell_formula_units_Z   1
loop_
 _symmetry_equiv_pos_site_id
 _symmetry_equiv_pos_as_xyz
  1  'x, y, z'
loop_
 _atom_site_type_symbol
 _atom_site_label
 _atom_site_symmetry_multiplicity
 _atom_site_fract_x
 _atom_site_fract_y
 _atom_site_fract_z
 _atom_site_occupancy
  Y  Y0  1  0.500000  0.500000  0.500000  1
  Ru  Ru1  1  0.000000  0.000000  0.000000  1
  I  I2  1  0.795576  0.478841  0.524526  1
  I  I3  1  0.524443  0.794471  0.478723  1
  I  I4  1  0.480081  0.525470  0.796398  1
  I  I5  1  0.204424  0.521159  0.475474  1
  I  I6  1  0.475557  0.205529  0.521277  1
  I  I7  1  0.519919  0.474530  0.203602  1
  I  I8  1  0.901462  0.362183  0.767026  1
  I  I9  1  0.766074  0.898209  0.362351  1
  I  I10  1  0.362275  0.765558  0.901703  1
  I  I11  1  0.098538  0.637817  0.232974  1
  I  I12  1  0.233926  0.101791  0.637649  1
  I  I13  1  0.637725  0.234442  0.098297  1
  I  I14  1  0.004377  0.968540  0.737225  1
  I  I15  1  0.737493  0.001793  0.971930  1
  I  I16  1  0.967414  0.735036  0.000306  1
  I  I17  1  0.995623  0.031460  0.262775  1
  I  I18  1  0.262507  0.998207  0.028070  1
  I  I19  1  0.032586  0.264964  0.999694  1
