# generated using pymatgen
data_CaHo5Rh18
_symmetry_space_group_name_H-M   'P 1'
_cell_length_a   5.26222000
_cell_length_b   5.26221983
_cell_length_c   17.50690300
_cell_angle_alpha   90.00000000
_cell_angle_beta   90.00000000
_cell_angle_gamma   120.00000109
_symmetry_Int_Tables_number   1
_chemical_formula_structural   CaHo5Rh18
_chemical_formula_sum   'Ca1 Ho5 Rh18'
_cell_volume   419.83432199
_cell_formula_units_Z   1
loop_
 _symmetry_equiv_pos_site_id
 _symmetry_equiv_pos_as_xyz
  1  'x, y, z'
loop_
 _atom_site_type_symbol
 _atom_site_label
 _atom_site_symmetry_multiplicity
 _atom_site_fract_x
 _atom_site_fract_y
 _atom_site_fract_z
 _atom_site_occupancy
  Ca  Ca0  1  0.666667  0.333333  0.250000  1
  Ho  Ho1  1  0.333333  0.666667  0.541433  1
  Ho  Ho2  1  0.666667  0.333333  0.042954  1
  Ho  Ho3  1  0.666667  0.333333  0.457046  1
  Ho  Ho4  1  0.333333  0.666667  0.958567  1
  Ho  Ho5  1  0.333333  0.666667  0.750000  1
  Rh  Rh6  1  0.167327  0.334653  0.124902  1
  Rh  Rh7  1  0.832600  0.665202  0.625690  1
  Rh  Rh8  1  0.665347  0.832673  0.124902  1
  Rh  Rh9  1  0.167327  0.832673  0.124902  1
  Rh  Rh10  1  0.832600  0.167400  0.625690  1
  Rh  Rh11  1  0.334798  0.167400  0.625690  1
  Rh  Rh12  1  0.832600  0.665202  0.874310  1
  Rh  Rh13  1  0.832600  0.167400  0.874310  1
  Rh  Rh14  1  0.334798  0.167400  0.874310  1
  Rh  Rh15  1  0.665347  0.832673  0.375098  1
  Rh  Rh16  1  0.167327  0.832673  0.375098  1
  Rh  Rh17  1  0.167327  0.334653  0.375098  1
  Rh  Rh18  1  0.000000  0.000000  0.250000  1
  Rh  Rh19  1  0.000000  0.000000  0.750000  1
  Rh  Rh20  1  0.333333  0.666667  0.250000  1
  Rh  Rh21  1  0.666667  0.333333  0.750000  1
  Rh  Rh22  1  0.000000  0.000000  0.999504  1
  Rh  Rh23  1  0.000000  0.000000  0.500496  1
