# generated using pymatgen
data_Gd4Tc3RuF28
_symmetry_space_group_name_H-M   'P 1'
_cell_length_a   5.60106870
_cell_length_b   8.92807182
_cell_length_c   12.00102100
_cell_angle_alpha   62.80168205
_cell_angle_beta   90.06582644
_cell_angle_gamma   90.03644071
_symmetry_Int_Tables_number   1
_chemical_formula_structural   Gd4Tc3RuF28
_chemical_formula_sum   'Gd4 Tc3 Ru1 F28'
_cell_volume   533.77490570
_cell_formula_units_Z   1
loop_
 _symmetry_equiv_pos_site_id
 _symmetry_equiv_pos_as_xyz
  1  'x, y, z'
loop_
 _atom_site_type_symbol
 _atom_site_label
 _atom_site_symmetry_multiplicity
 _atom_site_fract_x
 _atom_site_fract_y
 _atom_site_fract_z
 _atom_site_occupancy
  Gd  Gd0  1  0.759108  0.810125  0.767550  1
  Gd  Gd1  1  0.258381  0.189174  0.731565  1
  Gd  Gd2  1  0.240659  0.189565  0.236117  1
  Gd  Gd3  1  0.740373  0.814401  0.264917  1
  Tc  Tc4  1  0.756082  0.272828  0.956507  1
  Tc  Tc5  1  0.255541  0.726927  0.542903  1
  Tc  Tc6  1  0.243896  0.726715  0.044022  1
  Ru  Ru7  1  0.744632  0.273781  0.456024  1
  F  F8  1  0.445270  0.703555  0.919893  1
  F  F9  1  0.941329  0.293717  0.583818  1
  F  F10  1  0.551797  0.295494  0.079532  1
  F  F11  1  0.052181  0.704875  0.418979  1
  F  F12  1  0.449636  0.282106  0.542450  1
  F  F13  1  0.950030  0.716930  0.957752  1
  F  F14  1  0.547160  0.715423  0.455927  1
  F  F15  1  0.046971  0.282730  0.044599  1
  F  F16  1  0.770849  0.517933  0.858043  1
  F  F17  1  0.267711  0.482629  0.641363  1
  F  F18  1  0.229412  0.482033  0.141833  1
  F  F19  1  0.732373  0.513157  0.360612  1
  F  F20  1  0.757069  0.027135  0.051163  1
  F  F21  1  0.258984  0.972157  0.449366  1
  F  F22  1  0.243987  0.971506  0.949131  1
  F  F23  1  0.744587  0.034357  0.547310  1
  F  F24  1  0.972944  0.730704  0.637038  1
  F  F25  1  0.475615  0.271380  0.860031  1
  F  F26  1  0.032073  0.273569  0.363604  1
  F  F27  1  0.526861  0.726425  0.139740  1
  F  F28  1  0.048093  0.744772  0.172809  1
  F  F29  1  0.553216  0.256203  0.325120  1
  F  F30  1  0.954811  0.253892  0.829230  1
  F  F31  1  0.453822  0.746598  0.670545  1
  F  F32  1  0.411787  0.968925  0.231096  1
  F  F33  1  0.911920  0.031879  0.270094  1
  F  F34  1  0.585006  0.029748  0.768119  1
  F  F35  1  0.085835  0.966648  0.731197  1
