# generated using pymatgen
data_Er7Lu3In8IrPt3
_symmetry_space_group_name_H-M   'P 1'
_cell_length_a   3.60757900
_cell_length_b   8.07036544
_cell_length_c   18.06456409
_cell_angle_alpha   89.98679233
_cell_angle_beta   90.00000000
_cell_angle_gamma   90.00000000
_symmetry_Int_Tables_number   1
_chemical_formula_structural   Er7Lu3In8IrPt3
_chemical_formula_sum   'Er7 Lu3 In8 Ir1 Pt3'
_cell_volume   525.94039212
_cell_formula_units_Z   1
loop_
 _symmetry_equiv_pos_site_id
 _symmetry_equiv_pos_as_xyz
  1  'x, y, z'
loop_
 _atom_site_type_symbol
 _atom_site_label
 _atom_site_symmetry_multiplicity
 _atom_site_fract_x
 _atom_site_fract_y
 _atom_site_fract_z
 _atom_site_occupancy
  Er  Er0  1  0.000000  0.616866  0.086099  1
  Er  Er1  1  0.000000  0.237437  0.222049  1
  Er  Er2  1  0.000000  0.757533  0.779390  1
  Er  Er3  1  0.000000  0.256925  0.720876  1
  Er  Er4  1  0.000000  0.750129  0.279609  1
  Er  Er5  1  0.000000  0.000212  0.000162  1
  Er  Er6  1  0.000000  0.500766  0.499594  1
  Lu  Lu7  1  0.000000  0.114739  0.412068  1
  Lu  Lu8  1  0.000000  0.883645  0.585896  1
  Lu  Lu9  1  0.000000  0.383826  0.913967  1
  In  In10  1  0.500000  0.421923  0.351543  1
  In  In11  1  0.500000  0.577302  0.648377  1
  In  In12  1  0.500000  0.077333  0.851803  1
  In  In13  1  0.500000  0.925988  0.149221  1
  In  In14  1  0.500000  0.292228  0.065922  1
  In  In15  1  0.500000  0.706995  0.933548  1
  In  In16  1  0.500000  0.206827  0.565960  1
  In  In17  1  0.500000  0.794326  0.432762  1
  Ir  Ir18  1  0.500000  0.022577  0.304720  1
  Pt  Pt19  1  0.500000  0.974776  0.695657  1
  Pt  Pt20  1  0.500000  0.474782  0.804366  1
  Pt  Pt21  1  0.500000  0.522866  0.196410  1
