# generated using pymatgen
data_Dy4ZrIr3
_symmetry_space_group_name_H-M   'P 1'
_cell_length_a   10.86484100
_cell_length_b   10.86484100
_cell_length_c   6.26009500
_cell_angle_alpha   90.00000000
_cell_angle_beta   90.00000000
_cell_angle_gamma   90.00000000
_symmetry_Int_Tables_number   1
_chemical_formula_structural   Dy4ZrIr3
_chemical_formula_sum   'Dy16 Zr4 Ir12'
_cell_volume   738.97147417
_cell_formula_units_Z   4
loop_
 _symmetry_equiv_pos_site_id
 _symmetry_equiv_pos_as_xyz
  1  'x, y, z'
loop_
 _atom_site_type_symbol
 _atom_site_label
 _atom_site_symmetry_multiplicity
 _atom_site_fract_x
 _atom_site_fract_y
 _atom_site_fract_z
 _atom_site_occupancy
  Dy  Dy0  1  0.289893  0.086755  0.373683  1
  Dy  Dy1  1  0.289893  0.913245  0.873683  1
  Dy  Dy2  1  0.710107  0.086755  0.873683  1
  Dy  Dy3  1  0.710107  0.913245  0.373683  1
  Dy  Dy4  1  0.586755  0.789893  0.873683  1
  Dy  Dy5  1  0.586755  0.210107  0.373683  1
  Dy  Dy6  1  0.413245  0.789893  0.373683  1
  Dy  Dy7  1  0.413245  0.210107  0.873683  1
  Dy  Dy8  1  0.210107  0.413245  0.626317  1
  Dy  Dy9  1  0.210107  0.586755  0.126317  1
  Dy  Dy10  1  0.789893  0.413245  0.126317  1
  Dy  Dy11  1  0.789893  0.586755  0.626317  1
  Dy  Dy12  1  0.913245  0.710107  0.126317  1
  Dy  Dy13  1  0.913245  0.289893  0.626317  1
  Dy  Dy14  1  0.086755  0.710107  0.626317  1
  Dy  Dy15  1  0.086755  0.289893  0.126317  1
  Zr  Zr16  1  0.000000  0.000000  0.500000  1
  Zr  Zr17  1  0.000000  0.000000  0.000000  1
  Zr  Zr18  1  0.500000  0.500000  0.000000  1
  Zr  Zr19  1  0.500000  0.500000  0.500000  1
  Ir  Ir20  1  0.855253  0.144747  0.250000  1
  Ir  Ir21  1  0.855253  0.855253  0.750000  1
  Ir  Ir22  1  0.144747  0.144747  0.750000  1
  Ir  Ir23  1  0.144747  0.855253  0.250000  1
  Ir  Ir24  1  0.644747  0.355253  0.750000  1
  Ir  Ir25  1  0.644747  0.644747  0.250000  1
  Ir  Ir26  1  0.355253  0.355253  0.250000  1
  Ir  Ir27  1  0.355253  0.644747  0.750000  1
  Ir  Ir28  1  0.500000  0.000000  0.119024  1
  Ir  Ir29  1  0.500000  0.000000  0.619024  1
  Ir  Ir30  1  0.000000  0.500000  0.880976  1
  Ir  Ir31  1  0.000000  0.500000  0.380976  1
