# generated using pymatgen
data_PdSe2I5Br
_symmetry_space_group_name_H-M   'P 1'
_cell_length_a   5.46851975
_cell_length_b   7.52724879
_cell_length_c   9.97969172
_cell_angle_alpha   104.46601311
_cell_angle_beta   98.60841484
_cell_angle_gamma   93.53701796
_symmetry_Int_Tables_number   1
_chemical_formula_structural   PdSe2I5Br
_chemical_formula_sum   'Pd1 Se2 I5 Br1'
_cell_volume   391.17629004
_cell_formula_units_Z   1
loop_
 _symmetry_equiv_pos_site_id
 _symmetry_equiv_pos_as_xyz
  1  'x, y, z'
loop_
 _atom_site_type_symbol
 _atom_site_label
 _atom_site_symmetry_multiplicity
 _atom_site_fract_x
 _atom_site_fract_y
 _atom_site_fract_z
 _atom_site_occupancy
  Pd  Pd0  1  0.997439  0.496610  0.502742  1
  Se  Se1  1  0.719937  0.275952  0.305674  1
  Se  Se2  1  0.280412  0.721232  0.693898  1
  I  I3  1  0.286937  0.650781  0.364662  1
  I  I4  1  0.715295  0.347944  0.647776  1
  I  I5  1  0.741004  0.344023  0.066179  1
  I  I6  1  0.029089  0.010263  0.701023  1
  I  I7  1  0.969228  0.986693  0.299687  1
  Br  Br8  1  0.260659  0.666502  0.918359  1
