# generated using pymatgen
data_LuTa2Nb3(B2Ru5)2
_symmetry_space_group_name_H-M   'P 1'
_cell_length_a   9.49355852
_cell_length_b   9.49355841
_cell_length_c   3.04675500
_cell_angle_alpha   90.00000000
_cell_angle_beta   90.00000000
_cell_angle_gamma   90.11574984
_symmetry_Int_Tables_number   1
_chemical_formula_structural   LuTa2Nb3(B2Ru5)2
_chemical_formula_sum   'Lu1 Ta2 Nb3 B4 Ru10'
_cell_volume   274.59631484
_cell_formula_units_Z   1
loop_
 _symmetry_equiv_pos_site_id
 _symmetry_equiv_pos_as_xyz
  1  'x, y, z'
loop_
 _atom_site_type_symbol
 _atom_site_label
 _atom_site_symmetry_multiplicity
 _atom_site_fract_x
 _atom_site_fract_y
 _atom_site_fract_z
 _atom_site_occupancy
  Lu  Lu0  1  0.824341  0.675659  0.000000  1
  Ta  Ta1  1  0.501631  0.500876  0.000000  1
  Ta  Ta2  1  0.999124  0.998369  0.000000  1
  Nb  Nb3  1  0.177614  0.322386  0.000000  1
  Nb  Nb4  1  0.324037  0.823131  0.000000  1
  Nb  Nb5  1  0.676869  0.175963  0.000000  1
  B  B6  1  0.619702  0.880298  0.000000  1
  B  B7  1  0.377513  0.122487  0.000000  1
  B  B8  1  0.122158  0.619748  0.000000  1
  B  B9  1  0.880252  0.377842  0.000000  1
  Ru  Ru10  1  0.561073  0.722963  0.500000  1
  Ru  Ru11  1  0.427550  0.282940  0.500000  1
  Ru  Ru12  1  0.078896  0.782588  0.500000  1
  Ru  Ru13  1  0.930003  0.216443  0.500000  1
  Ru  Ru14  1  0.283557  0.569997  0.500000  1
  Ru  Ru15  1  0.717412  0.421104  0.500000  1
  Ru  Ru16  1  0.217060  0.072450  0.500000  1
  Ru  Ru17  1  0.777037  0.938927  0.500000  1
  Ru  Ru18  1  0.497105  0.002895  0.500000  1
  Ru  Ru19  1  0.007068  0.492932  0.500000  1
