# generated using pymatgen
data_Er2Ni2B6Ir
_symmetry_space_group_name_H-M   'P 1'
_cell_length_a   5.86270991
_cell_length_b   5.86270978
_cell_length_c   3.47570600
_cell_angle_alpha   90.00000000
_cell_angle_beta   90.00000000
_cell_angle_gamma   94.71251189
_symmetry_Int_Tables_number   1
_chemical_formula_structural   Er2Ni2B6Ir
_chemical_formula_sum   'Er2 Ni2 B6 Ir1'
_cell_volume   119.06091139
_cell_formula_units_Z   1
loop_
 _symmetry_equiv_pos_site_id
 _symmetry_equiv_pos_as_xyz
  1  'x, y, z'
loop_
 _atom_site_type_symbol
 _atom_site_label
 _atom_site_symmetry_multiplicity
 _atom_site_fract_x
 _atom_site_fract_y
 _atom_site_fract_z
 _atom_site_occupancy
  Er  Er0  1  0.274545  0.725455  0.000000  1
  Er  Er1  1  0.725455  0.274544  0.000000  1
  Ni  Ni2  1  0.236595  0.236595  0.000000  1
  Ni  Ni3  1  0.763405  0.763405  0.000000  1
  B  B4  1  0.609184  0.609184  0.500000  1
  B  B5  1  0.390816  0.390816  0.500000  1
  B  B6  1  0.612774  0.912529  0.500000  1
  B  B7  1  0.387226  0.087471  0.500000  1
  B  B8  1  0.912529  0.612774  0.500000  1
  B  B9  1  0.087471  0.387226  0.500000  1
  Ir  Ir10  1  0.000000  0.000000  0.500000  1
