# generated using pymatgen
data_Ho3Er(ScPt)4
_symmetry_space_group_name_H-M   'P 1'
_cell_length_a   4.61950000
_cell_length_b   6.97070051
_cell_length_c   8.37177671
_cell_angle_alpha   90.08055032
_cell_angle_beta   90.00000000
_cell_angle_gamma   90.00000000
_symmetry_Int_Tables_number   1
_chemical_formula_structural   Ho3Er(ScPt)4
_chemical_formula_sum   'Ho3 Er1 Sc4 Pt4'
_cell_volume   269.58057978
_cell_formula_units_Z   1
loop_
 _symmetry_equiv_pos_site_id
 _symmetry_equiv_pos_as_xyz
  1  'x, y, z'
loop_
 _atom_site_type_symbol
 _atom_site_label
 _atom_site_symmetry_multiplicity
 _atom_site_fract_x
 _atom_site_fract_y
 _atom_site_fract_z
 _atom_site_occupancy
  Ho  Ho0  1  0.250000  0.021954  0.324917  1
  Ho  Ho1  1  0.250000  0.521974  0.175119  1
  Ho  Ho2  1  0.750000  0.978158  0.675461  1
  Er  Er3  1  0.750000  0.477690  0.824735  1
  Sc  Sc4  1  0.250000  0.641242  0.571274  1
  Sc  Sc5  1  0.250000  0.141240  0.929197  1
  Sc  Sc6  1  0.750000  0.358787  0.429405  1
  Sc  Sc7  1  0.750000  0.858779  0.070603  1
  Pt  Pt8  1  0.250000  0.254958  0.603727  1
  Pt  Pt9  1  0.250000  0.753574  0.896661  1
  Pt  Pt10  1  0.750000  0.745554  0.396600  1
  Pt  Pt11  1  0.750000  0.246091  0.102302  1
