# generated using pymatgen
data_TbTaB2Ru5W
_symmetry_space_group_name_H-M   'P 1'
_cell_length_a   9.55730927
_cell_length_b   9.55731032
_cell_length_c   3.04478000
_cell_angle_alpha   90.00000000
_cell_angle_beta   90.00000000
_cell_angle_gamma   90.81450200
_symmetry_Int_Tables_number   1
_chemical_formula_structural   TbTaB2Ru5W
_chemical_formula_sum   'Tb2 Ta2 B4 Ru10 W2'
_cell_volume   278.08871248
_cell_formula_units_Z   2
loop_
 _symmetry_equiv_pos_site_id
 _symmetry_equiv_pos_as_xyz
  1  'x, y, z'
loop_
 _atom_site_type_symbol
 _atom_site_label
 _atom_site_symmetry_multiplicity
 _atom_site_fract_x
 _atom_site_fract_y
 _atom_site_fract_z
 _atom_site_occupancy
  Tb  Tb0  1  0.823360  0.676640  0.000000  1
  Tb  Tb1  1  0.176640  0.323360  0.000000  1
  Ta  Ta2  1  0.324662  0.824662  0.000000  1
  Ta  Ta3  1  0.675338  0.175338  0.000000  1
  B  B4  1  0.619221  0.880779  0.000000  1
  B  B5  1  0.380779  0.119221  0.000000  1
  B  B6  1  0.121967  0.621967  0.000000  1
  B  B7  1  0.878033  0.378033  0.000000  1
  Ru  Ru8  1  0.560804  0.721382  0.500000  1
  Ru  Ru9  1  0.439196  0.278618  0.500000  1
  Ru  Ru10  1  0.080509  0.787138  0.500000  1
  Ru  Ru11  1  0.919491  0.212862  0.500000  1
  Ru  Ru12  1  0.287138  0.580509  0.500000  1
  Ru  Ru13  1  0.712862  0.419491  0.500000  1
  Ru  Ru14  1  0.221382  0.060804  0.500000  1
  Ru  Ru15  1  0.778618  0.939196  0.500000  1
  Ru  Ru16  1  0.500000  0.000000  0.500000  1
  Ru  Ru17  1  0.000000  0.500000  0.500000  1
  W  W18  1  0.500000  0.500000  0.000000  1
  W  W19  1  0.000000  0.000000  0.000000  1
