# generated using pymatgen
data_Tb4Tm(GaSb)2
_symmetry_space_group_name_H-M   'P 1'
_cell_length_a   8.66281029
_cell_length_b   8.66280998
_cell_length_c   7.94126500
_cell_angle_alpha   90.00000000
_cell_angle_beta   90.00000000
_cell_angle_gamma   125.44270807
_symmetry_Int_Tables_number   1
_chemical_formula_structural   Tb4Tm(GaSb)2
_chemical_formula_sum   'Tb8 Tm2 Ga4 Sb4'
_cell_volume   485.51510405
_cell_formula_units_Z   2
loop_
 _symmetry_equiv_pos_site_id
 _symmetry_equiv_pos_as_xyz
  1  'x, y, z'
loop_
 _atom_site_type_symbol
 _atom_site_label
 _atom_site_symmetry_multiplicity
 _atom_site_fract_x
 _atom_site_fract_y
 _atom_site_fract_z
 _atom_site_occupancy
  Tb  Tb0  1  0.538691  0.800358  0.167842  1
  Tb  Tb1  1  0.300358  0.038691  0.332158  1
  Tb  Tb2  1  0.199642  0.461309  0.832158  1
  Tb  Tb3  1  0.961309  0.699642  0.667842  1
  Tb  Tb4  1  0.699642  0.961309  0.667842  1
  Tb  Tb5  1  0.461309  0.199642  0.832158  1
  Tb  Tb6  1  0.800358  0.538691  0.167842  1
  Tb  Tb7  1  0.038691  0.300358  0.332158  1
  Tm  Tm8  1  0.500000  0.500000  0.500000  1
  Tm  Tm9  1  0.000000  0.000000  0.000000  1
  Ga  Ga10  1  0.625338  0.625338  0.874806  1
  Ga  Ga11  1  0.125338  0.125338  0.625194  1
  Ga  Ga12  1  0.874662  0.874662  0.374806  1
  Ga  Ga13  1  0.374662  0.374662  0.125194  1
  Sb  Sb14  1  0.295622  0.704378  0.500000  1
  Sb  Sb15  1  0.204378  0.795622  0.000000  1
  Sb  Sb16  1  0.704378  0.295622  0.500000  1
  Sb  Sb17  1  0.795622  0.204378  0.000000  1
