# generated using pymatgen
data_Tb3Mg2CdGa2Ag
_symmetry_space_group_name_H-M   'P 1'
_cell_length_a   7.41825200
_cell_length_b   7.41291820
_cell_length_c   4.37182500
_cell_angle_alpha   90.00000000
_cell_angle_beta   90.00000000
_cell_angle_gamma   120.02380465
_symmetry_Int_Tables_number   1
_chemical_formula_structural   Tb3Mg2CdGa2Ag
_chemical_formula_sum   'Tb3 Mg2 Cd1 Ga2 Ag1'
_cell_volume   208.15170187
_cell_formula_units_Z   1
loop_
 _symmetry_equiv_pos_site_id
 _symmetry_equiv_pos_as_xyz
  1  'x, y, z'
loop_
 _atom_site_type_symbol
 _atom_site_label
 _atom_site_symmetry_multiplicity
 _atom_site_fract_x
 _atom_site_fract_y
 _atom_site_fract_z
 _atom_site_occupancy
  Tb  Tb0  1  0.575027  0.000000  0.000000  1
  Tb  Tb1  1  0.999872  0.578958  0.000000  1
  Tb  Tb2  1  0.420914  0.421042  0.000000  1
  Mg  Mg3  1  0.001267  0.245281  0.500000  1
  Mg  Mg4  1  0.755986  0.754719  0.500000  1
  Cd  Cd5  1  0.250744  0.000000  0.500000  1
  Ga  Ga6  1  0.333208  0.663797  0.500000  1
  Ga  Ga7  1  0.669413  0.336203  0.500000  1
  Ag  Ag8  1  0.993569  0.000000  0.000000  1
