# generated using pymatgen
data_Ho2Th6TiS17
_symmetry_space_group_name_H-M   'P 1'
_cell_length_a   8.03127042
_cell_length_b   8.03127124
_cell_length_c   10.65148139
_cell_angle_alpha   80.75021337
_cell_angle_beta   80.75021554
_cell_angle_gamma   65.22406238
_symmetry_Int_Tables_number   1
_chemical_formula_structural   Ho2Th6TiS17
_chemical_formula_sum   'Ho2 Th6 Ti1 S17'
_cell_volume   612.33268489
_cell_formula_units_Z   1
loop_
 _symmetry_equiv_pos_site_id
 _symmetry_equiv_pos_as_xyz
  1  'x, y, z'
loop_
 _atom_site_type_symbol
 _atom_site_label
 _atom_site_symmetry_multiplicity
 _atom_site_fract_x
 _atom_site_fract_y
 _atom_site_fract_z
 _atom_site_occupancy
  Ho  Ho0  1  0.811483  0.303253  0.296555  1
  Ho  Ho1  1  0.303253  0.811483  0.296555  1
  Th  Th2  1  0.188000  0.699479  0.700239  1
  Th  Th3  1  0.699479  0.188000  0.700239  1
  Th  Th4  1  0.206616  0.206616  0.537748  1
  Th  Th5  1  0.794356  0.794356  0.453851  1
  Th  Th6  1  0.680137  0.680137  0.983296  1
  Th  Th7  1  0.318562  0.318562  0.026802  1
  Ti  Ti8  1  0.003051  0.003051  0.006112  1
  S  S9  1  0.823800  0.429259  0.529753  1
  S  S10  1  0.429259  0.823800  0.529753  1
  S  S11  1  0.177256  0.572173  0.466519  1
  S  S12  1  0.572173  0.177256  0.466519  1
  S  S13  1  0.940485  0.319010  0.028331  1
  S  S14  1  0.319010  0.940485  0.028331  1
  S  S15  1  0.058686  0.680833  0.972011  1
  S  S16  1  0.680833  0.058686  0.972011  1
  S  S17  1  0.203403  0.203403  0.276563  1
  S  S18  1  0.791830  0.791830  0.724034  1
  S  S19  1  0.060121  0.060121  0.776861  1
  S  S20  1  0.942541  0.942541  0.225129  1
  S  S21  1  0.303991  0.303991  0.755935  1
  S  S22  1  0.693009  0.693009  0.244563  1
  S  S23  1  0.520622  0.520622  0.833028  1
  S  S24  1  0.479753  0.479753  0.165192  1
  S  S25  1  0.998288  0.998288  0.504071  1
