# generated using pymatgen
data_NdHo3Lu(In2Pt)2
_symmetry_space_group_name_H-M   'P 1'
_cell_length_a   3.62010300
_cell_length_b   8.17895812
_cell_length_c   18.30705742
_cell_angle_alpha   89.90710829
_cell_angle_beta   90.00000000
_cell_angle_gamma   90.00000000
_symmetry_Int_Tables_number   1
_chemical_formula_structural   NdHo3Lu(In2Pt)2
_chemical_formula_sum   'Nd2 Ho6 Lu2 In8 Pt4'
_cell_volume   542.04692496
_cell_formula_units_Z   2
loop_
 _symmetry_equiv_pos_site_id
 _symmetry_equiv_pos_as_xyz
  1  'x, y, z'
loop_
 _atom_site_type_symbol
 _atom_site_label
 _atom_site_symmetry_multiplicity
 _atom_site_fract_x
 _atom_site_fract_y
 _atom_site_fract_z
 _atom_site_occupancy
  Nd  Nd0  1  0.000000  0.000000  0.000000  1
  Nd  Nd1  1  0.000000  0.500000  0.500000  1
  Ho  Ho2  1  0.000000  0.379563  0.913503  1
  Ho  Ho3  1  0.000000  0.620437  0.086497  1
  Ho  Ho4  1  0.000000  0.241595  0.219682  1
  Ho  Ho5  1  0.000000  0.758405  0.780318  1
  Ho  Ho6  1  0.000000  0.258966  0.717490  1
  Ho  Ho7  1  0.000000  0.741034  0.282510  1
  Lu  Lu8  1  0.000000  0.120053  0.413156  1
  Lu  Lu9  1  0.000000  0.879947  0.586844  1
  In  In10  1  0.500000  0.418501  0.348623  1
  In  In11  1  0.500000  0.581499  0.651377  1
  In  In12  1  0.500000  0.078377  0.847272  1
  In  In13  1  0.500000  0.921623  0.152728  1
  In  In14  1  0.500000  0.300381  0.067695  1
  In  In15  1  0.500000  0.699619  0.932305  1
  In  In16  1  0.500000  0.195336  0.564735  1
  In  In17  1  0.500000  0.804664  0.435265  1
  Pt  Pt18  1  0.500000  0.026116  0.305746  1
  Pt  Pt19  1  0.500000  0.973884  0.694254  1
  Pt  Pt20  1  0.500000  0.474836  0.802641  1
  Pt  Pt21  1  0.500000  0.525164  0.197359  1
