# generated using pymatgen
data_La3Pr13Mg3AlIr4
_symmetry_space_group_name_H-M   'P 1'
_cell_length_a   10.08562010
_cell_length_b   10.09938881
_cell_length_c   10.09938811
_cell_angle_alpha   59.99849659
_cell_angle_beta   59.94823812
_cell_angle_gamma   59.94824185
_symmetry_Int_Tables_number   1
_chemical_formula_structural   La3Pr13Mg3AlIr4
_chemical_formula_sum   'La3 Pr13 Mg3 Al1 Ir4'
_cell_volume   726.82962445
_cell_formula_units_Z   1
loop_
 _symmetry_equiv_pos_site_id
 _symmetry_equiv_pos_as_xyz
  1  'x, y, z'
loop_
 _atom_site_type_symbol
 _atom_site_label
 _atom_site_symmetry_multiplicity
 _atom_site_fract_x
 _atom_site_fract_y
 _atom_site_fract_z
 _atom_site_occupancy
  La  La0  1  0.344579  0.345552  0.345552  1
  La  La1  1  0.347501  0.348256  0.959075  1
  La  La2  1  0.347501  0.959075  0.348256  1
  Pr  Pr3  1  0.953352  0.349933  0.349933  1
  Pr  Pr4  1  0.812007  0.187635  0.187635  1
  Pr  Pr5  1  0.191210  0.807643  0.807643  1
  Pr  Pr6  1  0.187913  0.811549  0.187449  1
  Pr  Pr7  1  0.808171  0.191264  0.807365  1
  Pr  Pr8  1  0.187913  0.187449  0.811549  1
  Pr  Pr9  1  0.808171  0.807365  0.191264  1
  Pr  Pr10  1  0.936168  0.562088  0.562088  1
  Pr  Pr11  1  0.560843  0.937880  0.937880  1
  Pr  Pr12  1  0.562546  0.935769  0.562321  1
  Pr  Pr13  1  0.938091  0.560630  0.938486  1
  Pr  Pr14  1  0.562546  0.562321  0.935769  1
  Pr  Pr15  1  0.938091  0.938486  0.560630  1
  Mg  Mg16  1  0.579215  0.578058  0.268705  1
  Mg  Mg17  1  0.579215  0.268705  0.578058  1
  Mg  Mg18  1  0.268592  0.578602  0.578602  1
  Al  Al19  1  0.582514  0.581310  0.581310  1
  Ir  Ir20  1  0.142964  0.141665  0.141665  1
  Ir  Ir21  1  0.143389  0.141905  0.574434  1
  Ir  Ir22  1  0.143389  0.574434  0.141905  1
  Ir  Ir23  1  0.574116  0.142424  0.142424  1
