# generated using pymatgen
data_Lu3In3RuAu2
_symmetry_space_group_name_H-M   'P 1'
_cell_length_a   7.82478100
_cell_length_b   7.82478151
_cell_length_c   3.71698400
_cell_angle_alpha   90.00000000
_cell_angle_beta   90.00000000
_cell_angle_gamma   119.99999363
_symmetry_Int_Tables_number   1
_chemical_formula_structural   Lu3In3RuAu2
_chemical_formula_sum   'Lu3 In3 Ru1 Au2'
_cell_volume   197.09053216
_cell_formula_units_Z   1
loop_
 _symmetry_equiv_pos_site_id
 _symmetry_equiv_pos_as_xyz
  1  'x, y, z'
loop_
 _atom_site_type_symbol
 _atom_site_label
 _atom_site_symmetry_multiplicity
 _atom_site_fract_x
 _atom_site_fract_y
 _atom_site_fract_z
 _atom_site_occupancy
  Lu  Lu0  1  0.393721  0.977229  0.500000  1
  Lu  Lu1  1  0.022771  0.416492  0.500000  1
  Lu  Lu2  1  0.583508  0.606279  0.500000  1
  In  In3  1  0.725228  0.993601  0.000000  1
  In  In4  1  0.006399  0.731627  0.000000  1
  In  In5  1  0.268373  0.274772  0.000000  1
  Ru  Ru6  1  0.333333  0.666667  0.000000  1
  Au  Au7  1  0.666667  0.333333  0.000000  1
  Au  Au8  1  0.000000  0.000000  0.500000  1
