# generated using pymatgen
data_Rb12NpCdSe8
_symmetry_space_group_name_H-M   'P 1'
_cell_length_a   11.26873700
_cell_length_b   11.26873681
_cell_length_c   8.56794100
_cell_angle_alpha   90.00000000
_cell_angle_beta   90.00000000
_cell_angle_gamma   120.00000350
_symmetry_Int_Tables_number   1
_chemical_formula_structural   Rb12NpCdSe8
_chemical_formula_sum   'Rb12 Np1 Cd1 Se8'
_cell_volume   942.23137663
_cell_formula_units_Z   1
loop_
 _symmetry_equiv_pos_site_id
 _symmetry_equiv_pos_as_xyz
  1  'x, y, z'
loop_
 _atom_site_type_symbol
 _atom_site_label
 _atom_site_symmetry_multiplicity
 _atom_site_fract_x
 _atom_site_fract_y
 _atom_site_fract_z
 _atom_site_occupancy
  Rb  Rb0  1  0.138711  0.861289  0.543427  1
  Rb  Rb1  1  0.290982  0.145491  0.041003  1
  Rb  Rb2  1  0.854509  0.709018  0.041003  1
  Rb  Rb3  1  0.138711  0.277421  0.543427  1
  Rb  Rb4  1  0.722579  0.861289  0.543427  1
  Rb  Rb5  1  0.854509  0.145491  0.041003  1
  Rb  Rb6  1  0.538367  0.461633  0.374202  1
  Rb  Rb7  1  0.049075  0.524538  0.855479  1
  Rb  Rb8  1  0.475462  0.950925  0.855479  1
  Rb  Rb9  1  0.538367  0.076734  0.374202  1
  Rb  Rb10  1  0.923266  0.461633  0.374202  1
  Rb  Rb11  1  0.475462  0.524538  0.855479  1
  Np  Np12  1  0.333333  0.666667  0.252732  1
  Cd  Cd13  1  0.666667  0.333333  0.756100  1
  Se  Se14  1  0.333333  0.666667  0.582345  1
  Se  Se15  1  0.666667  0.333333  0.080740  1
  Se  Se16  1  0.196403  0.803597  0.147626  1
  Se  Se17  1  0.394636  0.197318  0.654091  1
  Se  Se18  1  0.802682  0.605364  0.654091  1
  Se  Se19  1  0.196403  0.392805  0.147626  1
  Se  Se20  1  0.607195  0.803597  0.147626  1
  Se  Se21  1  0.802682  0.197318  0.654091  1
