# generated using pymatgen
data_Ti4Be2B4(IrRu)5
_symmetry_space_group_name_H-M   'P 1'
_cell_length_a   9.10199716
_cell_length_b   9.13597013
_cell_length_c   2.93362400
_cell_angle_alpha   90.00000000
_cell_angle_beta   90.00000000
_cell_angle_gamma   90.10923289
_symmetry_Int_Tables_number   1
_chemical_formula_structural   Ti4Be2B4(IrRu)5
_chemical_formula_sum   'Ti4 Be2 B4 Ir5 Ru5'
_cell_volume   243.94674470
_cell_formula_units_Z   1
loop_
 _symmetry_equiv_pos_site_id
 _symmetry_equiv_pos_as_xyz
  1  'x, y, z'
loop_
 _atom_site_type_symbol
 _atom_site_label
 _atom_site_symmetry_multiplicity
 _atom_site_fract_x
 _atom_site_fract_y
 _atom_site_fract_z
 _atom_site_occupancy
  Ti  Ti0  1  0.327680  0.177412  0.000000  1
  Ti  Ti1  1  0.825806  0.318109  0.000000  1
  Ti  Ti2  1  0.173652  0.672153  0.000000  1
  Ti  Ti3  1  0.676886  0.833583  0.000000  1
  Be  Be4  1  0.997881  0.000910  0.000000  1
  Be  Be5  1  0.498697  0.498444  0.000000  1
  B  B6  1  0.629101  0.129694  0.000000  1
  B  B7  1  0.124493  0.368418  0.000000  1
  B  B8  1  0.873302  0.626341  0.000000  1
  B  B9  1  0.373542  0.874363  0.000000  1
  Ir  Ir10  1  0.293432  0.431918  0.499999  1
  Ir  Ir11  1  0.705938  0.569351  0.499999  1
  Ir  Ir12  1  0.431713  0.706326  0.499999  1
  Ir  Ir13  1  0.931835  0.793728  0.499999  1
  Ir  Ir14  1  0.205640  0.931252  0.499999  1
  Ru  Ru15  1  0.498710  0.000300  0.499999  1
  Ru  Ru16  1  0.792583  0.068700  0.499999  1
  Ru  Ru17  1  0.070662  0.206945  0.499999  1
  Ru  Ru18  1  0.569399  0.292753  0.499999  1
  Ru  Ru19  1  0.999044  0.499299  0.499999  1
