# generated using pymatgen
data_Tb3Yb6DyRu4
_symmetry_space_group_name_H-M   'P 1'
_cell_length_a   8.48841614
_cell_length_b   8.48841637
_cell_length_c   7.43085503
_cell_angle_alpha   83.24928472
_cell_angle_beta   83.24927782
_cell_angle_gamma   43.80609626
_symmetry_Int_Tables_number   1
_chemical_formula_structural   Tb3Yb6DyRu4
_chemical_formula_sum   'Tb3 Yb6 Dy1 Ru4'
_cell_volume   367.63969231
_cell_formula_units_Z   1
loop_
 _symmetry_equiv_pos_site_id
 _symmetry_equiv_pos_as_xyz
  1  'x, y, z'
loop_
 _atom_site_type_symbol
 _atom_site_label
 _atom_site_symmetry_multiplicity
 _atom_site_fract_x
 _atom_site_fract_y
 _atom_site_fract_z
 _atom_site_occupancy
  Tb  Tb0  1  0.969185  0.200618  0.081008  1
  Tb  Tb1  1  0.799382  0.030815  0.418992  1
  Tb  Tb2  1  0.565180  0.434820  0.750000  1
  Yb  Yb3  1  0.202358  0.974640  0.583415  1
  Yb  Yb4  1  0.025360  0.797642  0.916585  1
  Yb  Yb5  1  0.202080  0.365608  0.317009  1
  Yb  Yb6  1  0.634392  0.797920  0.182991  1
  Yb  Yb7  1  0.804217  0.628604  0.678564  1
  Yb  Yb8  1  0.371396  0.195783  0.821436  1
  Dy  Dy9  1  0.416313  0.583687  0.250000  1
  Ru  Ru10  1  0.177877  0.603451  0.573006  1
  Ru  Ru11  1  0.396549  0.822123  0.926994  1
  Ru  Ru12  1  0.816984  0.381273  0.418260  1
  Ru  Ru13  1  0.618727  0.183016  0.081740  1
