# generated using pymatgen
data_Tm4Hf5Zr3Pb10
_symmetry_space_group_name_H-M   'P 1'
_cell_length_a   6.04187362
_cell_length_b   9.19544979
_cell_length_c   11.26929900
_cell_angle_alpha   114.03976056
_cell_angle_beta   105.54933410
_cell_angle_gamma   89.99999650
_symmetry_Int_Tables_number   1
_chemical_formula_structural   Tm4Hf5Zr3Pb10
_chemical_formula_sum   'Tm4 Hf5 Zr3 Pb10'
_cell_volume   546.60400131
_cell_formula_units_Z   1
loop_
 _symmetry_equiv_pos_site_id
 _symmetry_equiv_pos_as_xyz
  1  'x, y, z'
loop_
 _atom_site_type_symbol
 _atom_site_label
 _atom_site_symmetry_multiplicity
 _atom_site_fract_x
 _atom_site_fract_y
 _atom_site_fract_z
 _atom_site_occupancy
  Tm  Tm0  1  0.144732  0.253742  0.289464  1
  Tm  Tm1  1  0.855196  0.744710  0.710391  1
  Tm  Tm2  1  0.644820  0.034735  0.289639  1
  Tm  Tm3  1  0.355778  0.966175  0.711555  1
  Hf  Hf4  1  0.558954  0.310525  0.618045  1
  Hf  Hf5  1  0.441235  0.692115  0.382063  1
  Hf  Hf6  1  0.940829  0.692115  0.382063  1
  Hf  Hf7  1  0.059092  0.310525  0.618045  1
  Hf  Hf8  1  0.436486  0.672684  0.872971  1
  Zr  Zr9  1  0.562484  0.324710  0.124966  1
  Zr  Zr10  1  0.937357  0.200113  0.874714  1
  Zr  Zr11  1  0.063355  0.799282  0.126709  1
  Pb  Pb12  1  0.290400  0.591303  0.580801  1
  Pb  Pb13  1  0.709500  0.410316  0.418998  1
  Pb  Pb14  1  0.790216  0.991642  0.580431  1
  Pb  Pb15  1  0.210402  0.010086  0.420806  1
  Pb  Pb16  1  0.249725  0.997904  0.999299  1
  Pb  Pb17  1  0.749575  0.997904  0.999299  1
  Pb  Pb18  1  0.070415  0.465586  0.140832  1
  Pb  Pb19  1  0.930199  0.533757  0.860398  1
  Pb  Pb20  1  0.569365  0.673268  0.138731  1
  Pb  Pb21  1  0.429888  0.326806  0.859777  1
