# generated using pymatgen
data_Mn3NiP4
_symmetry_space_group_name_H-M   'P 1'
_cell_length_a   5.86858221
_cell_length_b   5.27263563
_cell_length_c   3.00722800
_cell_angle_alpha   90.00000000
_cell_angle_beta   90.00000000
_cell_angle_gamma   90.15226096
_symmetry_Int_Tables_number   1
_chemical_formula_structural   Mn3NiP4
_chemical_formula_sum   'Mn3 Ni1 P4'
_cell_volume   93.05201362
_cell_formula_units_Z   1
loop_
 _symmetry_equiv_pos_site_id
 _symmetry_equiv_pos_as_xyz
  1  'x, y, z'
loop_
 _atom_site_type_symbol
 _atom_site_label
 _atom_site_symmetry_multiplicity
 _atom_site_fract_x
 _atom_site_fract_y
 _atom_site_fract_z
 _atom_site_occupancy
  Mn  Mn0  1  0.299402  0.502666  0.250000  1
  Mn  Mn1  1  0.695920  0.494780  0.750001  1
  Mn  Mn2  1  0.798350  0.994399  0.750001  1
  Ni  Ni3  1  0.203320  0.002266  0.250000  1
  P  P4  1  0.571287  0.198127  0.250000  1
  P  P5  1  0.934888  0.689651  0.250000  1
  P  P6  1  0.057149  0.315759  0.750001  1
  P  P7  1  0.439687  0.802355  0.750001  1
