# generated using pymatgen
data_YBi3(Pd2O7)2
_symmetry_space_group_name_H-M   'P 1'
_cell_length_a   7.40446499
_cell_length_b   7.40446564
_cell_length_c   7.40446447
_cell_angle_alpha   59.73739807
_cell_angle_beta   59.73739685
_cell_angle_gamma   59.73740376
_symmetry_Int_Tables_number   1
_chemical_formula_structural   YBi3(Pd2O7)2
_chemical_formula_sum   'Y1 Bi3 Pd4 O14'
_cell_volume   285.34375020
_cell_formula_units_Z   1
loop_
 _symmetry_equiv_pos_site_id
 _symmetry_equiv_pos_as_xyz
  1  'x, y, z'
loop_
 _atom_site_type_symbol
 _atom_site_label
 _atom_site_symmetry_multiplicity
 _atom_site_fract_x
 _atom_site_fract_y
 _atom_site_fract_z
 _atom_site_occupancy
  Y  Y0  1  0.500000  0.500000  0.500000  1
  Bi  Bi1  1  0.500000  0.000000  0.500000  1
  Bi  Bi2  1  0.000000  0.500000  0.500000  1
  Bi  Bi3  1  0.500000  0.500000  0.000000  1
  Pd  Pd4  1  0.000000  0.000000  0.000000  1
  Pd  Pd5  1  0.000000  0.500000  0.000000  1
  Pd  Pd6  1  0.500000  0.000000  0.000000  1
  Pd  Pd7  1  0.000000  0.000000  0.500000  1
  O  O8  1  0.620384  0.620384  0.620384  1
  O  O9  1  0.379616  0.379616  0.379616  1
  O  O10  1  0.917229  0.917229  0.333711  1
  O  O11  1  0.333711  0.917229  0.917229  1
  O  O12  1  0.917229  0.333711  0.917229  1
  O  O13  1  0.335766  0.335766  0.909171  1
  O  O14  1  0.909171  0.335766  0.335766  1
  O  O15  1  0.335766  0.909171  0.335766  1
  O  O16  1  0.082771  0.082771  0.666289  1
  O  O17  1  0.666289  0.082771  0.082771  1
  O  O18  1  0.082771  0.666289  0.082771  1
  O  O19  1  0.664234  0.664234  0.090829  1
  O  O20  1  0.090829  0.664234  0.664234  1
  O  O21  1  0.664234  0.090829  0.664234  1
