# generated using pymatgen
data_Yb5Sm(Si3Ru)8
_symmetry_space_group_name_H-M   'P 1'
_cell_length_a   10.16313936
_cell_length_b   10.16314016
_cell_length_c   8.15107285
_cell_angle_alpha   89.90658247
_cell_angle_beta   90.09341631
_cell_angle_gamma   132.72480637
_symmetry_Int_Tables_number   1
_chemical_formula_structural   Yb5Sm(Si3Ru)8
_chemical_formula_sum   'Yb5 Sm1 Si24 Ru8'
_cell_volume   618.49069602
_cell_formula_units_Z   1
loop_
 _symmetry_equiv_pos_site_id
 _symmetry_equiv_pos_as_xyz
  1  'x, y, z'
loop_
 _atom_site_type_symbol
 _atom_site_label
 _atom_site_symmetry_multiplicity
 _atom_site_fract_x
 _atom_site_fract_y
 _atom_site_fract_z
 _atom_site_occupancy
  Yb  Yb0  1  0.499556  0.499523  0.499697  1
  Yb  Yb1  1  0.999523  0.999556  0.000303  1
  Yb  Yb2  1  0.501302  0.001302  0.750000  1
  Yb  Yb3  1  0.999111  0.499111  0.250000  1
  Yb  Yb4  1  0.497990  0.997990  0.250000  1
  Sm  Sm5  1  0.000603  0.500603  0.750000  1
  Si  Si6  1  0.793642  0.203166  0.497363  1
  Si  Si7  1  0.296676  0.706891  0.001370  1
  Si  Si8  1  0.206891  0.796676  0.498630  1
  Si  Si9  1  0.703166  0.293642  0.002637  1
  Si  Si10  1  0.333045  0.333704  0.832340  1
  Si  Si11  1  0.663729  0.667560  0.167948  1
  Si  Si12  1  0.167560  0.163729  0.332052  1
  Si  Si13  1  0.833704  0.833045  0.667660  1
  Si  Si14  1  0.125301  0.892783  0.730504  1
  Si  Si15  1  0.108780  0.875656  0.269078  1
  Si  Si16  1  0.607731  0.374573  0.231213  1
  Si  Si17  1  0.624538  0.392417  0.769866  1
  Si  Si18  1  0.874573  0.107731  0.268787  1
  Si  Si19  1  0.892417  0.124538  0.730134  1
  Si  Si20  1  0.392783  0.625301  0.769496  1
  Si  Si21  1  0.375656  0.608780  0.230922  1
  Si  Si22  1  0.348100  0.113926  0.507206  1
  Si  Si23  1  0.886679  0.654072  0.492106  1
  Si  Si24  1  0.386145  0.152427  0.007980  1
  Si  Si25  1  0.846333  0.613809  0.991092  1
  Si  Si26  1  0.652427  0.886145  0.492020  1
  Si  Si27  1  0.113809  0.346333  0.508908  1
  Si  Si28  1  0.613926  0.848100  0.992794  1
  Si  Si29  1  0.154072  0.386679  0.007894  1
  Ru  Ru30  1  0.671103  0.330654  0.500281  1
  Ru  Ru31  1  0.169758  0.830155  0.999937  1
  Ru  Ru32  1  0.330155  0.669758  0.500063  1
  Ru  Ru33  1  0.830654  0.171103  0.999719  1
  Ru  Ru34  1  0.126637  0.125871  0.624724  1
  Ru  Ru35  1  0.872694  0.873361  0.375263  1
  Ru  Ru36  1  0.373361  0.372694  0.124737  1
  Ru  Ru37  1  0.625871  0.626637  0.875276  1
