# generated using pymatgen
data_Tm3Lu(VB4)4
_symmetry_space_group_name_H-M   'P 1'
_cell_length_a   3.40449200
_cell_length_b   5.96829001
_cell_length_c   11.56148868
_cell_angle_alpha   90.01562524
_cell_angle_beta   90.00000000
_cell_angle_gamma   90.00000000
_symmetry_Int_Tables_number   1
_chemical_formula_structural   Tm3Lu(VB4)4
_chemical_formula_sum   'Tm3 Lu1 V4 B16'
_cell_volume   234.91782888
_cell_formula_units_Z   1
loop_
 _symmetry_equiv_pos_site_id
 _symmetry_equiv_pos_as_xyz
  1  'x, y, z'
loop_
 _atom_site_type_symbol
 _atom_site_label
 _atom_site_symmetry_multiplicity
 _atom_site_fract_x
 _atom_site_fract_y
 _atom_site_fract_z
 _atom_site_occupancy
  Tm  Tm0  1  0.500000  0.124391  0.651624  1
  Tm  Tm1  1  0.500000  0.875577  0.348426  1
  Tm  Tm2  1  0.500000  0.624355  0.848367  1
  Lu  Lu3  1  0.500000  0.375738  0.151621  1
  V  V4  1  0.500000  0.127950  0.916819  1
  V  V5  1  0.500000  0.872091  0.083213  1
  V  V6  1  0.500000  0.627843  0.583294  1
  V  V7  1  0.500000  0.372136  0.416673  1
  B  B8  1  0.000000  0.477021  0.693016  1
  B  B9  1  0.000000  0.522827  0.306740  1
  B  B10  1  0.000000  0.976986  0.806950  1
  B  B11  1  0.000000  0.023397  0.192974  1
  B  B12  1  0.000000  0.287370  0.813874  1
  B  B13  1  0.000000  0.712015  0.186020  1
  B  B14  1  0.000000  0.787431  0.686097  1
  B  B15  1  0.000000  0.212670  0.313716  1
  B  B16  1  0.000000  0.365490  0.967622  1
  B  B17  1  0.000000  0.634175  0.032655  1
  B  B18  1  0.000000  0.865454  0.532561  1
  B  B19  1  0.000000  0.134593  0.467526  1
  B  B20  1  0.000000  0.384340  0.548043  1
  B  B21  1  0.000000  0.615635  0.452003  1
  B  B22  1  0.000000  0.884315  0.951972  1
  B  B23  1  0.000000  0.116198  0.048194  1
