# generated using pymatgen
data_La4YP12Ru13Rh6
_symmetry_space_group_name_H-M   'P 1'
_cell_length_a   12.72495300
_cell_length_b   12.72495400
_cell_length_c   4.01322900
_cell_angle_alpha   90.00000000
_cell_angle_beta   90.00000000
_cell_angle_gamma   119.99999481
_symmetry_Int_Tables_number   1
_chemical_formula_structural   La4YP12Ru13Rh6
_chemical_formula_sum   'La4 Y1 P12 Ru13 Rh6'
_cell_volume   562.77786058
_cell_formula_units_Z   1
loop_
 _symmetry_equiv_pos_site_id
 _symmetry_equiv_pos_as_xyz
  1  'x, y, z'
loop_
 _atom_site_type_symbol
 _atom_site_label
 _atom_site_symmetry_multiplicity
 _atom_site_fract_x
 _atom_site_fract_y
 _atom_site_fract_z
 _atom_site_occupancy
  La  La0  1  0.999609  0.182018  0.500000  1
  La  La1  1  0.817982  0.817590  0.500000  1
  La  La2  1  0.182410  0.000391  0.500000  1
  La  La3  1  0.666667  0.333333  0.000000  1
  Y  Y4  1  0.333333  0.666667  0.000000  1
  P  P5  1  0.004688  0.813538  0.000000  1
  P  P6  1  0.186462  0.191150  0.000000  1
  P  P7  1  0.808850  0.995312  0.000000  1
  P  P8  1  0.690464  0.169671  0.500000  1
  P  P9  1  0.830329  0.520794  0.500000  1
  P  P10  1  0.479206  0.309536  0.500000  1
  P  P11  1  0.179482  0.698043  0.500000  1
  P  P12  1  0.518560  0.820518  0.500000  1
  P  P13  1  0.301957  0.481440  0.500000  1
  P  P14  1  0.003721  0.375407  0.000000  1
  P  P15  1  0.624593  0.628313  0.000000  1
  P  P16  1  0.371687  0.996279  0.000000  1
  Ru  Ru17  1  0.001119  0.710387  0.500000  1
  Ru  Ru18  1  0.289613  0.290731  0.500000  1
  Ru  Ru19  1  0.709269  0.998881  0.500000  1
  Ru  Ru20  1  0.185185  0.800990  0.000000  1
  Ru  Ru21  1  0.615806  0.814815  0.000000  1
  Ru  Ru22  1  0.199010  0.384194  0.000000  1
  Ru  Ru23  1  0.874591  0.362003  0.500000  1
  Ru  Ru24  1  0.637997  0.512588  0.500000  1
  Ru  Ru25  1  0.487412  0.125409  0.500000  1
  Ru  Ru26  1  0.370634  0.876157  0.500000  1
  Ru  Ru27  1  0.505523  0.629366  0.500000  1
  Ru  Ru28  1  0.123843  0.494477  0.500000  1
  Ru  Ru29  1  0.000000  0.000000  0.000000  1
  Rh  Rh30  1  0.992787  0.548455  0.000000  1
  Rh  Rh31  1  0.451545  0.444333  0.000000  1
  Rh  Rh32  1  0.555667  0.007213  0.000000  1
  Rh  Rh33  1  0.807236  0.183637  0.000000  1
  Rh  Rh34  1  0.816363  0.623600  0.000000  1
  Rh  Rh35  1  0.376400  0.192764  0.000000  1
