# generated using pymatgen
data_La4PtSe7
_symmetry_space_group_name_H-M   'P 1'
_cell_length_a   4.11147201
_cell_length_b   8.49917128
_cell_length_c   8.82686764
_cell_angle_alpha   90.06814819
_cell_angle_beta   89.98582561
_cell_angle_gamma   90.00496731
_symmetry_Int_Tables_number   1
_chemical_formula_structural   La4PtSe7
_chemical_formula_sum   'La4 Pt1 Se7'
_cell_volume   308.44675908
_cell_formula_units_Z   1
loop_
 _symmetry_equiv_pos_site_id
 _symmetry_equiv_pos_as_xyz
  1  'x, y, z'
loop_
 _atom_site_type_symbol
 _atom_site_label
 _atom_site_symmetry_multiplicity
 _atom_site_fract_x
 _atom_site_fract_y
 _atom_site_fract_z
 _atom_site_occupancy
  La  La0  1  0.250392  0.125407  0.700787  1
  La  La1  1  0.251248  0.625808  0.749032  1
  La  La2  1  0.750260  0.867876  0.272629  1
  La  La3  1  0.749298  0.381054  0.274175  1
  Pt  Pt4  1  0.748279  0.125117  0.001047  1
  Se  Se5  1  0.248650  0.316269  0.998408  1
  Se  Se6  1  0.750609  0.623375  0.006407  1
  Se  Se7  1  0.751394  0.871549  0.633838  1
  Se  Se8  1  0.250062  0.625054  0.372190  1
  Se  Se9  1  0.249226  0.934611  0.997320  1
  Se  Se10  1  0.750709  0.379561  0.634417  1
  Se  Se11  1  0.249873  0.124319  0.359750  1
