# generated using pymatgen
data_Th4In2CoCu3
_symmetry_space_group_name_H-M   'P 1'
_cell_length_a   7.75784997
_cell_length_b   7.75784997
_cell_length_c   3.78176300
_cell_angle_alpha   90.00000000
_cell_angle_beta   90.00000000
_cell_angle_gamma   89.83579022
_symmetry_Int_Tables_number   1
_chemical_formula_structural   Th4In2CoCu3
_chemical_formula_sum   'Th4 In2 Co1 Cu3'
_cell_volume   227.60158245
_cell_formula_units_Z   1
loop_
 _symmetry_equiv_pos_site_id
 _symmetry_equiv_pos_as_xyz
  1  'x, y, z'
loop_
 _atom_site_type_symbol
 _atom_site_label
 _atom_site_symmetry_multiplicity
 _atom_site_fract_x
 _atom_site_fract_y
 _atom_site_fract_z
 _atom_site_occupancy
  Th  Th0  1  0.672665  0.172665  0.500000  1
  Th  Th1  1  0.180363  0.342044  0.500000  1
  Th  Th2  1  0.842044  0.680363  0.500000  1
  Th  Th3  1  0.307613  0.807613  0.500000  1
  In  In4  1  0.001811  0.010502  0.000000  1
  In  In5  1  0.510502  0.501811  0.000000  1
  Co  Co6  1  0.120598  0.620598  0.000000  1
  Cu  Cu7  1  0.612873  0.874166  0.000000  1
  Cu  Cu8  1  0.374166  0.112873  0.000000  1
  Cu  Cu9  1  0.877366  0.377366  0.000000  1
