# generated using pymatgen
data_HfSc8Ti3Ga20
_symmetry_space_group_name_H-M   'P 1'
_cell_length_a   5.72833606
_cell_length_b   9.06338900
_cell_length_c   10.92703111
_cell_angle_alpha   90.00000000
_cell_angle_beta   89.98391095
_cell_angle_gamma   90.00000000
_symmetry_Int_Tables_number   1
_chemical_formula_structural   HfSc8Ti3Ga20
_chemical_formula_sum   'Hf1 Sc8 Ti3 Ga20'
_cell_volume   567.31108664
_cell_formula_units_Z   1
loop_
 _symmetry_equiv_pos_site_id
 _symmetry_equiv_pos_as_xyz
  1  'x, y, z'
loop_
 _atom_site_type_symbol
 _atom_site_label
 _atom_site_symmetry_multiplicity
 _atom_site_fract_x
 _atom_site_fract_y
 _atom_site_fract_z
 _atom_site_occupancy
  Hf  Hf0  1  0.857146  0.750000  0.065014  1
  Sc  Sc1  1  0.887519  0.505565  0.354312  1
  Sc  Sc2  1  0.612908  0.994849  0.854251  1
  Sc  Sc3  1  0.113637  0.005829  0.644598  1
  Sc  Sc4  1  0.387454  0.495627  0.145170  1
  Sc  Sc5  1  0.113637  0.494171  0.644598  1
  Sc  Sc6  1  0.387454  0.004373  0.145170  1
  Sc  Sc7  1  0.887519  0.994435  0.354312  1
  Sc  Sc8  1  0.612908  0.505151  0.854251  1
  Ti  Ti9  1  0.643025  0.750000  0.566492  1
  Ti  Ti10  1  0.143215  0.250000  0.932921  1
  Ti  Ti11  1  0.356859  0.250000  0.433132  1
  Ga  Ga12  1  0.875191  0.054600  0.093383  1
  Ga  Ga13  1  0.625756  0.451600  0.593111  1
  Ga  Ga14  1  0.125978  0.545590  0.904630  1
  Ga  Ga15  1  0.374726  0.952508  0.407676  1
  Ga  Ga16  1  0.125978  0.954410  0.904630  1
  Ga  Ga17  1  0.374726  0.547492  0.407676  1
  Ga  Ga18  1  0.875191  0.445400  0.093383  1
  Ga  Ga19  1  0.625756  0.048400  0.593111  1
  Ga  Ga20  1  0.155672  0.750000  0.253399  1
  Ga  Ga21  1  0.351638  0.750000  0.747662  1
  Ga  Ga22  1  0.852398  0.250000  0.751780  1
  Ga  Ga23  1  0.647758  0.250000  0.251796  1
  Ga  Ga24  1  0.389250  0.750000  0.000727  1
  Ga  Ga25  1  0.097839  0.750000  0.502924  1
  Ga  Ga26  1  0.595015  0.250000  0.997613  1
  Ga  Ga27  1  0.901982  0.250000  0.497991  1
  Ga  Ga28  1  0.618940  0.750000  0.291528  1
  Ga  Ga29  1  0.880011  0.750000  0.784089  1
  Ga  Ga30  1  0.380974  0.250000  0.713592  1
  Ga  Ga31  1  0.121944  0.250000  0.215078  1
