# generated using pymatgen
data_Nd8CdHgRu2
_symmetry_space_group_name_H-M   'P 1'
_cell_length_a   9.91207744
_cell_length_b   9.91207684
_cell_length_c   9.94868400
_cell_angle_alpha   59.87775496
_cell_angle_beta   59.87775695
_cell_angle_gamma   59.82513254
_symmetry_Int_Tables_number   1
_chemical_formula_structural   Nd8CdHgRu2
_chemical_formula_sum   'Nd16 Cd2 Hg2 Ru4'
_cell_volume   688.96941716
_cell_formula_units_Z   2
loop_
 _symmetry_equiv_pos_site_id
 _symmetry_equiv_pos_as_xyz
  1  'x, y, z'
loop_
 _atom_site_type_symbol
 _atom_site_label
 _atom_site_symmetry_multiplicity
 _atom_site_fract_x
 _atom_site_fract_y
 _atom_site_fract_z
 _atom_site_occupancy
  Nd  Nd0  1  0.345312  0.345312  0.347135  1
  Nd  Nd1  1  0.345312  0.345312  0.962242  1
  Nd  Nd2  1  0.346003  0.959605  0.347196  1
  Nd  Nd3  1  0.959605  0.346003  0.347196  1
  Nd  Nd4  1  0.809355  0.191085  0.189504  1
  Nd  Nd5  1  0.191085  0.809355  0.810055  1
  Nd  Nd6  1  0.191085  0.809355  0.189504  1
  Nd  Nd7  1  0.809355  0.191085  0.810055  1
  Nd  Nd8  1  0.189785  0.189785  0.810215  1
  Nd  Nd9  1  0.809052  0.809052  0.190948  1
  Nd  Nd10  1  0.938450  0.561899  0.560772  1
  Nd  Nd11  1  0.561899  0.938450  0.938878  1
  Nd  Nd12  1  0.561899  0.938450  0.560772  1
  Nd  Nd13  1  0.938450  0.561899  0.938878  1
  Nd  Nd14  1  0.561566  0.561566  0.938434  1
  Nd  Nd15  1  0.939492  0.939492  0.560508  1
  Cd  Cd16  1  0.577984  0.263758  0.579130  1
  Cd  Cd17  1  0.263758  0.577984  0.579130  1
  Hg  Hg18  1  0.582151  0.582151  0.585151  1
  Hg  Hg19  1  0.582151  0.582151  0.250549  1
  Ru  Ru20  1  0.137177  0.137177  0.139372  1
  Ru  Ru21  1  0.137177  0.137177  0.586275  1
  Ru  Ru22  1  0.137108  0.584788  0.139051  1
  Ru  Ru23  1  0.584788  0.137108  0.139051  1
