# generated using pymatgen
data_Tm2Mn10Fe2P7
_symmetry_space_group_name_H-M   'P 1'
_cell_length_a   9.25249836
_cell_length_b   9.25140725
_cell_length_c   3.54611200
_cell_angle_alpha   90.00000000
_cell_angle_beta   90.00000000
_cell_angle_gamma   120.11094945
_symmetry_Int_Tables_number   1
_chemical_formula_structural   Tm2Mn10Fe2P7
_chemical_formula_sum   'Tm2 Mn10 Fe2 P7'
_cell_volume   262.58098210
_cell_formula_units_Z   1
loop_
 _symmetry_equiv_pos_site_id
 _symmetry_equiv_pos_as_xyz
  1  'x, y, z'
loop_
 _atom_site_type_symbol
 _atom_site_label
 _atom_site_symmetry_multiplicity
 _atom_site_fract_x
 _atom_site_fract_y
 _atom_site_fract_z
 _atom_site_occupancy
  Tm  Tm0  1  0.666882  0.333540  0.500000  1
  Tm  Tm1  1  0.333936  0.667656  0.000000  1
  Mn  Mn2  1  0.428059  0.049395  0.000000  1
  Mn  Mn3  1  0.622883  0.572453  0.000000  1
  Mn  Mn4  1  0.950571  0.377018  0.000000  1
  Mn  Mn5  1  0.156850  0.275517  0.000000  1
  Mn  Mn6  1  0.391427  0.437039  0.500000  1
  Mn  Mn7  1  0.044257  0.606999  0.500000  1
  Mn  Mn8  1  0.561537  0.954719  0.500000  1
  Mn  Mn9  1  0.229996  0.102639  0.500000  1
  Mn  Mn10  1  0.872063  0.769721  0.500000  1
  Mn  Mn11  1  0.897439  0.126893  0.500000  1
  Fe  Fe12  1  0.117119  0.842735  0.000000  1
  Fe  Fe13  1  0.726196  0.882984  0.000000  1
  P  P14  1  0.999780  0.998787  0.000000  1
  P  P15  1  0.411018  0.289059  0.000000  1
  P  P16  1  0.878946  0.589519  0.000000  1
  P  P17  1  0.710800  0.120749  0.000000  1
  P  P18  1  0.128499  0.410286  0.500000  1
  P  P19  1  0.278476  0.871608  0.500000  1
  P  P20  1  0.593265  0.720684  0.500000  1
