# generated using pymatgen
data_CaY3Al16(SiIr3)2
_symmetry_space_group_name_H-M   'P 1'
_cell_length_a   7.54061801
_cell_length_b   7.54575282
_cell_length_c   9.37581800
_cell_angle_alpha   90.00000000
_cell_angle_beta   90.00000000
_cell_angle_gamma   119.63372430
_symmetry_Int_Tables_number   1
_chemical_formula_structural   CaY3Al16(SiIr3)2
_chemical_formula_sum   'Ca1 Y3 Al16 Si2 Ir6'
_cell_volume   463.70355226
_cell_formula_units_Z   1
loop_
 _symmetry_equiv_pos_site_id
 _symmetry_equiv_pos_as_xyz
  1  'x, y, z'
loop_
 _atom_site_type_symbol
 _atom_site_label
 _atom_site_symmetry_multiplicity
 _atom_site_fract_x
 _atom_site_fract_y
 _atom_site_fract_z
 _atom_site_occupancy
  Ca  Ca0  1  0.994701  0.674601  0.250000  1
  Y  Y1  1  0.004477  0.325313  0.750000  1
  Y  Y2  1  0.674819  0.994938  0.250000  1
  Y  Y3  1  0.324319  0.003796  0.750000  1
  Al  Al4  1  0.001435  0.336969  0.076547  1
  Al  Al5  1  0.998435  0.663556  0.924435  1
  Al  Al6  1  0.998435  0.663556  0.575565  1
  Al  Al7  1  0.335798  0.000900  0.423280  1
  Al  Al8  1  0.001435  0.336969  0.423453  1
  Al  Al9  1  0.663657  0.998586  0.576458  1
  Al  Al10  1  0.663657  0.998586  0.923542  1
  Al  Al11  1  0.335798  0.000900  0.076720  1
  Al  Al12  1  0.335802  0.335709  0.555526  1
  Al  Al13  1  0.664845  0.664233  0.444113  1
  Al  Al14  1  0.664845  0.664233  0.055887  1
  Al  Al15  1  0.335802  0.335709  0.944474  1
  Al  Al16  1  0.336254  0.548362  0.250000  1
  Al  Al17  1  0.664957  0.451892  0.750000  1
  Al  Al18  1  0.548139  0.335114  0.250000  1
  Al  Al19  1  0.451805  0.664747  0.750000  1
  Si  Si20  1  0.129003  0.129669  0.250000  1
  Si  Si21  1  0.871540  0.871218  0.750000  1
  Ir  Ir22  1  0.670545  0.327579  0.999065  1
  Ir  Ir23  1  0.329328  0.671458  0.998968  1
  Ir  Ir24  1  0.329328  0.671458  0.501032  1
  Ir  Ir25  1  0.670545  0.327579  0.500935  1
  Ir  Ir26  1  0.000148  0.001186  0.998995  1
  Ir  Ir27  1  0.000148  0.001186  0.501005  1
