# generated using pymatgen
data_Y16Ho4RuRh11
_symmetry_space_group_name_H-M   'P 1'
_cell_length_a   10.92447936
_cell_length_b   10.92447960
_cell_length_c   6.36831700
_cell_angle_alpha   89.98527809
_cell_angle_beta   89.98527809
_cell_angle_gamma   90.18055106
_symmetry_Int_Tables_number   1
_chemical_formula_structural   Y16Ho4RuRh11
_chemical_formula_sum   'Y16 Ho4 Ru1 Rh11'
_cell_volume   760.01820469
_cell_formula_units_Z   1
loop_
 _symmetry_equiv_pos_site_id
 _symmetry_equiv_pos_as_xyz
  1  'x, y, z'
loop_
 _atom_site_type_symbol
 _atom_site_label
 _atom_site_symmetry_multiplicity
 _atom_site_fract_x
 _atom_site_fract_y
 _atom_site_fract_z
 _atom_site_occupancy
  Y  Y0  1  0.290530  0.088586  0.379909  1
  Y  Y1  1  0.290662  0.908748  0.880241  1
  Y  Y2  1  0.709164  0.088009  0.879717  1
  Y  Y3  1  0.708926  0.911177  0.379602  1
  Y  Y4  1  0.585974  0.789456  0.879156  1
  Y  Y5  1  0.588644  0.209512  0.381016  1
  Y  Y6  1  0.410413  0.789047  0.381982  1
  Y  Y7  1  0.410958  0.208626  0.879486  1
  Y  Y8  1  0.210544  0.414026  0.620844  1
  Y  Y9  1  0.210953  0.589587  0.118018  1
  Y  Y10  1  0.790488  0.411356  0.118984  1
  Y  Y11  1  0.791374  0.589042  0.620514  1
  Y  Y12  1  0.911414  0.709470  0.120091  1
  Y  Y13  1  0.911991  0.290836  0.620283  1
  Y  Y14  1  0.091252  0.709338  0.619759  1
  Y  Y15  1  0.088823  0.291074  0.120398  1
  Ho  Ho16  1  0.999769  0.999609  0.499991  1
  Ho  Ho17  1  0.000391  0.000231  0.000009  1
  Ho  Ho18  1  0.498740  0.500261  0.999275  1
  Ho  Ho19  1  0.499739  0.501260  0.500725  1
  Ru  Ru20  1  0.347940  0.652060  0.750000  1
  Rh  Rh21  1  0.847865  0.152135  0.250000  1
  Rh  Rh22  1  0.847370  0.847897  0.750224  1
  Rh  Rh23  1  0.152103  0.152630  0.749776  1
  Rh  Rh24  1  0.150500  0.849500  0.250000  1
  Rh  Rh25  1  0.652696  0.347304  0.750000  1
  Rh  Rh26  1  0.654282  0.652210  0.249773  1
  Rh  Rh27  1  0.347790  0.345718  0.250227  1
  Rh  Rh28  1  0.500068  0.000804  0.128173  1
  Rh  Rh29  1  0.499888  0.000447  0.626690  1
  Rh  Rh30  1  0.999553  0.500112  0.873310  1
  Rh  Rh31  1  0.999196  0.499932  0.371827  1
