# generated using pymatgen
data_Rb8Li4YEr3As8
_symmetry_space_group_name_H-M   'P 1'
_cell_length_a   10.59044779
_cell_length_b   10.59044847
_cell_length_c   6.83032201
_cell_angle_alpha   90.00371929
_cell_angle_beta   89.99628024
_cell_angle_gamma   99.72800059
_symmetry_Int_Tables_number   1
_chemical_formula_structural   Rb8Li4YEr3As8
_chemical_formula_sum   'Rb8 Li4 Y1 Er3 As8'
_cell_volume   755.05711450
_cell_formula_units_Z   1
loop_
 _symmetry_equiv_pos_site_id
 _symmetry_equiv_pos_as_xyz
  1  'x, y, z'
loop_
 _atom_site_type_symbol
 _atom_site_label
 _atom_site_symmetry_multiplicity
 _atom_site_fract_x
 _atom_site_fract_y
 _atom_site_fract_z
 _atom_site_occupancy
  Rb  Rb0  1  0.567930  0.932103  0.750062  1
  Rb  Rb1  1  0.932103  0.567930  0.249938  1
  Rb  Rb2  1  0.432202  0.067468  0.249791  1
  Rb  Rb3  1  0.067468  0.432202  0.750209  1
  Rb  Rb4  1  0.678258  0.322057  0.787901  1
  Rb  Rb5  1  0.822052  0.177901  0.287706  1
  Rb  Rb6  1  0.322057  0.678258  0.212099  1
  Rb  Rb7  1  0.177901  0.822052  0.712294  1
  Li  Li8  1  0.618199  0.618199  0.000000  1
  Li  Li9  1  0.881932  0.881932  0.500000  1
  Li  Li10  1  0.382014  0.382014  0.000000  1
  Li  Li11  1  0.117602  0.117602  0.500000  1
  Y  Y12  1  0.367709  0.367709  0.500000  1
  Er  Er13  1  0.867959  0.867959  0.000000  1
  Er  Er14  1  0.632424  0.632424  0.500000  1
  Er  Er15  1  0.131543  0.131543  0.000000  1
  As  As16  1  0.342960  0.155517  0.751900  1
  As  As17  1  0.155517  0.342960  0.248100  1
  As  As18  1  0.657162  0.842950  0.250043  1
  As  As19  1  0.842950  0.657162  0.749957  1
  As  As20  1  0.910503  0.089354  0.765282  1
  As  As21  1  0.590960  0.411239  0.264202  1
  As  As22  1  0.089354  0.910503  0.234718  1
  As  As23  1  0.411239  0.590960  0.735798  1
