# generated using pymatgen
data_Lu10In8PdRh3
_symmetry_space_group_name_H-M   'P 1'
_cell_length_a   3.53454500
_cell_length_b   7.99517443
_cell_length_c   18.05772296
_cell_angle_alpha   89.96249596
_cell_angle_beta   90.00000000
_cell_angle_gamma   90.00000000
_symmetry_Int_Tables_number   1
_chemical_formula_structural   Lu10In8PdRh3
_chemical_formula_sum   'Lu10 In8 Pd1 Rh3'
_cell_volume   510.29856993
_cell_formula_units_Z   1
loop_
 _symmetry_equiv_pos_site_id
 _symmetry_equiv_pos_as_xyz
  1  'x, y, z'
loop_
 _atom_site_type_symbol
 _atom_site_label
 _atom_site_symmetry_multiplicity
 _atom_site_fract_x
 _atom_site_fract_y
 _atom_site_fract_z
 _atom_site_occupancy
  Lu  Lu0  1  0.000000  0.500202  0.500375  1
  Lu  Lu1  1  0.000000  0.000569  0.999659  1
  Lu  Lu2  1  0.000000  0.732545  0.278110  1
  Lu  Lu3  1  0.000000  0.257826  0.721873  1
  Lu  Lu4  1  0.000000  0.758106  0.778458  1
  Lu  Lu5  1  0.000000  0.250532  0.219966  1
  Lu  Lu6  1  0.000000  0.615709  0.085706  1
  Lu  Lu7  1  0.000000  0.384492  0.912441  1
  Lu  Lu8  1  0.000000  0.883800  0.587507  1
  Lu  Lu9  1  0.000000  0.117049  0.415626  1
  In  In10  1  0.500000  0.709092  0.932890  1
  In  In11  1  0.500000  0.292002  0.066543  1
  In  In12  1  0.500000  0.791472  0.433140  1
  In  In13  1  0.500000  0.207207  0.567757  1
  In  In14  1  0.500000  0.576026  0.649869  1
  In  In15  1  0.500000  0.423186  0.351069  1
  In  In16  1  0.500000  0.921571  0.148690  1
  In  In17  1  0.500000  0.075242  0.850808  1
  Pd  Pd18  1  0.500000  0.021779  0.304607  1
  Rh  Rh19  1  0.500000  0.523247  0.195079  1
  Rh  Rh20  1  0.500000  0.479920  0.804582  1
  Rh  Rh21  1  0.500000  0.978426  0.695246  1
