# generated using pymatgen
data_Dy4Bi5AsRh7
_symmetry_space_group_name_H-M   'P 1'
_cell_length_a   7.73563186
_cell_length_b   7.73565812
_cell_length_c   7.73565889
_cell_angle_alpha   106.73121009
_cell_angle_beta   110.85805660
_cell_angle_gamma   110.85804640
_symmetry_Int_Tables_number   1
_chemical_formula_structural   Dy4Bi5AsRh7
_chemical_formula_sum   'Dy4 Bi5 As1 Rh7'
_cell_volume   355.73842420
_cell_formula_units_Z   1
loop_
 _symmetry_equiv_pos_site_id
 _symmetry_equiv_pos_as_xyz
  1  'x, y, z'
loop_
 _atom_site_type_symbol
 _atom_site_label
 _atom_site_symmetry_multiplicity
 _atom_site_fract_x
 _atom_site_fract_y
 _atom_site_fract_z
 _atom_site_occupancy
  Dy  Dy0  1  0.999999  0.986177  0.531761  1
  Dy  Dy1  1  0.999999  0.531761  0.986177  1
  Dy  Dy2  1  0.454425  0.986181  0.986181  1
  Dy  Dy3  1  0.545577  0.531758  0.531758  1
  Bi  Bi4  1  0.688866  0.705508  0.016646  1
  Bi  Bi5  1  0.311137  0.016644  0.327784  1
  Bi  Bi6  1  0.000004  0.298604  0.298604  1
  Bi  Bi7  1  0.311137  0.327784  0.016644  1
  Bi  Bi8  1  0.688866  0.016646  0.705508  1
  As  As9  1  0.000000  0.642442  0.642442  1
  Rh  Rh10  1  0.754958  0.259735  0.504786  1
  Rh  Rh11  1  0.754958  0.504786  0.259735  1
  Rh  Rh12  1  0.500000  0.263326  0.763318  1
  Rh  Rh13  1  0.245045  0.504777  0.749826  1
  Rh  Rh14  1  0.245045  0.749826  0.504777  1
  Rh  Rh15  1  0.500000  0.763318  0.263326  1
  Rh  Rh16  1  0.999983  0.910731  0.910731  1
