# generated using pymatgen
data_Sc4Fe15Co(P3W)4
_symmetry_space_group_name_H-M   'P 1'
_cell_length_a   3.60776500
_cell_length_b   10.24601333
_cell_length_c   12.03803454
_cell_angle_alpha   89.96844189
_cell_angle_beta   90.00000000
_cell_angle_gamma   90.00000000
_symmetry_Int_Tables_number   1
_chemical_formula_structural   Sc4Fe15Co(P3W)4
_chemical_formula_sum   'Sc4 Fe15 Co1 P12 W4'
_cell_volume   444.98838626
_cell_formula_units_Z   1
loop_
 _symmetry_equiv_pos_site_id
 _symmetry_equiv_pos_as_xyz
  1  'x, y, z'
loop_
 _atom_site_type_symbol
 _atom_site_label
 _atom_site_symmetry_multiplicity
 _atom_site_fract_x
 _atom_site_fract_y
 _atom_site_fract_z
 _atom_site_occupancy
  Sc  Sc0  1  0.250000  0.582882  0.711207  1
  Sc  Sc1  1  0.250000  0.917393  0.210565  1
  Sc  Sc2  1  0.750000  0.416888  0.288894  1
  Sc  Sc3  1  0.750000  0.082432  0.789868  1
  Fe  Fe4  1  0.250000  0.410153  0.487074  1
  Fe  Fe5  1  0.250000  0.089093  0.986981  1
  Fe  Fe6  1  0.750000  0.590459  0.512862  1
  Fe  Fe7  1  0.750000  0.910765  0.012693  1
  Fe  Fe8  1  0.250000  0.217412  0.173376  1
  Fe  Fe9  1  0.250000  0.282196  0.673846  1
  Fe  Fe10  1  0.750000  0.782339  0.825872  1
  Fe  Fe11  1  0.750000  0.718083  0.326486  1
  Fe  Fe12  1  0.250000  0.882986  0.697248  1
  Fe  Fe13  1  0.250000  0.617804  0.198098  1
  Fe  Fe14  1  0.750000  0.117312  0.302554  1
  Fe  Fe15  1  0.750000  0.382208  0.802204  1
  Fe  Fe16  1  0.250000  0.463911  0.934404  1
  Fe  Fe17  1  0.250000  0.035072  0.436483  1
  Fe  Fe18  1  0.750000  0.536050  0.065509  1
  Co  Co19  1  0.750000  0.963899  0.566255  1
  P  P20  1  0.250000  0.421704  0.117616  1
  P  P21  1  0.250000  0.079404  0.617899  1
  P  P22  1  0.750000  0.578539  0.882388  1
  P  P23  1  0.750000  0.921745  0.381841  1
  P  P24  1  0.250000  0.265257  0.858366  1
  P  P25  1  0.250000  0.233413  0.357323  1
  P  P26  1  0.750000  0.734388  0.141856  1
  P  P27  1  0.750000  0.765446  0.642106  1
  P  P28  1  0.250000  0.592300  0.379863  1
  P  P29  1  0.250000  0.906826  0.879416  1
  P  P30  1  0.750000  0.407838  0.620072  1
  P  P31  1  0.750000  0.092900  0.120280  1
  W  W32  1  0.250000  0.706088  0.991095  1
  W  W33  1  0.250000  0.792996  0.490430  1
  W  W34  1  0.750000  0.293958  0.008894  1
  W  W35  1  0.750000  0.207860  0.508073  1
