# generated using pymatgen
data_La3Tb5(RuBr6)2
_symmetry_space_group_name_H-M   'P 1'
_cell_length_a   4.08349300
_cell_length_b   13.88371989
_cell_length_c   14.29872890
_cell_angle_alpha   90.32132210
_cell_angle_beta   90.00000000
_cell_angle_gamma   90.00000000
_symmetry_Int_Tables_number   1
_chemical_formula_structural   La3Tb5(RuBr6)2
_chemical_formula_sum   'La3 Tb5 Ru2 Br12'
_cell_volume   810.64043178
_cell_formula_units_Z   1
loop_
 _symmetry_equiv_pos_site_id
 _symmetry_equiv_pos_as_xyz
  1  'x, y, z'
loop_
 _atom_site_type_symbol
 _atom_site_label
 _atom_site_symmetry_multiplicity
 _atom_site_fract_x
 _atom_site_fract_y
 _atom_site_fract_z
 _atom_site_occupancy
  La  La0  1  0.500000  0.108158  0.352314  1
  La  La1  1  0.500000  0.893225  0.648245  1
  La  La2  1  0.500000  0.606482  0.146585  1
  Tb  Tb3  1  0.500000  0.393122  0.852698  1
  Tb  Tb4  1  0.000000  0.128722  0.588879  1
  Tb  Tb5  1  0.000000  0.873478  0.412898  1
  Tb  Tb6  1  0.000000  0.624183  0.914374  1
  Tb  Tb7  1  0.000000  0.374955  0.085210  1
  Ru  Ru8  1  0.500000  0.000870  0.500746  1
  Ru  Ru9  1  0.500000  0.505091  0.007042  1
  Br  Br10  1  0.500000  0.239071  0.168298  1
  Br  Br11  1  0.500000  0.755541  0.825243  1
  Br  Br12  1  0.500000  0.739672  0.326925  1
  Br  Br13  1  0.500000  0.262138  0.677608  1
  Br  Br14  1  0.000000  0.254289  0.426722  1
  Br  Br15  1  0.000000  0.746370  0.574333  1
  Br  Br16  1  0.000000  0.754618  0.072768  1
  Br  Br17  1  0.000000  0.256529  0.913307  1
  Br  Br18  1  0.000000  0.987730  0.242556  1
  Br  Br19  1  0.000000  0.012833  0.758604  1
  Br  Br20  1  0.000000  0.485814  0.257444  1
  Br  Br21  1  0.000000  0.497109  0.747203  1
