# generated using pymatgen
data_NaLiP7Ru12
_symmetry_space_group_name_H-M   'P 1'
_cell_length_a   9.42783600
_cell_length_b   9.42783559
_cell_length_c   3.90013100
_cell_angle_alpha   90.00000000
_cell_angle_beta   90.00000000
_cell_angle_gamma   120.00001361
_symmetry_Int_Tables_number   1
_chemical_formula_structural   NaLiP7Ru12
_chemical_formula_sum   'Na1 Li1 P7 Ru12'
_cell_volume   300.21596675
_cell_formula_units_Z   1
loop_
 _symmetry_equiv_pos_site_id
 _symmetry_equiv_pos_as_xyz
  1  'x, y, z'
loop_
 _atom_site_type_symbol
 _atom_site_label
 _atom_site_symmetry_multiplicity
 _atom_site_fract_x
 _atom_site_fract_y
 _atom_site_fract_z
 _atom_site_occupancy
  Na  Na0  1  0.000000  0.000000  0.000000  1
  Li  Li1  1  0.333333  0.666667  0.500000  1
  P  P2  1  0.666667  0.333333  0.000000  1
  P  P3  1  0.083973  0.645557  0.000000  1
  P  P4  1  0.561584  0.916027  0.000000  1
  P  P5  1  0.354443  0.438416  0.000000  1
  P  P6  1  0.778193  0.731238  0.500000  1
  P  P7  1  0.953045  0.221807  0.500000  1
  P  P8  1  0.268762  0.046955  0.500000  1
  Ru  Ru9  1  0.097574  0.411323  0.000000  1
  Ru  Ru10  1  0.313750  0.902426  0.000000  1
  Ru  Ru11  1  0.588677  0.686250  0.000000  1
  Ru  Ru12  1  0.821586  0.607102  0.000000  1
  Ru  Ru13  1  0.785517  0.178414  0.000000  1
  Ru  Ru14  1  0.392898  0.214483  0.000000  1
  Ru  Ru15  1  0.060910  0.773996  0.500000  1
  Ru  Ru16  1  0.713086  0.939090  0.500000  1
  Ru  Ru17  1  0.226004  0.286914  0.500000  1
  Ru  Ru18  1  0.870465  0.419465  0.500000  1
  Ru  Ru19  1  0.549000  0.129535  0.500000  1
  Ru  Ru20  1  0.580535  0.451000  0.500000  1
