# generated using pymatgen
data_Yb2YGa8Ag3
_symmetry_space_group_name_H-M   'P 1'
_cell_length_a   4.38371330
_cell_length_b   8.29915937
_cell_length_c   8.29915923
_cell_angle_alpha   71.49905192
_cell_angle_beta   74.68617126
_cell_angle_gamma   74.68616962
_symmetry_Int_Tables_number   1
_chemical_formula_structural   Yb2YGa8Ag3
_chemical_formula_sum   'Yb2 Y1 Ga8 Ag3'
_cell_volume   270.74325664
_cell_formula_units_Z   1
loop_
 _symmetry_equiv_pos_site_id
 _symmetry_equiv_pos_as_xyz
  1  'x, y, z'
loop_
 _atom_site_type_symbol
 _atom_site_label
 _atom_site_symmetry_multiplicity
 _atom_site_fract_x
 _atom_site_fract_y
 _atom_site_fract_z
 _atom_site_occupancy
  Yb  Yb0  1  0.300082  0.699918  0.699918  1
  Yb  Yb1  1  0.699918  0.300082  0.300082  1
  Y  Y2  1  0.000000  0.000000  0.000000  1
  Ga  Ga3  1  0.340266  0.291062  0.028406  1
  Ga  Ga4  1  0.659734  0.708938  0.971594  1
  Ga  Ga5  1  0.340266  0.028406  0.291062  1
  Ga  Ga6  1  0.659734  0.971594  0.708938  1
  Ga  Ga7  1  0.142301  0.577837  0.137562  1
  Ga  Ga8  1  0.857699  0.422163  0.862438  1
  Ga  Ga9  1  0.142301  0.137562  0.577837  1
  Ga  Ga10  1  0.857699  0.862438  0.422163  1
  Ag  Ag11  1  0.500000  0.307219  0.692781  1
  Ag  Ag12  1  0.500000  0.692781  0.307219  1
  Ag  Ag13  1  0.000000  0.500000  0.500000  1
