# generated using pymatgen
data_TbHo3SiBr6
_symmetry_space_group_name_H-M   'P 1'
_cell_length_a   4.05076000
_cell_length_b   13.20420719
_cell_length_c   13.99432542
_cell_angle_alpha   90.09117638
_cell_angle_beta   90.00000000
_cell_angle_gamma   90.00000000
_symmetry_Int_Tables_number   1
_chemical_formula_structural   TbHo3SiBr6
_chemical_formula_sum   'Tb2 Ho6 Si2 Br12'
_cell_volume   748.51457595
_cell_formula_units_Z   2
loop_
 _symmetry_equiv_pos_site_id
 _symmetry_equiv_pos_as_xyz
  1  'x, y, z'
loop_
 _atom_site_type_symbol
 _atom_site_label
 _atom_site_symmetry_multiplicity
 _atom_site_fract_x
 _atom_site_fract_y
 _atom_site_fract_z
 _atom_site_occupancy
  Tb  Tb0  1  0.000000  0.618726  0.921165  1
  Tb  Tb1  1  0.000000  0.381274  0.078835  1
  Ho  Ho2  1  0.500000  0.117751  0.341505  1
  Ho  Ho3  1  0.500000  0.882249  0.658495  1
  Ho  Ho4  1  0.500000  0.617962  0.158662  1
  Ho  Ho5  1  0.500000  0.382038  0.841338  1
  Ho  Ho6  1  0.000000  0.117513  0.578047  1
  Ho  Ho7  1  0.000000  0.882487  0.421953  1
  Si  Si8  1  0.500000  0.000000  0.500000  1
  Si  Si9  1  0.500000  0.500000  0.000000  1
  Br  Br10  1  0.500000  0.242226  0.164008  1
  Br  Br11  1  0.500000  0.757774  0.835992  1
  Br  Br12  1  0.500000  0.744539  0.337499  1
  Br  Br13  1  0.500000  0.255461  0.662501  1
  Br  Br14  1  0.000000  0.255096  0.411283  1
  Br  Br15  1  0.000000  0.744904  0.588717  1
  Br  Br16  1  0.000000  0.755706  0.090076  1
  Br  Br17  1  0.000000  0.244294  0.909924  1
  Br  Br18  1  0.000000  0.001793  0.243275  1
  Br  Br19  1  0.000000  0.998207  0.756725  1
  Br  Br20  1  0.000000  0.503133  0.257748  1
  Br  Br21  1  0.000000  0.496867  0.742252  1
