# generated using pymatgen
data_PuTeO5
_symmetry_space_group_name_H-M   'P 1'
_cell_length_a   5.59966900
_cell_length_b   7.81133400
_cell_length_c   10.43494100
_cell_angle_alpha   90.00000000
_cell_angle_beta   90.00000000
_cell_angle_gamma   90.00000000
_symmetry_Int_Tables_number   1
_chemical_formula_structural   PuTeO5
_chemical_formula_sum   'Pu4 Te4 O20'
_cell_volume   456.43355268
_cell_formula_units_Z   4
loop_
 _symmetry_equiv_pos_site_id
 _symmetry_equiv_pos_as_xyz
  1  'x, y, z'
loop_
 _atom_site_type_symbol
 _atom_site_label
 _atom_site_symmetry_multiplicity
 _atom_site_fract_x
 _atom_site_fract_y
 _atom_site_fract_z
 _atom_site_occupancy
  Pu  Pu0  1  0.966891  0.750000  0.512284  1
  Pu  Pu1  1  0.966891  0.250000  0.987716  1
  Pu  Pu2  1  0.033109  0.250000  0.487716  1
  Pu  Pu3  1  0.033109  0.750000  0.012284  1
  Te  Te4  1  0.351482  0.000000  0.250000  1
  Te  Te5  1  0.648518  0.500000  0.750000  1
  Te  Te6  1  0.648518  0.000000  0.750000  1
  Te  Te7  1  0.351482  0.500000  0.250000  1
  O  O8  1  0.702951  0.750000  0.414800  1
  O  O9  1  0.702951  0.250000  0.085200  1
  O  O10  1  0.297049  0.250000  0.585200  1
  O  O11  1  0.297049  0.750000  0.914800  1
  O  O12  1  0.226638  0.750000  0.610693  1
  O  O13  1  0.226638  0.250000  0.889307  1
  O  O14  1  0.773362  0.250000  0.389307  1
  O  O15  1  0.773362  0.750000  0.110693  1
  O  O16  1  0.265268  0.750000  0.208451  1
  O  O17  1  0.265268  0.250000  0.291549  1
  O  O18  1  0.734732  0.250000  0.791549  1
  O  O19  1  0.734732  0.750000  0.708451  1
  O  O20  1  0.146058  0.474383  0.102877  1
  O  O21  1  0.146058  0.525617  0.397123  1
  O  O22  1  0.853942  0.974383  0.897123  1
  O  O23  1  0.853942  0.025617  0.602877  1
  O  O24  1  0.853942  0.525617  0.897123  1
  O  O25  1  0.853942  0.474383  0.602877  1
  O  O26  1  0.146058  0.025617  0.102877  1
  O  O27  1  0.146058  0.974383  0.397123  1
