# generated using pymatgen
data_HoErPa(ZnPd)3
_symmetry_space_group_name_H-M   'P 1'
_cell_length_a   7.43078596
_cell_length_b   7.40209509
_cell_length_c   3.71920900
_cell_angle_alpha   90.00000000
_cell_angle_beta   90.00000000
_cell_angle_gamma   120.07044616
_symmetry_Int_Tables_number   1
_chemical_formula_structural   HoErPa(ZnPd)3
_chemical_formula_sum   'Ho1 Er1 Pa1 Zn3 Pd3'
_cell_volume   177.03612711
_cell_formula_units_Z   1
loop_
 _symmetry_equiv_pos_site_id
 _symmetry_equiv_pos_as_xyz
  1  'x, y, z'
loop_
 _atom_site_type_symbol
 _atom_site_label
 _atom_site_symmetry_multiplicity
 _atom_site_fract_x
 _atom_site_fract_y
 _atom_site_fract_z
 _atom_site_occupancy
  Ho  Ho0  1  0.004203  0.601340  0.000000  1
  Er  Er1  1  0.402728  0.398440  0.000000  1
  Pa  Pa2  1  0.594239  0.999900  0.000000  1
  Zn  Zn3  1  0.248245  0.000379  0.500000  1
  Zn  Zn4  1  0.007627  0.265197  0.500000  1
  Zn  Zn5  1  0.741903  0.734696  0.500000  1
  Pd  Pd6  1  0.990882  0.000943  0.000000  1
  Pd  Pd7  1  0.346018  0.679734  0.500000  1
  Pd  Pd8  1  0.664157  0.319371  0.500000  1
