# generated using pymatgen
data_GaCu(IrS2)4
_symmetry_space_group_name_H-M   'P 1'
_cell_length_a   7.09151736
_cell_length_b   7.09151786
_cell_length_c   7.09151700
_cell_angle_alpha   59.99999935
_cell_angle_beta   59.99999701
_cell_angle_gamma   59.99999766
_symmetry_Int_Tables_number   1
_chemical_formula_structural   GaCu(IrS2)4
_chemical_formula_sum   'Ga1 Cu1 Ir4 S8'
_cell_volume   252.17527455
_cell_formula_units_Z   1
loop_
 _symmetry_equiv_pos_site_id
 _symmetry_equiv_pos_as_xyz
  1  'x, y, z'
loop_
 _atom_site_type_symbol
 _atom_site_label
 _atom_site_symmetry_multiplicity
 _atom_site_fract_x
 _atom_site_fract_y
 _atom_site_fract_z
 _atom_site_occupancy
  Ga  Ga0  1  0.500000  0.500000  0.500000  1
  Cu  Cu1  1  0.750000  0.750000  0.750000  1
  Ir  Ir2  1  0.630605  0.123131  0.123131  1
  Ir  Ir3  1  0.123131  0.630605  0.123131  1
  Ir  Ir4  1  0.123131  0.123131  0.630605  1
  Ir  Ir5  1  0.123131  0.123131  0.123131  1
  S  S6  1  0.338913  0.887029  0.887029  1
  S  S7  1  0.887029  0.338913  0.887029  1
  S  S8  1  0.887029  0.887029  0.338913  1
  S  S9  1  0.887029  0.887029  0.887029  1
  S  S10  1  0.916966  0.361011  0.361011  1
  S  S11  1  0.361011  0.916966  0.361011  1
  S  S12  1  0.361011  0.361011  0.916966  1
  S  S13  1  0.361011  0.361011  0.361011  1
