# generated using pymatgen
data_Zr6ZnAgN2
_symmetry_space_group_name_H-M   'P 1'
_cell_length_a   6.06984000
_cell_length_b   6.06983983
_cell_length_c   9.03134900
_cell_angle_alpha   90.00000000
_cell_angle_beta   90.00000000
_cell_angle_gamma   147.78163094
_symmetry_Int_Tables_number   1
_chemical_formula_structural   Zr6ZnAgN2
_chemical_formula_sum   'Zr6 Zn1 Ag1 N2'
_cell_volume   177.40036487
_cell_formula_units_Z   1
loop_
 _symmetry_equiv_pos_site_id
 _symmetry_equiv_pos_as_xyz
  1  'x, y, z'
loop_
 _atom_site_type_symbol
 _atom_site_label
 _atom_site_symmetry_multiplicity
 _atom_site_fract_x
 _atom_site_fract_y
 _atom_site_fract_z
 _atom_site_occupancy
  Zr  Zr0  1  0.624790  0.375210  0.956706  1
  Zr  Zr1  1  0.375776  0.624224  0.448628  1
  Zr  Zr2  1  0.375776  0.624224  0.051372  1
  Zr  Zr3  1  0.624790  0.375210  0.543294  1
  Zr  Zr4  1  0.956185  0.043815  0.750000  1
  Zr  Zr5  1  0.048095  0.951905  0.250000  1
  Zn  Zn6  1  0.743678  0.256322  0.250000  1
  Ag  Ag7  1  0.252347  0.747653  0.750000  1
  N  N8  1  0.999281  0.000719  0.000776  1
  N  N9  1  0.999281  0.000719  0.499224  1
