# generated using pymatgen
data_Ho6ErTm3(In2Pt)4
_symmetry_space_group_name_H-M   'P 1'
_cell_length_a   3.60147100
_cell_length_b   8.14341800
_cell_length_c   18.17645900
_cell_angle_alpha   90.00100074
_cell_angle_beta   90.00000000
_cell_angle_gamma   90.00000000
_symmetry_Int_Tables_number   1
_chemical_formula_structural   Ho6ErTm3(In2Pt)4
_chemical_formula_sum   'Ho6 Er1 Tm3 In8 Pt4'
_cell_volume   533.08434741
_cell_formula_units_Z   1
loop_
 _symmetry_equiv_pos_site_id
 _symmetry_equiv_pos_as_xyz
  1  'x, y, z'
loop_
 _atom_site_type_symbol
 _atom_site_label
 _atom_site_symmetry_multiplicity
 _atom_site_fract_x
 _atom_site_fract_y
 _atom_site_fract_z
 _atom_site_occupancy
  Ho  Ho0  1  0.000000  0.242896  0.220143  1
  Ho  Ho1  1  0.000000  0.757055  0.779888  1
  Ho  Ho2  1  0.000000  0.257064  0.720108  1
  Ho  Ho3  1  0.000000  0.742966  0.279928  1
  Ho  Ho4  1  0.000000  0.000048  0.999991  1
  Ho  Ho5  1  0.000000  0.500009  0.499996  1
  Er  Er6  1  0.000000  0.616925  0.085438  1
  Tm  Tm7  1  0.000000  0.116742  0.414352  1
  Tm  Tm8  1  0.000000  0.883260  0.585640  1
  Tm  Tm9  1  0.000000  0.383262  0.914328  1
  In  In10  1  0.500000  0.422674  0.351101  1
  In  In11  1  0.500000  0.577292  0.648911  1
  In  In12  1  0.500000  0.077268  0.851090  1
  In  In13  1  0.500000  0.922941  0.148972  1
  In  In14  1  0.500000  0.293060  0.066266  1
  In  In15  1  0.500000  0.706718  0.933632  1
  In  In16  1  0.500000  0.206671  0.566262  1
  In  In17  1  0.500000  0.793345  0.433721  1
  Pt  Pt18  1  0.500000  0.025050  0.303908  1
  Pt  Pt19  1  0.500000  0.974969  0.696097  1
  Pt  Pt20  1  0.500000  0.474932  0.803876  1
  Pt  Pt21  1  0.500000  0.524853  0.196353  1
