# generated using pymatgen
data_Hf18TiGaRe7Ir
_symmetry_space_group_name_H-M   'P 1'
_cell_length_a   8.65677400
_cell_length_b   8.65677246
_cell_length_c   8.57728300
_cell_angle_alpha   90.00000000
_cell_angle_beta   90.00000000
_cell_angle_gamma   119.99999824
_symmetry_Int_Tables_number   1
_chemical_formula_structural   Hf18TiGaRe7Ir
_chemical_formula_sum   'Hf18 Ti1 Ga1 Re7 Ir1'
_cell_volume   556.66313491
_cell_formula_units_Z   1
loop_
 _symmetry_equiv_pos_site_id
 _symmetry_equiv_pos_as_xyz
  1  'x, y, z'
loop_
 _atom_site_type_symbol
 _atom_site_label
 _atom_site_symmetry_multiplicity
 _atom_site_fract_x
 _atom_site_fract_y
 _atom_site_fract_z
 _atom_site_occupancy
  Hf  Hf0  1  0.193995  0.806005  0.452893  1
  Hf  Hf1  1  0.193995  0.387991  0.452893  1
  Hf  Hf2  1  0.612009  0.806005  0.452893  1
  Hf  Hf3  1  0.803060  0.196940  0.551825  1
  Hf  Hf4  1  0.803060  0.606121  0.551825  1
  Hf  Hf5  1  0.393879  0.196940  0.551825  1
  Hf  Hf6  1  0.802897  0.197103  0.946344  1
  Hf  Hf7  1  0.802897  0.605795  0.946344  1
  Hf  Hf8  1  0.394205  0.197103  0.946344  1
  Hf  Hf9  1  0.192166  0.807834  0.047392  1
  Hf  Hf10  1  0.192166  0.384331  0.047392  1
  Hf  Hf11  1  0.615669  0.807834  0.047392  1
  Hf  Hf12  1  0.539631  0.460369  0.249134  1
  Hf  Hf13  1  0.539631  0.079261  0.249134  1
  Hf  Hf14  1  0.920739  0.460369  0.249134  1
  Hf  Hf15  1  0.459140  0.540860  0.750995  1
  Hf  Hf16  1  0.459140  0.918280  0.750995  1
  Hf  Hf17  1  0.081720  0.540860  0.750995  1
  Ti  Ti18  1  0.000000  0.000000  0.501228  1
  Ga  Ga19  1  0.333333  0.666667  0.248632  1
  Re  Re20  1  0.889068  0.110932  0.251692  1
  Re  Re21  1  0.889068  0.778134  0.251692  1
  Re  Re22  1  0.221866  0.110932  0.251692  1
  Re  Re23  1  0.111451  0.888549  0.748944  1
  Re  Re24  1  0.111451  0.222902  0.748944  1
  Re  Re25  1  0.777098  0.888549  0.748944  1
  Re  Re26  1  0.000000  0.000000  0.001619  1
  Ir  Ir27  1  0.666667  0.333333  0.750865  1
