# generated using pymatgen
data_Yb3Ce(Mo2C3)2
_symmetry_space_group_name_H-M   'P 1'
_cell_length_a   6.56726200
_cell_length_b   5.95202194
_cell_length_c   11.83340302
_cell_angle_alpha   67.05806028
_cell_angle_beta   90.00000000
_cell_angle_gamma   90.00000000
_symmetry_Int_Tables_number   1
_chemical_formula_structural   Yb3Ce(Mo2C3)2
_chemical_formula_sum   'Yb6 Ce2 Mo8 C12'
_cell_volume   425.96228576
_cell_formula_units_Z   2
loop_
 _symmetry_equiv_pos_site_id
 _symmetry_equiv_pos_as_xyz
  1  'x, y, z'
loop_
 _atom_site_type_symbol
 _atom_site_label
 _atom_site_symmetry_multiplicity
 _atom_site_fract_x
 _atom_site_fract_y
 _atom_site_fract_z
 _atom_site_occupancy
  Yb  Yb0  1  0.794235  0.683672  0.905566  1
  Yb  Yb1  1  0.294235  0.316328  0.594434  1
  Yb  Yb2  1  0.208361  0.317121  0.090536  1
  Yb  Yb3  1  0.708361  0.682879  0.409464  1
  Yb  Yb4  1  0.991751  0.730652  0.636056  1
  Yb  Yb5  1  0.491751  0.269348  0.863944  1
  Ce  Ce6  1  0.002606  0.266634  0.366026  1
  Ce  Ce7  1  0.502606  0.733366  0.133974  1
  Mo  Mo8  1  0.992164  0.823995  0.123580  1
  Mo  Mo9  1  0.492164  0.176005  0.376420  1
  Mo  Mo10  1  0.009027  0.181056  0.878174  1
  Mo  Mo11  1  0.509027  0.818944  0.621826  1
  Mo  Mo12  1  0.761488  0.181293  0.657297  1
  Mo  Mo13  1  0.238848  0.814478  0.342451  1
  Mo  Mo14  1  0.738848  0.185522  0.157549  1
  Mo  Mo15  1  0.261488  0.818707  0.842703  1
  C  C16  1  0.641339  0.504739  0.649690  1
  C  C17  1  0.141339  0.495261  0.850310  1
  C  C18  1  0.360762  0.488002  0.352423  1
  C  C19  1  0.860762  0.511998  0.147577  1
  C  C20  1  0.219985  0.929885  0.989697  1
  C  C21  1  0.719985  0.070115  0.510303  1
  C  C22  1  0.780774  0.078929  0.009433  1
  C  C23  1  0.280774  0.921071  0.490567  1
  C  C24  1  0.474780  0.030018  0.241192  1
  C  C25  1  0.023881  0.034701  0.743675  1
  C  C26  1  0.974780  0.969982  0.258808  1
  C  C27  1  0.523881  0.965299  0.756325  1
