# generated using pymatgen
data_Y15Ho(MgSn4)4
_symmetry_space_group_name_H-M   'P 1'
_cell_length_a   7.68366270
_cell_length_b   8.23853460
_cell_length_c   15.35547400
_cell_angle_alpha   90.02132283
_cell_angle_beta   90.02439875
_cell_angle_gamma   90.05668489
_symmetry_Int_Tables_number   1
_chemical_formula_structural   Y15Ho(MgSn4)4
_chemical_formula_sum   'Y15 Ho1 Mg4 Sn16'
_cell_volume   972.03344200
_cell_formula_units_Z   1
loop_
 _symmetry_equiv_pos_site_id
 _symmetry_equiv_pos_as_xyz
  1  'x, y, z'
loop_
 _atom_site_type_symbol
 _atom_site_label
 _atom_site_symmetry_multiplicity
 _atom_site_fract_x
 _atom_site_fract_y
 _atom_site_fract_z
 _atom_site_occupancy
  Y  Y0  1  0.836647  0.670334  0.628861  1
  Y  Y1  1  0.663133  0.170113  0.371183  1
  Y  Y2  1  0.163125  0.329965  0.128263  1
  Y  Y3  1  0.662193  0.169911  0.128677  1
  Y  Y4  1  0.162912  0.329555  0.371224  1
  Y  Y5  1  0.337673  0.829919  0.628987  1
  Y  Y6  1  0.836796  0.670109  0.871481  1
  Y  Y7  1  0.501507  0.316244  0.908599  1
  Y  Y8  1  0.002052  0.184125  0.592096  1
  Y  Y9  1  0.498768  0.684090  0.408635  1
  Y  Y10  1  0.997915  0.815601  0.091279  1
  Y  Y11  1  0.498086  0.684031  0.090978  1
  Y  Y12  1  0.998709  0.816075  0.408382  1
  Y  Y13  1  0.501454  0.315980  0.591831  1
  Y  Y14  1  0.001555  0.184267  0.908066  1
  Ho  Ho15  1  0.337414  0.829949  0.871172  1
  Mg  Mg16  1  0.161731  0.494549  0.750115  1
  Mg  Mg17  1  0.662524  0.005802  0.750609  1
  Mg  Mg18  1  0.838123  0.505571  0.249838  1
  Mg  Mg19  1  0.337735  0.993658  0.250110  1
  Sn  Sn20  1  0.317364  0.036484  0.037353  1
  Sn  Sn21  1  0.818302  0.463098  0.462169  1
  Sn  Sn22  1  0.682655  0.963405  0.538012  1
  Sn  Sn23  1  0.182350  0.537667  0.961437  1
  Sn  Sn24  1  0.681273  0.963483  0.961621  1
  Sn  Sn25  1  0.182048  0.537000  0.538016  1
  Sn  Sn26  1  0.318208  0.037043  0.462296  1
  Sn  Sn27  1  0.817622  0.462755  0.037944  1
  Sn  Sn28  1  0.523574  0.591255  0.750610  1
  Sn  Sn29  1  0.025124  0.908269  0.750457  1
  Sn  Sn30  1  0.475779  0.409336  0.250007  1
  Sn  Sn31  1  0.975761  0.090726  0.249608  1
  Sn  Sn32  1  0.304594  0.151682  0.750415  1
  Sn  Sn33  1  0.803815  0.348363  0.750051  1
  Sn  Sn34  1  0.695737  0.847689  0.249785  1
  Sn  Sn35  1  0.195743  0.651894  0.249829  1
