# generated using pymatgen
data_Lu3Al12(RuRh)2
_symmetry_space_group_name_H-M   'P 1'
_cell_length_a   8.75868484
_cell_length_b   8.73171234
_cell_length_c   9.50961300
_cell_angle_alpha   90.00000000
_cell_angle_beta   90.00000000
_cell_angle_gamma   119.89818360
_symmetry_Int_Tables_number   1
_chemical_formula_structural   Lu3Al12(RuRh)2
_chemical_formula_sum   'Lu6 Al24 Ru4 Rh4'
_cell_volume   630.48746058
_cell_formula_units_Z   2
loop_
 _symmetry_equiv_pos_site_id
 _symmetry_equiv_pos_as_xyz
  1  'x, y, z'
loop_
 _atom_site_type_symbol
 _atom_site_label
 _atom_site_symmetry_multiplicity
 _atom_site_fract_x
 _atom_site_fract_y
 _atom_site_fract_z
 _atom_site_occupancy
  Lu  Lu0  1  0.191460  0.389618  0.250000  1
  Lu  Lu1  1  0.808540  0.610382  0.750000  1
  Lu  Lu2  1  0.612880  0.806440  0.250000  1
  Lu  Lu3  1  0.387120  0.193560  0.750000  1
  Lu  Lu4  1  0.191460  0.801841  0.250000  1
  Lu  Lu5  1  0.808540  0.198159  0.750000  1
  Al  Al6  1  0.331850  0.665926  0.025997  1
  Al  Al7  1  0.668150  0.334074  0.974003  1
  Al  Al8  1  0.668150  0.334074  0.525997  1
  Al  Al9  1  0.331850  0.665926  0.474003  1
  Al  Al10  1  0.162074  0.326208  0.578716  1
  Al  Al11  1  0.837926  0.673792  0.421284  1
  Al  Al12  1  0.674933  0.837466  0.578766  1
  Al  Al13  1  0.837926  0.673792  0.078716  1
  Al  Al14  1  0.325067  0.162534  0.421234  1
  Al  Al15  1  0.162074  0.326208  0.921284  1
  Al  Al16  1  0.162074  0.835866  0.578716  1
  Al  Al17  1  0.325067  0.162534  0.078766  1
  Al  Al18  1  0.837926  0.164134  0.421284  1
  Al  Al19  1  0.674933  0.837466  0.921234  1
  Al  Al20  1  0.837926  0.164134  0.078716  1
  Al  Al21  1  0.162074  0.835866  0.921284  1
  Al  Al22  1  0.560846  0.122578  0.250000  1
  Al  Al23  1  0.439154  0.877422  0.750000  1
  Al  Al24  1  0.875842  0.437921  0.250000  1
  Al  Al25  1  0.124158  0.562079  0.750000  1
  Al  Al26  1  0.560846  0.438268  0.250000  1
  Al  Al27  1  0.439154  0.561732  0.750000  1
  Al  Al28  1  0.998829  0.999414  0.250000  1
  Al  Al29  1  0.001171  0.000586  0.750000  1
  Ru  Ru30  1  0.000000  0.500000  0.000000  1
  Ru  Ru31  1  0.000000  0.500000  0.500000  1
  Ru  Ru32  1  0.000000  0.000000  0.000000  1
  Ru  Ru33  1  0.000000  0.000000  0.500000  1
  Rh  Rh34  1  0.500000  0.000000  0.000000  1
  Rh  Rh35  1  0.500000  0.000000  0.500000  1
  Rh  Rh36  1  0.500000  0.500000  0.000000  1
  Rh  Rh37  1  0.500000  0.500000  0.500000  1
