# generated using pymatgen
data_CaLa4Sn3O
_symmetry_space_group_name_H-M   'P 1'
_cell_length_a   9.62228729
_cell_length_b   9.62228779
_cell_length_c   9.62228756
_cell_angle_alpha   127.96292186
_cell_angle_beta   127.96291960
_cell_angle_gamma   76.68510515
_symmetry_Int_Tables_number   1
_chemical_formula_structural   CaLa4Sn3O
_chemical_formula_sum   'Ca2 La8 Sn6 O2'
_cell_volume   537.83110516
_cell_formula_units_Z   2
loop_
 _symmetry_equiv_pos_site_id
 _symmetry_equiv_pos_as_xyz
  1  'x, y, z'
loop_
 _atom_site_type_symbol
 _atom_site_label
 _atom_site_symmetry_multiplicity
 _atom_site_fract_x
 _atom_site_fract_y
 _atom_site_fract_z
 _atom_site_occupancy
  Ca  Ca0  1  0.500000  0.500000  0.000000  1
  Ca  Ca1  1  0.000000  0.000000  0.000000  1
  La  La2  1  0.504285  0.004285  0.813786  1
  La  La3  1  0.190501  0.690501  0.186214  1
  La  La4  1  0.004285  0.190501  0.500000  1
  La  La5  1  0.690501  0.504285  0.500000  1
  La  La6  1  0.495715  0.995715  0.186214  1
  La  La7  1  0.809499  0.309499  0.813786  1
  La  La8  1  0.995715  0.809499  0.500000  1
  La  La9  1  0.309499  0.495715  0.500000  1
  Sn  Sn10  1  0.250000  0.250000  0.000000  1
  Sn  Sn11  1  0.750000  0.750000  0.000000  1
  Sn  Sn12  1  0.869807  0.369807  0.239615  1
  Sn  Sn13  1  0.130193  0.630193  0.760385  1
  Sn  Sn14  1  0.369807  0.130193  0.500000  1
  Sn  Sn15  1  0.630193  0.869807  0.500000  1
  O  O16  1  0.250000  0.750000  0.500000  1
  O  O17  1  0.750000  0.250000  0.500000  1
