# generated using pymatgen
data_YbEu2ReO6
_symmetry_space_group_name_H-M   'P 1'
_cell_length_a   5.92549500
_cell_length_b   5.66529445
_cell_length_c   9.94251106
_cell_angle_alpha   55.15229459
_cell_angle_beta   90.00000000
_cell_angle_gamma   90.00000000
_symmetry_Int_Tables_number   1
_chemical_formula_structural   YbEu2ReO6
_chemical_formula_sum   'Yb2 Eu4 Re2 O12'
_cell_volume   273.91369245
_cell_formula_units_Z   2
loop_
 _symmetry_equiv_pos_site_id
 _symmetry_equiv_pos_as_xyz
  1  'x, y, z'
loop_
 _atom_site_type_symbol
 _atom_site_label
 _atom_site_symmetry_multiplicity
 _atom_site_fract_x
 _atom_site_fract_y
 _atom_site_fract_z
 _atom_site_occupancy
  Yb  Yb0  1  0.500000  0.000000  0.000000  1
  Yb  Yb1  1  0.000000  0.000000  0.500000  1
  Eu  Eu2  1  0.557718  0.230721  0.252528  1
  Eu  Eu3  1  0.057718  0.769279  0.247472  1
  Eu  Eu4  1  0.942282  0.230721  0.752528  1
  Eu  Eu5  1  0.442282  0.769279  0.747472  1
  Re  Re6  1  0.000000  0.500000  0.000000  1
  Re  Re7  1  0.500000  0.500000  0.500000  1
  O  O8  1  0.539978  0.373970  0.730190  1
  O  O9  1  0.039978  0.626030  0.769810  1
  O  O10  1  0.460022  0.626030  0.269810  1
  O  O11  1  0.960022  0.373970  0.230190  1
  O  O12  1  0.777164  0.739507  0.439239  1
  O  O13  1  0.277164  0.260493  0.060761  1
  O  O14  1  0.222836  0.260493  0.560761  1
  O  O15  1  0.722836  0.739507  0.939239  1
  O  O16  1  0.184506  0.831027  0.950435  1
  O  O17  1  0.684506  0.168973  0.549565  1
  O  O18  1  0.815494  0.168973  0.049565  1
  O  O19  1  0.315494  0.831027  0.450435  1
