# generated using pymatgen
data_Na2NpSbS4
_symmetry_space_group_name_H-M   'P 1'
_cell_length_a   7.01085292
_cell_length_b   7.01085265
_cell_length_c   7.01085252
_cell_angle_alpha   132.32103822
_cell_angle_beta   132.37791742
_cell_angle_gamma   69.67763416
_symmetry_Int_Tables_number   1
_chemical_formula_structural   Na2NpSbS4
_chemical_formula_sum   'Na2 Np1 Sb1 S4'
_cell_volume   184.60443057
_cell_formula_units_Z   1
loop_
 _symmetry_equiv_pos_site_id
 _symmetry_equiv_pos_as_xyz
  1  'x, y, z'
loop_
 _atom_site_type_symbol
 _atom_site_label
 _atom_site_symmetry_multiplicity
 _atom_site_fract_x
 _atom_site_fract_y
 _atom_site_fract_z
 _atom_site_occupancy
  Na  Na0  1  0.500019  0.500019  0.000000  1
  Na  Na1  1  0.249973  0.749973  0.500000  1
  Np  Np2  1  0.000766  0.000766  0.000000  1
  Sb  Sb3  1  0.750230  0.250230  0.500000  1
  S  S4  1  0.762171  0.762171  0.000000  1
  S  S5  1  0.237883  0.237883  0.000000  1
  S  S6  1  0.989949  0.489949  0.500000  1
  S  S7  1  0.509010  0.009010  0.500000  1
