# generated using pymatgen
data_Be8AlRe2W
_symmetry_space_group_name_H-M   'P 1'
_cell_length_a   4.41498500
_cell_length_b   4.41498511
_cell_length_c   7.19167100
_cell_angle_alpha   90.00000000
_cell_angle_beta   90.00000000
_cell_angle_gamma   120.00000671
_symmetry_Int_Tables_number   1
_chemical_formula_structural   Be8AlRe2W
_chemical_formula_sum   'Be8 Al1 Re2 W1'
_cell_volume   121.40005649
_cell_formula_units_Z   1
loop_
 _symmetry_equiv_pos_site_id
 _symmetry_equiv_pos_as_xyz
  1  'x, y, z'
loop_
 _atom_site_type_symbol
 _atom_site_label
 _atom_site_symmetry_multiplicity
 _atom_site_fract_x
 _atom_site_fract_y
 _atom_site_fract_z
 _atom_site_occupancy
  Be  Be0  1  0.000000  0.000000  0.000349  1
  Be  Be1  1  0.000000  0.000000  0.486488  1
  Be  Be2  1  0.828661  0.657321  0.244727  1
  Be  Be3  1  0.169720  0.830280  0.755937  1
  Be  Be4  1  0.660560  0.830280  0.755937  1
  Be  Be5  1  0.342679  0.171339  0.244727  1
  Be  Be6  1  0.828661  0.171339  0.244727  1
  Be  Be7  1  0.169720  0.339440  0.755937  1
  Al  Al8  1  0.333333  0.666667  0.065718  1
  Re  Re9  1  0.666667  0.333333  0.932457  1
  Re  Re10  1  0.333333  0.666667  0.448867  1
  W  W11  1  0.666667  0.333333  0.564129  1
