# generated using pymatgen
data_CeThF24
_symmetry_space_group_name_H-M   'P 1'
_cell_length_a   7.68225305
_cell_length_b   7.70499782
_cell_length_c   8.79780078
_cell_angle_alpha   99.70456162
_cell_angle_beta   86.75884167
_cell_angle_gamma   107.07833643
_symmetry_Int_Tables_number   1
_chemical_formula_structural   CeThF24
_chemical_formula_sum   'Ce1 Th1 F24'
_cell_volume   490.65684062
_cell_formula_units_Z   1
loop_
 _symmetry_equiv_pos_site_id
 _symmetry_equiv_pos_as_xyz
  1  'x, y, z'
loop_
 _atom_site_type_symbol
 _atom_site_label
 _atom_site_symmetry_multiplicity
 _atom_site_fract_x
 _atom_site_fract_y
 _atom_site_fract_z
 _atom_site_occupancy
  Ce  Ce0  1  0.240876  0.974595  0.016774  1
  Th  Th1  1  0.756399  0.023662  0.984394  1
  F  F2  1  0.523957  0.462421  0.172543  1
  F  F3  1  0.478289  0.541783  0.826386  1
  F  F4  1  0.213538  0.568321  0.202396  1
  F  F5  1  0.786335  0.431464  0.798530  1
  F  F6  1  0.362486  0.761699  0.511937  1
  F  F7  1  0.637192  0.238097  0.488096  1
  F  F8  1  0.841618  0.813067  0.453860  1
  F  F9  1  0.158359  0.186890  0.544701  1
  F  F10  1  0.320505  0.393071  0.853508  1
  F  F11  1  0.682603  0.609467  0.147093  1
  F  F12  1  0.279432  0.181675  0.201177  1
  F  F13  1  0.719363  0.809009  0.791478  1
  F  F14  1  0.096959  0.682088  0.196230  1
  F  F15  1  0.904108  0.317880  0.802295  1
  F  F16  1  0.939533  0.890237  0.102800  1
  F  F17  1  0.065284  0.106778  0.898877  1
  F  F18  1  0.233082  0.045975  0.571376  1
  F  F19  1  0.767267  0.954646  0.428157  1
  F  F20  1  0.825279  0.262704  0.150969  1
  F  F21  1  0.179030  0.746645  0.853513  1
  F  F22  1  0.480978  0.898438  0.107727  1
  F  F23  1  0.507395  0.099288  0.894272  1
  F  F24  1  0.343109  0.573915  0.520238  1
  F  F25  1  0.657024  0.426185  0.480672  1
