# generated using pymatgen
data_Dy3(ZnNi3)2
_symmetry_space_group_name_H-M   'P 1'
_cell_length_a   7.68744544
_cell_length_b   7.68744450
_cell_length_c   7.68744500
_cell_angle_alpha   109.47122458
_cell_angle_beta   109.47122211
_cell_angle_gamma   109.47121790
_symmetry_Int_Tables_number   1
_chemical_formula_structural   Dy3(ZnNi3)2
_chemical_formula_sum   'Dy6 Zn4 Ni12'
_cell_volume   349.72296866
_cell_formula_units_Z   2
loop_
 _symmetry_equiv_pos_site_id
 _symmetry_equiv_pos_as_xyz
  1  'x, y, z'
loop_
 _atom_site_type_symbol
 _atom_site_label
 _atom_site_symmetry_multiplicity
 _atom_site_fract_x
 _atom_site_fract_y
 _atom_site_fract_z
 _atom_site_occupancy
  Dy  Dy0  1  0.704123  0.704123  0.000000  1
  Dy  Dy1  1  0.295877  0.000000  0.295877  1
  Dy  Dy2  1  0.000000  0.295877  0.295877  1
  Dy  Dy3  1  0.295877  0.295877  0.000000  1
  Dy  Dy4  1  0.704123  0.000000  0.704123  1
  Dy  Dy5  1  0.000000  0.704123  0.704123  1
  Zn  Zn6  1  0.000000  0.000000  0.500000  1
  Zn  Zn7  1  0.000000  0.500000  0.000000  1
  Zn  Zn8  1  0.500000  0.000000  0.000000  1
  Zn  Zn9  1  0.500000  0.500000  0.500000  1
  Ni  Ni10  1  0.338138  0.338138  0.676277  1
  Ni  Ni11  1  0.661862  0.000000  0.338138  1
  Ni  Ni12  1  0.000000  0.661862  0.338138  1
  Ni  Ni13  1  0.661862  0.338138  0.000000  1
  Ni  Ni14  1  0.338138  0.676277  0.338138  1
  Ni  Ni15  1  0.000000  0.338138  0.661862  1
  Ni  Ni16  1  0.338138  0.661862  0.000000  1
  Ni  Ni17  1  0.338138  0.000000  0.661862  1
  Ni  Ni18  1  0.676277  0.338138  0.338138  1
  Ni  Ni19  1  0.661862  0.661862  0.323723  1
  Ni  Ni20  1  0.661862  0.323723  0.661862  1
  Ni  Ni21  1  0.323723  0.661862  0.661862  1
