# generated using pymatgen
data_TbDyLu2(WO6)2
_symmetry_space_group_name_H-M   'P 1'
_cell_length_a   5.37411100
_cell_length_b   7.65621849
_cell_length_c   11.34690800
_cell_angle_alpha   75.57928440
_cell_angle_beta   90.00000000
_cell_angle_gamma   90.00000000
_symmetry_Int_Tables_number   1
_chemical_formula_structural   TbDyLu2(WO6)2
_chemical_formula_sum   'Tb2 Dy2 Lu4 W4 O24'
_cell_volume   452.16303242
_cell_formula_units_Z   2
loop_
 _symmetry_equiv_pos_site_id
 _symmetry_equiv_pos_as_xyz
  1  'x, y, z'
loop_
 _atom_site_type_symbol
 _atom_site_label
 _atom_site_symmetry_multiplicity
 _atom_site_fract_x
 _atom_site_fract_y
 _atom_site_fract_z
 _atom_site_occupancy
  Tb  Tb0  1  0.315565  0.500000  0.750000  1
  Tb  Tb1  1  0.684435  0.500000  0.250000  1
  Dy  Dy2  1  0.256854  0.000000  0.750000  1
  Dy  Dy3  1  0.743146  0.000000  0.250000  1
  Lu  Lu4  1  0.182643  0.793429  0.079202  1
  Lu  Lu5  1  0.182643  0.206571  0.420798  1
  Lu  Lu6  1  0.817357  0.206571  0.920798  1
  Lu  Lu7  1  0.817357  0.793429  0.579202  1
  W  W8  1  0.743398  0.724401  0.886075  1
  W  W9  1  0.256602  0.724401  0.386075  1
  W  W10  1  0.743398  0.275599  0.613925  1
  W  W11  1  0.256602  0.275599  0.113925  1
  O  O12  1  0.540791  0.157798  0.066846  1
  O  O13  1  0.048587  0.057942  0.102416  1
  O  O14  1  0.017987  0.713525  0.770059  1
  O  O15  1  0.459209  0.157798  0.566846  1
  O  O16  1  0.356336  0.488046  0.386729  1
  O  O17  1  0.951413  0.057942  0.602416  1
  O  O18  1  0.545095  0.792588  0.725220  1
  O  O19  1  0.454905  0.792588  0.225220  1
  O  O20  1  0.145368  0.635737  0.549632  1
  O  O21  1  0.048587  0.942058  0.397584  1
  O  O22  1  0.459209  0.842202  0.933154  1
  O  O23  1  0.454905  0.207412  0.274780  1
  O  O24  1  0.854632  0.364263  0.450368  1
  O  O25  1  0.643664  0.488046  0.886729  1
  O  O26  1  0.356336  0.511954  0.113271  1
  O  O27  1  0.951413  0.942058  0.897584  1
  O  O28  1  0.540791  0.842202  0.433154  1
  O  O29  1  0.982013  0.286475  0.229941  1
  O  O30  1  0.545095  0.207412  0.774780  1
  O  O31  1  0.854632  0.635737  0.049632  1
  O  O32  1  0.017987  0.286475  0.729941  1
  O  O33  1  0.145368  0.364263  0.950368  1
  O  O34  1  0.982013  0.713525  0.270059  1
  O  O35  1  0.643664  0.511954  0.613271  1
