# generated using pymatgen
data_Sc11IrOsRh2
_symmetry_space_group_name_H-M   'P 1'
_cell_length_a   9.50853782
_cell_length_b   9.48908061
_cell_length_c   9.50853750
_cell_angle_alpha   60.06767061
_cell_angle_beta   59.86466632
_cell_angle_gamma   60.06767093
_symmetry_Int_Tables_number   1
_chemical_formula_structural   Sc11IrOsRh2
_chemical_formula_sum   'Sc22 Ir2 Os2 Rh4'
_cell_volume   606.64272834
_cell_formula_units_Z   2
loop_
 _symmetry_equiv_pos_site_id
 _symmetry_equiv_pos_as_xyz
  1  'x, y, z'
loop_
 _atom_site_type_symbol
 _atom_site_label
 _atom_site_symmetry_multiplicity
 _atom_site_fract_x
 _atom_site_fract_y
 _atom_site_fract_z
 _atom_site_occupancy
  Sc  Sc0  1  0.802614  0.802614  0.197386  1
  Sc  Sc1  1  0.196644  0.803356  0.196644  1
  Sc  Sc2  1  0.802614  0.197386  0.197386  1
  Sc  Sc3  1  0.197386  0.197386  0.802614  1
  Sc  Sc4  1  0.803356  0.196644  0.803356  1
  Sc  Sc5  1  0.197386  0.802614  0.802614  1
  Sc  Sc6  1  0.618271  0.615600  0.150527  1
  Sc  Sc7  1  0.615600  0.150527  0.615600  1
  Sc  Sc8  1  0.150527  0.615600  0.618271  1
  Sc  Sc9  1  0.615600  0.618271  0.615600  1
  Sc  Sc10  1  0.381729  0.384400  0.849473  1
  Sc  Sc11  1  0.384400  0.849473  0.384400  1
  Sc  Sc12  1  0.849473  0.384400  0.381729  1
  Sc  Sc13  1  0.384400  0.381729  0.384400  1
  Sc  Sc14  1  0.842602  0.843881  0.469635  1
  Sc  Sc15  1  0.843881  0.469635  0.843881  1
  Sc  Sc16  1  0.469635  0.843881  0.842602  1
  Sc  Sc17  1  0.843881  0.842602  0.843881  1
  Sc  Sc18  1  0.157398  0.156119  0.530365  1
  Sc  Sc19  1  0.156119  0.530365  0.156119  1
  Sc  Sc20  1  0.530365  0.156119  0.157398  1
  Sc  Sc21  1  0.156119  0.157398  0.156119  1
  Ir  Ir22  1  0.500000  0.000000  0.500000  1
  Ir  Ir23  1  0.000000  0.500000  0.000000  1
  Os  Os24  1  0.000000  0.000000  0.000000  1
  Os  Os25  1  0.500000  0.500000  0.500000  1
  Rh  Rh26  1  0.000000  0.000000  0.500000  1
  Rh  Rh27  1  0.000000  0.500000  0.500000  1
  Rh  Rh28  1  0.500000  0.500000  0.000000  1
  Rh  Rh29  1  0.500000  0.000000  0.000000  1
