# generated using pymatgen
data_Nd10Al4IrRu5
_symmetry_space_group_name_H-M   'P 1'
_cell_length_a   8.56057570
_cell_length_b   8.58602201
_cell_length_c   8.58602162
_cell_angle_alpha   109.53406167
_cell_angle_beta   109.74009604
_cell_angle_gamma   109.26011883
_symmetry_Int_Tables_number   1
_chemical_formula_structural   Nd10Al4IrRu5
_chemical_formula_sum   'Nd10 Al4 Ir1 Ru5'
_cell_volume   485.07752464
_cell_formula_units_Z   1
loop_
 _symmetry_equiv_pos_site_id
 _symmetry_equiv_pos_as_xyz
  1  'x, y, z'
loop_
 _atom_site_type_symbol
 _atom_site_label
 _atom_site_symmetry_multiplicity
 _atom_site_fract_x
 _atom_site_fract_y
 _atom_site_fract_z
 _atom_site_occupancy
  Nd  Nd0  1  0.250000  0.683549  0.433549  1
  Nd  Nd1  1  0.750000  0.815881  0.065881  1
  Nd  Nd2  1  0.436509  0.251835  0.682407  1
  Nd  Nd3  1  0.682862  0.433527  0.249334  1
  Nd  Nd4  1  0.063491  0.745898  0.815326  1
  Nd  Nd5  1  0.817138  0.066472  0.750665  1
  Nd  Nd6  1  0.213950  0.215540  0.216407  1
  Nd  Nd7  1  0.500326  0.999594  0.286033  1
  Nd  Nd8  1  0.286050  0.502458  0.001590  1
  Nd  Nd9  1  0.999674  0.285706  0.499267  1
  Al  Al10  1  0.590181  0.590738  0.590023  1
  Al  Al11  1  0.499122  0.998769  0.908868  1
  Al  Al12  1  0.909819  0.499842  0.000557  1
  Al  Al13  1  0.000878  0.909746  0.499646  1
  Ir  Ir14  1  0.250000  0.118144  0.868144  1
  Ru  Ru15  1  0.750000  0.380333  0.630333  1
  Ru  Ru16  1  0.868134  0.250425  0.118596  1
  Ru  Ru17  1  0.120590  0.870875  0.250797  1
  Ru  Ru18  1  0.631865  0.750461  0.382290  1
  Ru  Ru19  1  0.379410  0.630206  0.750286  1
