# generated using pymatgen
data_LiY(Si7Rh3)2
_symmetry_space_group_name_H-M   'P 1'
_cell_length_a   7.94589194
_cell_length_b   7.94589174
_cell_length_c   7.94589353
_cell_angle_alpha   57.17281217
_cell_angle_beta   57.17281211
_cell_angle_gamma   57.17280430
_symmetry_Int_Tables_number   1
_chemical_formula_structural   LiY(Si7Rh3)2
_chemical_formula_sum   'Li1 Y1 Si14 Rh6'
_cell_volume   331.63713961
_cell_formula_units_Z   1
loop_
 _symmetry_equiv_pos_site_id
 _symmetry_equiv_pos_as_xyz
  1  'x, y, z'
loop_
 _atom_site_type_symbol
 _atom_site_label
 _atom_site_symmetry_multiplicity
 _atom_site_fract_x
 _atom_site_fract_y
 _atom_site_fract_z
 _atom_site_occupancy
  Li  Li0  1  0.500000  0.500000  0.500000  1
  Y  Y1  1  0.000000  0.000000  0.000000  1
  Si  Si2  1  0.750484  0.750484  0.750484  1
  Si  Si3  1  0.249516  0.249516  0.249516  1
  Si  Si4  1  0.848198  0.070015  0.669840  1
  Si  Si5  1  0.669840  0.848198  0.070015  1
  Si  Si6  1  0.070015  0.669840  0.848198  1
  Si  Si7  1  0.647146  0.824542  0.434544  1
  Si  Si8  1  0.434544  0.647146  0.824542  1
  Si  Si9  1  0.824542  0.434544  0.647146  1
  Si  Si10  1  0.175458  0.565456  0.352854  1
  Si  Si11  1  0.565456  0.352854  0.175458  1
  Si  Si12  1  0.352854  0.175458  0.565456  1
  Si  Si13  1  0.929985  0.330160  0.151802  1
  Si  Si14  1  0.330160  0.151802  0.929985  1
  Si  Si15  1  0.151802  0.929985  0.330160  1
  Rh  Rh16  1  0.069463  0.427870  0.751114  1
  Rh  Rh17  1  0.248886  0.930537  0.572130  1
  Rh  Rh18  1  0.572130  0.248886  0.930537  1
  Rh  Rh19  1  0.930537  0.572130  0.248886  1
  Rh  Rh20  1  0.427870  0.751114  0.069463  1
  Rh  Rh21  1  0.751114  0.069463  0.427870  1
