# generated using pymatgen
data_Th3Cd(B2Ir5)2
_symmetry_space_group_name_H-M   'P 1'
_cell_length_a   11.17551036
_cell_length_b   11.17550997
_cell_length_c   11.17551084
_cell_angle_alpha   28.63864412
_cell_angle_beta   28.63864858
_cell_angle_gamma   28.63864775
_symmetry_Int_Tables_number   1
_chemical_formula_structural   Th3Cd(B2Ir5)2
_chemical_formula_sum   'Th3 Cd1 B4 Ir10'
_cell_volume   283.43727720
_cell_formula_units_Z   1
loop_
 _symmetry_equiv_pos_site_id
 _symmetry_equiv_pos_as_xyz
  1  'x, y, z'
loop_
 _atom_site_type_symbol
 _atom_site_label
 _atom_site_symmetry_multiplicity
 _atom_site_fract_x
 _atom_site_fract_y
 _atom_site_fract_z
 _atom_site_occupancy
  Th  Th0  1  0.949354  0.949354  0.949354  1
  Th  Th1  1  0.844254  0.844254  0.844254  1
  Th  Th2  1  0.056258  0.056258  0.056258  1
  Cd  Cd3  1  0.158639  0.158639  0.158639  1
  B  B4  1  0.616246  0.616246  0.616246  1
  B  B5  1  0.715680  0.715680  0.715680  1
  B  B6  1  0.380971  0.380971  0.380971  1
  B  B7  1  0.282932  0.282932  0.282932  1
  Ir  Ir8  1  0.406813  0.899374  0.406813  1
  Ir  Ir9  1  0.899374  0.406813  0.406813  1
  Ir  Ir10  1  0.500063  0.500063  0.998687  1
  Ir  Ir11  1  0.500063  0.998687  0.500063  1
  Ir  Ir12  1  0.998687  0.500063  0.500063  1
  Ir  Ir13  1  0.498787  0.498787  0.498787  1
  Ir  Ir14  1  0.591621  0.101824  0.591621  1
  Ir  Ir15  1  0.591621  0.591621  0.101824  1
  Ir  Ir16  1  0.101824  0.591621  0.591621  1
  Ir  Ir17  1  0.406813  0.406813  0.899374  1
