# generated using pymatgen
data_Gd6Dy6AlCo4Sn
_symmetry_space_group_name_H-M   'P 1'
_cell_length_a   8.36355881
_cell_length_b   8.36355871
_cell_length_c   8.34919084
_cell_angle_alpha   112.34172241
_cell_angle_beta   109.41423953
_cell_angle_gamma   106.78006369
_symmetry_Int_Tables_number   1
_chemical_formula_structural   Gd6Dy6AlCo4Sn
_chemical_formula_sum   'Gd6 Dy6 Al1 Co4 Sn1'
_cell_volume   448.10301336
_cell_formula_units_Z   1
loop_
 _symmetry_equiv_pos_site_id
 _symmetry_equiv_pos_as_xyz
  1  'x, y, z'
loop_
 _atom_site_type_symbol
 _atom_site_label
 _atom_site_symmetry_multiplicity
 _atom_site_fract_x
 _atom_site_fract_y
 _atom_site_fract_z
 _atom_site_occupancy
  Gd  Gd0  1  0.182302  0.717306  0.899608  1
  Gd  Gd1  1  0.817698  0.282694  0.100392  1
  Gd  Gd2  1  0.323069  0.635222  0.313467  1
  Gd  Gd3  1  0.676931  0.364778  0.686533  1
  Gd  Gd4  1  0.321756  0.009602  0.686533  1
  Gd  Gd5  1  0.678244  0.990398  0.313467  1
  Dy  Dy6  1  0.434277  0.233874  0.201017  1
  Dy  Dy7  1  0.565723  0.766126  0.798983  1
  Dy  Dy8  1  0.032855  0.233260  0.798983  1
  Dy  Dy9  1  0.967145  0.766740  0.201017  1
  Dy  Dy10  1  0.181603  0.281381  0.462985  1
  Dy  Dy11  1  0.818397  0.718619  0.537015  1
  Al  Al12  1  0.000000  0.000000  0.000000  1
  Co  Co13  1  0.336489  0.000608  0.337098  1
  Co  Co14  1  0.663511  0.999392  0.662902  1
  Co  Co15  1  0.113435  0.613435  0.500000  1
  Co  Co16  1  0.886565  0.386565  0.500000  1
  Sn  Sn17  1  0.500000  0.500000  0.000000  1
