# generated using pymatgen
data_CaPr3(Sn2Ir)8
_symmetry_space_group_name_H-M   'P 1'
_cell_length_a   4.52615800
_cell_length_b   7.27688223
_cell_length_c   18.63608317
_cell_angle_alpha   90.06676162
_cell_angle_beta   90.00000000
_cell_angle_gamma   90.00000000
_symmetry_Int_Tables_number   1
_chemical_formula_structural   CaPr3(Sn2Ir)8
_chemical_formula_sum   'Ca1 Pr3 Sn16 Ir8'
_cell_volume   613.80355849
_cell_formula_units_Z   1
loop_
 _symmetry_equiv_pos_site_id
 _symmetry_equiv_pos_as_xyz
  1  'x, y, z'
loop_
 _atom_site_type_symbol
 _atom_site_label
 _atom_site_symmetry_multiplicity
 _atom_site_fract_x
 _atom_site_fract_y
 _atom_site_fract_z
 _atom_site_occupancy
  Ca  Ca0  1  0.250000  0.995756  0.857110  1
  Pr  Pr1  1  0.250000  0.503431  0.358085  1
  Pr  Pr2  1  0.750000  0.002451  0.140970  1
  Pr  Pr3  1  0.750000  0.497987  0.643676  1
  Sn  Sn4  1  0.250000  0.302061  0.182670  1
  Sn  Sn5  1  0.250000  0.197445  0.682994  1
  Sn  Sn6  1  0.750000  0.700063  0.818823  1
  Sn  Sn7  1  0.750000  0.802515  0.317513  1
  Sn  Sn8  1  0.250000  0.723140  0.193014  1
  Sn  Sn9  1  0.250000  0.778772  0.695079  1
  Sn  Sn10  1  0.750000  0.273705  0.807811  1
  Sn  Sn11  1  0.750000  0.222930  0.306005  1
  Sn  Sn12  1  0.250000  0.868382  0.029901  1
  Sn  Sn13  1  0.250000  0.634401  0.532922  1
  Sn  Sn14  1  0.750000  0.133593  0.965532  1
  Sn  Sn15  1  0.750000  0.366173  0.468414  1
  Sn  Sn16  1  0.250000  0.519395  0.931523  1
  Sn  Sn17  1  0.250000  0.978870  0.432478  1
  Sn  Sn18  1  0.750000  0.479151  0.067185  1
  Sn  Sn19  1  0.750000  0.020523  0.567926  1
  Ir  Ir20  1  0.250000  0.253435  0.036163  1
  Ir  Ir21  1  0.250000  0.248261  0.535467  1
  Ir  Ir22  1  0.750000  0.748206  0.964618  1
  Ir  Ir23  1  0.750000  0.751384  0.464593  1
  Ir  Ir24  1  0.250000  0.015646  0.286032  1
  Ir  Ir25  1  0.250000  0.483165  0.784889  1
  Ir  Ir26  1  0.750000  0.983121  0.714303  1
  Ir  Ir27  1  0.750000  0.516039  0.214304  1
