# generated using pymatgen
data_Ho4CdRu
_symmetry_space_group_name_H-M   'P 1'
_cell_length_a   9.58920901
_cell_length_b   9.59156848
_cell_length_c   9.58159948
_cell_angle_alpha   60.01184605
_cell_angle_beta   59.99757600
_cell_angle_gamma   60.03718539
_symmetry_Int_Tables_number   1
_chemical_formula_structural   Ho4CdRu
_chemical_formula_sum   'Ho16 Cd4 Ru4'
_cell_volume   623.37338684
_cell_formula_units_Z   4
loop_
 _symmetry_equiv_pos_site_id
 _symmetry_equiv_pos_as_xyz
  1  'x, y, z'
loop_
 _atom_site_type_symbol
 _atom_site_label
 _atom_site_symmetry_multiplicity
 _atom_site_fract_x
 _atom_site_fract_y
 _atom_site_fract_z
 _atom_site_occupancy
  Ho  Ho0  1  0.938016  0.937909  0.561434  1
  Ho  Ho1  1  0.560823  0.560797  0.938526  1
  Ho  Ho2  1  0.689258  0.689254  0.310429  1
  Ho  Ho3  1  0.154669  0.538806  0.154659  1
  Ho  Ho4  1  0.689170  0.310561  0.689173  1
  Ho  Ho5  1  0.151820  0.151834  0.151830  1
  Ho  Ho6  1  0.538766  0.154687  0.154662  1
  Ho  Ho7  1  0.689148  0.311402  0.311378  1
  Ho  Ho8  1  0.154633  0.154666  0.538826  1
  Ho  Ho9  1  0.311383  0.689129  0.311368  1
  Ho  Ho10  1  0.310505  0.689217  0.689227  1
  Ho  Ho11  1  0.938485  0.560804  0.560836  1
  Ho  Ho12  1  0.938013  0.561472  0.937970  1
  Ho  Ho13  1  0.560841  0.938430  0.560826  1
  Ho  Ho14  1  0.561481  0.937941  0.938035  1
  Ho  Ho15  1  0.311413  0.311378  0.689091  1
  Cd  Cd16  1  0.919860  0.919867  0.241878  1
  Cd  Cd17  1  0.241875  0.919867  0.919898  1
  Cd  Cd18  1  0.919743  0.919752  0.919843  1
  Cd  Cd19  1  0.919896  0.241837  0.919957  1
  Ru  Ru20  1  0.359479  0.359625  0.920032  1
  Ru  Ru21  1  0.359614  0.919985  0.359558  1
  Ru  Ru22  1  0.920047  0.359690  0.359496  1
  Ru  Ru23  1  0.361063  0.361089  0.361066  1
