# generated using pymatgen
data_AsPt3Pb
_symmetry_space_group_name_H-M   'P 1'
_cell_length_a   4.05125200
_cell_length_b   4.05125200
_cell_length_c   6.04212000
_cell_angle_alpha   90.00000000
_cell_angle_beta   90.00000000
_cell_angle_gamma   90.00000000
_symmetry_Int_Tables_number   1
_chemical_formula_structural   AsPt3Pb
_chemical_formula_sum   'As1 Pt3 Pb1'
_cell_volume   99.16715712
_cell_formula_units_Z   1
loop_
 _symmetry_equiv_pos_site_id
 _symmetry_equiv_pos_as_xyz
  1  'x, y, z'
loop_
 _atom_site_type_symbol
 _atom_site_label
 _atom_site_symmetry_multiplicity
 _atom_site_fract_x
 _atom_site_fract_y
 _atom_site_fract_z
 _atom_site_occupancy
  As  As0  1  0.000000  0.000000  0.982911  1
  Pt  Pt1  1  0.500000  0.000000  0.221654  1
  Pt  Pt2  1  0.000000  0.500000  0.221654  1
  Pt  Pt3  1  0.000000  0.000000  0.576018  1
  Pb  Pb4  1  0.500000  0.500000  0.605962  1
