# generated using pymatgen
data_TbEr7CdInPd2
_symmetry_space_group_name_H-M   'P 1'
_cell_length_a   9.63837349
_cell_length_b   9.63837375
_cell_length_c   9.64222900
_cell_angle_alpha   59.98677099
_cell_angle_beta   59.98677011
_cell_angle_gamma   60.04047974
_symmetry_Int_Tables_number   1
_chemical_formula_structural   TbEr7CdInPd2
_chemical_formula_sum   'Tb2 Er14 Cd2 In2 Pd4'
_cell_volume   633.45492772
_cell_formula_units_Z   2
loop_
 _symmetry_equiv_pos_site_id
 _symmetry_equiv_pos_as_xyz
  1  'x, y, z'
loop_
 _atom_site_type_symbol
 _atom_site_label
 _atom_site_symmetry_multiplicity
 _atom_site_fract_x
 _atom_site_fract_y
 _atom_site_fract_z
 _atom_site_occupancy
  Tb  Tb0  1  0.353267  0.353267  0.353970  1
  Tb  Tb1  1  0.353267  0.353267  0.939495  1
  Er  Er2  1  0.353908  0.938542  0.353775  1
  Er  Er3  1  0.938542  0.353908  0.353775  1
  Er  Er4  1  0.810950  0.189713  0.189027  1
  Er  Er5  1  0.189713  0.810950  0.810311  1
  Er  Er6  1  0.189713  0.810950  0.189027  1
  Er  Er7  1  0.810950  0.189713  0.810311  1
  Er  Er8  1  0.188111  0.188111  0.811889  1
  Er  Er9  1  0.809763  0.809763  0.190237  1
  Er  Er10  1  0.935834  0.565869  0.565510  1
  Er  Er11  1  0.565869  0.935834  0.932789  1
  Er  Er12  1  0.565869  0.935834  0.565510  1
  Er  Er13  1  0.935834  0.565869  0.932789  1
  Er  Er14  1  0.566452  0.566452  0.933548  1
  Er  Er15  1  0.935323  0.935323  0.564677  1
  Cd  Cd16  1  0.583081  0.249752  0.583582  1
  Cd  Cd17  1  0.249752  0.583081  0.583582  1
  In  In18  1  0.583021  0.583021  0.583293  1
  In  In19  1  0.583021  0.583021  0.250665  1
  Pd  Pd20  1  0.143288  0.143288  0.145712  1
  Pd  Pd21  1  0.143288  0.143288  0.567711  1
  Pd  Pd22  1  0.142083  0.569101  0.144407  1
  Pd  Pd23  1  0.569101  0.142083  0.144407  1
