# generated using pymatgen
data_Pr4Y12Cd4Ni3Ir
_symmetry_space_group_name_H-M   'P 1'
_cell_length_a   9.69376739
_cell_length_b   9.69376734
_cell_length_c   9.69376700
_cell_angle_alpha   59.64155010
_cell_angle_beta   59.64155026
_cell_angle_gamma   59.64154618
_symmetry_Int_Tables_number   1
_chemical_formula_structural   Pr4Y12Cd4Ni3Ir
_chemical_formula_sum   'Pr4 Y12 Cd4 Ni3 Ir1'
_cell_volume   638.86766190
_cell_formula_units_Z   1
loop_
 _symmetry_equiv_pos_site_id
 _symmetry_equiv_pos_as_xyz
  1  'x, y, z'
loop_
 _atom_site_type_symbol
 _atom_site_label
 _atom_site_symmetry_multiplicity
 _atom_site_fract_x
 _atom_site_fract_y
 _atom_site_fract_z
 _atom_site_occupancy
  Pr  Pr0  1  0.599116  0.600525  0.598865  1
  Pr  Pr1  1  0.604400  0.604084  0.194607  1
  Pr  Pr2  1  0.603874  0.195727  0.603913  1
  Pr  Pr3  1  0.194791  0.604019  0.604352  1
  Y  Y4  1  0.061529  0.436970  0.438021  1
  Y  Y5  1  0.435440  0.062831  0.063809  1
  Y  Y6  1  0.437238  0.061755  0.437432  1
  Y  Y7  1  0.063578  0.434806  0.063698  1
  Y  Y8  1  0.437986  0.437061  0.061485  1
  Y  Y9  1  0.063662  0.062854  0.435565  1
  Y  Y10  1  0.186348  0.816242  0.815483  1
  Y  Y11  1  0.810797  0.186482  0.186880  1
  Y  Y12  1  0.815937  0.186113  0.815853  1
  Y  Y13  1  0.186515  0.811230  0.186579  1
  Y  Y14  1  0.815537  0.816177  0.186408  1
  Y  Y15  1  0.186872  0.186548  0.810716  1
  Cd  Cd16  1  0.832168  0.832269  0.832134  1
  Cd  Cd17  1  0.830725  0.830491  0.503298  1
  Cd  Cd18  1  0.830522  0.503487  0.830566  1
  Cd  Cd19  1  0.503349  0.830446  0.830729  1
  Ni  Ni20  1  0.390081  0.390659  0.827120  1
  Ni  Ni21  1  0.390480  0.827019  0.390364  1
  Ni  Ni22  1  0.827108  0.390675  0.390087  1
  Ir  Ir23  1  0.391948  0.391530  0.392035  1
