# generated using pymatgen
data_Y6TcRh
_symmetry_space_group_name_H-M   'P 1'
_cell_length_a   6.37071461
_cell_length_b   7.39151197
_cell_length_c   9.27324600
_cell_angle_alpha   90.00000000
_cell_angle_beta   90.00000000
_cell_angle_gamma   89.85115219
_symmetry_Int_Tables_number   1
_chemical_formula_structural   Y6TcRh
_chemical_formula_sum   'Y12 Tc2 Rh2'
_cell_volume   436.66838520
_cell_formula_units_Z   2
loop_
 _symmetry_equiv_pos_site_id
 _symmetry_equiv_pos_as_xyz
  1  'x, y, z'
loop_
 _atom_site_type_symbol
 _atom_site_label
 _atom_site_symmetry_multiplicity
 _atom_site_fract_x
 _atom_site_fract_y
 _atom_site_fract_z
 _atom_site_occupancy
  Y  Y0  1  0.636436  0.040234  0.250000  1
  Y  Y1  1  0.363564  0.959766  0.750000  1
  Y  Y2  1  0.129275  0.460839  0.750000  1
  Y  Y3  1  0.870725  0.539161  0.250000  1
  Y  Y4  1  0.173338  0.178895  0.066002  1
  Y  Y5  1  0.826662  0.821105  0.933998  1
  Y  Y6  1  0.665524  0.325975  0.937520  1
  Y  Y7  1  0.826662  0.821105  0.566002  1
  Y  Y8  1  0.334476  0.674025  0.062480  1
  Y  Y9  1  0.173338  0.178895  0.433998  1
  Y  Y10  1  0.334476  0.674025  0.437520  1
  Y  Y11  1  0.665524  0.325975  0.562480  1
  Tc  Tc12  1  0.462847  0.383739  0.250000  1
  Tc  Tc13  1  0.537153  0.616261  0.750000  1
  Rh  Rh14  1  0.956516  0.114580  0.750000  1
  Rh  Rh15  1  0.043484  0.885420  0.250000  1
