# generated using pymatgen
data_Yb2Tm2PdPt3O14
_symmetry_space_group_name_H-M   'P 1'
_cell_length_a   7.22583762
_cell_length_b   7.19720445
_cell_length_c   7.21661140
_cell_angle_alpha   60.08892989
_cell_angle_beta   60.11370758
_cell_angle_gamma   60.13099869
_symmetry_Int_Tables_number   1
_chemical_formula_structural   Yb2Tm2PdPt3O14
_chemical_formula_sum   'Yb2 Tm2 Pd1 Pt3 O14'
_cell_volume   266.04993021
_cell_formula_units_Z   1
loop_
 _symmetry_equiv_pos_site_id
 _symmetry_equiv_pos_as_xyz
  1  'x, y, z'
loop_
 _atom_site_type_symbol
 _atom_site_label
 _atom_site_symmetry_multiplicity
 _atom_site_fract_x
 _atom_site_fract_y
 _atom_site_fract_z
 _atom_site_occupancy
  Yb  Yb0  1  0.625000  0.625000  0.125000  1
  Yb  Yb1  1  0.125000  0.625000  0.625000  1
  Tm  Tm2  1  0.625000  0.625000  0.625000  1
  Tm  Tm3  1  0.625000  0.125000  0.625000  1
  Pd  Pd4  1  0.625000  0.125000  0.125000  1
  Pt  Pt5  1  0.125000  0.125000  0.125000  1
  Pt  Pt6  1  0.125000  0.625000  0.125000  1
  Pt  Pt7  1  0.125000  0.125000  0.625000  1
  O  O8  1  0.032052  0.460510  0.461928  1
  O  O9  1  0.788986  0.786507  0.218846  1
  O  O10  1  0.788986  0.205660  0.218846  1
  O  O11  1  0.463454  0.035631  0.465284  1
  O  O12  1  0.032052  0.045510  0.461928  1
  O  O13  1  0.042054  0.458990  0.039966  1
  O  O14  1  0.743741  0.756986  0.742287  1
  O  O15  1  0.506259  0.493014  0.507713  1
  O  O16  1  0.786546  0.214369  0.784716  1
  O  O17  1  0.207946  0.791010  0.210034  1
  O  O18  1  0.217948  0.204490  0.788072  1
  O  O19  1  0.461014  0.044340  0.031154  1
  O  O20  1  0.461014  0.463493  0.031154  1
  O  O21  1  0.217948  0.789490  0.788072  1
