# generated using pymatgen
data_Gd5Tm(RuI3)2
_symmetry_space_group_name_H-M   'P 1'
_cell_length_a   4.28143400
_cell_length_b   8.95399191
_cell_length_c   12.49781000
_cell_angle_alpha   87.32540459
_cell_angle_beta   90.00000000
_cell_angle_gamma   90.00000000
_symmetry_Int_Tables_number   1
_chemical_formula_structural   Gd5Tm(RuI3)2
_chemical_formula_sum   'Gd5 Tm1 Ru2 I6'
_cell_volume   478.59319425
_cell_formula_units_Z   1
loop_
 _symmetry_equiv_pos_site_id
 _symmetry_equiv_pos_as_xyz
  1  'x, y, z'
loop_
 _atom_site_type_symbol
 _atom_site_label
 _atom_site_symmetry_multiplicity
 _atom_site_fract_x
 _atom_site_fract_y
 _atom_site_fract_z
 _atom_site_occupancy
  Gd  Gd0  1  0.250000  0.264609  0.397967  1
  Gd  Gd1  1  0.750000  0.734515  0.600635  1
  Gd  Gd2  1  0.250000  0.871072  0.372522  1
  Gd  Gd3  1  0.750000  0.129147  0.626341  1
  Gd  Gd4  1  0.250000  0.897725  0.816248  1
  Tm  Tm5  1  0.750000  0.103151  0.189381  1
  Ru  Ru6  1  0.250000  0.941831  0.593415  1
  Ru  Ru7  1  0.750000  0.057491  0.405264  1
  I  I8  1  0.250000  0.425502  0.632301  1
  I  I9  1  0.750000  0.572831  0.366369  1
  I  I10  1  0.250000  0.871758  0.106811  1
  I  I11  1  0.750000  0.139026  0.893553  1
  I  I12  1  0.250000  0.347243  0.138832  1
  I  I13  1  0.750000  0.644094  0.860362  1
