# generated using pymatgen
data_Tb6Er7Tm3(In3Co)2
_symmetry_space_group_name_H-M   'P 1'
_cell_length_a   10.31077307
_cell_length_b   10.31134537
_cell_length_c   7.01623903
_cell_angle_alpha   90.00450392
_cell_angle_beta   89.98875781
_cell_angle_gamma   120.00484590
_symmetry_Int_Tables_number   1
_chemical_formula_structural   Tb6Er7Tm3(In3Co)2
_chemical_formula_sum   'Tb6 Er7 Tm3 In6 Co2'
_cell_volume   645.98190477
_cell_formula_units_Z   1
loop_
 _symmetry_equiv_pos_site_id
 _symmetry_equiv_pos_as_xyz
  1  'x, y, z'
loop_
 _atom_site_type_symbol
 _atom_site_label
 _atom_site_symmetry_multiplicity
 _atom_site_fract_x
 _atom_site_fract_y
 _atom_site_fract_z
 _atom_site_occupancy
  Tb  Tb0  1  0.534677  0.069373  0.789874  1
  Tb  Tb1  1  0.930632  0.465308  0.789856  1
  Tb  Tb2  1  0.534701  0.465339  0.789825  1
  Tb  Tb3  1  0.465569  0.931146  0.291100  1
  Tb  Tb4  1  0.068862  0.534453  0.291126  1
  Tb  Tb5  1  0.465553  0.534438  0.291131  1
  Er  Er6  1  0.178002  0.356000  0.998603  1
  Er  Er7  1  0.643974  0.822001  0.998607  1
  Er  Er8  1  0.178000  0.821972  0.998589  1
  Er  Er9  1  0.666661  0.333346  0.184808  1
  Er  Er10  1  0.333325  0.666672  0.683989  1
  Er  Er11  1  0.000074  0.999987  0.778815  1
  Er  Er12  1  0.999965  0.999964  0.280477  1
  Tm  Tm13  1  0.821894  0.643751  0.498455  1
  Tm  Tm14  1  0.356239  0.178141  0.498502  1
  Tm  Tm15  1  0.821846  0.178126  0.498478  1
  In  In16  1  0.837293  0.674613  0.040831  1
  In  In17  1  0.325395  0.162726  0.040805  1
  In  In18  1  0.837319  0.162692  0.040836  1
  In  In19  1  0.162334  0.324577  0.540021  1
  In  In20  1  0.675408  0.837719  0.540040  1
  In  In21  1  0.162290  0.837664  0.539998  1
  Co  Co22  1  0.666660  0.333325  0.565390  1
  Co  Co23  1  0.333325  0.666670  0.065750  1
