# generated using pymatgen
data_YLu2Pa(ReN3)4
_symmetry_space_group_name_H-M   'P 1'
_cell_length_a   5.37249536
_cell_length_b   5.72073718
_cell_length_c   7.63738400
_cell_angle_alpha   90.00000000
_cell_angle_beta   90.00000000
_cell_angle_gamma   89.94491566
_symmetry_Int_Tables_number   1
_chemical_formula_structural   YLu2Pa(ReN3)4
_chemical_formula_sum   'Y1 Lu2 Pa1 Re4 N12'
_cell_volume   234.73209312
_cell_formula_units_Z   1
loop_
 _symmetry_equiv_pos_site_id
 _symmetry_equiv_pos_as_xyz
  1  'x, y, z'
loop_
 _atom_site_type_symbol
 _atom_site_label
 _atom_site_symmetry_multiplicity
 _atom_site_fract_x
 _atom_site_fract_y
 _atom_site_fract_z
 _atom_site_occupancy
  Y  Y0  1  0.027758  0.933773  0.250000  1
  Lu  Lu1  1  0.492525  0.579149  0.750000  1
  Lu  Lu2  1  0.010405  0.079519  0.750000  1
  Pa  Pa3  1  0.447491  0.433309  0.250000  1
  Re  Re4  1  0.518303  0.010879  0.504680  1
  Re  Re5  1  0.977562  0.508499  0.994913  1
  Re  Re6  1  0.977562  0.508499  0.505087  1
  Re  Re7  1  0.518303  0.010879  0.995320  1
  N  N8  1  0.696262  0.298237  0.549388  1
  N  N9  1  0.315565  0.686946  0.050655  1
  N  N10  1  0.197920  0.198941  0.049095  1
  N  N11  1  0.399187  0.963654  0.750000  1
  N  N12  1  0.913573  0.515734  0.250000  1
  N  N13  1  0.315565  0.686946  0.449345  1
  N  N14  1  0.806406  0.799344  0.950958  1
  N  N15  1  0.696262  0.298237  0.950612  1
  N  N16  1  0.806406  0.799344  0.549042  1
  N  N17  1  0.100096  0.468463  0.750000  1
  N  N18  1  0.197920  0.198941  0.450905  1
  N  N19  1  0.584928  0.020710  0.250000  1
