# generated using pymatgen
data_Ho2H6RuPt
_symmetry_space_group_name_H-M   'P 1'
_cell_length_a   5.97229888
_cell_length_b   5.97229912
_cell_length_c   4.65181800
_cell_angle_alpha   90.00000000
_cell_angle_beta   90.00000000
_cell_angle_gamma   142.29260622
_symmetry_Int_Tables_number   1
_chemical_formula_structural   Ho2H6RuPt
_chemical_formula_sum   'Ho2 H6 Ru1 Pt1'
_cell_volume   101.48315657
_cell_formula_units_Z   1
loop_
 _symmetry_equiv_pos_site_id
 _symmetry_equiv_pos_as_xyz
  1  'x, y, z'
loop_
 _atom_site_type_symbol
 _atom_site_label
 _atom_site_symmetry_multiplicity
 _atom_site_fract_x
 _atom_site_fract_y
 _atom_site_fract_z
 _atom_site_occupancy
  Ho  Ho0  1  0.369134  0.630865  0.250001  1
  Ho  Ho1  1  0.626664  0.373335  0.749999  1
  H  H2  1  0.813166  0.186833  0.011163  1
  H  H3  1  0.580755  0.419244  0.250001  1
  H  H4  1  0.813166  0.186833  0.488838  1
  H  H5  1  0.188845  0.811154  0.509544  1
  H  H6  1  0.417706  0.582293  0.749999  1
  H  H7  1  0.188845  0.811154  0.990457  1
  Ru  Ru8  1  0.083594  0.916405  0.250001  1
  Pt  Pt9  1  0.918120  0.081879  0.749999  1
