# generated using pymatgen
data_K2Ta3Nb3Ag(PO8)3
_symmetry_space_group_name_H-M   'P 1'
_cell_length_a   8.57769420
_cell_length_b   8.57769353
_cell_length_c   8.64330000
_cell_angle_alpha   75.41295358
_cell_angle_beta   75.41295475
_cell_angle_gamma   104.38378711
_symmetry_Int_Tables_number   1
_chemical_formula_structural   K2Ta3Nb3Ag(PO8)3
_chemical_formula_sum   'K2 Ta3 Nb3 Ag1 P3 O24'
_cell_volume   561.62362130
_cell_formula_units_Z   1
loop_
 _symmetry_equiv_pos_site_id
 _symmetry_equiv_pos_as_xyz
  1  'x, y, z'
loop_
 _atom_site_type_symbol
 _atom_site_label
 _atom_site_symmetry_multiplicity
 _atom_site_fract_x
 _atom_site_fract_y
 _atom_site_fract_z
 _atom_site_occupancy
  K  K0  1  0.110916  0.436016  0.265329  1
  K  K1  1  0.569662  0.882419  0.735320  1
  Ta  Ta2  1  0.156855  0.032812  0.650232  1
  Ta  Ta3  1  0.352276  0.157507  0.962942  1
  Ta  Ta4  1  0.845620  0.646374  0.035787  1
  Nb  Nb5  1  0.035196  0.349897  0.843619  1
  Nb  Nb6  1  0.966245  0.847937  0.350251  1
  Nb  Nb7  1  0.645915  0.963948  0.153145  1
  Ag  Ag8  1  0.506683  0.498753  0.496619  1
  P  P9  1  0.497315  0.268682  0.268469  1
  P  P10  1  0.730541  0.502371  0.732376  1
  P  P11  1  0.271036  0.728840  0.500467  1
  O  O12  1  0.500648  0.024393  0.020824  1
  O  O13  1  0.155379  0.998695  0.152430  1
  O  O14  1  0.577598  0.127027  0.284688  1
  O  O15  1  0.845887  0.153650  0.999913  1
  O  O16  1  0.314262  0.071165  0.789128  1
  O  O17  1  0.411364  0.282263  0.131039  1
  O  O18  1  0.359174  0.235627  0.441213  1
  O  O19  1  0.637329  0.443174  0.226986  1
  O  O20  1  0.072189  0.207881  0.689237  1
  O  O21  1  0.874379  0.424552  0.713660  1
  O  O22  1  0.557632  0.358960  0.775625  1
  O  O23  1  0.207857  0.308916  0.931360  1
  O  O24  1  0.973521  0.497068  0.979433  1
  O  O25  1  0.928802  0.685197  0.209902  1
  O  O26  1  0.758887  0.639520  0.561446  1
  O  O27  1  0.715498  0.586961  0.870743  1
  O  O28  1  0.691480  0.793026  0.067751  1
  O  O29  1  0.238188  0.558345  0.641099  1
  O  O30  1  0.443714  0.764575  0.360941  1
  O  O31  1  0.128842  0.708497  0.420955  1
  O  O32  1  0.792706  0.930342  0.311031  1
  O  O33  1  0.289930  0.872667  0.579286  1
  O  O34  1  0.002066  0.844711  0.845934  1
  O  O35  1  0.028408  0.973234  0.500820  1
