# generated using pymatgen
data_Ac3Yb(SnIr2)2
_symmetry_space_group_name_H-M   'P 1'
_cell_length_a   5.98121220
_cell_length_b   5.95009134
_cell_length_c   8.32294273
_cell_angle_alpha   101.23551853
_cell_angle_beta   101.53929051
_cell_angle_gamma   59.72520610
_symmetry_Int_Tables_number   1
_chemical_formula_structural   Ac3Yb(SnIr2)2
_chemical_formula_sum   'Ac3 Yb1 Sn2 Ir4'
_cell_volume   249.08472363
_cell_formula_units_Z   1
loop_
 _symmetry_equiv_pos_site_id
 _symmetry_equiv_pos_as_xyz
  1  'x, y, z'
loop_
 _atom_site_type_symbol
 _atom_site_label
 _atom_site_symmetry_multiplicity
 _atom_site_fract_x
 _atom_site_fract_y
 _atom_site_fract_z
 _atom_site_occupancy
  Ac  Ac0  1  0.789468  0.500874  0.135456  1
  Ac  Ac1  1  0.506217  0.204600  0.356043  1
  Ac  Ac2  1  0.497905  0.797182  0.657793  1
  Yb  Yb3  1  0.200804  0.502721  0.851173  1
  Sn  Sn4  1  0.139404  0.858907  0.246846  1
  Sn  Sn5  1  0.867964  0.129578  0.750587  1
  Ir  Ir6  1  0.273854  0.009754  0.998598  1
  Ir  Ir7  1  0.997333  0.717580  0.503651  1
  Ir  Ir8  1  0.006505  0.274517  0.496933  1
  Ir  Ir9  1  0.720545  0.004287  0.002924  1
