# generated using pymatgen
data_Tb11Lu5(ScBi3)4
_symmetry_space_group_name_H-M   'P 1'
_cell_length_a   8.12174098
_cell_length_b   9.39551360
_cell_length_c   11.99133713
_cell_angle_alpha   90.00678627
_cell_angle_beta   89.93163503
_cell_angle_gamma   90.04056465
_symmetry_Int_Tables_number   1
_chemical_formula_structural   Tb11Lu5(ScBi3)4
_chemical_formula_sum   'Tb11 Lu5 Sc4 Bi12'
_cell_volume   915.03320081
_cell_formula_units_Z   1
loop_
 _symmetry_equiv_pos_site_id
 _symmetry_equiv_pos_as_xyz
  1  'x, y, z'
loop_
 _atom_site_type_symbol
 _atom_site_label
 _atom_site_symmetry_multiplicity
 _atom_site_fract_x
 _atom_site_fract_y
 _atom_site_fract_z
 _atom_site_occupancy
  Tb  Tb0  1  0.354851  0.249750  0.284196  1
  Tb  Tb1  1  0.645582  0.749028  0.716072  1
  Tb  Tb2  1  0.145799  0.749335  0.783837  1
  Tb  Tb3  1  0.853116  0.249729  0.216521  1
  Tb  Tb4  1  0.184478  0.250303  0.779958  1
  Tb  Tb5  1  0.815583  0.749293  0.219784  1
  Tb  Tb6  1  0.315006  0.749378  0.280368  1
  Tb  Tb7  1  0.684524  0.249972  0.719343  1
  Tb  Tb8  1  0.193429  0.064123  0.058224  1
  Tb  Tb9  1  0.806345  0.935788  0.941956  1
  Tb  Tb10  1  0.306201  0.935860  0.558140  1
  Lu  Lu11  1  0.803578  0.567298  0.941594  1
  Lu  Lu12  1  0.694870  0.067231  0.442175  1
  Lu  Lu13  1  0.196475  0.432670  0.058447  1
  Lu  Lu14  1  0.696378  0.433202  0.441881  1
  Lu  Lu15  1  0.304350  0.567431  0.557906  1
  Sc  Sc16  1  0.022958  0.249608  0.511859  1
  Sc  Sc17  1  0.975907  0.749602  0.488060  1
  Sc  Sc18  1  0.475842  0.749533  0.012208  1
  Sc  Sc19  1  0.524002  0.250002  0.988075  1
  Bi  Bi20  1  0.401647  0.254483  0.542572  1
  Bi  Bi21  1  0.600363  0.748949  0.456456  1
  Bi  Bi22  1  0.098899  0.744532  0.042947  1
  Bi  Bi23  1  0.900904  0.255398  0.957154  1
  Bi  Bi24  1  0.064927  0.003788  0.332146  1
  Bi  Bi25  1  0.933651  0.995646  0.667624  1
  Bi  Bi26  1  0.434075  0.995907  0.831533  1
  Bi  Bi27  1  0.934850  0.503581  0.667469  1
  Bi  Bi28  1  0.566389  0.003590  0.168668  1
  Bi  Bi29  1  0.064947  0.495563  0.332559  1
  Bi  Bi30  1  0.565021  0.495841  0.167891  1
  Bi  Bi31  1  0.435054  0.503587  0.832377  1
