# generated using pymatgen
data_Yb5CeOsRu
_symmetry_space_group_name_H-M   'P 1'
_cell_length_a   6.34964391
_cell_length_b   7.59828862
_cell_length_c   9.51181900
_cell_angle_alpha   90.00000000
_cell_angle_beta   90.00000000
_cell_angle_gamma   86.62865975
_symmetry_Int_Tables_number   1
_chemical_formula_structural   Yb5CeOsRu
_chemical_formula_sum   'Yb10 Ce2 Os2 Ru2'
_cell_volume   458.11707468
_cell_formula_units_Z   2
loop_
 _symmetry_equiv_pos_site_id
 _symmetry_equiv_pos_as_xyz
  1  'x, y, z'
loop_
 _atom_site_type_symbol
 _atom_site_label
 _atom_site_symmetry_multiplicity
 _atom_site_fract_x
 _atom_site_fract_y
 _atom_site_fract_z
 _atom_site_occupancy
  Yb  Yb0  1  0.669608  0.168053  0.066780  1
  Yb  Yb1  1  0.366136  0.539970  0.250000  1
  Yb  Yb2  1  0.845381  0.666538  0.070047  1
  Yb  Yb3  1  0.161308  0.326781  0.931640  1
  Yb  Yb4  1  0.334317  0.834337  0.931200  1
  Yb  Yb5  1  0.634809  0.458699  0.750000  1
  Yb  Yb6  1  0.334317  0.834337  0.568800  1
  Yb  Yb7  1  0.161308  0.326781  0.568360  1
  Yb  Yb8  1  0.845381  0.666538  0.429953  1
  Yb  Yb9  1  0.669608  0.168053  0.433220  1
  Ce  Ce10  1  0.840732  0.938408  0.750000  1
  Ce  Ce11  1  0.161985  0.057135  0.250000  1
  Os  Os12  1  0.987599  0.351318  0.250000  1
  Os  Os13  1  0.502390  0.109914  0.750000  1
  Ru  Ru14  1  0.480695  0.894893  0.250000  1
  Ru  Ru15  1  0.004427  0.658245  0.750000  1
