# generated using pymatgen
data_NaZrNi10P7W2
_symmetry_space_group_name_H-M   'P 1'
_cell_length_a   9.08463284
_cell_length_b   9.12065449
_cell_length_c   3.63768000
_cell_angle_alpha   90.00000000
_cell_angle_beta   90.00000000
_cell_angle_gamma   119.90050512
_symmetry_Int_Tables_number   1
_chemical_formula_structural   NaZrNi10P7W2
_chemical_formula_sum   'Na1 Zr1 Ni10 P7 W2'
_cell_volume   261.29015637
_cell_formula_units_Z   1
loop_
 _symmetry_equiv_pos_site_id
 _symmetry_equiv_pos_as_xyz
  1  'x, y, z'
loop_
 _atom_site_type_symbol
 _atom_site_label
 _atom_site_symmetry_multiplicity
 _atom_site_fract_x
 _atom_site_fract_y
 _atom_site_fract_z
 _atom_site_occupancy
  Na  Na0  1  0.996416  0.001350  0.000000  1
  Zr  Zr1  1  0.331318  0.664207  0.500000  1
  Ni  Ni2  1  0.297754  0.397081  0.000000  1
  Ni  Ni3  1  0.100287  0.702913  0.000000  1
  Ni  Ni4  1  0.385312  0.168591  0.000000  1
  Ni  Ni5  1  0.791824  0.621875  0.000000  1
  Ni  Ni6  1  0.821912  0.210232  0.000000  1
  Ni  Ni7  1  0.236605  0.945824  0.500000  1
  Ni  Ni8  1  0.054761  0.281663  0.500000  1
  Ni  Ni9  1  0.714646  0.773603  0.500000  1
  Ni  Ni10  1  0.571497  0.113190  0.500000  1
  Ni  Ni11  1  0.600058  0.897388  0.000000  1
  P  P12  1  0.664292  0.329757  0.000000  1
  P  P13  1  0.083180  0.450040  0.000000  1
  P  P14  1  0.254246  0.210166  0.500000  1
  P  P15  1  0.782517  0.045192  0.500000  1
  P  P16  1  0.960428  0.748856  0.500000  1
  P  P17  1  0.550405  0.633565  0.000000  1
  P  P18  1  0.370300  0.916521  0.000000  1
  W  W19  1  0.886295  0.457143  0.500000  1
  W  W20  1  0.545947  0.430846  0.500000  1
