# generated using pymatgen
data_Tb11HoCo3Si8Ni
_symmetry_space_group_name_H-M   'P 1'
_cell_length_a   4.12142000
_cell_length_b   11.23169336
_cell_length_c   11.41916994
_cell_angle_alpha   90.16761409
_cell_angle_beta   90.00000000
_cell_angle_gamma   90.00000000
_symmetry_Int_Tables_number   1
_chemical_formula_structural   Tb11HoCo3Si8Ni
_chemical_formula_sum   'Tb11 Ho1 Co3 Si8 Ni1'
_cell_volume   528.59711738
_cell_formula_units_Z   1
loop_
 _symmetry_equiv_pos_site_id
 _symmetry_equiv_pos_as_xyz
  1  'x, y, z'
loop_
 _atom_site_type_symbol
 _atom_site_label
 _atom_site_symmetry_multiplicity
 _atom_site_fract_x
 _atom_site_fract_y
 _atom_site_fract_z
 _atom_site_occupancy
  Tb  Tb0  1  0.250000  0.059750  0.882340  1
  Tb  Tb1  1  0.250000  0.441588  0.382519  1
  Tb  Tb2  1  0.750000  0.558581  0.618384  1
  Tb  Tb3  1  0.250000  0.125211  0.557717  1
  Tb  Tb4  1  0.250000  0.372613  0.058168  1
  Tb  Tb5  1  0.750000  0.873069  0.440953  1
  Tb  Tb6  1  0.750000  0.624439  0.943503  1
  Tb  Tb7  1  0.250000  0.803794  0.714891  1
  Tb  Tb8  1  0.250000  0.699475  0.217738  1
  Tb  Tb9  1  0.750000  0.199162  0.282272  1
  Tb  Tb10  1  0.750000  0.300893  0.783086  1
  Ho  Ho11  1  0.750000  0.943172  0.117482  1
  Co  Co12  1  0.250000  0.363916  0.631035  1
  Co  Co13  1  0.250000  0.134647  0.130607  1
  Co  Co14  1  0.750000  0.634463  0.369626  1
  Si  Si15  1  0.250000  0.815880  0.974544  1
  Si  Si16  1  0.250000  0.684229  0.474196  1
  Si  Si17  1  0.750000  0.182944  0.025822  1
  Si  Si18  1  0.750000  0.316135  0.526598  1
  Si  Si19  1  0.250000  0.494492  0.801420  1
  Si  Si20  1  0.250000  0.004932  0.299984  1
  Si  Si21  1  0.750000  0.505749  0.198321  1
  Si  Si22  1  0.750000  0.995204  0.697421  1
  Ni  Ni23  1  0.750000  0.865660  0.871374  1
