# generated using pymatgen
data_Pr4Ga10NiPd5
_symmetry_space_group_name_H-M   'P 1'
_cell_length_a   8.74939845
_cell_length_b   8.75502254
_cell_length_c   8.75502300
_cell_angle_alpha   140.64912532
_cell_angle_beta   107.89003898
_cell_angle_gamma   85.39287586
_symmetry_Int_Tables_number   1
_chemical_formula_structural   Pr4Ga10NiPd5
_chemical_formula_sum   'Pr4 Ga10 Ni1 Pd5'
_cell_volume   390.69561109
_cell_formula_units_Z   1
loop_
 _symmetry_equiv_pos_site_id
 _symmetry_equiv_pos_as_xyz
  1  'x, y, z'
loop_
 _atom_site_type_symbol
 _atom_site_label
 _atom_site_symmetry_multiplicity
 _atom_site_fract_x
 _atom_site_fract_y
 _atom_site_fract_z
 _atom_site_occupancy
  Pr  Pr0  1  0.861120  0.636679  0.224442  1
  Pr  Pr1  1  0.133149  0.361961  0.771188  1
  Pr  Pr2  1  0.413187  0.137415  0.275772  1
  Pr  Pr3  1  0.587728  0.863271  0.724457  1
  Ga  Ga4  1  0.499703  0.745304  0.234989  1
  Ga  Ga5  1  0.499703  0.264714  0.754399  1
  Ga  Ga6  1  0.211955  0.958087  0.748451  1
  Ga  Ga7  1  0.779449  0.542433  0.753484  1
  Ga  Ga8  1  0.779449  0.025965  0.237016  1
  Ga  Ga9  1  0.211955  0.463504  0.253867  1
  Ga  Ga10  1  0.063693  0.900844  0.162849  1
  Ga  Ga11  1  0.933760  0.095391  0.838369  1
  Ga  Ga12  1  0.739148  0.400652  0.338494  1
  Ga  Ga13  1  0.272411  0.598930  0.673481  1
  Ni  Ni14  1  0.546943  0.643398  0.903546  1
  Pd  Pd15  1  0.003835  0.748486  0.750899  1
  Pd  Pd16  1  0.003835  0.252936  0.255348  1
  Pd  Pd17  1  0.263972  0.859052  0.404919  1
  Pd  Pd18  1  0.742061  0.143435  0.598626  1
  Pd  Pd19  1  0.452947  0.357543  0.095403  1
