# generated using pymatgen
data_Dy15ErIn4(PtRh)2
_symmetry_space_group_name_H-M   'P 1'
_cell_length_a   9.66997201
_cell_length_b   9.68028513
_cell_length_c   9.67835802
_cell_angle_alpha   60.17389306
_cell_angle_beta   60.12885131
_cell_angle_gamma   60.16368879
_symmetry_Int_Tables_number   1
_chemical_formula_structural   Dy15ErIn4(PtRh)2
_chemical_formula_sum   'Dy15 Er1 In4 Pt2 Rh2'
_cell_volume   642.87513578
_cell_formula_units_Z   1
loop_
 _symmetry_equiv_pos_site_id
 _symmetry_equiv_pos_as_xyz
  1  'x, y, z'
loop_
 _atom_site_type_symbol
 _atom_site_label
 _atom_site_symmetry_multiplicity
 _atom_site_fract_x
 _atom_site_fract_y
 _atom_site_fract_z
 _atom_site_occupancy
  Dy  Dy0  1  0.193087  0.186595  0.810008  1
  Dy  Dy1  1  0.437139  0.061908  0.062270  1
  Dy  Dy2  1  0.436638  0.063315  0.437754  1
  Dy  Dy3  1  0.061635  0.438341  0.061890  1
  Dy  Dy4  1  0.648208  0.050139  0.651810  1
  Dy  Dy5  1  0.189678  0.810532  0.811009  1
  Dy  Dy6  1  0.061952  0.061897  0.437848  1
  Dy  Dy7  1  0.808991  0.190505  0.190782  1
  Dy  Dy8  1  0.810330  0.809969  0.187353  1
  Dy  Dy9  1  0.647552  0.651965  0.050487  1
  Dy  Dy10  1  0.647278  0.651486  0.651550  1
  Dy  Dy11  1  0.063284  0.437864  0.437275  1
  Dy  Dy12  1  0.053501  0.650217  0.649617  1
  Dy  Dy13  1  0.809998  0.187327  0.810093  1
  Dy  Dy14  1  0.436351  0.438219  0.063395  1
  Er  Er15  1  0.192990  0.809616  0.187146  1
  In  In16  1  0.417276  0.748439  0.416988  1
  In  In17  1  0.417328  0.417059  0.748351  1
  In  In18  1  0.748751  0.417090  0.417066  1
  In  In19  1  0.416686  0.416736  0.416604  1
  Pt  Pt20  1  0.857907  0.428151  0.857458  1
  Pt  Pt21  1  0.858986  0.857349  0.427330  1
  Rh  Rh22  1  0.426641  0.857708  0.858519  1
  Rh  Rh23  1  0.857814  0.857570  0.857394  1
