# generated using pymatgen
data_Hf3CuTc3P2
_symmetry_space_group_name_H-M   'P 1'
_cell_length_a   6.96972400
_cell_length_b   6.96972310
_cell_length_c   3.31234200
_cell_angle_alpha   90.00000000
_cell_angle_beta   90.00000000
_cell_angle_gamma   120.00000428
_symmetry_Int_Tables_number   1
_chemical_formula_structural   Hf3CuTc3P2
_chemical_formula_sum   'Hf3 Cu1 Tc3 P2'
_cell_volume   139.34676444
_cell_formula_units_Z   1
loop_
 _symmetry_equiv_pos_site_id
 _symmetry_equiv_pos_as_xyz
  1  'x, y, z'
loop_
 _atom_site_type_symbol
 _atom_site_label
 _atom_site_symmetry_multiplicity
 _atom_site_fract_x
 _atom_site_fract_y
 _atom_site_fract_z
 _atom_site_occupancy
  Hf  Hf0  1  0.001534  0.599013  0.500000  1
  Hf  Hf1  1  0.400987  0.402521  0.500000  1
  Hf  Hf2  1  0.597479  0.998466  0.500000  1
  Cu  Cu3  1  0.666667  0.333333  0.000000  1
  Tc  Tc4  1  0.241708  0.985890  0.000000  1
  Tc  Tc5  1  0.744181  0.758292  0.000000  1
  Tc  Tc6  1  0.014110  0.255819  0.000000  1
  P  P7  1  0.333333  0.666667  0.000000  1
  P  P8  1  0.000000  0.000000  0.500000  1
