# generated using pymatgen
data_Ho4FeReC4
_symmetry_space_group_name_H-M   'P 1'
_cell_length_a   5.06231900
_cell_length_b   6.41126800
_cell_length_c   9.70410800
_cell_angle_alpha   90.00000000
_cell_angle_beta   90.00000000
_cell_angle_gamma   90.00000000
_symmetry_Int_Tables_number   1
_chemical_formula_structural   Ho4FeReC4
_chemical_formula_sum   'Ho8 Fe2 Re2 C8'
_cell_volume   314.95540173
_cell_formula_units_Z   2
loop_
 _symmetry_equiv_pos_site_id
 _symmetry_equiv_pos_as_xyz
  1  'x, y, z'
loop_
 _atom_site_type_symbol
 _atom_site_label
 _atom_site_symmetry_multiplicity
 _atom_site_fract_x
 _atom_site_fract_y
 _atom_site_fract_z
 _atom_site_occupancy
  Ho  Ho0  1  0.250000  0.472786  0.783642  1
  Ho  Ho1  1  0.750000  0.027214  0.283642  1
  Ho  Ho2  1  0.250000  0.972384  0.713743  1
  Ho  Ho3  1  0.750000  0.527616  0.213743  1
  Ho  Ho4  1  0.250000  0.826930  0.052979  1
  Ho  Ho5  1  0.750000  0.673070  0.552979  1
  Ho  Ho6  1  0.250000  0.310935  0.443350  1
  Ho  Ho7  1  0.750000  0.189065  0.943350  1
  Fe  Fe8  1  0.250000  0.272996  0.138544  1
  Fe  Fe9  1  0.750000  0.227004  0.638544  1
  Re  Re10  1  0.250000  0.772711  0.360886  1
  Re  Re11  1  0.750000  0.727289  0.860886  1
  C  C12  1  0.250000  0.188811  0.961026  1
  C  C13  1  0.750000  0.822858  0.050976  1
  C  C14  1  0.250000  0.677142  0.550976  1
  C  C15  1  0.750000  0.311189  0.461026  1
  C  C16  1  0.250000  0.046746  0.257295  1
  C  C17  1  0.750000  0.453254  0.757295  1
  C  C18  1  0.250000  0.529834  0.237558  1
  C  C19  1  0.750000  0.970166  0.737558  1
