# generated using pymatgen
data_Y8Tm2(AlSb)3
_symmetry_space_group_name_H-M   'P 1'
_cell_length_a   8.83947845
_cell_length_b   8.85427427
_cell_length_c   6.47940404
_cell_angle_alpha   89.99661184
_cell_angle_beta   90.01262468
_cell_angle_gamma   120.05735946
_symmetry_Int_Tables_number   1
_chemical_formula_structural   Y8Tm2(AlSb)3
_chemical_formula_sum   'Y8 Tm2 Al3 Sb3'
_cell_volume   438.92870743
_cell_formula_units_Z   1
loop_
 _symmetry_equiv_pos_site_id
 _symmetry_equiv_pos_as_xyz
  1  'x, y, z'
loop_
 _atom_site_type_symbol
 _atom_site_label
 _atom_site_symmetry_multiplicity
 _atom_site_fract_x
 _atom_site_fract_y
 _atom_site_fract_z
 _atom_site_occupancy
  Y  Y0  1  0.333070  0.678102  0.002336  1
  Y  Y1  1  0.666664  0.326579  0.497744  1
  Y  Y2  1  0.234583  0.990263  0.250255  1
  Y  Y3  1  0.758801  0.001071  0.750132  1
  Y  Y4  1  0.989131  0.234801  0.249829  1
  Y  Y5  1  0.763015  0.763706  0.250018  1
  Y  Y6  1  0.244237  0.233761  0.750082  1
  Y  Y7  1  0.011117  0.768760  0.749726  1
  Tm  Tm8  1  0.666703  0.325622  0.002510  1
  Tm  Tm9  1  0.332941  0.679387  0.497352  1
  Al  Al10  1  0.599088  0.999020  0.249958  1
  Al  Al11  1  0.404453  0.003397  0.749853  1
  Al  Al12  1  0.994886  0.599513  0.250069  1
  Sb  Sb13  1  0.387793  0.391608  0.249999  1
  Sb  Sb14  1  0.609336  0.607487  0.750036  1
  Sb  Sb15  1  0.004183  0.396923  0.750099  1
