# generated using pymatgen
data_TbYTmGa5
_symmetry_space_group_name_H-M   'P 1'
_cell_length_a   6.09980700
_cell_length_b   9.62132500
_cell_length_c   11.52948800
_cell_angle_alpha   90.00000000
_cell_angle_beta   90.00000000
_cell_angle_gamma   90.00000000
_symmetry_Int_Tables_number   1
_chemical_formula_structural   TbYTmGa5
_chemical_formula_sum   'Tb4 Y4 Tm4 Ga20'
_cell_volume   676.64519262
_cell_formula_units_Z   4
loop_
 _symmetry_equiv_pos_site_id
 _symmetry_equiv_pos_as_xyz
  1  'x, y, z'
loop_
 _atom_site_type_symbol
 _atom_site_label
 _atom_site_symmetry_multiplicity
 _atom_site_fract_x
 _atom_site_fract_y
 _atom_site_fract_z
 _atom_site_occupancy
  Tb  Tb0  1  0.890702  0.509739  0.351335  1
  Tb  Tb1  1  0.609298  0.990261  0.851335  1
  Tb  Tb2  1  0.109298  0.009739  0.648665  1
  Tb  Tb3  1  0.390702  0.490261  0.148665  1
  Y  Y4  1  0.109309  0.490320  0.648840  1
  Y  Y5  1  0.390691  0.009680  0.148840  1
  Y  Y6  1  0.890691  0.990320  0.351160  1
  Y  Y7  1  0.609309  0.509680  0.851160  1
  Tm  Tm8  1  0.848588  0.749911  0.074876  1
  Tm  Tm9  1  0.651412  0.750089  0.574876  1
  Tm  Tm10  1  0.151412  0.249911  0.925124  1
  Tm  Tm11  1  0.348588  0.250089  0.425124  1
  Ga  Ga12  1  0.875811  0.053202  0.089328  1
  Ga  Ga13  1  0.624189  0.446798  0.589328  1
  Ga  Ga14  1  0.124189  0.553202  0.910672  1
  Ga  Ga15  1  0.375811  0.946798  0.410672  1
  Ga  Ga16  1  0.124016  0.946740  0.910663  1
  Ga  Ga17  1  0.375984  0.553260  0.410663  1
  Ga  Ga18  1  0.875984  0.446740  0.089337  1
  Ga  Ga19  1  0.624016  0.053260  0.589337  1
  Ga  Ga20  1  0.171172  0.749976  0.251800  1
  Ga  Ga21  1  0.328828  0.750024  0.751800  1
  Ga  Ga22  1  0.828828  0.249976  0.748200  1
  Ga  Ga23  1  0.671172  0.250024  0.248200  1
  Ga  Ga24  1  0.374154  0.750014  0.003913  1
  Ga  Ga25  1  0.125846  0.749986  0.503913  1
  Ga  Ga26  1  0.625846  0.250014  0.996087  1
  Ga  Ga27  1  0.874154  0.249986  0.496087  1
  Ga  Ga28  1  0.600520  0.749989  0.299121  1
  Ga  Ga29  1  0.899480  0.750011  0.799121  1
  Ga  Ga30  1  0.399480  0.249989  0.700879  1
  Ga  Ga31  1  0.100520  0.250011  0.200879  1
