# generated using pymatgen
data_Pa10SnGe2Sb5
_symmetry_space_group_name_H-M   'P 1'
_cell_length_a   9.18324562
_cell_length_b   9.18324535
_cell_length_c   6.20739200
_cell_angle_alpha   90.00000000
_cell_angle_beta   90.00000000
_cell_angle_gamma   120.04208602
_symmetry_Int_Tables_number   1
_chemical_formula_structural   Pa10SnGe2Sb5
_chemical_formula_sum   'Pa10 Sn1 Ge2 Sb5'
_cell_volume   453.15612785
_cell_formula_units_Z   1
loop_
 _symmetry_equiv_pos_site_id
 _symmetry_equiv_pos_as_xyz
  1  'x, y, z'
loop_
 _atom_site_type_symbol
 _atom_site_label
 _atom_site_symmetry_multiplicity
 _atom_site_fract_x
 _atom_site_fract_y
 _atom_site_fract_z
 _atom_site_occupancy
  Pa  Pa0  1  0.666782  0.333337  0.999826  1
  Pa  Pa1  1  0.333337  0.666782  0.999826  1
  Pa  Pa2  1  0.333337  0.666782  0.500174  1
  Pa  Pa3  1  0.666782  0.333337  0.500174  1
  Pa  Pa4  1  0.730342  0.730342  0.750000  1
  Pa  Pa5  1  0.269846  0.999866  0.750000  1
  Pa  Pa6  1  0.999866  0.269846  0.750000  1
  Pa  Pa7  1  0.269821  0.269821  0.250000  1
  Pa  Pa8  1  0.730132  0.999987  0.250000  1
  Pa  Pa9  1  0.999987  0.730132  0.250000  1
  Sn  Sn10  1  0.383109  0.383109  0.750000  1
  Ge  Ge11  1  0.999978  0.999978  0.999969  1
  Ge  Ge12  1  0.999978  0.999978  0.500031  1
  Sb  Sb13  1  0.616753  0.999960  0.750000  1
  Sb  Sb14  1  0.999960  0.616753  0.750000  1
  Sb  Sb15  1  0.616689  0.616689  0.250000  1
  Sb  Sb16  1  0.383213  0.000087  0.250000  1
  Sb  Sb17  1  0.000087  0.383213  0.250000  1
