# generated using pymatgen
data_TbZn3CuPd
_symmetry_space_group_name_H-M   'P 1'
_cell_length_a   5.12213323
_cell_length_b   5.16741303
_cell_length_c   5.16741300
_cell_angle_alpha   59.99999377
_cell_angle_beta   59.70713458
_cell_angle_gamma   59.70713687
_symmetry_Int_Tables_number   1
_chemical_formula_structural   TbZn3CuPd
_chemical_formula_sum   'Tb1 Zn3 Cu1 Pd1'
_cell_volume   96.28208462
_cell_formula_units_Z   1
loop_
 _symmetry_equiv_pos_site_id
 _symmetry_equiv_pos_as_xyz
  1  'x, y, z'
loop_
 _atom_site_type_symbol
 _atom_site_label
 _atom_site_symmetry_multiplicity
 _atom_site_fract_x
 _atom_site_fract_y
 _atom_site_fract_z
 _atom_site_occupancy
  Tb  Tb0  1  0.248096  0.250635  0.250635  1
  Zn  Zn1  1  0.626340  0.626863  0.626863  1
  Zn  Zn2  1  0.626340  0.626863  0.119936  1
  Zn  Zn3  1  0.626340  0.119936  0.626863  1
  Cu  Cu4  1  0.123850  0.625384  0.625384  1
  Pd  Pd5  1  0.999036  0.000321  0.000321  1
