# generated using pymatgen
data_Dy4B16MoW3
_symmetry_space_group_name_H-M   'P 1'
_cell_length_a   3.62432300
_cell_length_b   6.03395801
_cell_length_c   11.66383402
_cell_angle_alpha   89.99303234
_cell_angle_beta   90.00000000
_cell_angle_gamma   90.00000000
_symmetry_Int_Tables_number   1
_chemical_formula_structural   Dy4B16MoW3
_chemical_formula_sum   'Dy4 B16 Mo1 W3'
_cell_volume   255.07653364
_cell_formula_units_Z   1
loop_
 _symmetry_equiv_pos_site_id
 _symmetry_equiv_pos_as_xyz
  1  'x, y, z'
loop_
 _atom_site_type_symbol
 _atom_site_label
 _atom_site_symmetry_multiplicity
 _atom_site_fract_x
 _atom_site_fract_y
 _atom_site_fract_z
 _atom_site_occupancy
  Dy  Dy0  1  0.000000  0.127182  0.149676  1
  Dy  Dy1  1  0.000000  0.873073  0.850209  1
  Dy  Dy2  1  0.000000  0.626991  0.350245  1
  Dy  Dy3  1  0.000000  0.373015  0.649935  1
  B  B4  1  0.500000  0.476442  0.193442  1
  B  B5  1  0.500000  0.523064  0.806657  1
  B  B6  1  0.500000  0.976656  0.306658  1
  B  B7  1  0.500000  0.023486  0.693410  1
  B  B8  1  0.500000  0.287291  0.313695  1
  B  B9  1  0.500000  0.712653  0.686400  1
  B  B10  1  0.500000  0.787301  0.186373  1
  B  B11  1  0.500000  0.213193  0.813944  1
  B  B12  1  0.500000  0.366496  0.468087  1
  B  B13  1  0.500000  0.633497  0.531927  1
  B  B14  1  0.500000  0.866860  0.031799  1
  B  B15  1  0.500000  0.133635  0.967948  1
  B  B16  1  0.500000  0.385926  0.047311  1
  B  B17  1  0.500000  0.613631  0.952383  1
  B  B18  1  0.500000  0.886191  0.452568  1
  B  B19  1  0.500000  0.113808  0.547451  1
  Mo  Mo20  1  0.000000  0.369419  0.915886  1
  W  W21  1  0.000000  0.130799  0.415490  1
  W  W22  1  0.000000  0.869124  0.584427  1
  W  W23  1  0.000000  0.630266  0.084080  1
