# generated using pymatgen
data_Bi3RuRh3AuO14
_symmetry_space_group_name_H-M   'P 1'
_cell_length_a   7.41102458
_cell_length_b   7.41102415
_cell_length_c   7.21785434
_cell_angle_alpha   58.93118871
_cell_angle_beta   58.93119264
_cell_angle_gamma   59.91749425
_symmetry_Int_Tables_number   1
_chemical_formula_structural   Bi3RuRh3AuO14
_chemical_formula_sum   'Bi3 Ru1 Rh3 Au1 O14'
_cell_volume   275.53634230
_cell_formula_units_Z   1
loop_
 _symmetry_equiv_pos_site_id
 _symmetry_equiv_pos_as_xyz
  1  'x, y, z'
loop_
 _atom_site_type_symbol
 _atom_site_label
 _atom_site_symmetry_multiplicity
 _atom_site_fract_x
 _atom_site_fract_y
 _atom_site_fract_z
 _atom_site_occupancy
  Bi  Bi0  1  0.125000  0.625000  0.125000  1
  Bi  Bi1  1  0.625000  0.125000  0.125000  1
  Bi  Bi2  1  0.125000  0.125000  0.125000  1
  Ru  Ru3  1  0.625000  0.625000  0.625000  1
  Rh  Rh4  1  0.625000  0.625000  0.125000  1
  Rh  Rh5  1  0.625000  0.125000  0.625000  1
  Rh  Rh6  1  0.125000  0.625000  0.625000  1
  Au  Au7  1  0.125000  0.125000  0.625000  1
  O  O8  1  0.241720  0.241720  0.274782  1
  O  O9  1  0.008280  0.008280  0.975218  1
  O  O10  1  0.560626  0.943278  0.545903  1
  O  O11  1  0.291515  0.708660  0.286852  1
  O  O12  1  0.542495  0.542495  0.958293  1
  O  O13  1  0.943278  0.560626  0.545903  1
  O  O14  1  0.541340  0.958485  0.963148  1
  O  O15  1  0.952879  0.952879  0.546007  1
  O  O16  1  0.958485  0.541340  0.963148  1
  O  O17  1  0.708660  0.291515  0.286852  1
  O  O18  1  0.306722  0.689374  0.704097  1
  O  O19  1  0.689374  0.306722  0.704097  1
  O  O20  1  0.297121  0.297121  0.703993  1
  O  O21  1  0.707505  0.707505  0.291707  1
