# generated using pymatgen
data_Tb4SmTh(ZnAu5)2
_symmetry_space_group_name_H-M   'P 1'
_cell_length_a   8.48997226
_cell_length_b   8.48997261
_cell_length_c   13.62411700
_cell_angle_alpha   90.00000000
_cell_angle_beta   90.00000000
_cell_angle_gamma   127.57340712
_symmetry_Int_Tables_number   1
_chemical_formula_structural   Tb4SmTh(ZnAu5)2
_chemical_formula_sum   'Tb8 Sm2 Th2 Zn4 Au20'
_cell_volume   778.32334985
_cell_formula_units_Z   2
loop_
 _symmetry_equiv_pos_site_id
 _symmetry_equiv_pos_as_xyz
  1  'x, y, z'
loop_
 _atom_site_type_symbol
 _atom_site_label
 _atom_site_symmetry_multiplicity
 _atom_site_fract_x
 _atom_site_fract_y
 _atom_site_fract_z
 _atom_site_occupancy
  Tb  Tb0  1  0.630088  0.369912  0.460485  1
  Tb  Tb1  1  0.369912  0.630088  0.539515  1
  Tb  Tb2  1  0.630088  0.369912  0.039515  1
  Tb  Tb3  1  0.369912  0.630088  0.960485  1
  Tb  Tb4  1  0.882642  0.117358  0.951375  1
  Tb  Tb5  1  0.117358  0.882642  0.048625  1
  Tb  Tb6  1  0.882642  0.117358  0.548625  1
  Tb  Tb7  1  0.117358  0.882642  0.451375  1
  Sm  Sm8  1  0.928939  0.071061  0.250000  1
  Sm  Sm9  1  0.071061  0.928939  0.750000  1
  Th  Th10  1  0.320062  0.679938  0.250000  1
  Th  Th11  1  0.679938  0.320062  0.750000  1
  Zn  Zn12  1  0.720091  0.279909  0.250000  1
  Zn  Zn13  1  0.279909  0.720091  0.750000  1
  Zn  Zn14  1  0.533673  0.466327  0.250000  1
  Zn  Zn15  1  0.466327  0.533673  0.750000  1
  Au  Au16  1  0.318846  0.064662  0.250000  1
  Au  Au17  1  0.064662  0.318846  0.750000  1
  Au  Au18  1  0.681154  0.935338  0.750000  1
  Au  Au19  1  0.935338  0.681154  0.250000  1
  Au  Au20  1  0.569854  0.004036  0.398381  1
  Au  Au21  1  0.004036  0.569854  0.601619  1
  Au  Au22  1  0.569854  0.004036  0.101619  1
  Au  Au23  1  0.004036  0.569854  0.898381  1
  Au  Au24  1  0.430146  0.995964  0.601619  1
  Au  Au25  1  0.995964  0.430146  0.398381  1
  Au  Au26  1  0.430146  0.995964  0.898381  1
  Au  Au27  1  0.995964  0.430146  0.101619  1
  Au  Au28  1  0.685114  0.740840  0.396204  1
  Au  Au29  1  0.740840  0.685114  0.603796  1
  Au  Au30  1  0.685114  0.740840  0.103796  1
  Au  Au31  1  0.740840  0.685114  0.896204  1
  Au  Au32  1  0.314886  0.259160  0.603796  1
  Au  Au33  1  0.259160  0.314886  0.396204  1
  Au  Au34  1  0.314886  0.259160  0.896204  1
  Au  Au35  1  0.259160  0.314886  0.103796  1
