# generated using pymatgen
data_YEr3Al4IrPt3
_symmetry_space_group_name_H-M   'P 1'
_cell_length_a   4.41058000
_cell_length_b   6.79415737
_cell_length_c   7.75670690
_cell_angle_alpha   90.19320999
_cell_angle_beta   90.00000000
_cell_angle_gamma   90.00000000
_symmetry_Int_Tables_number   1
_chemical_formula_structural   YEr3Al4IrPt3
_chemical_formula_sum   'Y1 Er3 Al4 Ir1 Pt3'
_cell_volume   232.43751194
_cell_formula_units_Z   1
loop_
 _symmetry_equiv_pos_site_id
 _symmetry_equiv_pos_as_xyz
  1  'x, y, z'
loop_
 _atom_site_type_symbol
 _atom_site_label
 _atom_site_symmetry_multiplicity
 _atom_site_fract_x
 _atom_site_fract_y
 _atom_site_fract_z
 _atom_site_occupancy
  Y  Y0  1  0.250000  0.472029  0.181553  1
  Er  Er1  1  0.750000  0.530349  0.815988  1
  Er  Er2  1  0.750000  0.022965  0.680951  1
  Er  Er3  1  0.250000  0.969122  0.321077  1
  Al  Al4  1  0.250000  0.852531  0.935371  1
  Al  Al5  1  0.750000  0.146440  0.062257  1
  Al  Al6  1  0.750000  0.646602  0.438463  1
  Al  Al7  1  0.250000  0.358776  0.564304  1
  Ir  Ir8  1  0.250000  0.732824  0.616796  1
  Pt  Pt9  1  0.750000  0.268654  0.384327  1
  Pt  Pt10  1  0.750000  0.772780  0.117173  1
  Pt  Pt11  1  0.250000  0.226927  0.881742  1
