# generated using pymatgen
data_Tb11Dy(OsPd)2
_symmetry_space_group_name_H-M   'P 1'
_cell_length_a   6.43873070
_cell_length_b   7.30976853
_cell_length_c   9.32705200
_cell_angle_alpha   89.93438601
_cell_angle_beta   89.95838118
_cell_angle_gamma   90.54991564
_symmetry_Int_Tables_number   1
_chemical_formula_structural   Tb11Dy(OsPd)2
_chemical_formula_sum   'Tb11 Dy1 Os2 Pd2'
_cell_volume   438.96296189
_cell_formula_units_Z   1
loop_
 _symmetry_equiv_pos_site_id
 _symmetry_equiv_pos_as_xyz
  1  'x, y, z'
loop_
 _atom_site_type_symbol
 _atom_site_label
 _atom_site_symmetry_multiplicity
 _atom_site_fract_x
 _atom_site_fract_y
 _atom_site_fract_z
 _atom_site_occupancy
  Tb  Tb0  1  0.624520  0.043579  0.250014  1
  Tb  Tb1  1  0.376080  0.956781  0.749811  1
  Tb  Tb2  1  0.126208  0.476281  0.749747  1
  Tb  Tb3  1  0.873571  0.523224  0.250054  1
  Tb  Tb4  1  0.177389  0.184224  0.062055  1
  Tb  Tb5  1  0.822778  0.815887  0.937890  1
  Tb  Tb6  1  0.663480  0.325358  0.940543  1
  Tb  Tb7  1  0.822631  0.815620  0.561739  1
  Tb  Tb8  1  0.336687  0.674811  0.059204  1
  Tb  Tb9  1  0.177447  0.184139  0.438388  1
  Tb  Tb10  1  0.336722  0.674706  0.441263  1
  Dy  Dy11  1  0.662814  0.325284  0.559124  1
  Os  Os12  1  0.454246  0.385517  0.250438  1
  Os  Os13  1  0.545781  0.614462  0.749873  1
  Pd  Pd14  1  0.950052  0.114309  0.749736  1
  Pd  Pd15  1  0.049595  0.885822  0.250120  1
