# generated using pymatgen
data_Cs2Hf3ZrBr18
_symmetry_space_group_name_H-M   'P 1'
_cell_length_a   7.21339239
_cell_length_b   10.51991794
_cell_length_c   13.70197922
_cell_angle_alpha   65.67427072
_cell_angle_beta   90.03132678
_cell_angle_gamma   90.03218387
_symmetry_Int_Tables_number   1
_chemical_formula_structural   Cs2Hf3ZrBr18
_chemical_formula_sum   'Cs2 Hf3 Zr1 Br18'
_cell_volume   947.45282566
_cell_formula_units_Z   1
loop_
 _symmetry_equiv_pos_site_id
 _symmetry_equiv_pos_as_xyz
  1  'x, y, z'
loop_
 _atom_site_type_symbol
 _atom_site_label
 _atom_site_symmetry_multiplicity
 _atom_site_fract_x
 _atom_site_fract_y
 _atom_site_fract_z
 _atom_site_occupancy
  Cs  Cs0  1  0.591701  0.499453  0.749527  1
  Cs  Cs1  1  0.408729  0.499238  0.250903  1
  Hf  Hf2  1  0.744886  0.172839  0.134726  1
  Hf  Hf3  1  0.255360  0.173265  0.634398  1
  Hf  Hf4  1  0.744855  0.827094  0.365351  1
  Zr  Zr5  1  0.254337  0.825131  0.866841  1
  Br  Br6  1  0.103346  0.794492  0.041974  1
  Br  Br7  1  0.894702  0.205168  0.960830  1
  Br  Br8  1  0.105395  0.206044  0.460163  1
  Br  Br9  1  0.894810  0.794747  0.539269  1
  Br  Br10  1  0.109765  0.617318  0.844112  1
  Br  Br11  1  0.888574  0.379787  0.155576  1
  Br  Br12  1  0.111632  0.380337  0.655190  1
  Br  Br13  1  0.888296  0.620321  0.344442  1
  Br  Br14  1  0.974035  0.001826  0.748919  1
  Br  Br15  1  0.025062  0.000084  0.249973  1
  Br  Br16  1  0.399903  0.083283  0.839000  1
  Br  Br17  1  0.600675  0.918651  0.160049  1
  Br  Br18  1  0.399305  0.919875  0.658999  1
  Br  Br19  1  0.600883  0.081334  0.339708  1
  Br  Br20  1  0.565516  0.708767  0.942121  1
  Br  Br21  1  0.438139  0.290030  0.058645  1
  Br  Br22  1  0.562049  0.290775  0.558044  1
  Br  Br23  1  0.438043  0.710142  0.441240  1
