# generated using pymatgen
data_Ho4Lu4ReB24Ru2W
_symmetry_space_group_name_H-M   'P 1'
_cell_length_a   3.62482900
_cell_length_b   9.06648423
_cell_length_c   11.45386100
_cell_angle_alpha   90.10841134
_cell_angle_beta   90.00000000
_cell_angle_gamma   90.00000000
_symmetry_Int_Tables_number   1
_chemical_formula_structural   Ho4Lu4ReB24Ru2W
_chemical_formula_sum   'Ho4 Lu4 Re1 B24 Ru2 W1'
_cell_volume   376.42422517
_cell_formula_units_Z   1
loop_
 _symmetry_equiv_pos_site_id
 _symmetry_equiv_pos_as_xyz
  1  'x, y, z'
loop_
 _atom_site_type_symbol
 _atom_site_label
 _atom_site_symmetry_multiplicity
 _atom_site_fract_x
 _atom_site_fract_y
 _atom_site_fract_z
 _atom_site_occupancy
  Ho  Ho0  1  0.000000  0.321495  0.414399  1
  Ho  Ho1  1  0.000000  0.679604  0.587869  1
  Ho  Ho2  1  0.000000  0.821645  0.085132  1
  Ho  Ho3  1  0.000000  0.176616  0.914129  1
  Lu  Lu4  1  0.000000  0.946788  0.371531  1
  Lu  Lu5  1  0.000000  0.057427  0.628938  1
  Lu  Lu6  1  0.000000  0.441385  0.126973  1
  Lu  Lu7  1  0.000000  0.555754  0.870904  1
  Re  Re8  1  0.000000  0.861253  0.819856  1
  B  B9  1  0.500000  0.551134  0.435892  1
  B  B10  1  0.500000  0.445657  0.568121  1
  B  B11  1  0.500000  0.054139  0.067565  1
  B  B12  1  0.500000  0.946964  0.933055  1
  B  B13  1  0.500000  0.753531  0.421831  1
  B  B14  1  0.500000  0.250707  0.580709  1
  B  B15  1  0.500000  0.249427  0.081226  1
  B  B16  1  0.500000  0.749682  0.919069  1
  B  B17  1  0.500000  0.796234  0.263863  1
  B  B18  1  0.500000  0.208029  0.733913  1
  B  B19  1  0.500000  0.291312  0.234091  1
  B  B20  1  0.500000  0.707004  0.765339  1
  B  B21  1  0.500000  0.630248  0.182207  1
  B  B22  1  0.500000  0.368841  0.815053  1
  B  B23  1  0.500000  0.131099  0.314834  1
  B  B24  1  0.500000  0.869712  0.684747  1
  B  B25  1  0.500000  0.983376  0.212882  1
  B  B26  1  0.500000  0.018812  0.786939  1
  B  B27  1  0.500000  0.476907  0.286559  1
  B  B28  1  0.500000  0.517149  0.713232  1
  B  B29  1  0.500000  0.600484  0.027045  1
  B  B30  1  0.500000  0.397027  0.971504  1
  B  B31  1  0.500000  0.102840  0.471683  1
  B  B32  1  0.500000  0.899878  0.528369  1
  Ru  Ru33  1  0.000000  0.360718  0.680388  1
  Ru  Ru34  1  0.000000  0.138756  0.179757  1
  W  W35  1  0.000000  0.638365  0.320398  1
