# generated using pymatgen
data_CsSOF3
_symmetry_space_group_name_H-M   'P 1'
_cell_length_a   7.71884799
_cell_length_b   7.71884820
_cell_length_c   4.91186021
_cell_angle_alpha   103.03394593
_cell_angle_beta   103.03393923
_cell_angle_gamma   98.68525682
_symmetry_Int_Tables_number   1
_chemical_formula_structural   CsSOF3
_chemical_formula_sum   'Cs2 S2 O2 F6'
_cell_volume   271.41130475
_cell_formula_units_Z   2
loop_
 _symmetry_equiv_pos_site_id
 _symmetry_equiv_pos_as_xyz
  1  'x, y, z'
loop_
 _atom_site_type_symbol
 _atom_site_label
 _atom_site_symmetry_multiplicity
 _atom_site_fract_x
 _atom_site_fract_y
 _atom_site_fract_z
 _atom_site_occupancy
  Cs  Cs0  1  0.747208  0.252792  0.000000  1
  Cs  Cs1  1  0.252792  0.747208  0.000000  1
  S  S2  1  0.314964  0.314964  0.382422  1
  S  S3  1  0.685037  0.685037  0.617578  1
  O  O4  1  0.634566  0.634566  0.303472  1
  O  O5  1  0.365434  0.365434  0.696530  1
  F  F6  1  0.463937  0.145374  0.337416  1
  F  F7  1  0.145374  0.463937  0.337416  1
  F  F8  1  0.137808  0.137808  0.282602  1
  F  F9  1  0.862191  0.862191  0.717398  1
  F  F10  1  0.854627  0.536063  0.662584  1
  F  F11  1  0.536063  0.854627  0.662584  1
