# generated using pymatgen
data_Ti12Al5Si3(IrN)4
_symmetry_space_group_name_H-M   'P 1'
_cell_length_a   8.09872425
_cell_length_b   8.08981315
_cell_length_c   8.09872446
_cell_angle_alpha   59.94286774
_cell_angle_beta   59.96240443
_cell_angle_gamma   59.94286163
_symmetry_Int_Tables_number   1
_chemical_formula_structural   Ti12Al5Si3(IrN)4
_chemical_formula_sum   'Ti12 Al5 Si3 Ir4 N4'
_cell_volume   374.76394124
_cell_formula_units_Z   1
loop_
 _symmetry_equiv_pos_site_id
 _symmetry_equiv_pos_as_xyz
  1  'x, y, z'
loop_
 _atom_site_type_symbol
 _atom_site_label
 _atom_site_symmetry_multiplicity
 _atom_site_fract_x
 _atom_site_fract_y
 _atom_site_fract_z
 _atom_site_occupancy
  Ti  Ti0  1  0.814947  0.814090  0.189140  1
  Ti  Ti1  1  0.063621  0.436200  0.435750  1
  Ti  Ti2  1  0.437177  0.060367  0.066555  1
  Ti  Ti3  1  0.066555  0.060367  0.437177  1
  Ti  Ti4  1  0.063183  0.437397  0.063183  1
  Ti  Ti5  1  0.435839  0.060386  0.435839  1
  Ti  Ti6  1  0.185762  0.813527  0.185762  1
  Ti  Ti7  1  0.189140  0.814090  0.814947  1
  Ti  Ti8  1  0.813065  0.183496  0.189200  1
  Ti  Ti9  1  0.813938  0.186689  0.813938  1
  Ti  Ti10  1  0.435750  0.436200  0.063621  1
  Ti  Ti11  1  0.189200  0.183496  0.813065  1
  Al  Al12  1  0.836897  0.833029  0.836897  1
  Al  Al13  1  0.753054  0.414014  0.416802  1
  Al  Al14  1  0.416029  0.412329  0.416029  1
  Al  Al15  1  0.416802  0.414014  0.753054  1
  Al  Al16  1  0.835360  0.496364  0.835360  1
  Si  Si17  1  0.414614  0.757125  0.414614  1
  Si  Si18  1  0.839647  0.834611  0.490055  1
  Si  Si19  1  0.490055  0.834611  0.839647  1
  Ir  Ir20  1  0.625595  0.114946  0.625595  1
  Ir  Ir21  1  0.617063  0.632385  0.125769  1
  Ir  Ir22  1  0.125769  0.632385  0.617063  1
  Ir  Ir23  1  0.621691  0.636505  0.621691  1
  N  N24  1  0.124830  0.625233  0.124830  1
  N  N25  1  0.125138  0.125316  0.624419  1
  N  N26  1  0.624419  0.125316  0.125138  1
  N  N27  1  0.124860  0.125514  0.124860  1
