# generated using pymatgen
data_PrNd3(CBr)2
_symmetry_space_group_name_H-M   'P 1'
_cell_length_a   3.82569000
_cell_length_b   3.82568937
_cell_length_c   14.97925400
_cell_angle_alpha   90.00000000
_cell_angle_beta   90.00000000
_cell_angle_gamma   120.00000544
_symmetry_Int_Tables_number   1
_chemical_formula_structural   PrNd3(CBr)2
_chemical_formula_sum   'Pr1 Nd3 C2 Br2'
_cell_volume   189.86297121
_cell_formula_units_Z   1
loop_
 _symmetry_equiv_pos_site_id
 _symmetry_equiv_pos_as_xyz
  1  'x, y, z'
loop_
 _atom_site_type_symbol
 _atom_site_label
 _atom_site_symmetry_multiplicity
 _atom_site_fract_x
 _atom_site_fract_y
 _atom_site_fract_z
 _atom_site_occupancy
  Pr  Pr0  1  0.333333  0.666667  0.408384  1
  Nd  Nd1  1  0.333333  0.666667  0.090922  1
  Nd  Nd2  1  0.666667  0.333333  0.592169  1
  Nd  Nd3  1  0.666667  0.333333  0.908511  1
  C  C4  1  0.000000  0.000000  0.999463  1
  C  C5  1  0.000000  0.000000  0.502267  1
  Br  Br6  1  0.666667  0.333333  0.247892  1
  Br  Br7  1  0.333333  0.666667  0.750392  1
