# generated using pymatgen
data_PrNd2(CuSn)4
_symmetry_space_group_name_H-M   'P 1'
_cell_length_a   8.63311064
_cell_length_b   8.63310891
_cell_length_c   8.63310934
_cell_angle_alpha   149.01211403
_cell_angle_beta   131.84040325
_cell_angle_gamma   58.37656828
_symmetry_Int_Tables_number   1
_chemical_formula_structural   PrNd2(CuSn)4
_chemical_formula_sum   'Pr1 Nd2 Cu4 Sn4'
_cell_volume   244.90034378
_cell_formula_units_Z   1
loop_
 _symmetry_equiv_pos_site_id
 _symmetry_equiv_pos_as_xyz
  1  'x, y, z'
loop_
 _atom_site_type_symbol
 _atom_site_label
 _atom_site_symmetry_multiplicity
 _atom_site_fract_x
 _atom_site_fract_y
 _atom_site_fract_z
 _atom_site_occupancy
  Pr  Pr0  1  0.132910  0.132910  0.000000  1
  Nd  Nd1  1  0.499906  0.999906  0.500000  1
  Nd  Nd2  1  0.866927  0.866927  0.000000  1
  Cu  Cu3  1  0.851418  0.668040  0.183378  1
  Cu  Cu4  1  0.484663  0.668040  0.816622  1
  Cu  Cu5  1  0.515959  0.332129  0.183830  1
  Cu  Cu6  1  0.148298  0.332129  0.816170  1
  Sn  Sn7  1  0.798914  0.499744  0.299170  1
  Sn  Sn8  1  0.200574  0.499744  0.700830  1
  Sn  Sn9  1  0.716295  0.216295  0.500000  1
  Sn  Sn10  1  0.284138  0.784138  0.500000  1
