# generated using pymatgen
data_Y2ErZr(Al3Rh)6
_symmetry_space_group_name_H-M   'P 1'
_cell_length_a   7.53282804
_cell_length_b   7.52060310
_cell_length_c   9.40355600
_cell_angle_alpha   90.00000000
_cell_angle_beta   90.00000000
_cell_angle_gamma   119.46088543
_symmetry_Int_Tables_number   1
_chemical_formula_structural   Y2ErZr(Al3Rh)6
_chemical_formula_sum   'Y2 Er1 Zr1 Al18 Rh6'
_cell_volume   463.83895779
_cell_formula_units_Z   1
loop_
 _symmetry_equiv_pos_site_id
 _symmetry_equiv_pos_as_xyz
  1  'x, y, z'
loop_
 _atom_site_type_symbol
 _atom_site_label
 _atom_site_symmetry_multiplicity
 _atom_site_fract_x
 _atom_site_fract_y
 _atom_site_fract_z
 _atom_site_occupancy
  Y  Y0  1  0.006395  0.326511  0.250000  1
  Y  Y1  1  0.327730  0.006831  0.250000  1
  Er  Er2  1  0.672472  0.995825  0.750000  1
  Zr  Zr3  1  0.996374  0.672340  0.750000  1
  Al  Al4  1  0.124338  0.122073  0.750000  1
  Al  Al5  1  0.870395  0.869161  0.250000  1
  Al  Al6  1  0.999803  0.338515  0.580010  1
  Al  Al7  1  0.999603  0.664447  0.427760  1
  Al  Al8  1  0.999603  0.664447  0.072240  1
  Al  Al9  1  0.332746  0.997597  0.919931  1
  Al  Al10  1  0.999803  0.338515  0.919990  1
  Al  Al11  1  0.663902  0.998421  0.075596  1
  Al  Al12  1  0.663902  0.998421  0.424404  1
  Al  Al13  1  0.332746  0.997597  0.580069  1
  Al  Al14  1  0.333824  0.333886  0.047463  1
  Al  Al15  1  0.670022  0.668004  0.944130  1
  Al  Al16  1  0.670022  0.668004  0.555870  1
  Al  Al17  1  0.333824  0.333886  0.452537  1
  Al  Al18  1  0.336687  0.552280  0.750000  1
  Al  Al19  1  0.660213  0.450055  0.250000  1
  Al  Al20  1  0.557252  0.344438  0.750000  1
  Al  Al21  1  0.448574  0.658421  0.250000  1
  Rh  Rh22  1  0.672831  0.328100  0.501257  1
  Rh  Rh23  1  0.327909  0.672832  0.501905  1
  Rh  Rh24  1  0.327909  0.672832  0.998095  1
  Rh  Rh25  1  0.672831  0.328100  0.998743  1
  Rh  Rh26  1  0.999145  0.999231  0.501219  1
  Rh  Rh27  1  0.999145  0.999231  0.998781  1
