# generated using pymatgen
data_Zr20Zn3Bi5Sb4
_symmetry_space_group_name_H-M   'P 1'
_cell_length_a   5.59104864
_cell_length_b   8.47874531
_cell_length_c   15.96705858
_cell_angle_alpha   90.02066632
_cell_angle_beta   89.97140808
_cell_angle_gamma   109.33406708
_symmetry_Int_Tables_number   1
_chemical_formula_structural   Zr20Zn3Bi5Sb4
_chemical_formula_sum   'Zr20 Zn3 Bi5 Sb4'
_cell_volume   714.23250598
_cell_formula_units_Z   1
loop_
 _symmetry_equiv_pos_site_id
 _symmetry_equiv_pos_as_xyz
  1  'x, y, z'
loop_
 _atom_site_type_symbol
 _atom_site_label
 _atom_site_symmetry_multiplicity
 _atom_site_fract_x
 _atom_site_fract_y
 _atom_site_fract_z
 _atom_site_occupancy
  Zr  Zr0  1  0.430983  0.860054  0.357110  1
  Zr  Zr1  1  0.926396  0.865547  0.852767  1
  Zr  Zr2  1  0.063313  0.139444  0.147388  1
  Zr  Zr3  1  0.570339  0.140210  0.643665  1
  Zr  Zr4  1  0.650557  0.289528  0.072955  1
  Zr  Zr5  1  0.144705  0.287279  0.567735  1
  Zr  Zr6  1  0.855790  0.711847  0.431946  1
  Zr  Zr7  1  0.359222  0.708999  0.929360  1
  Zr  Zr8  1  0.848653  0.709339  0.070789  1
  Zr  Zr9  1  0.354851  0.712084  0.565638  1
  Zr  Zr10  1  0.643728  0.287419  0.429915  1
  Zr  Zr11  1  0.140292  0.289798  0.927164  1
  Zr  Zr12  1  0.071511  0.144470  0.356801  1
  Zr  Zr13  1  0.576805  0.139460  0.852518  1
  Zr  Zr14  1  0.438771  0.865590  0.147117  1
  Zr  Zr15  1  0.931826  0.864450  0.643277  1
  Zr  Zr16  1  0.498497  0.495664  0.252594  1
  Zr  Zr17  1  0.999104  0.494967  0.749655  1
  Zr  Zr18  1  0.996944  0.495369  0.252648  1
  Zr  Zr19  1  0.496413  0.495786  0.749664  1
  Zn  Zn20  1  0.750036  0.000106  0.499899  1
  Zn  Zn21  1  0.750055  0.000121  0.999992  1
  Zn  Zn22  1  0.250033  0.000078  0.499906  1
  Bi  Bi23  1  0.916726  0.828447  0.252286  1
  Bi  Bi24  1  0.411600  0.827284  0.747346  1
  Bi  Bi25  1  0.250300  0.500614  0.085812  1
  Bi  Bi26  1  0.750414  0.500645  0.585030  1
  Bi  Bi27  1  0.750376  0.500654  0.915048  1
  Sb  Sb28  1  0.583849  0.171411  0.252422  1
  Sb  Sb29  1  0.087427  0.172365  0.747194  1
  Sb  Sb30  1  0.250329  0.500610  0.414369  1
  Sb  Sb31  1  0.250151  0.000363  0.999988  1
