# generated using pymatgen
data_Tm5V3(Co4P3)4
_symmetry_space_group_name_H-M   'P 1'
_cell_length_a   12.01046400
_cell_length_b   12.01046356
_cell_length_c   3.65173000
_cell_angle_alpha   90.00000000
_cell_angle_beta   90.00000000
_cell_angle_gamma   119.99999571
_symmetry_Int_Tables_number   1
_chemical_formula_structural   Tm5V3(Co4P3)4
_chemical_formula_sum   'Tm5 V3 Co16 P12'
_cell_volume   456.19326092
_cell_formula_units_Z   1
loop_
 _symmetry_equiv_pos_site_id
 _symmetry_equiv_pos_as_xyz
  1  'x, y, z'
loop_
 _atom_site_type_symbol
 _atom_site_label
 _atom_site_symmetry_multiplicity
 _atom_site_fract_x
 _atom_site_fract_y
 _atom_site_fract_z
 _atom_site_occupancy
  Tm  Tm0  1  0.666667  0.333333  0.000000  1
  Tm  Tm1  1  0.333333  0.666667  0.000000  1
  Tm  Tm2  1  0.186369  0.186369  0.500000  1
  Tm  Tm3  1  0.813631  0.000000  0.500000  1
  Tm  Tm4  1  0.000000  0.813631  0.500000  1
  V  V5  1  0.556684  0.556684  0.000000  1
  V  V6  1  0.443316  0.000000  0.000000  1
  V  V7  1  0.000000  0.443316  0.000000  1
  Co  Co8  1  0.822841  0.199371  0.000000  1
  Co  Co9  1  0.800629  0.623470  0.000000  1
  Co  Co10  1  0.376530  0.177159  0.000000  1
  Co  Co11  1  0.199371  0.822841  0.000000  1
  Co  Co12  1  0.623470  0.800629  0.000000  1
  Co  Co13  1  0.177159  0.376530  0.000000  1
  Co  Co14  1  0.644695  0.126396  0.500000  1
  Co  Co15  1  0.873604  0.518299  0.500000  1
  Co  Co16  1  0.481701  0.355305  0.500000  1
  Co  Co17  1  0.126396  0.644695  0.500000  1
  Co  Co18  1  0.518299  0.873604  0.500000  1
  Co  Co19  1  0.355305  0.481701  0.500000  1
  Co  Co20  1  0.718530  0.718530  0.500000  1
  Co  Co21  1  0.281470  0.000000  0.500000  1
  Co  Co22  1  0.000000  0.281470  0.500000  1
  Co  Co23  1  0.000000  0.000000  0.000000  1
  P  P24  1  0.362587  0.362587  0.000000  1
  P  P25  1  0.637413  0.000000  0.000000  1
  P  P26  1  0.000000  0.637413  0.000000  1
  P  P27  1  0.835068  0.316209  0.500000  1
  P  P28  1  0.683791  0.518858  0.500000  1
  P  P29  1  0.481142  0.164932  0.500000  1
  P  P30  1  0.316209  0.835068  0.500000  1
  P  P31  1  0.518858  0.683791  0.500000  1
  P  P32  1  0.164932  0.481142  0.500000  1
  P  P33  1  0.821237  0.821237  0.000000  1
  P  P34  1  0.178763  0.000000  0.000000  1
  P  P35  1  0.000000  0.178763  0.000000  1
