# generated using pymatgen
data_YEr2Ga7Cu4
_symmetry_space_group_name_H-M   'P 1'
_cell_length_a   7.99540021
_cell_length_b   7.99539963
_cell_length_c   9.38631601
_cell_angle_alpha   54.29394542
_cell_angle_beta   54.29394991
_cell_angle_gamma   30.43398688
_symmetry_Int_Tables_number   1
_chemical_formula_structural   YEr2Ga7Cu4
_chemical_formula_sum   'Y1 Er2 Ga7 Cu4'
_cell_volume   242.04661167
_cell_formula_units_Z   1
loop_
 _symmetry_equiv_pos_site_id
 _symmetry_equiv_pos_as_xyz
  1  'x, y, z'
loop_
 _atom_site_type_symbol
 _atom_site_label
 _atom_site_symmetry_multiplicity
 _atom_site_fract_x
 _atom_site_fract_y
 _atom_site_fract_z
 _atom_site_occupancy
  Y  Y0  1  0.000000  0.000000  0.000000  1
  Er  Er1  1  0.303877  0.303877  0.702456  1
  Er  Er2  1  0.696123  0.696123  0.297544  1
  Ga  Ga3  1  0.860675  0.860675  0.419508  1
  Ga  Ga4  1  0.139325  0.139325  0.580492  1
  Ga  Ga5  1  0.140653  0.140653  0.131389  1
  Ga  Ga6  1  0.859347  0.859347  0.868611  1
  Ga  Ga7  1  0.000000  0.000000  0.500000  1
  Ga  Ga8  1  0.344437  0.344437  0.277337  1
  Ga  Ga9  1  0.655563  0.655563  0.722663  1
  Cu  Cu10  1  0.498214  0.498214  0.306952  1
  Cu  Cu11  1  0.501786  0.501786  0.693048  1
  Cu  Cu12  1  0.657793  0.657793  0.981139  1
  Cu  Cu13  1  0.342207  0.342207  0.018861  1
