# generated using pymatgen
data_Ce3Ga3CuIrPd
_symmetry_space_group_name_H-M   'P 1'
_cell_length_a   7.23043600
_cell_length_b   7.23043628
_cell_length_c   3.99243200
_cell_angle_alpha   90.00000000
_cell_angle_beta   90.00000000
_cell_angle_gamma   120.00000788
_symmetry_Int_Tables_number   1
_chemical_formula_structural   Ce3Ga3CuIrPd
_chemical_formula_sum   'Ce3 Ga3 Cu1 Ir1 Pd1'
_cell_volume   180.75782811
_cell_formula_units_Z   1
loop_
 _symmetry_equiv_pos_site_id
 _symmetry_equiv_pos_as_xyz
  1  'x, y, z'
loop_
 _atom_site_type_symbol
 _atom_site_label
 _atom_site_symmetry_multiplicity
 _atom_site_fract_x
 _atom_site_fract_y
 _atom_site_fract_z
 _atom_site_occupancy
  Ce  Ce0  1  0.413184  0.420312  0.500000  1
  Ce  Ce1  1  0.579688  0.992872  0.500000  1
  Ce  Ce2  1  0.007128  0.586816  0.500000  1
  Ga  Ga3  1  0.761819  0.762302  0.000000  1
  Ga  Ga4  1  0.237698  0.999516  0.000000  1
  Ga  Ga5  1  0.000484  0.238181  0.000000  1
  Cu  Cu6  1  0.000000  0.000000  0.500000  1
  Ir  Ir7  1  0.333333  0.666667  0.000000  1
  Pd  Pd8  1  0.666667  0.333333  0.000000  1
