# generated using pymatgen
data_Hf3TiAl3MoN
_symmetry_space_group_name_H-M   'P 1'
_cell_length_a   7.97083200
_cell_length_b   7.97083250
_cell_length_c   5.32451400
_cell_angle_alpha   90.00000000
_cell_angle_beta   90.00000000
_cell_angle_gamma   120.00000623
_symmetry_Int_Tables_number   1
_chemical_formula_structural   Hf3TiAl3MoN
_chemical_formula_sum   'Hf6 Ti2 Al6 Mo2 N2'
_cell_volume   292.96646867
_cell_formula_units_Z   2
loop_
 _symmetry_equiv_pos_site_id
 _symmetry_equiv_pos_as_xyz
  1  'x, y, z'
loop_
 _atom_site_type_symbol
 _atom_site_label
 _atom_site_symmetry_multiplicity
 _atom_site_fract_x
 _atom_site_fract_y
 _atom_site_fract_z
 _atom_site_occupancy
  Hf  Hf0  1  0.228709  0.000000  0.249500  1
  Hf  Hf1  1  0.000000  0.228709  0.249500  1
  Hf  Hf2  1  0.771291  0.771291  0.249500  1
  Hf  Hf3  1  0.771291  0.000000  0.750500  1
  Hf  Hf4  1  0.000000  0.771291  0.750500  1
  Hf  Hf5  1  0.228709  0.228709  0.750500  1
  Ti  Ti6  1  0.666667  0.333333  0.000000  1
  Ti  Ti7  1  0.333333  0.666667  0.000000  1
  Al  Al8  1  0.586037  0.000000  0.258926  1
  Al  Al9  1  0.000000  0.586037  0.258926  1
  Al  Al10  1  0.413963  0.413963  0.258926  1
  Al  Al11  1  0.413963  0.000000  0.741074  1
  Al  Al12  1  0.000000  0.413963  0.741074  1
  Al  Al13  1  0.586037  0.586037  0.741074  1
  Mo  Mo14  1  0.666667  0.333333  0.500000  1
  Mo  Mo15  1  0.333333  0.666667  0.500000  1
  N  N16  1  0.000000  0.000000  0.000000  1
  N  N17  1  0.000000  0.000000  0.500000  1
