# generated using pymatgen
data_Pr8Gd12Si15Ru
_symmetry_space_group_name_H-M   'P 1'
_cell_length_a   7.51311000
_cell_length_b   7.83311550
_cell_length_c   14.93753600
_cell_angle_alpha   90.00000000
_cell_angle_beta   90.00000000
_cell_angle_gamma   90.46817351
_symmetry_Int_Tables_number   1
_chemical_formula_structural   Pr8Gd12Si15Ru
_chemical_formula_sum   'Pr8 Gd12 Si15 Ru1'
_cell_volume   879.06045595
_cell_formula_units_Z   1
loop_
 _symmetry_equiv_pos_site_id
 _symmetry_equiv_pos_as_xyz
  1  'x, y, z'
loop_
 _atom_site_type_symbol
 _atom_site_label
 _atom_site_symmetry_multiplicity
 _atom_site_fract_x
 _atom_site_fract_y
 _atom_site_fract_z
 _atom_site_occupancy
  Pr  Pr0  1  0.023307  0.179273  0.401804  1
  Pr  Pr1  1  0.520950  0.322475  0.402259  1
  Pr  Pr2  1  0.476525  0.681369  0.904698  1
  Pr  Pr3  1  0.476525  0.681369  0.595302  1
  Pr  Pr4  1  0.978133  0.820177  0.598233  1
  Pr  Pr5  1  0.978133  0.820177  0.901767  1
  Pr  Pr6  1  0.520950  0.322475  0.097741  1
  Pr  Pr7  1  0.023307  0.179273  0.098196  1
  Gd  Gd8  1  0.316231  0.173236  0.624682  1
  Gd  Gd9  1  0.679251  0.818609  0.377887  1
  Gd  Gd10  1  0.638381  0.981238  0.750000  1
  Gd  Gd11  1  0.178225  0.682218  0.377223  1
  Gd  Gd12  1  0.823249  0.320288  0.876514  1
  Gd  Gd13  1  0.823249  0.320288  0.623486  1
  Gd  Gd14  1  0.846385  0.488346  0.250000  1
  Gd  Gd15  1  0.348616  0.014584  0.250000  1
  Gd  Gd16  1  0.316231  0.173236  0.875318  1
  Gd  Gd17  1  0.178225  0.682218  0.122777  1
  Gd  Gd18  1  0.679251  0.818609  0.122113  1
  Gd  Gd19  1  0.161430  0.527639  0.750000  1
  Si  Si20  1  0.469973  0.610954  0.250000  1
  Si  Si21  1  0.023386  0.100298  0.750000  1
  Si  Si22  1  0.531167  0.390371  0.750000  1
  Si  Si23  1  0.146778  0.467432  0.537552  1
  Si  Si24  1  0.969325  0.891824  0.250000  1
  Si  Si25  1  0.733619  0.118461  0.250000  1
  Si  Si26  1  0.856919  0.527040  0.039692  1
  Si  Si27  1  0.357725  0.972392  0.040391  1
  Si  Si28  1  0.146778  0.467432  0.962448  1
  Si  Si29  1  0.646773  0.034994  0.537209  1
  Si  Si30  1  0.357725  0.972392  0.459609  1
  Si  Si31  1  0.856919  0.527040  0.460308  1
  Si  Si32  1  0.765725  0.615152  0.750000  1
  Si  Si33  1  0.232221  0.384500  0.250000  1
  Si  Si34  1  0.646773  0.034994  0.962791  1
  Ru  Ru35  1  0.271632  0.877630  0.750000  1
