# generated using pymatgen
data_Tm5Cd13
_symmetry_space_group_name_H-M   'P 1'
_cell_length_a   16.92867540
_cell_length_b   16.92867615
_cell_length_c   6.76218000
_cell_angle_alpha   96.23094698
_cell_angle_beta   96.23094726
_cell_angle_gamma   12.94572251
_symmetry_Int_Tables_number   1
_chemical_formula_structural   Tm5Cd13
_chemical_formula_sum   'Tm5 Cd13'
_cell_volume   431.54719874
_cell_formula_units_Z   1
loop_
 _symmetry_equiv_pos_site_id
 _symmetry_equiv_pos_as_xyz
  1  'x, y, z'
loop_
 _atom_site_type_symbol
 _atom_site_label
 _atom_site_symmetry_multiplicity
 _atom_site_fract_x
 _atom_site_fract_y
 _atom_site_fract_z
 _atom_site_occupancy
  Tm  Tm0  1  0.000000  0.000000  0.000000  1
  Tm  Tm1  1  0.667019  0.667019  0.305998  1
  Tm  Tm2  1  0.888725  0.888725  0.419262  1
  Tm  Tm3  1  0.111275  0.111275  0.580739  1
  Tm  Tm4  1  0.332981  0.332981  0.694002  1
  Cd  Cd5  1  0.103803  0.103803  0.065430  1
  Cd  Cd6  1  0.226333  0.226333  0.108452  1
  Cd  Cd7  1  0.327437  0.327437  0.171360  1
  Cd  Cd8  1  0.446423  0.446423  0.216024  1
  Cd  Cd9  1  0.554196  0.554196  0.300550  1
  Cd  Cd10  1  0.777428  0.777428  0.404098  1
  Cd  Cd11  1  0.000000  0.000000  0.500000  1
  Cd  Cd12  1  0.222572  0.222572  0.595903  1
  Cd  Cd13  1  0.445804  0.445804  0.699450  1
  Cd  Cd14  1  0.553577  0.553577  0.783975  1
  Cd  Cd15  1  0.672562  0.672562  0.828640  1
  Cd  Cd16  1  0.773666  0.773666  0.891547  1
  Cd  Cd17  1  0.896198  0.896198  0.934571  1
