# generated using pymatgen
data_La3MgZn2Ir2Pd
_symmetry_space_group_name_H-M   'P 1'
_cell_length_a   7.49870303
_cell_length_b   7.48913511
_cell_length_c   4.08946000
_cell_angle_alpha   90.00000000
_cell_angle_beta   90.00000000
_cell_angle_gamma   119.95780402
_symmetry_Int_Tables_number   1
_chemical_formula_structural   La3MgZn2Ir2Pd
_chemical_formula_sum   'La3 Mg1 Zn2 Ir2 Pd1'
_cell_volume   198.97518608
_cell_formula_units_Z   1
loop_
 _symmetry_equiv_pos_site_id
 _symmetry_equiv_pos_as_xyz
  1  'x, y, z'
loop_
 _atom_site_type_symbol
 _atom_site_label
 _atom_site_symmetry_multiplicity
 _atom_site_fract_x
 _atom_site_fract_y
 _atom_site_fract_z
 _atom_site_occupancy
  La  La0  1  0.428577  0.423674  0.500000  1
  La  La1  1  0.571423  0.995097  0.500000  1
  La  La2  1  0.000000  0.590287  0.500000  1
  Mg  Mg3  1  0.000000  0.236461  0.000000  1
  Zn  Zn4  1  0.758559  0.759844  0.000000  1
  Zn  Zn5  1  0.241441  0.001285  0.000000  1
  Ir  Ir6  1  0.667713  0.333573  0.000000  1
  Ir  Ir7  1  0.332287  0.665861  0.000000  1
  Pd  Pd8  1  0.000000  0.993917  0.500000  1
