# generated using pymatgen
data_NbTl2F7
_symmetry_space_group_name_H-M   'P 1'
_cell_length_a   5.87280600
_cell_length_b   9.91288800
_cell_length_c   11.88896100
_cell_angle_alpha   90.00000000
_cell_angle_beta   90.00000000
_cell_angle_gamma   90.00000000
_symmetry_Int_Tables_number   1
_chemical_formula_structural   NbTl2F7
_chemical_formula_sum   'Nb4 Tl8 F28'
_cell_volume   692.13331908
_cell_formula_units_Z   4
loop_
 _symmetry_equiv_pos_site_id
 _symmetry_equiv_pos_as_xyz
  1  'x, y, z'
loop_
 _atom_site_type_symbol
 _atom_site_label
 _atom_site_symmetry_multiplicity
 _atom_site_fract_x
 _atom_site_fract_y
 _atom_site_fract_z
 _atom_site_occupancy
  Nb  Nb0  1  0.250000  0.243992  0.868569  1
  Nb  Nb1  1  0.250000  0.743992  0.631431  1
  Nb  Nb2  1  0.750000  0.756008  0.131431  1
  Nb  Nb3  1  0.750000  0.256008  0.368569  1
  Tl  Tl4  1  0.750000  0.134583  0.046565  1
  Tl  Tl5  1  0.750000  0.634583  0.453435  1
  Tl  Tl6  1  0.250000  0.865417  0.953435  1
  Tl  Tl7  1  0.250000  0.365417  0.546565  1
  Tl  Tl8  1  0.250000  0.455307  0.166078  1
  Tl  Tl9  1  0.250000  0.955307  0.333922  1
  Tl  Tl10  1  0.750000  0.544693  0.833922  1
  Tl  Tl11  1  0.750000  0.044693  0.666078  1
  F  F12  1  0.031868  0.362652  0.949864  1
  F  F13  1  0.468132  0.862652  0.550136  1
  F  F14  1  0.531868  0.637348  0.050136  1
  F  F15  1  0.968132  0.137348  0.449864  1
  F  F16  1  0.968132  0.637348  0.050136  1
  F  F17  1  0.531868  0.137348  0.449864  1
  F  F18  1  0.468132  0.362652  0.949864  1
  F  F19  1  0.031868  0.862652  0.550136  1
  F  F20  1  0.033909  0.089245  0.850811  1
  F  F21  1  0.466091  0.589245  0.649189  1
  F  F22  1  0.533909  0.910755  0.149189  1
  F  F23  1  0.966091  0.410755  0.350811  1
  F  F24  1  0.966091  0.910755  0.149189  1
  F  F25  1  0.533909  0.410755  0.350811  1
  F  F26  1  0.466091  0.089245  0.850811  1
  F  F27  1  0.033909  0.589245  0.649189  1
  F  F28  1  0.040905  0.303756  0.747948  1
  F  F29  1  0.459095  0.803756  0.752052  1
  F  F30  1  0.540905  0.696244  0.252052  1
  F  F31  1  0.959095  0.196244  0.247948  1
  F  F32  1  0.959095  0.696244  0.252052  1
  F  F33  1  0.540905  0.196244  0.247948  1
  F  F34  1  0.459095  0.303756  0.747948  1
  F  F35  1  0.040905  0.803756  0.752052  1
  F  F36  1  0.250000  0.161751  0.023482  1
  F  F37  1  0.250000  0.661751  0.476518  1
  F  F38  1  0.750000  0.838249  0.976518  1
  F  F39  1  0.750000  0.338249  0.523482  1
