# generated using pymatgen
data_La5Nb3(Co4P3)4
_symmetry_space_group_name_H-M   'P 1'
_cell_length_a   12.41460900
_cell_length_b   12.41460895
_cell_length_c   3.78823300
_cell_angle_alpha   90.00000000
_cell_angle_beta   90.00000000
_cell_angle_gamma   119.99999748
_symmetry_Int_Tables_number   1
_chemical_formula_structural   La5Nb3(Co4P3)4
_chemical_formula_sum   'La5 Nb3 Co16 P12'
_cell_volume   505.63067781
_cell_formula_units_Z   1
loop_
 _symmetry_equiv_pos_site_id
 _symmetry_equiv_pos_as_xyz
  1  'x, y, z'
loop_
 _atom_site_type_symbol
 _atom_site_label
 _atom_site_symmetry_multiplicity
 _atom_site_fract_x
 _atom_site_fract_y
 _atom_site_fract_z
 _atom_site_occupancy
  La  La0  1  0.816251  0.000000  0.500000  1
  La  La1  1  0.000000  0.816251  0.500000  1
  La  La2  1  0.183749  0.183749  0.500000  1
  La  La3  1  0.333333  0.666667  0.000000  1
  La  La4  1  0.666667  0.333333  0.000000  1
  Nb  Nb5  1  0.441408  0.000000  0.000000  1
  Nb  Nb6  1  0.000000  0.441408  0.000000  1
  Nb  Nb7  1  0.558592  0.558592  0.000000  1
  Co  Co8  1  0.281414  0.000000  0.500000  1
  Co  Co9  1  0.000000  0.281414  0.500000  1
  Co  Co10  1  0.718586  0.718586  0.500000  1
  Co  Co11  1  0.624686  0.801351  0.000000  1
  Co  Co12  1  0.198649  0.823335  0.000000  1
  Co  Co13  1  0.176665  0.375314  0.000000  1
  Co  Co14  1  0.375314  0.176665  0.000000  1
  Co  Co15  1  0.801351  0.624686  0.000000  1
  Co  Co16  1  0.823335  0.198649  0.000000  1
  Co  Co17  1  0.520389  0.875298  0.500000  1
  Co  Co18  1  0.124702  0.645090  0.500000  1
  Co  Co19  1  0.354910  0.479611  0.500000  1
  Co  Co20  1  0.479611  0.354910  0.500000  1
  Co  Co21  1  0.875298  0.520389  0.500000  1
  Co  Co22  1  0.645090  0.124702  0.500000  1
  Co  Co23  1  0.000000  0.000000  0.000000  1
  P  P24  1  0.184140  0.000000  0.000000  1
  P  P25  1  0.000000  0.184140  0.000000  1
  P  P26  1  0.815860  0.815860  0.000000  1
  P  P27  1  0.525357  0.690291  0.500000  1
  P  P28  1  0.309709  0.835066  0.500000  1
  P  P29  1  0.164934  0.474643  0.500000  1
  P  P30  1  0.474643  0.164934  0.500000  1
  P  P31  1  0.690291  0.525357  0.500000  1
  P  P32  1  0.835066  0.309709  0.500000  1
  P  P33  1  0.637656  0.000000  0.000000  1
  P  P34  1  0.000000  0.637656  0.000000  1
  P  P35  1  0.362344  0.362344  0.000000  1
