# generated using pymatgen
data_Lu8B24RhW3
_symmetry_space_group_name_H-M   'P 1'
_cell_length_a   3.55356600
_cell_length_b   9.17112420
_cell_length_c   11.55374072
_cell_angle_alpha   90.17050402
_cell_angle_beta   90.00000000
_cell_angle_gamma   90.00000000
_symmetry_Int_Tables_number   1
_chemical_formula_structural   Lu8B24RhW3
_chemical_formula_sum   'Lu8 B24 Rh1 W3'
_cell_volume   376.53699770
_cell_formula_units_Z   1
loop_
 _symmetry_equiv_pos_site_id
 _symmetry_equiv_pos_as_xyz
  1  'x, y, z'
loop_
 _atom_site_type_symbol
 _atom_site_label
 _atom_site_symmetry_multiplicity
 _atom_site_fract_x
 _atom_site_fract_y
 _atom_site_fract_z
 _atom_site_occupancy
  Lu  Lu0  1  0.500000  0.317583  0.414452  1
  Lu  Lu1  1  0.500000  0.679968  0.588854  1
  Lu  Lu2  1  0.500000  0.179058  0.912442  1
  Lu  Lu3  1  0.500000  0.823967  0.082926  1
  Lu  Lu4  1  0.500000  0.444960  0.128943  1
  Lu  Lu5  1  0.500000  0.555801  0.873364  1
  Lu  Lu6  1  0.500000  0.053914  0.626449  1
  Lu  Lu7  1  0.500000  0.942041  0.371609  1
  B  B8  1  0.000000  0.099760  0.471229  1
  B  B9  1  0.000000  0.894204  0.526862  1
  B  B10  1  0.000000  0.398868  0.972814  1
  B  B11  1  0.000000  0.603484  0.030428  1
  B  B12  1  0.000000  0.131016  0.319109  1
  B  B13  1  0.000000  0.867553  0.681853  1
  B  B14  1  0.000000  0.369208  0.817356  1
  B  B15  1  0.000000  0.632605  0.183638  1
  B  B16  1  0.000000  0.051482  0.064878  1
  B  B17  1  0.000000  0.949204  0.935495  1
  B  B18  1  0.000000  0.449651  0.562462  1
  B  B19  1  0.000000  0.555078  0.433443  1
  B  B20  1  0.000000  0.483413  0.288446  1
  B  B21  1  0.000000  0.522697  0.712714  1
  B  B22  1  0.000000  0.022036  0.786060  1
  B  B23  1  0.000000  0.976535  0.212807  1
  B  B24  1  0.000000  0.253207  0.078246  1
  B  B25  1  0.000000  0.748263  0.923261  1
  B  B26  1  0.000000  0.246434  0.576332  1
  B  B27  1  0.000000  0.749263  0.420830  1
  B  B28  1  0.000000  0.297841  0.238588  1
  B  B29  1  0.000000  0.703768  0.764211  1
  B  B30  1  0.000000  0.204231  0.735812  1
  B  B31  1  0.000000  0.791501  0.264218  1
  Rh  Rh32  1  0.500000  0.639427  0.320529  1
  W  W33  1  0.500000  0.139986  0.181035  1
  W  W34  1  0.500000  0.860813  0.820476  1
  W  W35  1  0.500000  0.361177  0.677830  1
