# generated using pymatgen
data_Eu(AsO2)2
_symmetry_space_group_name_H-M   'P 1'
_cell_length_a   6.58285272
_cell_length_b   4.63741302
_cell_length_c   18.79471900
_cell_angle_alpha   90.00468259
_cell_angle_beta   106.48485746
_cell_angle_gamma   89.99784195
_symmetry_Int_Tables_number   1
_chemical_formula_structural   Eu(AsO2)2
_chemical_formula_sum   'Eu4 As8 O16'
_cell_volume   550.16973687
_cell_formula_units_Z   4
loop_
 _symmetry_equiv_pos_site_id
 _symmetry_equiv_pos_as_xyz
  1  'x, y, z'
loop_
 _atom_site_type_symbol
 _atom_site_label
 _atom_site_symmetry_multiplicity
 _atom_site_fract_x
 _atom_site_fract_y
 _atom_site_fract_z
 _atom_site_occupancy
  Eu  Eu0  1  0.252834  0.260490  0.008299  1
  Eu  Eu1  1  0.747591  0.739325  0.991451  1
  Eu  Eu2  1  0.752480  0.239298  0.508585  1
  Eu  Eu3  1  0.247111  0.760840  0.491673  1
  As  As4  1  0.820501  0.218018  0.151028  1
  As  As5  1  0.164526  0.716261  0.147822  1
  As  As6  1  0.335357  0.216421  0.352255  1
  As  As7  1  0.679421  0.718141  0.348986  1
  As  As8  1  0.320110  0.281978  0.651274  1
  As  As9  1  0.664184  0.783734  0.647953  1
  As  As10  1  0.835942  0.283604  0.851956  1
  As  As11  1  0.179936  0.781790  0.848722  1
  O  O12  1  0.635897  0.265212  0.064006  1
  O  O13  1  0.165887  0.767393  0.055082  1
  O  O14  1  0.077704  0.332987  0.131575  1
  O  O15  1  0.882418  0.831823  0.135798  1
  O  O16  1  0.617525  0.331990  0.364278  1
  O  O17  1  0.422393  0.833199  0.368559  1
  O  O18  1  0.333805  0.267783  0.444969  1
  O  O19  1  0.864362  0.765761  0.435936  1
  O  O20  1  0.135203  0.234451  0.564325  1
  O  O21  1  0.665744  0.732356  0.555269  1
  O  O22  1  0.577151  0.166981  0.631680  1
  O  O23  1  0.382037  0.668196  0.635998  1
  O  O24  1  0.117991  0.168012  0.863941  1
  O  O25  1  0.922795  0.666873  0.868185  1
  O  O26  1  0.834588  0.232432  0.944667  1
  O  O27  1  0.364513  0.734644  0.935721  1
