# generated using pymatgen
data_Li2Cr3Co4Ni5As7
_symmetry_space_group_name_H-M   'P 1'
_cell_length_a   9.44364739
_cell_length_b   9.43407560
_cell_length_c   3.64265400
_cell_angle_alpha   90.00000000
_cell_angle_beta   90.00000000
_cell_angle_gamma   120.00065158
_symmetry_Int_Tables_number   1
_chemical_formula_structural   Li2Cr3Co4Ni5As7
_chemical_formula_sum   'Li2 Cr3 Co4 Ni5 As7'
_cell_volume   281.05079411
_cell_formula_units_Z   1
loop_
 _symmetry_equiv_pos_site_id
 _symmetry_equiv_pos_as_xyz
  1  'x, y, z'
loop_
 _atom_site_type_symbol
 _atom_site_label
 _atom_site_symmetry_multiplicity
 _atom_site_fract_x
 _atom_site_fract_y
 _atom_site_fract_z
 _atom_site_occupancy
  Li  Li0  1  0.332840  0.665550  0.000000  1
  Li  Li1  1  0.000161  0.001411  0.500000  1
  Cr  Cr2  1  0.765572  0.559603  0.500000  1
  Cr  Cr3  1  0.442662  0.209312  0.500000  1
  Cr  Cr4  1  0.795516  0.233995  0.500000  1
  Co  Co5  1  0.277210  0.379349  0.500000  1
  Co  Co6  1  0.505200  0.449100  0.000000  1
  Co  Co7  1  0.549271  0.053548  0.000000  1
  Co  Co8  1  0.948136  0.497507  0.000000  1
  Ni  Ni9  1  0.616758  0.893605  0.500000  1
  Ni  Ni10  1  0.104988  0.722200  0.500000  1
  Ni  Ni11  1  0.720393  0.761671  0.000000  1
  Ni  Ni12  1  0.237127  0.961785  0.000000  1
  Ni  Ni13  1  0.038388  0.277626  0.000000  1
  As  As14  1  0.961837  0.754490  0.000000  1
  As  As15  1  0.245450  0.211437  0.000000  1
  As  As16  1  0.790717  0.037062  0.000000  1
  As  As17  1  0.668716  0.333371  0.000000  1
  As  As18  1  0.529081  0.616121  0.500000  1
  As  As19  1  0.380141  0.914480  0.500000  1
  As  As20  1  0.089839  0.466777  0.500000  1
