# generated using pymatgen
data_La5Nd5IrRu3
_symmetry_space_group_name_H-M   'P 1'
_cell_length_a   9.07539812
_cell_length_b   9.11129288
_cell_length_c   7.35969619
_cell_angle_alpha   84.51604562
_cell_angle_beta   84.63488344
_cell_angle_gamma   42.97732129
_symmetry_Int_Tables_number   1
_chemical_formula_structural   La5Nd5IrRu3
_chemical_formula_sum   'La5 Nd5 Ir1 Ru3'
_cell_volume   412.71451390
_cell_formula_units_Z   1
loop_
 _symmetry_equiv_pos_site_id
 _symmetry_equiv_pos_as_xyz
  1  'x, y, z'
loop_
 _atom_site_type_symbol
 _atom_site_label
 _atom_site_symmetry_multiplicity
 _atom_site_fract_x
 _atom_site_fract_y
 _atom_site_fract_z
 _atom_site_occupancy
  La  La0  1  0.011400  0.803816  0.914383  1
  La  La1  1  0.204187  0.984479  0.595353  1
  La  La2  1  0.983238  0.205281  0.094923  1
  La  La3  1  0.797258  0.016690  0.405709  1
  La  La4  1  0.362431  0.210423  0.819854  1
  Nd  Nd5  1  0.789353  0.639268  0.682137  1
  Nd  Nd6  1  0.639920  0.788871  0.184096  1
  Nd  Nd7  1  0.207568  0.360038  0.317553  1
  Nd  Nd8  1  0.572651  0.429240  0.748876  1
  Nd  Nd9  1  0.427036  0.573379  0.249018  1
  Ir  Ir10  1  0.174629  0.599807  0.580486  1
  Ru  Ru11  1  0.388731  0.832996  0.913227  1
  Ru  Ru12  1  0.834545  0.387895  0.414751  1
  Ru  Ru13  1  0.607055  0.167818  0.079637  1
