# generated using pymatgen
data_HoTm(SiRh2)4
_symmetry_space_group_name_H-M   'P 1'
_cell_length_a   4.11624600
_cell_length_b   9.07494100
_cell_length_c   11.27452000
_cell_angle_alpha   90.00000000
_cell_angle_beta   90.00000000
_cell_angle_gamma   90.00000000
_symmetry_Int_Tables_number   1
_chemical_formula_structural   HoTm(SiRh2)4
_chemical_formula_sum   'Ho2 Tm2 Si8 Rh16'
_cell_volume   421.15619489
_cell_formula_units_Z   2
loop_
 _symmetry_equiv_pos_site_id
 _symmetry_equiv_pos_as_xyz
  1  'x, y, z'
loop_
 _atom_site_type_symbol
 _atom_site_label
 _atom_site_symmetry_multiplicity
 _atom_site_fract_x
 _atom_site_fract_y
 _atom_site_fract_z
 _atom_site_occupancy
  Ho  Ho0  1  0.250000  0.147279  0.825089  1
  Ho  Ho1  1  0.250000  0.352721  0.325089  1
  Tm  Tm2  1  0.750000  0.852647  0.175045  1
  Tm  Tm3  1  0.750000  0.647353  0.675045  1
  Si  Si4  1  0.250000  0.412203  0.637131  1
  Si  Si5  1  0.250000  0.087797  0.137131  1
  Si  Si6  1  0.750000  0.588624  0.362757  1
  Si  Si7  1  0.750000  0.911376  0.862757  1
  Si  Si8  1  0.250000  0.616795  0.058574  1
  Si  Si9  1  0.250000  0.883205  0.558574  1
  Si  Si10  1  0.750000  0.383412  0.941630  1
  Si  Si11  1  0.750000  0.116588  0.441630  1
  Rh  Rh12  1  0.250000  0.615968  0.501408  1
  Rh  Rh13  1  0.250000  0.884032  0.001408  1
  Rh  Rh14  1  0.750000  0.385392  0.499571  1
  Rh  Rh15  1  0.750000  0.114608  0.999571  1
  Rh  Rh16  1  0.250000  0.686213  0.268426  1
  Rh  Rh17  1  0.250000  0.813787  0.768426  1
  Rh  Rh18  1  0.750000  0.315657  0.731172  1
  Rh  Rh19  1  0.750000  0.184343  0.231172  1
  Rh  Rh20  1  0.250000  0.172933  0.559019  1
  Rh  Rh21  1  0.250000  0.327067  0.059019  1
  Rh  Rh22  1  0.750000  0.827276  0.440632  1
  Rh  Rh23  1  0.750000  0.672724  0.940632  1
  Rh  Rh24  1  0.250000  0.006918  0.343872  1
  Rh  Rh25  1  0.250000  0.493082  0.843872  1
  Rh  Rh26  1  0.750000  0.992099  0.655675  1
  Rh  Rh27  1  0.750000  0.507901  0.155675  1
