# generated using pymatgen
data_Pr3Nd5Re2(TcC4)2
_symmetry_space_group_name_H-M   'P 1'
_cell_length_a   5.37167600
_cell_length_b   6.74505409
_cell_length_c   10.24488066
_cell_angle_alpha   89.93484390
_cell_angle_beta   90.00000000
_cell_angle_gamma   90.00000000
_symmetry_Int_Tables_number   1
_chemical_formula_structural   Pr3Nd5Re2(TcC4)2
_chemical_formula_sum   'Pr3 Nd5 Re2 Tc2 C8'
_cell_volume   371.19478771
_cell_formula_units_Z   1
loop_
 _symmetry_equiv_pos_site_id
 _symmetry_equiv_pos_as_xyz
  1  'x, y, z'
loop_
 _atom_site_type_symbol
 _atom_site_label
 _atom_site_symmetry_multiplicity
 _atom_site_fract_x
 _atom_site_fract_y
 _atom_site_fract_z
 _atom_site_occupancy
  Pr  Pr0  1  0.250000  0.472998  0.786269  1
  Pr  Pr1  1  0.750000  0.027095  0.286212  1
  Pr  Pr2  1  0.250000  0.974224  0.712101  1
  Nd  Nd3  1  0.750000  0.526565  0.212626  1
  Nd  Nd4  1  0.250000  0.814736  0.051464  1
  Nd  Nd5  1  0.750000  0.684937  0.551216  1
  Nd  Nd6  1  0.250000  0.313548  0.447091  1
  Nd  Nd7  1  0.750000  0.186474  0.947468  1
  Re  Re8  1  0.250000  0.770736  0.357119  1
  Re  Re9  1  0.750000  0.728929  0.857544  1
  Tc  Tc10  1  0.250000  0.270624  0.142716  1
  Tc  Tc11  1  0.750000  0.229946  0.642569  1
  C  C12  1  0.250000  0.686416  0.536194  1
  C  C13  1  0.750000  0.812200  0.036859  1
  C  C14  1  0.250000  0.186222  0.965132  1
  C  C15  1  0.750000  0.314125  0.464633  1
  C  C16  1  0.250000  0.033798  0.258524  1
  C  C17  1  0.750000  0.466415  0.758577  1
  C  C18  1  0.250000  0.536347  0.242641  1
  C  C19  1  0.750000  0.963665  0.743043  1
