# generated using pymatgen
data_Zr2Ir4Ru2C
_symmetry_space_group_name_H-M   'P 1'
_cell_length_a   5.72547476
_cell_length_b   5.71573241
_cell_length_c   5.71573070
_cell_angle_alpha   60.24772333
_cell_angle_beta   59.94359573
_cell_angle_gamma   59.94358243
_symmetry_Int_Tables_number   1
_chemical_formula_structural   Zr2Ir4Ru2C
_chemical_formula_sum   'Zr2 Ir4 Ru2 C1'
_cell_volume   132.39586139
_cell_formula_units_Z   1
loop_
 _symmetry_equiv_pos_site_id
 _symmetry_equiv_pos_as_xyz
  1  'x, y, z'
loop_
 _atom_site_type_symbol
 _atom_site_label
 _atom_site_symmetry_multiplicity
 _atom_site_fract_x
 _atom_site_fract_y
 _atom_site_fract_z
 _atom_site_occupancy
  Zr  Zr0  1  0.750037  0.750094  0.749832  1
  Zr  Zr1  1  0.249963  0.250168  0.249906  1
  Ir  Ir2  1  0.743117  0.257418  0.256348  1
  Ir  Ir3  1  0.255879  0.256633  0.743367  1
  Ir  Ir4  1  0.744121  0.256633  0.743367  1
  Ir  Ir5  1  0.256883  0.743652  0.742582  1
  Ru  Ru6  1  0.745100  0.745946  0.254054  1
  Ru  Ru7  1  0.254900  0.745946  0.254054  1
  C  C8  1  0.000000  0.993508  0.006492  1
