# generated using pymatgen
data_Li2Nd6Cd21As
_symmetry_space_group_name_H-M   'P 1'
_cell_length_a   10.00746354
_cell_length_b   10.00746229
_cell_length_c   10.04735700
_cell_angle_alpha   59.86803661
_cell_angle_beta   59.86804075
_cell_angle_gamma   59.99540439
_symmetry_Int_Tables_number   1
_chemical_formula_structural   Li2Nd6Cd21As
_chemical_formula_sum   'Li2 Nd6 Cd21 As1'
_cell_volume   710.06917866
_cell_formula_units_Z   1
loop_
 _symmetry_equiv_pos_site_id
 _symmetry_equiv_pos_as_xyz
  1  'x, y, z'
loop_
 _atom_site_type_symbol
 _atom_site_label
 _atom_site_symmetry_multiplicity
 _atom_site_fract_x
 _atom_site_fract_y
 _atom_site_fract_z
 _atom_site_occupancy
  Li  Li0  1  0.000000  0.000000  0.500000  1
  Li  Li1  1  0.500000  0.500000  0.500000  1
  Nd  Nd2  1  0.792191  0.792191  0.207809  1
  Nd  Nd3  1  0.209419  0.790581  0.205513  1
  Nd  Nd4  1  0.790581  0.209419  0.205513  1
  Nd  Nd5  1  0.207809  0.207809  0.792191  1
  Nd  Nd6  1  0.790581  0.209419  0.794487  1
  Nd  Nd7  1  0.209419  0.790581  0.794487  1
  Cd  Cd8  1  0.838057  0.838057  0.502699  1
  Cd  Cd9  1  0.832338  0.506284  0.830689  1
  Cd  Cd10  1  0.506284  0.832338  0.830689  1
  Cd  Cd11  1  0.838057  0.838057  0.821189  1
  Cd  Cd12  1  0.161943  0.161943  0.497301  1
  Cd  Cd13  1  0.167662  0.493716  0.169311  1
  Cd  Cd14  1  0.493716  0.167662  0.169311  1
  Cd  Cd15  1  0.161943  0.161943  0.178811  1
  Cd  Cd16  1  0.618954  0.618954  0.148180  1
  Cd  Cd17  1  0.629311  0.144776  0.612957  1
  Cd  Cd18  1  0.144776  0.629311  0.612957  1
  Cd  Cd19  1  0.618954  0.618954  0.613911  1
  Cd  Cd20  1  0.381046  0.381046  0.851820  1
  Cd  Cd21  1  0.370689  0.855224  0.387043  1
  Cd  Cd22  1  0.855224  0.370689  0.387043  1
  Cd  Cd23  1  0.381046  0.381046  0.386089  1
  Cd  Cd24  1  0.500000  0.000000  0.500000  1
  Cd  Cd25  1  0.000000  0.500000  0.500000  1
  Cd  Cd26  1  0.500000  0.500000  0.000000  1
  Cd  Cd27  1  0.000000  0.500000  0.000000  1
  Cd  Cd28  1  0.500000  0.000000  0.000000  1
  As  As29  1  0.000000  0.000000  0.000000  1
