# generated using pymatgen
data_Tb3Dy3(Ho2Sn3)2
_symmetry_space_group_name_H-M   'P 1'
_cell_length_a   8.98028003
_cell_length_b   8.97506167
_cell_length_c   6.54199200
_cell_angle_alpha   90.00000000
_cell_angle_beta   90.00000000
_cell_angle_gamma   120.01023151
_symmetry_Int_Tables_number   1
_chemical_formula_structural   Tb3Dy3(Ho2Sn3)2
_chemical_formula_sum   'Tb3 Dy3 Ho4 Sn6'
_cell_volume   456.58661547
_cell_formula_units_Z   1
loop_
 _symmetry_equiv_pos_site_id
 _symmetry_equiv_pos_as_xyz
  1  'x, y, z'
loop_
 _atom_site_type_symbol
 _atom_site_label
 _atom_site_symmetry_multiplicity
 _atom_site_fract_x
 _atom_site_fract_y
 _atom_site_fract_z
 _atom_site_occupancy
  Tb  Tb0  1  0.000058  0.761478  0.750000  1
  Tb  Tb1  1  0.000035  0.238567  0.250000  1
  Tb  Tb2  1  0.761298  0.761336  0.250000  1
  Dy  Dy3  1  0.761265  0.000027  0.750000  1
  Dy  Dy4  1  0.238647  0.238615  0.750000  1
  Dy  Dy5  1  0.238791  0.000074  0.250000  1
  Ho  Ho6  1  0.333379  0.666698  0.499909  1
  Ho  Ho7  1  0.666570  0.333249  0.000093  1
  Ho  Ho8  1  0.666570  0.333249  0.499907  1
  Ho  Ho9  1  0.333379  0.666698  0.000091  1
  Sn  Sn10  1  0.395772  0.000156  0.750000  1
  Sn  Sn11  1  0.395656  0.395535  0.250000  1
  Sn  Sn12  1  0.000152  0.604519  0.250000  1
  Sn  Sn13  1  0.000032  0.395379  0.750000  1
  Sn  Sn14  1  0.604258  0.604385  0.750000  1
  Sn  Sn15  1  0.604139  0.000035  0.250000  1
