# generated using pymatgen
data_GeTe19
_symmetry_space_group_name_H-M   'P 1'
_cell_length_a   7.96740280
_cell_length_b   8.94102754
_cell_length_c   10.12016500
_cell_angle_alpha   103.09486428
_cell_angle_beta   96.93454965
_cell_angle_gamma   107.31739481
_symmetry_Int_Tables_number   1
_chemical_formula_structural   GeTe19
_chemical_formula_sum   'Ge1 Te19'
_cell_volume   656.48094483
_cell_formula_units_Z   1
loop_
 _symmetry_equiv_pos_site_id
 _symmetry_equiv_pos_as_xyz
  1  'x, y, z'
loop_
 _atom_site_type_symbol
 _atom_site_label
 _atom_site_symmetry_multiplicity
 _atom_site_fract_x
 _atom_site_fract_y
 _atom_site_fract_z
 _atom_site_occupancy
  Ge  Ge0  1  0.000000  0.500000  0.000000  1
  Te  Te1  1  0.795431  0.583518  0.613727  1
  Te  Te2  1  0.629235  0.205366  0.201467  1
  Te  Te3  1  0.370765  0.794634  0.798533  1
  Te  Te4  1  0.598950  0.689366  0.194708  1
  Te  Te5  1  0.204569  0.416482  0.386273  1
  Te  Te6  1  0.401050  0.310634  0.805292  1
  Te  Te7  1  0.000000  0.000000  0.000000  1
  Te  Te8  1  0.193322  0.908360  0.393366  1
  Te  Te9  1  0.806678  0.091640  0.606634  1
  Te  Te10  1  0.705913  0.632979  0.909114  1
  Te  Te11  1  0.512853  0.256343  0.498475  1
  Te  Te12  1  0.720183  0.156286  0.911024  1
  Te  Te13  1  0.279817  0.843714  0.088976  1
  Te  Te14  1  0.487147  0.743657  0.501525  1
  Te  Te15  1  0.094556  0.461216  0.713264  1
  Te  Te16  1  0.294087  0.367021  0.090886  1
  Te  Te17  1  0.912129  0.042415  0.299981  1
  Te  Te18  1  0.087871  0.957585  0.700019  1
  Te  Te19  1  0.905444  0.538784  0.286736  1
