# generated using pymatgen
data_Sm6DyCoI12
_symmetry_space_group_name_H-M   'P 1'
_cell_length_a   9.86782436
_cell_length_b   9.86782481
_cell_length_c   9.86782500
_cell_angle_alpha   106.85990607
_cell_angle_beta   106.85990923
_cell_angle_gamma   106.85990787
_symmetry_Int_Tables_number   1
_chemical_formula_structural   Sm6DyCoI12
_chemical_formula_sum   'Sm6 Dy1 Co1 I12'
_cell_volume   803.25955249
_cell_formula_units_Z   1
loop_
 _symmetry_equiv_pos_site_id
 _symmetry_equiv_pos_as_xyz
  1  'x, y, z'
loop_
 _atom_site_type_symbol
 _atom_site_label
 _atom_site_symmetry_multiplicity
 _atom_site_fract_x
 _atom_site_fract_y
 _atom_site_fract_z
 _atom_site_occupancy
  Sm  Sm0  1  0.022369  0.094106  0.292895  1
  Sm  Sm1  1  0.094106  0.292895  0.022369  1
  Sm  Sm2  1  0.292895  0.022369  0.094106  1
  Sm  Sm3  1  0.977631  0.905894  0.707105  1
  Sm  Sm4  1  0.905894  0.707105  0.977631  1
  Sm  Sm5  1  0.707105  0.977631  0.905894  1
  Dy  Dy6  1  0.500000  0.500000  0.500000  1
  Co  Co7  1  0.000000  0.000000  0.000000  1
  I  I8  1  0.165437  0.465161  0.388502  1
  I  I9  1  0.465161  0.388502  0.165437  1
  I  I10  1  0.388502  0.165437  0.465161  1
  I  I11  1  0.834563  0.534839  0.611498  1
  I  I12  1  0.534839  0.611498  0.834563  1
  I  I13  1  0.611498  0.834563  0.534839  1
  I  I14  1  0.677969  0.071928  0.225769  1
  I  I15  1  0.071928  0.225769  0.677969  1
  I  I16  1  0.225769  0.677969  0.071928  1
  I  I17  1  0.322031  0.928072  0.774231  1
  I  I18  1  0.928072  0.774231  0.322031  1
  I  I19  1  0.774231  0.322031  0.928072  1
