# generated using pymatgen
data_Ta6V4Zn2Ga
_symmetry_space_group_name_H-M   'P 1'
_cell_length_a   9.67950752
_cell_length_b   9.66838136
_cell_length_c   9.67950814
_cell_angle_alpha   30.49226258
_cell_angle_beta   30.40608387
_cell_angle_gamma   30.49226434
_symmetry_Int_Tables_number   1
_chemical_formula_structural   Ta6V4Zn2Ga
_chemical_formula_sum   'Ta6 V4 Zn2 Ga1'
_cell_volume   206.38779925
_cell_formula_units_Z   1
loop_
 _symmetry_equiv_pos_site_id
 _symmetry_equiv_pos_as_xyz
  1  'x, y, z'
loop_
 _atom_site_type_symbol
 _atom_site_label
 _atom_site_symmetry_multiplicity
 _atom_site_fract_x
 _atom_site_fract_y
 _atom_site_fract_z
 _atom_site_occupancy
  Ta  Ta0  1  0.829987  0.832874  0.829987  1
  Ta  Ta1  1  0.164849  0.165392  0.164849  1
  Ta  Ta2  1  0.652185  0.651298  0.652185  1
  Ta  Ta3  1  0.353520  0.352273  0.353520  1
  Ta  Ta4  1  0.549455  0.548339  0.549455  1
  Ta  Ta5  1  0.456329  0.456889  0.456329  1
  V  V6  1  0.000571  0.002082  0.000571  1
  V  V7  1  0.906347  0.409652  0.906347  1
  V  V8  1  0.906284  0.906029  0.410021  1
  V  V9  1  0.410021  0.906029  0.906284  1
  Zn  Zn10  1  0.091862  0.092017  0.586421  1
  Zn  Zn11  1  0.586421  0.092017  0.091862  1
  Ga  Ga12  1  0.092169  0.585111  0.092169  1
