# generated using pymatgen
data_YHo15Cd4TcPd3
_symmetry_space_group_name_H-M   'P 1'
_cell_length_a   9.69115107
_cell_length_b   9.69115150
_cell_length_c   9.69104924
_cell_angle_alpha   59.37390950
_cell_angle_beta   59.37390729
_cell_angle_gamma   59.36010328
_symmetry_Int_Tables_number   1
_chemical_formula_structural   YHo15Cd4TcPd3
_chemical_formula_sum   'Y1 Ho15 Cd4 Tc1 Pd3'
_cell_volume   634.34725398
_cell_formula_units_Z   1
loop_
 _symmetry_equiv_pos_site_id
 _symmetry_equiv_pos_as_xyz
  1  'x, y, z'
loop_
 _atom_site_type_symbol
 _atom_site_label
 _atom_site_symmetry_multiplicity
 _atom_site_fract_x
 _atom_site_fract_y
 _atom_site_fract_z
 _atom_site_occupancy
  Y  Y0  1  0.937242  0.937242  0.557255  1
  Ho  Ho1  1  0.353134  0.353134  0.353142  1
  Ho  Ho2  1  0.351672  0.351672  0.943962  1
  Ho  Ho3  1  0.351707  0.943960  0.351522  1
  Ho  Ho4  1  0.943960  0.351707  0.351522  1
  Ho  Ho5  1  0.817095  0.187754  0.187393  1
  Ho  Ho6  1  0.188913  0.810312  0.810454  1
  Ho  Ho7  1  0.187754  0.817095  0.187393  1
  Ho  Ho8  1  0.810312  0.188913  0.810454  1
  Ho  Ho9  1  0.187654  0.187654  0.817077  1
  Ho  Ho10  1  0.810365  0.810365  0.188728  1
  Ho  Ho11  1  0.934805  0.565531  0.565771  1
  Ho  Ho12  1  0.556679  0.937445  0.937550  1
  Ho  Ho13  1  0.565531  0.934805  0.565771  1
  Ho  Ho14  1  0.937445  0.556679  0.937550  1
  Ho  Ho15  1  0.565795  0.565795  0.934824  1
  Cd  Cd16  1  0.580072  0.580072  0.580075  1
  Cd  Cd17  1  0.581086  0.581086  0.253807  1
  Cd  Cd18  1  0.580902  0.254027  0.581087  1
  Cd  Cd19  1  0.254027  0.580902  0.581087  1
  Tc  Tc20  1  0.145025  0.145025  0.144640  1
  Pd  Pd21  1  0.144944  0.144944  0.568958  1
  Pd  Pd22  1  0.144973  0.568906  0.144988  1
  Pd  Pd23  1  0.568906  0.144973  0.144988  1
