# generated using pymatgen
data_Ti8Al15TcPt6
_symmetry_space_group_name_H-M   'P 1'
_cell_length_a   8.70852089
_cell_length_b   8.70852129
_cell_length_c   8.70852112
_cell_angle_alpha   120.17122768
_cell_angle_beta   119.75458584
_cell_angle_gamma   90.06464497
_symmetry_Int_Tables_number   1
_chemical_formula_structural   Ti8Al15TcPt6
_chemical_formula_sum   'Ti8 Al15 Tc1 Pt6'
_cell_volume   467.25521628
_cell_formula_units_Z   1
loop_
 _symmetry_equiv_pos_site_id
 _symmetry_equiv_pos_as_xyz
  1  'x, y, z'
loop_
 _atom_site_type_symbol
 _atom_site_label
 _atom_site_symmetry_multiplicity
 _atom_site_fract_x
 _atom_site_fract_y
 _atom_site_fract_z
 _atom_site_occupancy
  Ti  Ti0  1  0.788316  0.289579  0.075911  1
  Ti  Ti1  1  0.213668  0.289579  0.501262  1
  Ti  Ti2  1  0.211621  0.711621  0.500000  1
  Ti  Ti3  1  0.213668  0.712406  0.924089  1
  Ti  Ti4  1  0.788316  0.712406  0.498738  1
  Ti  Ti5  1  0.786347  0.286347  0.500000  1
  Ti  Ti6  1  0.381755  0.120423  0.738669  1
  Ti  Ti7  1  0.381755  0.643087  0.261331  1
  Al  Al8  1  0.998991  0.498991  0.500000  1
  Al  Al9  1  0.156232  0.345639  0.189406  1
  Al  Al10  1  0.156232  0.966826  0.810594  1
  Al  Al11  1  0.156307  0.343376  0.812930  1
  Al  Al12  1  0.530445  0.343376  0.187070  1
  Al  Al13  1  0.844928  0.654539  0.809612  1
  Al  Al14  1  0.844928  0.035316  0.190388  1
  Al  Al15  1  0.843744  0.655621  0.188122  1
  Al  Al16  1  0.467500  0.655621  0.811878  1
  Al  Al17  1  0.381529  0.119334  0.262195  1
  Al  Al18  1  0.857140  0.119334  0.737805  1
  Al  Al19  1  0.619823  0.880790  0.260968  1
  Al  Al20  1  0.619823  0.358856  0.739032  1
  Al  Al21  1  0.620766  0.880108  0.740659  1
  Al  Al22  1  0.139448  0.880108  0.259341  1
  Tc  Tc23  1  0.497254  0.997254  0.500000  1
  Pt  Pt24  1  0.998590  0.999298  0.499013  1
  Pt  Pt25  1  0.500286  0.999298  0.000709  1
  Pt  Pt26  1  0.500797  0.500797  0.000000  1
  Pt  Pt27  1  0.500286  0.499577  0.500987  1
  Pt  Pt28  1  0.998590  0.499577  0.999291  1
  Pt  Pt29  1  0.000915  0.000915  0.000000  1
