# generated using pymatgen
data_Nd3HoAl18(OsPd2)2
_symmetry_space_group_name_H-M   'P 1'
_cell_length_a   7.65063921
_cell_length_b   7.66139489
_cell_length_c   9.58672500
_cell_angle_alpha   90.00000000
_cell_angle_beta   90.00000000
_cell_angle_gamma   119.47728880
_symmetry_Int_Tables_number   1
_chemical_formula_structural   Nd3HoAl18(OsPd2)2
_chemical_formula_sum   'Nd3 Ho1 Al18 Os2 Pd4'
_cell_volume   489.18143473
_cell_formula_units_Z   1
loop_
 _symmetry_equiv_pos_site_id
 _symmetry_equiv_pos_as_xyz
  1  'x, y, z'
loop_
 _atom_site_type_symbol
 _atom_site_label
 _atom_site_symmetry_multiplicity
 _atom_site_fract_x
 _atom_site_fract_y
 _atom_site_fract_z
 _atom_site_occupancy
  Nd  Nd0  1  0.995297  0.670336  0.250000  1
  Nd  Nd1  1  0.005483  0.329184  0.750000  1
  Nd  Nd2  1  0.670151  0.994410  0.250000  1
  Ho  Ho3  1  0.327281  0.005552  0.750000  1
  Al  Al4  1  0.129139  0.128212  0.250000  1
  Al  Al5  1  0.872735  0.871695  0.750000  1
  Al  Al6  1  0.002536  0.330075  0.074582  1
  Al  Al7  1  0.999988  0.671467  0.923261  1
  Al  Al8  1  0.999988  0.671467  0.576739  1
  Al  Al9  1  0.330336  0.002059  0.427766  1
  Al  Al10  1  0.002536  0.330075  0.425418  1
  Al  Al11  1  0.667371  0.997872  0.576663  1
  Al  Al12  1  0.667371  0.997872  0.923337  1
  Al  Al13  1  0.330336  0.002059  0.072234  1
  Al  Al14  1  0.330858  0.329248  0.553613  1
  Al  Al15  1  0.669971  0.669898  0.450009  1
  Al  Al16  1  0.669971  0.669898  0.049991  1
  Al  Al17  1  0.330858  0.329248  0.946387  1
  Al  Al18  1  0.342774  0.546003  0.250000  1
  Al  Al19  1  0.654912  0.450887  0.750000  1
  Al  Al20  1  0.545743  0.341768  0.250000  1
  Al  Al21  1  0.453039  0.659465  0.750000  1
  Os  Os22  1  0.000953  0.000597  0.998525  1
  Os  Os23  1  0.000953  0.000597  0.501475  1
  Pd  Pd24  1  0.671316  0.328181  0.999251  1
  Pd  Pd25  1  0.328392  0.671848  0.999320  1
  Pd  Pd26  1  0.328392  0.671848  0.500680  1
  Pd  Pd27  1  0.671316  0.328181  0.500749  1
