# generated using pymatgen
data_Y3Tm9CdCo4Rh
_symmetry_space_group_name_H-M   'P 1'
_cell_length_a   8.22645823
_cell_length_b   8.22105728
_cell_length_c   8.22105639
_cell_angle_alpha   110.67939864
_cell_angle_beta   110.65969453
_cell_angle_gamma   107.07480763
_symmetry_Int_Tables_number   1
_chemical_formula_structural   Y3Tm9CdCo4Rh
_chemical_formula_sum   'Y3 Tm9 Cd1 Co4 Rh1'
_cell_volume   427.58417519
_cell_formula_units_Z   1
loop_
 _symmetry_equiv_pos_site_id
 _symmetry_equiv_pos_as_xyz
  1  'x, y, z'
loop_
 _atom_site_type_symbol
 _atom_site_label
 _atom_site_symmetry_multiplicity
 _atom_site_fract_x
 _atom_site_fract_y
 _atom_site_fract_z
 _atom_site_occupancy
  Y  Y0  1  0.592086  0.284477  0.307610  1
  Y  Y1  1  0.184450  0.211848  0.397769  1
  Y  Y2  1  0.184450  0.786681  0.972603  1
  Tm  Tm3  1  0.686663  0.492623  0.809528  1
  Tm  Tm4  1  0.686663  0.877133  0.194040  1
  Tm  Tm5  1  0.979001  0.282000  0.697001  1
  Tm  Tm6  1  0.021547  0.714080  0.307466  1
  Tm  Tm7  1  0.314805  0.121196  0.806611  1
  Tm  Tm8  1  0.314805  0.508194  0.193610  1
  Tm  Tm9  1  0.814835  0.211301  0.025099  1
  Tm  Tm10  1  0.814835  0.789735  0.603534  1
  Tm  Tm11  1  0.415371  0.718585  0.696786  1
  Cd  Cd12  1  0.499229  0.999429  0.499798  1
  Co  Co13  1  0.880962  0.887021  0.993940  1
  Co  Co14  1  0.376382  0.499624  0.876759  1
  Co  Co15  1  0.621267  0.500686  0.120581  1
  Co  Co16  1  0.106030  0.113137  0.992893  1
  Rh  Rh17  1  0.006622  0.502251  0.504371  1
