# generated using pymatgen
data_Dy9Lu11Tl16
_symmetry_space_group_name_H-M   'P 1'
_cell_length_a   7.84365526
_cell_length_b   8.16061649
_cell_length_c   15.72450591
_cell_angle_alpha   90.01818191
_cell_angle_beta   90.10074707
_cell_angle_gamma   90.01648667
_symmetry_Int_Tables_number   1
_chemical_formula_structural   Dy9Lu11Tl16
_chemical_formula_sum   'Dy9 Lu11 Tl16'
_cell_volume   1006.50923309
_cell_formula_units_Z   1
loop_
 _symmetry_equiv_pos_site_id
 _symmetry_equiv_pos_as_xyz
  1  'x, y, z'
loop_
 _atom_site_type_symbol
 _atom_site_label
 _atom_site_symmetry_multiplicity
 _atom_site_fract_x
 _atom_site_fract_y
 _atom_site_fract_z
 _atom_site_occupancy
  Dy  Dy0  1  0.846594  0.664229  0.877594  1
  Dy  Dy1  1  0.509666  0.315799  0.902578  1
  Dy  Dy2  1  0.006652  0.184539  0.595098  1
  Dy  Dy3  1  0.492977  0.683834  0.404487  1
  Dy  Dy4  1  0.990657  0.817308  0.098213  1
  Dy  Dy5  1  0.493831  0.683600  0.095869  1
  Dy  Dy6  1  0.993063  0.815445  0.404336  1
  Dy  Dy7  1  0.506889  0.315744  0.594954  1
  Dy  Dy8  1  0.006849  0.182797  0.903648  1
  Lu  Lu9  1  0.346011  0.837641  0.874877  1
  Lu  Lu10  1  0.845620  0.661684  0.623551  1
  Lu  Lu11  1  0.654907  0.161651  0.376165  1
  Lu  Lu12  1  0.153624  0.337065  0.124644  1
  Lu  Lu13  1  0.653146  0.162024  0.125148  1
  Lu  Lu14  1  0.155113  0.337495  0.376243  1
  Lu  Lu15  1  0.344353  0.838123  0.623638  1
  Lu  Lu16  1  0.180193  0.501396  0.749080  1
  Lu  Lu17  1  0.679279  0.999620  0.749010  1
  Lu  Lu18  1  0.820522  0.497997  0.250677  1
  Lu  Lu19  1  0.319546  0.001022  0.250337  1
  Tl  Tl20  1  0.308755  0.035724  0.039626  1
  Tl  Tl21  1  0.811766  0.462982  0.459741  1
  Tl  Tl22  1  0.687779  0.963429  0.539546  1
  Tl  Tl23  1  0.193617  0.534617  0.961281  1
  Tl  Tl24  1  0.685166  0.966869  0.960748  1
  Tl  Tl25  1  0.187626  0.536979  0.539573  1
  Tl  Tl26  1  0.311583  0.036569  0.459518  1
  Tl  Tl27  1  0.812909  0.462241  0.041562  1
  Tl  Tl28  1  0.542891  0.619924  0.748676  1
  Tl  Tl29  1  0.042058  0.882346  0.749304  1
  Tl  Tl30  1  0.458534  0.379567  0.250235  1
  Tl  Tl31  1  0.958468  0.119611  0.250551  1
  Tl  Tl32  1  0.310876  0.145449  0.749618  1
  Tl  Tl33  1  0.810610  0.355482  0.749390  1
  Tl  Tl34  1  0.688535  0.854301  0.250436  1
  Tl  Tl35  1  0.189334  0.644896  0.250048  1
