# generated using pymatgen
data_La2TbSm(SeO3)6
_symmetry_space_group_name_H-M   'P 1'
_cell_length_a   7.15643334
_cell_length_b   8.10485784
_cell_length_c   9.38049041
_cell_angle_alpha   69.45490152
_cell_angle_beta   76.36528349
_cell_angle_gamma   64.68517357
_symmetry_Int_Tables_number   1
_chemical_formula_structural   La2TbSm(SeO3)6
_chemical_formula_sum   'La2 Tb1 Sm1 Se6 O18'
_cell_volume   458.19091207
_cell_formula_units_Z   1
loop_
 _symmetry_equiv_pos_site_id
 _symmetry_equiv_pos_as_xyz
  1  'x, y, z'
loop_
 _atom_site_type_symbol
 _atom_site_label
 _atom_site_symmetry_multiplicity
 _atom_site_fract_x
 _atom_site_fract_y
 _atom_site_fract_z
 _atom_site_occupancy
  La  La0  1  0.631695  0.348468  0.323705  1
  La  La1  1  0.368448  0.651775  0.676133  1
  Tb  Tb2  1  0.234794  0.307776  0.124748  1
  Sm  Sm3  1  0.767859  0.690317  0.875476  1
  Se  Se4  1  0.448736  0.172080  0.754399  1
  Se  Se5  1  0.188823  0.757224  0.035341  1
  Se  Se6  1  0.859504  0.779976  0.499044  1
  Se  Se7  1  0.811845  0.239367  0.967263  1
  Se  Se8  1  0.548310  0.830577  0.248517  1
  Se  Se9  1  0.142381  0.220776  0.497042  1
  O  O10  1  0.673012  0.016746  0.836986  1
  O  O11  1  0.326505  0.988995  0.163148  1
  O  O12  1  0.632544  0.797707  0.624280  1
  O  O13  1  0.369474  0.200058  0.371738  1
  O  O14  1  0.391760  0.772562  0.897165  1
  O  O15  1  0.329766  0.329394  0.865320  1
  O  O16  1  0.908612  0.347161  0.052670  1
  O  O17  1  0.526156  0.330892  0.597085  1
  O  O18  1  0.710993  0.439150  0.820403  1
  O  O19  1  0.093551  0.648458  0.950556  1
  O  O20  1  0.166001  0.993713  0.582982  1
  O  O21  1  0.020354  0.686750  0.647615  1
  O  O22  1  0.605705  0.228247  0.103457  1
  O  O23  1  0.667151  0.672962  0.138148  1
  O  O24  1  0.467416  0.672116  0.403536  1
  O  O25  1  0.291332  0.555486  0.180208  1
  O  O26  1  0.833766  0.007875  0.415976  1
  O  O27  1  0.983506  0.313392  0.347058  1
