# generated using pymatgen
data_Cs6Cd4Sn5S17
_symmetry_space_group_name_H-M   'P 1'
_cell_length_a   11.67026045
_cell_length_b   11.67026147
_cell_length_c   11.66562639
_cell_angle_alpha   77.95663927
_cell_angle_beta   77.95664153
_cell_angle_gamma   125.26405232
_symmetry_Int_Tables_number   1
_chemical_formula_structural   Cs6Cd4Sn5S17
_chemical_formula_sum   'Cs6 Cd4 Sn5 S17'
_cell_volume   1155.93337796
_cell_formula_units_Z   1
loop_
 _symmetry_equiv_pos_site_id
 _symmetry_equiv_pos_as_xyz
  1  'x, y, z'
loop_
 _atom_site_type_symbol
 _atom_site_label
 _atom_site_symmetry_multiplicity
 _atom_site_fract_x
 _atom_site_fract_y
 _atom_site_fract_z
 _atom_site_occupancy
  Cs  Cs0  1  0.249970  0.750030  0.500000  1
  Cs  Cs1  1  0.578843  0.421157  0.000000  1
  Cs  Cs2  1  0.507110  0.990780  0.986508  1
  Cs  Cs3  1  0.009220  0.492890  0.013492  1
  Cs  Cs4  1  0.992250  0.007750  0.500000  1
  Cs  Cs5  1  0.505853  0.494147  0.500000  1
  Cd  Cd6  1  0.028724  0.387342  0.359805  1
  Cd  Cd7  1  0.749766  0.388807  0.637006  1
  Cd  Cd8  1  0.612658  0.971276  0.640195  1
  Cd  Cd9  1  0.611193  0.250234  0.362994  1
  Sn  Sn10  1  0.998412  0.001588  0.000000  1
  Sn  Sn11  1  0.967161  0.695069  0.271247  1
  Sn  Sn12  1  0.964820  0.239804  0.728985  1
  Sn  Sn13  1  0.760196  0.035180  0.271015  1
  Sn  Sn14  1  0.304931  0.032839  0.728753  1
  S  S15  1  0.158595  0.667107  0.223132  1
  S  S16  1  0.884535  0.380617  0.782459  1
  S  S17  1  0.887888  0.667613  0.490778  1
  S  S18  1  0.157960  0.383207  0.511156  1
  S  S19  1  0.616793  0.842040  0.488844  1
  S  S20  1  0.332387  0.112112  0.509222  1
  S  S21  1  0.619383  0.115465  0.217541  1
  S  S22  1  0.332893  0.841405  0.776868  1
  S  S23  1  0.120241  0.978267  0.142203  1
  S  S24  1  0.119899  0.263977  0.857787  1
  S  S25  1  0.736023  0.880101  0.142213  1
  S  S26  1  0.021733  0.879759  0.857797  1
  S  S27  1  0.753802  0.534539  0.216676  1
  S  S28  1  0.756928  0.972868  0.781163  1
  S  S29  1  0.027132  0.243072  0.218837  1
  S  S30  1  0.465461  0.246198  0.783324  1
  S  S31  1  0.751041  0.248959  0.500000  1
