# generated using pymatgen
data_Tb2YCdIn2IrAu2
_symmetry_space_group_name_H-M   'P 1'
_cell_length_a   7.89644700
_cell_length_b   7.90277725
_cell_length_c   3.80503000
_cell_angle_alpha   90.00000000
_cell_angle_beta   90.00000000
_cell_angle_gamma   120.00942172
_symmetry_Int_Tables_number   1
_chemical_formula_structural   Tb2YCdIn2IrAu2
_chemical_formula_sum   'Tb2 Y1 Cd1 In2 Ir1 Au2'
_cell_volume   205.61696437
_cell_formula_units_Z   1
loop_
 _symmetry_equiv_pos_site_id
 _symmetry_equiv_pos_as_xyz
  1  'x, y, z'
loop_
 _atom_site_type_symbol
 _atom_site_label
 _atom_site_symmetry_multiplicity
 _atom_site_fract_x
 _atom_site_fract_y
 _atom_site_fract_z
 _atom_site_occupancy
  Tb  Tb0  1  0.582303  0.971142  0.000000  1
  Tb  Tb1  1  0.023432  0.607068  0.000000  1
  Y  Y2  1  0.396737  0.421290  0.000000  1
  Cd  Cd3  1  0.731412  0.727715  0.500000  1
  In  In4  1  0.271897  0.004420  0.500000  1
  In  In5  1  0.998826  0.268162  0.500000  1
  Ir  Ir6  1  0.328277  0.667300  0.500000  1
  Au  Au7  1  0.666981  0.332795  0.500000  1
  Au  Au8  1  0.000135  0.000109  0.000000  1
