# generated using pymatgen
data_Nb2SnGeRu3
_symmetry_space_group_name_H-M   'P 1'
_cell_length_a   4.37794934
_cell_length_b   4.37794962
_cell_length_c   7.65009216
_cell_angle_alpha   73.37316528
_cell_angle_beta   73.37316570
_cell_angle_gamma   59.99999553
_symmetry_Int_Tables_number   1
_chemical_formula_structural   Nb2SnGeRu3
_chemical_formula_sum   'Nb2 Sn1 Ge1 Ru3'
_cell_volume   119.84976075
_cell_formula_units_Z   1
loop_
 _symmetry_equiv_pos_site_id
 _symmetry_equiv_pos_as_xyz
  1  'x, y, z'
loop_
 _atom_site_type_symbol
 _atom_site_label
 _atom_site_symmetry_multiplicity
 _atom_site_fract_x
 _atom_site_fract_y
 _atom_site_fract_z
 _atom_site_occupancy
  Nb  Nb0  1  0.248895  0.248895  0.253316  1
  Nb  Nb1  1  0.753081  0.753081  0.740753  1
  Sn  Sn2  1  0.505492  0.505492  0.483521  1
  Ge  Ge3  1  0.993764  0.993764  0.018708  1
  Ru  Ru4  1  0.629693  0.629693  0.110919  1
  Ru  Ru5  1  0.121299  0.121299  0.636100  1
  Ru  Ru6  1  0.372771  0.372771  0.881684  1
