# generated using pymatgen
data_Li8Dy8Sn7Bi
_symmetry_space_group_name_H-M   'P 1'
_cell_length_a   9.40608400
_cell_length_b   9.40545828
_cell_length_c   7.29807456
_cell_angle_alpha   90.12230243
_cell_angle_beta   90.00000000
_cell_angle_gamma   120.00220073
_symmetry_Int_Tables_number   1
_chemical_formula_structural   Li8Dy8Sn7Bi
_chemical_formula_sum   'Li8 Dy8 Sn7 Bi1'
_cell_volume   559.13514509
_cell_formula_units_Z   1
loop_
 _symmetry_equiv_pos_site_id
 _symmetry_equiv_pos_as_xyz
  1  'x, y, z'
loop_
 _atom_site_type_symbol
 _atom_site_label
 _atom_site_symmetry_multiplicity
 _atom_site_fract_x
 _atom_site_fract_y
 _atom_site_fract_z
 _atom_site_occupancy
  Li  Li0  1  0.166690  0.333381  0.286195  1
  Li  Li1  1  0.167788  0.833554  0.289077  1
  Li  Li2  1  0.665767  0.833554  0.289077  1
  Li  Li3  1  0.833329  0.666658  0.788205  1
  Li  Li4  1  0.829055  0.164644  0.790912  1
  Li  Li5  1  0.335589  0.164644  0.790912  1
  Li  Li6  1  0.335370  0.670742  0.667242  1
  Li  Li7  1  0.666241  0.332482  0.169053  1
  Dy  Dy8  1  0.512798  0.025595  0.493733  1
  Dy  Dy9  1  0.517995  0.490577  0.491059  1
  Dy  Dy10  1  0.972583  0.490577  0.491059  1
  Dy  Dy11  1  0.487234  0.974468  0.994588  1
  Dy  Dy12  1  0.492945  0.514847  0.996579  1
  Dy  Dy13  1  0.021900  0.514847  0.996579  1
  Dy  Dy14  1  0.997133  0.994267  0.497586  1
  Dy  Dy15  1  0.997793  0.995585  0.002520  1
  Sn  Sn16  1  0.166453  0.832600  0.730038  1
  Sn  Sn17  1  0.666147  0.832600  0.730038  1
  Sn  Sn18  1  0.833216  0.666432  0.230479  1
  Sn  Sn19  1  0.833656  0.167336  0.230084  1
  Sn  Sn20  1  0.333680  0.167336  0.230084  1
  Sn  Sn21  1  0.332854  0.665709  0.261953  1
  Sn  Sn22  1  0.667005  0.334008  0.762492  1
  Bi  Bi23  1  0.166778  0.333556  0.732452  1
