# generated using pymatgen
data_NbFe4Pt
_symmetry_space_group_name_H-M   'P 1'
_cell_length_a   4.79627116
_cell_length_b   4.79626999
_cell_length_c   4.79627100
_cell_angle_alpha   59.99999991
_cell_angle_beta   60.00000798
_cell_angle_gamma   60.00000123
_symmetry_Int_Tables_number   1
_chemical_formula_structural   NbFe4Pt
_chemical_formula_sum   'Nb1 Fe4 Pt1'
_cell_volume   78.01823045
_cell_formula_units_Z   1
loop_
 _symmetry_equiv_pos_site_id
 _symmetry_equiv_pos_as_xyz
  1  'x, y, z'
loop_
 _atom_site_type_symbol
 _atom_site_label
 _atom_site_symmetry_multiplicity
 _atom_site_fract_x
 _atom_site_fract_y
 _atom_site_fract_z
 _atom_site_occupancy
  Nb  Nb0  1  0.000000  0.000000  0.000000  1
  Fe  Fe1  1  0.876043  0.374652  0.374652  1
  Fe  Fe2  1  0.374652  0.876043  0.374652  1
  Fe  Fe3  1  0.374652  0.374652  0.876043  1
  Fe  Fe4  1  0.374652  0.374652  0.374652  1
  Pt  Pt5  1  0.750000  0.750000  0.750000  1
