# generated using pymatgen
data_Hf6Co16Si6Os
_symmetry_space_group_name_H-M   'P 1'
_cell_length_a   8.07830602
_cell_length_b   8.07830521
_cell_length_c   7.96649700
_cell_angle_alpha   60.45679943
_cell_angle_beta   60.45680267
_cell_angle_gamma   59.48663479
_symmetry_Int_Tables_number   1
_chemical_formula_structural   Hf6Co16Si6Os
_chemical_formula_sum   'Hf6 Co16 Si6 Os1'
_cell_volume   368.65604978
_cell_formula_units_Z   1
loop_
 _symmetry_equiv_pos_site_id
 _symmetry_equiv_pos_as_xyz
  1  'x, y, z'
loop_
 _atom_site_type_symbol
 _atom_site_label
 _atom_site_symmetry_multiplicity
 _atom_site_fract_x
 _atom_site_fract_y
 _atom_site_fract_z
 _atom_site_occupancy
  Hf  Hf0  1  0.207424  0.792576  0.792849  1
  Hf  Hf1  1  0.797707  0.797707  0.202293  1
  Hf  Hf2  1  0.792576  0.207424  0.207151  1
  Hf  Hf3  1  0.202293  0.202293  0.797707  1
  Hf  Hf4  1  0.792576  0.207424  0.792849  1
  Hf  Hf5  1  0.207424  0.792576  0.207151  1
  Co  Co6  1  0.618430  0.618430  0.145644  1
  Co  Co7  1  0.171162  0.490147  0.169346  1
  Co  Co8  1  0.862743  0.382071  0.377593  1
  Co  Co9  1  0.509853  0.828838  0.830654  1
  Co  Co10  1  0.490147  0.171162  0.169346  1
  Co  Co11  1  0.824460  0.824460  0.514063  1
  Co  Co12  1  0.175540  0.175540  0.485937  1
  Co  Co13  1  0.137257  0.617929  0.622407  1
  Co  Co14  1  0.175540  0.175540  0.162983  1
  Co  Co15  1  0.381570  0.381570  0.854356  1
  Co  Co16  1  0.618430  0.618430  0.617497  1
  Co  Co17  1  0.382071  0.862743  0.377593  1
  Co  Co18  1  0.381570  0.381570  0.382503  1
  Co  Co19  1  0.824460  0.824460  0.837017  1
  Co  Co20  1  0.617929  0.137257  0.622407  1
  Co  Co21  1  0.828838  0.509853  0.830654  1
  Si  Si22  1  0.500000  0.000000  0.500000  1
  Si  Si23  1  0.500000  0.500000  0.000000  1
  Si  Si24  1  0.500000  0.500000  0.500000  1
  Si  Si25  1  0.000000  0.500000  0.000000  1
  Si  Si26  1  0.000000  0.500000  0.500000  1
  Si  Si27  1  0.500000  0.000000  0.000000  1
  Os  Os28  1  0.000000  0.000000  0.500000  1
