# generated using pymatgen
data_Ce3Sn3HgOs2
_symmetry_space_group_name_H-M   'P 1'
_cell_length_a   7.60271900
_cell_length_b   7.60271980
_cell_length_c   4.20621500
_cell_angle_alpha   90.00000000
_cell_angle_beta   90.00000000
_cell_angle_gamma   119.99999218
_symmetry_Int_Tables_number   1
_chemical_formula_structural   Ce3Sn3HgOs2
_chemical_formula_sum   'Ce3 Sn3 Hg1 Os2'
_cell_volume   210.55233270
_cell_formula_units_Z   1
loop_
 _symmetry_equiv_pos_site_id
 _symmetry_equiv_pos_as_xyz
  1  'x, y, z'
loop_
 _atom_site_type_symbol
 _atom_site_label
 _atom_site_symmetry_multiplicity
 _atom_site_fract_x
 _atom_site_fract_y
 _atom_site_fract_z
 _atom_site_occupancy
  Ce  Ce0  1  0.392350  0.419417  0.000000  1
  Ce  Ce1  1  0.580583  0.972934  0.000000  1
  Ce  Ce2  1  0.027066  0.607650  0.000000  1
  Sn  Sn3  1  0.010184  0.250481  0.500000  1
  Sn  Sn4  1  0.749519  0.759702  0.500000  1
  Sn  Sn5  1  0.240298  0.989816  0.500000  1
  Hg  Hg6  1  0.666667  0.333333  0.500000  1
  Os  Os7  1  0.333333  0.666667  0.500000  1
  Os  Os8  1  0.000000  0.000000  0.000000  1
