# generated using pymatgen
data_Tb8Ho7Tm(Ga3Co)2
_symmetry_space_group_name_H-M   'P 1'
_cell_length_a   9.98062100
_cell_length_b   9.98061910
_cell_length_c   6.97538100
_cell_angle_alpha   90.00000000
_cell_angle_beta   90.00000000
_cell_angle_gamma   119.99999636
_symmetry_Int_Tables_number   1
_chemical_formula_structural   Tb8Ho7Tm(Ga3Co)2
_chemical_formula_sum   'Tb8 Ho7 Tm1 Ga6 Co2'
_cell_volume   601.74657521
_cell_formula_units_Z   1
loop_
 _symmetry_equiv_pos_site_id
 _symmetry_equiv_pos_as_xyz
  1  'x, y, z'
loop_
 _atom_site_type_symbol
 _atom_site_label
 _atom_site_symmetry_multiplicity
 _atom_site_fract_x
 _atom_site_fract_y
 _atom_site_fract_z
 _atom_site_occupancy
  Tb  Tb0  1  0.536343  0.072684  0.791634  1
  Tb  Tb1  1  0.927316  0.463657  0.791634  1
  Tb  Tb2  1  0.536343  0.463657  0.791634  1
  Tb  Tb3  1  0.463502  0.927007  0.291839  1
  Tb  Tb4  1  0.072993  0.536498  0.291839  1
  Tb  Tb5  1  0.463502  0.536498  0.291839  1
  Tb  Tb6  1  0.000000  0.000000  0.769220  1
  Tb  Tb7  1  0.000000  0.000000  0.269094  1
  Ho  Ho8  1  0.826899  0.653798  0.487682  1
  Ho  Ho9  1  0.346202  0.173101  0.487682  1
  Ho  Ho10  1  0.826899  0.173101  0.487682  1
  Ho  Ho11  1  0.173293  0.346586  0.987322  1
  Ho  Ho12  1  0.653414  0.826707  0.987322  1
  Ho  Ho13  1  0.173293  0.826707  0.987322  1
  Ho  Ho14  1  0.666667  0.333333  0.173471  1
  Tm  Tm15  1  0.333333  0.666667  0.674286  1
  Ga  Ga16  1  0.836282  0.672564  0.042906  1
  Ga  Ga17  1  0.327436  0.163718  0.042906  1
  Ga  Ga18  1  0.836282  0.163718  0.042906  1
  Ga  Ga19  1  0.163937  0.327874  0.543098  1
  Ga  Ga20  1  0.672126  0.836063  0.543098  1
  Ga  Ga21  1  0.163937  0.836063  0.543098  1
  Co  Co22  1  0.666667  0.333333  0.553178  1
  Co  Co23  1  0.333333  0.666667  0.053386  1
