# generated using pymatgen
data_Nd10Sn4Bi3Sb
_symmetry_space_group_name_H-M   'P 1'
_cell_length_a   8.41920721
_cell_length_b   8.46526300
_cell_length_c   16.09967641
_cell_angle_alpha   90.00000000
_cell_angle_beta   90.02575542
_cell_angle_gamma   90.00000000
_symmetry_Int_Tables_number   1
_chemical_formula_structural   Nd10Sn4Bi3Sb
_chemical_formula_sum   'Nd20 Sn8 Bi6 Sb2'
_cell_volume   1147.43675455
_cell_formula_units_Z   2
loop_
 _symmetry_equiv_pos_site_id
 _symmetry_equiv_pos_as_xyz
  1  'x, y, z'
loop_
 _atom_site_type_symbol
 _atom_site_label
 _atom_site_symmetry_multiplicity
 _atom_site_fract_x
 _atom_site_fract_y
 _atom_site_fract_z
 _atom_site_occupancy
  Nd  Nd0  1  0.038496  0.174063  0.392891  1
  Nd  Nd1  1  0.384400  0.836261  0.122146  1
  Nd  Nd2  1  0.112559  0.337353  0.621062  1
  Nd  Nd3  1  0.458380  0.675967  0.891930  1
  Nd  Nd4  1  0.884163  0.663845  0.121975  1
  Nd  Nd5  1  0.115600  0.336261  0.877854  1
  Nd  Nd6  1  0.210381  0.496144  0.250449  1
  Nd  Nd7  1  0.710623  0.003901  0.251633  1
  Nd  Nd8  1  0.461504  0.674063  0.607109  1
  Nd  Nd9  1  0.289619  0.996144  0.749551  1
  Nd  Nd10  1  0.618411  0.164855  0.619181  1
  Nd  Nd11  1  0.789377  0.503901  0.748367  1
  Nd  Nd12  1  0.881589  0.664855  0.380819  1
  Nd  Nd13  1  0.041620  0.175967  0.108070  1
  Nd  Nd14  1  0.957968  0.823972  0.892039  1
  Nd  Nd15  1  0.615837  0.163845  0.878025  1
  Nd  Nd16  1  0.542032  0.323972  0.107961  1
  Nd  Nd17  1  0.387441  0.837353  0.378938  1
  Nd  Nd18  1  0.954774  0.822767  0.606104  1
  Nd  Nd19  1  0.545226  0.322767  0.393896  1
  Sn  Sn20  1  0.656934  0.861291  0.749826  1
  Sn  Sn21  1  0.843066  0.361291  0.250174  1
  Sn  Sn22  1  0.582394  0.620713  0.250125  1
  Sn  Sn23  1  0.417621  0.378510  0.749666  1
  Sn  Sn24  1  0.157150  0.639589  0.749696  1
  Sn  Sn25  1  0.917606  0.120713  0.749875  1
  Sn  Sn26  1  0.342850  0.139589  0.250304  1
  Sn  Sn27  1  0.082379  0.878510  0.250334  1
  Bi  Bi28  1  0.226706  0.524020  0.455660  1
  Bi  Bi29  1  0.273498  0.024117  0.955917  1
  Bi  Bi30  1  0.773461  0.475975  0.955673  1
  Bi  Bi31  1  0.226502  0.524117  0.044083  1
  Bi  Bi32  1  0.273294  0.024020  0.544340  1
  Bi  Bi33  1  0.726539  0.975975  0.044327  1
  Sb  Sb34  1  0.772529  0.476654  0.545527  1
  Sb  Sb35  1  0.727471  0.976654  0.454473  1
