# generated using pymatgen
data_Tb3Yb4Y3(CuPb3)2
_symmetry_space_group_name_H-M   'P 1'
_cell_length_a   9.25964451
_cell_length_b   9.25471035
_cell_length_c   6.82688300
_cell_angle_alpha   90.00000000
_cell_angle_beta   90.00000000
_cell_angle_gamma   120.05566702
_symmetry_Int_Tables_number   1
_chemical_formula_structural   Tb3Yb4Y3(CuPb3)2
_chemical_formula_sum   'Tb3 Yb4 Y3 Cu2 Pb6'
_cell_volume   506.36811473
_cell_formula_units_Z   1
loop_
 _symmetry_equiv_pos_site_id
 _symmetry_equiv_pos_as_xyz
  1  'x, y, z'
loop_
 _atom_site_type_symbol
 _atom_site_label
 _atom_site_symmetry_multiplicity
 _atom_site_fract_x
 _atom_site_fract_y
 _atom_site_fract_z
 _atom_site_occupancy
  Tb  Tb0  1  0.999964  0.740761  0.750000  1
  Tb  Tb1  1  0.741016  0.740747  0.250000  1
  Tb  Tb2  1  0.258743  0.258827  0.750000  1
  Yb  Yb3  1  0.333381  0.666615  0.000063  1
  Yb  Yb4  1  0.666645  0.333366  0.000000  1
  Yb  Yb5  1  0.666645  0.333366  0.500000  1
  Yb  Yb6  1  0.333381  0.666615  0.499937  1
  Y  Y7  1  0.259581  0.000208  0.250000  1
  Y  Y8  1  0.740511  0.000176  0.750000  1
  Y  Y9  1  0.999912  0.259359  0.250000  1
  Cu  Cu10  1  0.999947  0.999850  0.999736  1
  Cu  Cu11  1  0.999947  0.999850  0.500264  1
  Pb  Pb12  1  0.613222  0.000124  0.250000  1
  Pb  Pb13  1  0.387067  0.000172  0.750000  1
  Pb  Pb14  1  0.000349  0.613354  0.250000  1
  Pb  Pb15  1  0.000188  0.386579  0.750000  1
  Pb  Pb16  1  0.386144  0.386477  0.250000  1
  Pb  Pb17  1  0.613359  0.613556  0.750000  1
