# generated using pymatgen
data_Dy5As2P10Ir2Rh17
_symmetry_space_group_name_H-M   'P 1'
_cell_length_a   12.81314600
_cell_length_b   12.80555399
_cell_length_c   3.92086700
_cell_angle_alpha   90.00000000
_cell_angle_beta   90.00000000
_cell_angle_gamma   120.01961903
_symmetry_Int_Tables_number   1
_chemical_formula_structural   Dy5As2P10Ir2Rh17
_chemical_formula_sum   'Dy5 As2 P10 Ir2 Rh17'
_cell_volume   557.03309336
_cell_formula_units_Z   1
loop_
 _symmetry_equiv_pos_site_id
 _symmetry_equiv_pos_as_xyz
  1  'x, y, z'
loop_
 _atom_site_type_symbol
 _atom_site_label
 _atom_site_symmetry_multiplicity
 _atom_site_fract_x
 _atom_site_fract_y
 _atom_site_fract_z
 _atom_site_occupancy
  Dy  Dy0  1  0.335254  0.667044  0.500000  1
  Dy  Dy1  1  0.668212  0.332956  0.500000  1
  Dy  Dy2  1  0.001176  0.817154  0.000000  1
  Dy  Dy3  1  0.184020  0.182846  0.000000  1
  Dy  Dy4  1  0.812419  0.000000  0.000000  1
  As  As5  1  0.000480  0.637570  0.500000  1
  As  As6  1  0.362911  0.362430  0.500000  1
  P  P7  1  0.637055  0.000000  0.500000  1
  P  P8  1  0.518832  0.685004  0.000000  1
  P  P9  1  0.315806  0.830806  0.000000  1
  P  P10  1  0.167078  0.481436  0.000000  1
  P  P11  1  0.485000  0.169194  0.000000  1
  P  P12  1  0.685642  0.518564  0.000000  1
  P  P13  1  0.833829  0.314996  0.000000  1
  P  P14  1  0.999592  0.178684  0.500000  1
  P  P15  1  0.820907  0.821316  0.500000  1
  P  P16  1  0.181320  0.000000  0.500000  1
  Ir  Ir17  1  0.282478  0.000000  0.000000  1
  Ir  Ir18  1  0.001694  0.000000  0.500000  1
  Rh  Rh19  1  0.510011  0.867512  0.000000  1
  Rh  Rh20  1  0.135196  0.641095  0.000000  1
  Rh  Rh21  1  0.356132  0.492897  0.000000  1
  Rh  Rh22  1  0.494103  0.358905  0.000000  1
  Rh  Rh23  1  0.863236  0.507103  0.000000  1
  Rh  Rh24  1  0.642499  0.132488  0.000000  1
  Rh  Rh25  1  0.985595  0.441071  0.500000  1
  Rh  Rh26  1  0.544524  0.558929  0.500000  1
  Rh  Rh27  1  0.457167  0.000000  0.500000  1
  Rh  Rh28  1  0.997316  0.279008  0.000000  1
  Rh  Rh29  1  0.718307  0.720992  0.000000  1
  Rh  Rh30  1  0.627974  0.809688  0.500000  1
  Rh  Rh31  1  0.204414  0.824722  0.500000  1
  Rh  Rh32  1  0.174150  0.376458  0.500000  1
  Rh  Rh33  1  0.379694  0.175278  0.500000  1
  Rh  Rh34  1  0.797692  0.623542  0.500000  1
  Rh  Rh35  1  0.818286  0.190312  0.500000  1
