# generated using pymatgen
data_Cs2La9PrOs2Br17
_symmetry_space_group_name_H-M   'P 1'
_cell_length_a   9.64829982
_cell_length_b   11.43872501
_cell_length_c   11.43851846
_cell_angle_alpha   107.20785258
_cell_angle_beta   93.26374781
_cell_angle_gamma   93.25776254
_symmetry_Int_Tables_number   1
_chemical_formula_structural   Cs2La9PrOs2Br17
_chemical_formula_sum   'Cs2 La9 Pr1 Os2 Br17'
_cell_volume   1200.34213715
_cell_formula_units_Z   1
loop_
 _symmetry_equiv_pos_site_id
 _symmetry_equiv_pos_as_xyz
  1  'x, y, z'
loop_
 _atom_site_type_symbol
 _atom_site_label
 _atom_site_symmetry_multiplicity
 _atom_site_fract_x
 _atom_site_fract_y
 _atom_site_fract_z
 _atom_site_occupancy
  Cs  Cs0  1  0.003299  0.821017  0.182061  1
  Cs  Cs1  1  0.003292  0.182126  0.820967  1
  La  La2  1  0.574943  0.512655  0.195354  1
  La  La3  1  0.824943  0.292742  0.292741  1
  La  La4  1  0.311895  0.427768  0.427767  1
  La  La5  1  0.424962  0.796033  0.490916  1
  La  La6  1  0.574898  0.195409  0.512550  1
  La  La7  1  0.689628  0.565732  0.565802  1
  La  La8  1  0.168643  0.710362  0.710427  1
  La  La9  1  0.424986  0.490924  0.796058  1
  La  La10  1  0.564150  0.841197  0.841211  1
  Pr  Pr11  1  0.437284  0.163198  0.163096  1
  Os  Os12  1  0.572263  0.356532  0.356429  1
  Os  Os13  1  0.426827  0.644950  0.645045  1
  Br  Br14  1  0.579821  0.687080  0.018459  1
  Br  Br15  1  0.711404  0.068970  0.068909  1
  Br  Br16  1  0.858710  0.451154  0.119403  1
  Br  Br17  1  0.133695  0.206281  0.206190  1
  Br  Br18  1  0.285364  0.604297  0.256419  1
  Br  Br19  1  0.419168  0.978699  0.313920  1
  Br  Br20  1  0.714711  0.742554  0.393601  1
  Br  Br21  1  0.858665  0.119344  0.451013  1
  Br  Br22  1  0.000542  0.499852  0.500660  1
  Br  Br23  1  0.141854  0.880536  0.550730  1
  Br  Br24  1  0.285317  0.256478  0.604197  1
  Br  Br25  1  0.579786  0.018457  0.687029  1
  Br  Br26  1  0.714776  0.393610  0.742522  1
  Br  Br27  1  0.867849  0.793787  0.793776  1
  Br  Br28  1  0.141928  0.550771  0.880641  1
  Br  Br29  1  0.285230  0.933474  0.933454  1
  Br  Br30  1  0.419167  0.314009  0.978653  1
