# generated using pymatgen
data_Y4Ni13P12Ru7
_symmetry_space_group_name_H-M   'P 1'
_cell_length_a   3.75852100
_cell_length_b   10.63623243
_cell_length_c   11.93032555
_cell_angle_alpha   90.16819305
_cell_angle_beta   90.00000000
_cell_angle_gamma   90.00000000
_symmetry_Int_Tables_number   1
_chemical_formula_structural   Y4Ni13P12Ru7
_chemical_formula_sum   'Y4 Ni13 P12 Ru7'
_cell_volume   476.93063964
_cell_formula_units_Z   1
loop_
 _symmetry_equiv_pos_site_id
 _symmetry_equiv_pos_as_xyz
  1  'x, y, z'
loop_
 _atom_site_type_symbol
 _atom_site_label
 _atom_site_symmetry_multiplicity
 _atom_site_fract_x
 _atom_site_fract_y
 _atom_site_fract_z
 _atom_site_occupancy
  Y  Y0  1  0.250000  0.588870  0.708854  1
  Y  Y1  1  0.250000  0.910360  0.205551  1
  Y  Y2  1  0.750000  0.411174  0.291568  1
  Y  Y3  1  0.750000  0.087799  0.791441  1
  Ni  Ni4  1  0.750000  0.905742  0.011090  1
  Ni  Ni5  1  0.250000  0.223625  0.182121  1
  Ni  Ni6  1  0.250000  0.274896  0.683663  1
  Ni  Ni7  1  0.750000  0.779574  0.819558  1
  Ni  Ni8  1  0.750000  0.724868  0.316787  1
  Ni  Ni9  1  0.250000  0.886624  0.701192  1
  Ni  Ni10  1  0.250000  0.613799  0.201701  1
  Ni  Ni11  1  0.750000  0.111146  0.297305  1
  Ni  Ni12  1  0.750000  0.387036  0.799209  1
  Ni  Ni13  1  0.250000  0.465736  0.930935  1
  Ni  Ni14  1  0.250000  0.035530  0.429402  1
  Ni  Ni15  1  0.750000  0.535622  0.068839  1
  Ni  Ni16  1  0.750000  0.963590  0.568520  1
  P  P17  1  0.250000  0.418179  0.112029  1
  P  P18  1  0.250000  0.081521  0.610935  1
  P  P19  1  0.750000  0.584342  0.888799  1
  P  P20  1  0.750000  0.918460  0.387407  1
  P  P21  1  0.250000  0.270200  0.873752  1
  P  P22  1  0.250000  0.228338  0.371761  1
  P  P23  1  0.750000  0.730220  0.126670  1
  P  P24  1  0.750000  0.771570  0.628421  1
  P  P25  1  0.250000  0.598335  0.389495  1
  P  P26  1  0.250000  0.901494  0.887529  1
  P  P27  1  0.750000  0.401494  0.611299  1
  P  P28  1  0.750000  0.097824  0.111733  1
  Ru  Ru29  1  0.250000  0.714425  0.986390  1
  Ru  Ru30  1  0.250000  0.792808  0.484157  1
  Ru  Ru31  1  0.750000  0.289247  0.014173  1
  Ru  Ru32  1  0.750000  0.206819  0.515927  1
  Ru  Ru33  1  0.250000  0.403929  0.489043  1
  Ru  Ru34  1  0.250000  0.088774  0.990712  1
  Ru  Ru35  1  0.750000  0.596032  0.512035  1
