# generated using pymatgen
data_LaPa(Al5Re)4
_symmetry_space_group_name_H-M   'P 1'
_cell_length_a   6.93814784
_cell_length_b   6.93803844
_cell_length_c   9.25193300
_cell_angle_alpha   90.00000000
_cell_angle_beta   90.00000000
_cell_angle_gamma   96.91857150
_symmetry_Int_Tables_number   1
_chemical_formula_structural   LaPa(Al5Re)4
_chemical_formula_sum   'La1 Pa1 Al20 Re4'
_cell_volume   442.11859358
_cell_formula_units_Z   1
loop_
 _symmetry_equiv_pos_site_id
 _symmetry_equiv_pos_as_xyz
  1  'x, y, z'
loop_
 _atom_site_type_symbol
 _atom_site_label
 _atom_site_symmetry_multiplicity
 _atom_site_fract_x
 _atom_site_fract_y
 _atom_site_fract_z
 _atom_site_occupancy
  La  La0  1  0.127418  0.872591  0.250000  1
  Pa  Pa1  1  0.868623  0.131351  0.750000  1
  Al  Al2  1  0.622060  0.377936  0.552330  1
  Al  Al3  1  0.377289  0.622706  0.468582  1
  Al  Al4  1  0.377289  0.622706  0.031418  1
  Al  Al5  1  0.622060  0.377936  0.947670  1
  Al  Al6  1  0.226755  0.223920  0.501832  1
  Al  Al7  1  0.776086  0.773251  0.501829  1
  Al  Al8  1  0.776086  0.773251  0.998171  1
  Al  Al9  1  0.226755  0.223920  0.998168  1
  Al  Al10  1  0.840069  0.159926  0.098430  1
  Al  Al11  1  0.153268  0.846731  0.898355  1
  Al  Al12  1  0.153268  0.846731  0.601645  1
  Al  Al13  1  0.840069  0.159926  0.401570  1
  Al  Al14  1  0.860166  0.590708  0.750000  1
  Al  Al15  1  0.136816  0.399487  0.250000  1
  Al  Al16  1  0.409299  0.139837  0.750000  1
  Al  Al17  1  0.600530  0.863181  0.250000  1
  Al  Al18  1  0.216314  0.477649  0.750000  1
  Al  Al19  1  0.783935  0.523921  0.250000  1
  Al  Al20  1  0.522332  0.783683  0.750000  1
  Al  Al21  1  0.476094  0.216082  0.250000  1
  Re  Re22  1  0.999620  0.495905  0.502369  1
  Re  Re23  1  0.999620  0.495905  0.997631  1
  Re  Re24  1  0.504092  0.000377  0.997612  1
  Re  Re25  1  0.504092  0.000377  0.502388  1
