# generated using pymatgen
data_Ba2ThPaI12
_symmetry_space_group_name_H-M   'P 1'
_cell_length_a   8.48849469
_cell_length_b   8.49107448
_cell_length_c   15.46807132
_cell_angle_alpha   84.29766022
_cell_angle_beta   84.27237340
_cell_angle_gamma   120.32104706
_symmetry_Int_Tables_number   1
_chemical_formula_structural   Ba2ThPaI12
_chemical_formula_sum   'Ba2 Th1 Pa1 I12'
_cell_volume   942.90884115
_cell_formula_units_Z   1
loop_
 _symmetry_equiv_pos_site_id
 _symmetry_equiv_pos_as_xyz
  1  'x, y, z'
loop_
 _atom_site_type_symbol
 _atom_site_label
 _atom_site_symmetry_multiplicity
 _atom_site_fract_x
 _atom_site_fract_y
 _atom_site_fract_z
 _atom_site_occupancy
  Ba  Ba0  1  0.171439  0.335905  0.996423  1
  Ba  Ba1  1  0.335917  0.171459  0.496430  1
  Th  Th2  1  0.666768  0.840290  0.499482  1
  Pa  Pa3  1  0.840369  0.666754  0.999489  1
  I  I4  1  0.592176  0.712884  0.882968  1
  I  I5  1  0.713259  0.588543  0.381531  1
  I  I6  1  0.888800  0.426698  0.877762  1
  I  I7  1  0.607788  0.079534  0.621828  1
  I  I8  1  0.423540  0.889673  0.376197  1
  I  I9  1  0.007408  0.190146  0.385010  1
  I  I10  1  0.185460  0.002715  0.886454  1
  I  I11  1  0.922176  0.802758  0.617809  1
  I  I12  1  0.076398  0.608846  0.120289  1
  I  I13  1  0.498787  0.331291  0.114818  1
  I  I14  1  0.326763  0.494065  0.616321  1
  I  I15  1  0.802949  0.918437  0.116390  1
