# generated using pymatgen
data_CsK2InHg10
_symmetry_space_group_name_H-M   'P 1'
_cell_length_a   9.96319510
_cell_length_b   9.96319411
_cell_length_c   9.96319376
_cell_angle_alpha   147.48570210
_cell_angle_beta   117.32910166
_cell_angle_gamma   72.40069792
_symmetry_Int_Tables_number   1
_chemical_formula_structural   CsK2InHg10
_chemical_formula_sum   'Cs1 K2 In1 Hg10'
_cell_volume   464.75898993
_cell_formula_units_Z   1
loop_
 _symmetry_equiv_pos_site_id
 _symmetry_equiv_pos_as_xyz
  1  'x, y, z'
loop_
 _atom_site_type_symbol
 _atom_site_label
 _atom_site_symmetry_multiplicity
 _atom_site_fract_x
 _atom_site_fract_y
 _atom_site_fract_z
 _atom_site_occupancy
  Cs  Cs0  1  0.000000  0.000000  0.000000  1
  K  K1  1  0.290405  0.290405  0.000000  1
  K  K2  1  0.709595  0.709595  0.000000  1
  In  In3  1  0.500000  0.000000  0.500000  1
  Hg  Hg4  1  0.448894  0.143037  0.305859  1
  Hg  Hg5  1  0.987751  0.335788  0.651960  1
  Hg  Hg6  1  0.012249  0.664212  0.348040  1
  Hg  Hg7  1  0.316172  0.664212  0.651960  1
  Hg  Hg8  1  0.683828  0.335788  0.348040  1
  Hg  Hg9  1  0.663663  0.500000  0.163663  1
  Hg  Hg10  1  0.336337  0.500000  0.836337  1
  Hg  Hg11  1  0.551106  0.856963  0.694141  1
  Hg  Hg12  1  0.162821  0.856963  0.305859  1
  Hg  Hg13  1  0.837179  0.143037  0.694141  1
