# generated using pymatgen
data_Tb2Mn3Fe6Ni3P7
_symmetry_space_group_name_H-M   'P 1'
_cell_length_a   9.11676800
_cell_length_b   9.11676914
_cell_length_c   3.62006300
_cell_angle_alpha   90.00000000
_cell_angle_beta   90.00000000
_cell_angle_gamma   119.99999588
_symmetry_Int_Tables_number   1
_chemical_formula_structural   Tb2Mn3Fe6Ni3P7
_chemical_formula_sum   'Tb2 Mn3 Fe6 Ni3 P7'
_cell_volume   260.57253547
_cell_formula_units_Z   1
loop_
 _symmetry_equiv_pos_site_id
 _symmetry_equiv_pos_as_xyz
  1  'x, y, z'
loop_
 _atom_site_type_symbol
 _atom_site_label
 _atom_site_symmetry_multiplicity
 _atom_site_fract_x
 _atom_site_fract_y
 _atom_site_fract_z
 _atom_site_occupancy
  Tb  Tb0  1  0.666667  0.333333  0.000000  1
  Tb  Tb1  1  0.333333  0.666667  0.500000  1
  Mn  Mn2  1  0.102484  0.881548  0.500000  1
  Mn  Mn3  1  0.779063  0.897516  0.500000  1
  Mn  Mn4  1  0.118452  0.220937  0.500000  1
  Fe  Fe5  1  0.274014  0.118779  0.000000  1
  Fe  Fe6  1  0.844764  0.725986  0.000000  1
  Fe  Fe7  1  0.881221  0.155236  0.000000  1
  Fe  Fe8  1  0.436954  0.047432  0.500000  1
  Fe  Fe9  1  0.610477  0.563046  0.500000  1
  Fe  Fe10  1  0.952568  0.389523  0.500000  1
  Ni  Ni11  1  0.064037  0.635193  0.000000  1
  Ni  Ni12  1  0.571157  0.935963  0.000000  1
  Ni  Ni13  1  0.364807  0.428843  0.000000  1
  P  P14  1  0.304782  0.895814  0.000000  1
  P  P15  1  0.591033  0.695218  0.000000  1
  P  P16  1  0.104186  0.408967  0.000000  1
  P  P17  1  0.406643  0.282672  0.500000  1
  P  P18  1  0.876029  0.593357  0.500000  1
  P  P19  1  0.717328  0.123971  0.500000  1
  P  P20  1  0.000000  0.000000  0.000000  1
