# generated using pymatgen
data_Lu9Cd(Ni2Sb)2
_symmetry_space_group_name_H-M   'P 1'
_cell_length_a   8.50135965
_cell_length_b   8.50136020
_cell_length_c   8.50135977
_cell_angle_alpha   128.86160761
_cell_angle_beta   128.86161344
_cell_angle_gamma   75.23335366
_symmetry_Int_Tables_number   1
_chemical_formula_structural   Lu9Cd(Ni2Sb)2
_chemical_formula_sum   'Lu9 Cd1 Ni4 Sb2'
_cell_volume   362.64049955
_cell_formula_units_Z   1
loop_
 _symmetry_equiv_pos_site_id
 _symmetry_equiv_pos_as_xyz
  1  'x, y, z'
loop_
 _atom_site_type_symbol
 _atom_site_label
 _atom_site_symmetry_multiplicity
 _atom_site_fract_x
 _atom_site_fract_y
 _atom_site_fract_z
 _atom_site_occupancy
  Lu  Lu0  1  0.500000  0.500000  0.000000  1
  Lu  Lu1  1  0.803780  0.285005  0.827103  1
  Lu  Lu2  1  0.196220  0.714995  0.172897  1
  Lu  Lu3  1  0.457902  0.976677  0.172897  1
  Lu  Lu4  1  0.285005  0.457902  0.481225  1
  Lu  Lu5  1  0.023323  0.196220  0.481225  1
  Lu  Lu6  1  0.542098  0.023323  0.827103  1
  Lu  Lu7  1  0.714995  0.542098  0.518775  1
  Lu  Lu8  1  0.976677  0.803780  0.518775  1
  Cd  Cd9  1  0.000000  0.000000  0.000000  1
  Ni  Ni10  1  0.131843  0.620120  0.751963  1
  Ni  Ni11  1  0.868157  0.379880  0.248037  1
  Ni  Ni12  1  0.620120  0.868157  0.488277  1
  Ni  Ni13  1  0.379880  0.131843  0.511723  1
  Sb  Sb14  1  0.260549  0.260549  0.000000  1
  Sb  Sb15  1  0.739451  0.739451  0.000000  1
