# generated using pymatgen
data_V4Ga2O13
_symmetry_space_group_name_H-M   'P 1'
_cell_length_a   9.34111500
_cell_length_b   8.28192051
_cell_length_c   14.51105800
_cell_angle_alpha   77.22614922
_cell_angle_beta   90.00000000
_cell_angle_gamma   90.00000000
_symmetry_Int_Tables_number   1
_chemical_formula_structural   V4Ga2O13
_chemical_formula_sum   'V16 Ga8 O52'
_cell_volume   1094.82568127
_cell_formula_units_Z   4
loop_
 _symmetry_equiv_pos_site_id
 _symmetry_equiv_pos_as_xyz
  1  'x, y, z'
loop_
 _atom_site_type_symbol
 _atom_site_label
 _atom_site_symmetry_multiplicity
 _atom_site_fract_x
 _atom_site_fract_y
 _atom_site_fract_z
 _atom_site_occupancy
  V  V0  1  0.278432  0.748201  0.671438  1
  V  V1  1  0.739805  0.854200  0.322175  1
  V  V2  1  0.721568  0.251799  0.328562  1
  V  V3  1  0.260195  0.145800  0.677825  1
  V  V4  1  0.239805  0.145800  0.177825  1
  V  V5  1  0.793540  0.955902  0.091361  1
  V  V6  1  0.293540  0.044098  0.408639  1
  V  V7  1  0.760195  0.854200  0.822175  1
  V  V8  1  0.288814  0.528015  0.905865  1
  V  V9  1  0.706460  0.955902  0.591361  1
  V  V10  1  0.711186  0.471985  0.094135  1
  V  V11  1  0.206460  0.044098  0.908639  1
  V  V12  1  0.778432  0.251799  0.828562  1
  V  V13  1  0.211186  0.528015  0.405865  1
  V  V14  1  0.221568  0.748201  0.171438  1
  V  V15  1  0.788814  0.471985  0.594135  1
  Ga  Ga16  1  0.498589  0.693462  0.480248  1
  Ga  Ga17  1  0.498889  0.810400  0.006825  1
  Ga  Ga18  1  0.501111  0.189600  0.993175  1
  Ga  Ga19  1  0.501411  0.306538  0.519752  1
  Ga  Ga20  1  0.998889  0.189600  0.493175  1
  Ga  Ga21  1  0.001411  0.693462  0.980248  1
  Ga  Ga22  1  0.001111  0.810400  0.506825  1
  Ga  Ga23  1  0.998589  0.306538  0.019752  1
  O  O24  1  0.840434  0.055510  0.808807  1
  O  O25  1  0.358303  0.335471  0.924127  1
  O  O26  1  0.137322  0.854954  0.906084  1
  O  O27  1  0.613036  0.869190  0.514930  1
  O  O28  1  0.609183  0.316190  0.403333  1
  O  O29  1  0.723534  0.398231  0.219048  1
  O  O30  1  0.659566  0.055510  0.308807  1
  O  O31  1  0.612596  0.226184  0.875091  1
  O  O32  1  0.110536  0.647476  0.460534  1
  O  O33  1  0.113509  0.158542  0.609580  1
  O  O34  1  0.886491  0.841458  0.390420  1
  O  O35  1  0.389464  0.647476  0.960534  1
  O  O36  1  0.204227  0.173153  0.791566  1
  O  O37  1  0.362678  0.854954  0.406084  1
  O  O38  1  0.223534  0.601769  0.280952  1
  O  O39  1  0.109183  0.683810  0.096667  1
  O  O40  1  0.704227  0.826847  0.708434  1
  O  O41  1  0.776466  0.398231  0.719048  1
  O  O42  1  0.612779  0.496017  0.547511  1
  O  O43  1  0.889464  0.352524  0.539466  1
  O  O44  1  0.340434  0.944490  0.691193  1
  O  O45  1  0.159566  0.944490  0.191193  1
  O  O46  1  0.295773  0.173153  0.291566  1
  O  O47  1  0.616836  0.707600  0.367629  1
  O  O48  1  0.886964  0.869190  0.014930  1
  O  O49  1  0.386491  0.158542  0.109580  1
  O  O50  1  0.386964  0.130810  0.485070  1
  O  O51  1  0.614979  0.993074  0.048608  1
  O  O52  1  0.858303  0.664529  0.575873  1
  O  O53  1  0.112779  0.503983  0.952489  1
  O  O54  1  0.887404  0.226184  0.375091  1
  O  O55  1  0.114979  0.006926  0.451392  1
  O  O56  1  0.885021  0.993074  0.548608  1
  O  O57  1  0.390817  0.683810  0.596667  1
  O  O58  1  0.883164  0.707600  0.867629  1
  O  O59  1  0.613509  0.841458  0.890420  1
  O  O60  1  0.385021  0.006926  0.951392  1
  O  O61  1  0.112596  0.773816  0.624909  1
  O  O62  1  0.887221  0.496017  0.047511  1
  O  O63  1  0.610536  0.352524  0.039466  1
  O  O64  1  0.141697  0.335471  0.424127  1
  O  O65  1  0.276466  0.601769  0.780952  1
  O  O66  1  0.113036  0.130810  0.985070  1
  O  O67  1  0.383164  0.292400  0.632371  1
  O  O68  1  0.387221  0.503983  0.452489  1
  O  O69  1  0.795773  0.826847  0.208434  1
  O  O70  1  0.637322  0.145046  0.593916  1
  O  O71  1  0.116836  0.292400  0.132371  1
  O  O72  1  0.862678  0.145046  0.093916  1
  O  O73  1  0.387404  0.773816  0.124909  1
  O  O74  1  0.890817  0.316190  0.903333  1
  O  O75  1  0.641697  0.664529  0.075873  1
