# generated using pymatgen
data_Er6ScZn22As
_symmetry_space_group_name_H-M   'P 1'
_cell_length_a   9.05857707
_cell_length_b   9.05854952
_cell_length_c   9.05847000
_cell_angle_alpha   60.00050220
_cell_angle_beta   60.00031796
_cell_angle_gamma   59.99978784
_symmetry_Int_Tables_number   1
_chemical_formula_structural   Er6ScZn22As
_chemical_formula_sum   'Er6 Sc1 Zn22 As1'
_cell_volume   525.60621829
_cell_formula_units_Z   1
loop_
 _symmetry_equiv_pos_site_id
 _symmetry_equiv_pos_as_xyz
  1  'x, y, z'
loop_
 _atom_site_type_symbol
 _atom_site_label
 _atom_site_symmetry_multiplicity
 _atom_site_fract_x
 _atom_site_fract_y
 _atom_site_fract_z
 _atom_site_occupancy
  Er  Er0  1  0.716020  0.283957  0.283994  1
  Er  Er1  1  0.716052  0.283980  0.716007  1
  Er  Er2  1  0.716006  0.716001  0.284023  1
  Er  Er3  1  0.283980  0.716043  0.716006  1
  Er  Er4  1  0.283948  0.716020  0.283993  1
  Er  Er5  1  0.283994  0.283999  0.715977  1
  Sc  Sc6  1  0.000000  0.000000  0.000000  1
  Zn  Zn7  1  0.616907  0.127699  0.127694  1
  Zn  Zn8  1  0.127692  0.616916  0.127692  1
  Zn  Zn9  1  0.127689  0.127691  0.616916  1
  Zn  Zn10  1  0.127696  0.127697  0.127702  1
  Zn  Zn11  1  0.383093  0.872301  0.872306  1
  Zn  Zn12  1  0.872308  0.383084  0.872308  1
  Zn  Zn13  1  0.872311  0.872309  0.383084  1
  Zn  Zn14  1  0.872304  0.872303  0.872298  1
  Zn  Zn15  1  0.500000  0.000000  0.000000  1
  Zn  Zn16  1  0.500000  0.000000  0.500000  1
  Zn  Zn17  1  0.500000  0.500000  0.000000  1
  Zn  Zn18  1  0.000000  0.500000  0.500000  1
  Zn  Zn19  1  0.000000  0.500000  0.000000  1
  Zn  Zn20  1  0.000000  0.000000  0.500000  1
  Zn  Zn21  1  0.009923  0.330032  0.330021  1
  Zn  Zn22  1  0.330031  0.009921  0.330026  1
  Zn  Zn23  1  0.330015  0.330018  0.009930  1
  Zn  Zn24  1  0.330019  0.330018  0.330040  1
  Zn  Zn25  1  0.990077  0.669968  0.669979  1
  Zn  Zn26  1  0.669969  0.990079  0.669974  1
  Zn  Zn27  1  0.669985  0.669982  0.990070  1
  Zn  Zn28  1  0.669981  0.669982  0.669960  1
  As  As29  1  0.500000  0.500000  0.500000  1
