# generated using pymatgen
data_La3Ta(Co4P3)2
_symmetry_space_group_name_H-M   'P 1'
_cell_length_a   3.79628100
_cell_length_b   10.81301900
_cell_length_c   12.55670300
_cell_angle_alpha   90.00000000
_cell_angle_beta   90.00000000
_cell_angle_gamma   90.00000000
_symmetry_Int_Tables_number   1
_chemical_formula_structural   La3Ta(Co4P3)2
_chemical_formula_sum   'La6 Ta2 Co16 P12'
_cell_volume   515.44334839
_cell_formula_units_Z   2
loop_
 _symmetry_equiv_pos_site_id
 _symmetry_equiv_pos_as_xyz
  1  'x, y, z'
loop_
 _atom_site_type_symbol
 _atom_site_label
 _atom_site_symmetry_multiplicity
 _atom_site_fract_x
 _atom_site_fract_y
 _atom_site_fract_z
 _atom_site_occupancy
  La  La0  1  0.000000  0.500000  0.527899  1
  La  La1  1  0.500000  0.000000  0.472101  1
  La  La2  1  0.500000  0.821216  0.206169  1
  La  La3  1  0.500000  0.178784  0.206169  1
  La  La4  1  0.000000  0.678784  0.793831  1
  La  La5  1  0.000000  0.321216  0.793831  1
  Ta  Ta6  1  0.500000  0.500000  0.152285  1
  Ta  Ta7  1  0.000000  0.000000  0.847715  1
  Co  Co8  1  0.500000  0.500000  0.704022  1
  Co  Co9  1  0.000000  0.000000  0.295978  1
  Co  Co10  1  0.000000  0.500000  0.988853  1
  Co  Co11  1  0.500000  0.000000  0.011147  1
  Co  Co12  1  0.500000  0.332630  0.994262  1
  Co  Co13  1  0.500000  0.667370  0.994262  1
  Co  Co14  1  0.000000  0.167370  0.005738  1
  Co  Co15  1  0.000000  0.832630  0.005738  1
  Co  Co16  1  0.500000  0.296979  0.431621  1
  Co  Co17  1  0.500000  0.703021  0.431621  1
  Co  Co18  1  0.000000  0.203021  0.568379  1
  Co  Co19  1  0.000000  0.796979  0.568379  1
  Co  Co20  1  0.500000  0.881469  0.707698  1
  Co  Co21  1  0.500000  0.118531  0.707698  1
  Co  Co22  1  0.000000  0.618531  0.292302  1
  Co  Co23  1  0.000000  0.381469  0.292302  1
  P  P24  1  0.500000  0.500000  0.889173  1
  P  P25  1  0.000000  0.000000  0.110827  1
  P  P26  1  0.500000  0.500000  0.349817  1
  P  P27  1  0.000000  0.000000  0.650183  1
  P  P28  1  0.500000  0.301971  0.612588  1
  P  P29  1  0.500000  0.698029  0.612588  1
  P  P30  1  0.000000  0.198029  0.387412  1
  P  P31  1  0.000000  0.801971  0.387412  1
  P  P32  1  0.500000  0.843820  0.896449  1
  P  P33  1  0.500000  0.156180  0.896449  1
  P  P34  1  0.000000  0.656180  0.103551  1
  P  P35  1  0.000000  0.343820  0.103551  1
