# generated using pymatgen
data_Sc10Ga8NiPt3
_symmetry_space_group_name_H-M   'P 1'
_cell_length_a   3.29909300
_cell_length_b   7.43364522
_cell_length_c   16.71617370
_cell_angle_alpha   89.96662555
_cell_angle_beta   90.00000000
_cell_angle_gamma   90.00000000
_symmetry_Int_Tables_number   1
_chemical_formula_structural   Sc10Ga8NiPt3
_chemical_formula_sum   'Sc10 Ga8 Ni1 Pt3'
_cell_volume   409.95217032
_cell_formula_units_Z   1
loop_
 _symmetry_equiv_pos_site_id
 _symmetry_equiv_pos_as_xyz
  1  'x, y, z'
loop_
 _atom_site_type_symbol
 _atom_site_label
 _atom_site_symmetry_multiplicity
 _atom_site_fract_x
 _atom_site_fract_y
 _atom_site_fract_z
 _atom_site_occupancy
  Sc  Sc0  1  0.500000  0.500061  0.498267  1
  Sc  Sc1  1  0.500000  0.000543  0.002102  1
  Sc  Sc2  1  0.500000  0.877737  0.420683  1
  Sc  Sc3  1  0.500000  0.123096  0.576287  1
  Sc  Sc4  1  0.500000  0.621632  0.924818  1
  Sc  Sc5  1  0.500000  0.382690  0.083886  1
  Sc  Sc6  1  0.500000  0.276611  0.280084  1
  Sc  Sc7  1  0.500000  0.730908  0.713358  1
  Sc  Sc8  1  0.500000  0.230077  0.787523  1
  Sc  Sc9  1  0.500000  0.755125  0.215233  1
  Ga  Ga10  1  0.000000  0.210410  0.430279  1
  Ga  Ga11  1  0.000000  0.791872  0.564784  1
  Ga  Ga12  1  0.000000  0.292797  0.936518  1
  Ga  Ga13  1  0.000000  0.706121  0.070413  1
  Ga  Ga14  1  0.000000  0.584259  0.347115  1
  Ga  Ga15  1  0.000000  0.412588  0.648694  1
  Ga  Ga16  1  0.000000  0.911092  0.852388  1
  Ga  Ga17  1  0.000000  0.088293  0.149426  1
  Ni  Ni18  1  0.000000  0.478794  0.193681  1
  Pt  Pt19  1  0.000000  0.978428  0.303268  1
  Pt  Pt20  1  0.000000  0.023786  0.694301  1
  Pt  Pt21  1  0.000000  0.523083  0.806892  1
