# generated using pymatgen
data_Ac2TbPr(Zn5Sn)2
_symmetry_space_group_name_H-M   'P 1'
_cell_length_a   8.66073264
_cell_length_b   8.66073320
_cell_length_c   9.20570300
_cell_angle_alpha   90.00000000
_cell_angle_beta   90.00000000
_cell_angle_gamma   149.35117767
_symmetry_Int_Tables_number   1
_chemical_formula_structural   Ac2TbPr(Zn5Sn)2
_chemical_formula_sum   'Ac2 Tb1 Pr1 Zn10 Sn2'
_cell_volume   352.00149715
_cell_formula_units_Z   1
loop_
 _symmetry_equiv_pos_site_id
 _symmetry_equiv_pos_as_xyz
  1  'x, y, z'
loop_
 _atom_site_type_symbol
 _atom_site_label
 _atom_site_symmetry_multiplicity
 _atom_site_fract_x
 _atom_site_fract_y
 _atom_site_fract_z
 _atom_site_occupancy
  Ac  Ac0  1  0.000550  0.999450  0.499043  1
  Ac  Ac1  1  0.000550  0.999450  0.000957  1
  Tb  Tb2  1  0.208410  0.791590  0.250000  1
  Pr  Pr3  1  0.792446  0.207554  0.750000  1
  Zn  Zn4  1  0.810830  0.189170  0.387397  1
  Zn  Zn5  1  0.187933  0.812067  0.609064  1
  Zn  Zn6  1  0.810830  0.189170  0.112603  1
  Zn  Zn7  1  0.187933  0.812067  0.890936  1
  Zn  Zn8  1  0.660658  0.339342  0.484436  1
  Zn  Zn9  1  0.339177  0.660823  0.512352  1
  Zn  Zn10  1  0.660658  0.339342  0.015564  1
  Zn  Zn11  1  0.339177  0.660823  0.987648  1
  Zn  Zn12  1  0.396007  0.603993  0.250000  1
  Zn  Zn13  1  0.603231  0.396769  0.750000  1
  Sn  Sn14  1  0.563762  0.436238  0.250000  1
  Sn  Sn15  1  0.437847  0.562153  0.750000  1
