# generated using pymatgen
data_K3Pr(U2Se5)4
_symmetry_space_group_name_H-M   'P 1'
_cell_length_a   7.79399452
_cell_length_b   8.71501469
_cell_length_c   12.22731826
_cell_angle_alpha   89.80053146
_cell_angle_beta   90.02137368
_cell_angle_gamma   90.05965255
_symmetry_Int_Tables_number   1
_chemical_formula_structural   K3Pr(U2Se5)4
_chemical_formula_sum   'K3 Pr1 U8 Se20'
_cell_volume   830.53232325
_cell_formula_units_Z   1
loop_
 _symmetry_equiv_pos_site_id
 _symmetry_equiv_pos_as_xyz
  1  'x, y, z'
loop_
 _atom_site_type_symbol
 _atom_site_label
 _atom_site_symmetry_multiplicity
 _atom_site_fract_x
 _atom_site_fract_y
 _atom_site_fract_z
 _atom_site_occupancy
  K  K0  1  0.553632  0.508290  0.165332  1
  K  K1  1  0.948732  0.507195  0.673476  1
  K  K2  1  0.449852  0.490977  0.825265  1
  Pr  Pr3  1  0.051533  0.496913  0.338416  1
  U  U4  1  0.023980  0.999806  0.319252  1
  U  U5  1  0.517293  0.999339  0.180720  1
  U  U6  1  0.975559  0.001438  0.681570  1
  U  U7  1  0.474050  0.999131  0.818203  1
  U  U8  1  0.072226  0.748590  0.008690  1
  U  U9  1  0.574546  0.250579  0.485760  1
  U  U10  1  0.926482  0.248523  0.994786  1
  U  U11  1  0.432175  0.755990  0.509544  1
  Se  Se12  1  0.664909  0.954688  0.401488  1
  Se  Se13  1  0.161914  0.043376  0.097090  1
  Se  Se14  1  0.334453  0.048372  0.592555  1
  Se  Se15  1  0.835753  0.954098  0.905492  1
  Se  Se16  1  0.450696  0.790262  0.002426  1
  Se  Se17  1  0.957302  0.216047  0.493951  1
  Se  Se18  1  0.548344  0.207209  0.999304  1
  Se  Se19  1  0.047353  0.786167  0.498355  1
  Se  Se20  1  0.847874  0.772409  0.192700  1
  Se  Se21  1  0.328082  0.219567  0.311814  1
  Se  Se22  1  0.163013  0.213006  0.816803  1
  Se  Se23  1  0.665263  0.787217  0.686037  1
  Se  Se24  1  0.307095  0.765832  0.286928  1
  Se  Se25  1  0.811987  0.233023  0.221612  1
  Se  Se26  1  0.689818  0.220736  0.710172  1
  Se  Se27  1  0.191692  0.777775  0.782517  1
  Se  Se28  1  0.159274  0.460975  0.097713  1
  Se  Se29  1  0.691884  0.543423  0.426845  1
  Se  Se30  1  0.831953  0.540161  0.925228  1
  Se  Se31  1  0.311280  0.458886  0.549956  1
