# generated using pymatgen
data_Ca2Sm2Zn5Pt9
_symmetry_space_group_name_H-M   'P 1'
_cell_length_a   5.44790779
_cell_length_b   5.44790936
_cell_length_c   12.93563500
_cell_angle_alpha   77.84380408
_cell_angle_beta   77.84378975
_cell_angle_gamma   59.99999115
_symmetry_Int_Tables_number   1
_chemical_formula_structural   Ca2Sm2Zn5Pt9
_chemical_formula_sum   'Ca2 Sm2 Zn5 Pt9'
_cell_volume   322.51074376
_cell_formula_units_Z   1
loop_
 _symmetry_equiv_pos_site_id
 _symmetry_equiv_pos_as_xyz
  1  'x, y, z'
loop_
 _atom_site_type_symbol
 _atom_site_label
 _atom_site_symmetry_multiplicity
 _atom_site_fract_x
 _atom_site_fract_y
 _atom_site_fract_z
 _atom_site_occupancy
  Ca  Ca0  1  0.953934  0.953934  0.138782  1
  Ca  Ca1  1  0.046066  0.046066  0.861218  1
  Sm  Sm2  1  0.853150  0.853150  0.436596  1
  Sm  Sm3  1  0.146850  0.146850  0.563404  1
  Zn  Zn4  1  0.500000  0.500000  0.500000  1
  Zn  Zn5  1  0.721239  0.721239  0.833139  1
  Zn  Zn6  1  0.278761  0.278761  0.166861  1
  Zn  Zn7  1  0.609745  0.609745  0.167212  1
  Zn  Zn8  1  0.390255  0.390255  0.832788  1
  Pt  Pt9  1  0.000000  0.500000  0.000000  1
  Pt  Pt10  1  0.500000  0.000000  0.000000  1
  Pt  Pt11  1  0.500000  0.500000  0.000000  1
  Pt  Pt12  1  0.386544  0.386544  0.334687  1
  Pt  Pt13  1  0.891113  0.386852  0.333770  1
  Pt  Pt14  1  0.386852  0.891113  0.333770  1
  Pt  Pt15  1  0.613456  0.613456  0.665313  1
  Pt  Pt16  1  0.108887  0.613148  0.666230  1
  Pt  Pt17  1  0.613148  0.108887  0.666230  1
