# generated using pymatgen
data_Y3Tm4Lu9(CdPt)4
_symmetry_space_group_name_H-M   'P 1'
_cell_length_a   9.54920743
_cell_length_b   9.54931291
_cell_length_c   9.53784462
_cell_angle_alpha   60.03898687
_cell_angle_beta   59.95923909
_cell_angle_gamma   59.92092499
_symmetry_Int_Tables_number   1
_chemical_formula_structural   Y3Tm4Lu9(CdPt)4
_chemical_formula_sum   'Y3 Tm4 Lu9 Cd4 Pt4'
_cell_volume   614.62220856
_cell_formula_units_Z   1
loop_
 _symmetry_equiv_pos_site_id
 _symmetry_equiv_pos_as_xyz
  1  'x, y, z'
loop_
 _atom_site_type_symbol
 _atom_site_label
 _atom_site_symmetry_multiplicity
 _atom_site_fract_x
 _atom_site_fract_y
 _atom_site_fract_z
 _atom_site_occupancy
  Y  Y0  1  0.936693  0.563307  0.936693  1
  Y  Y1  1  0.564323  0.566383  0.933839  1
  Y  Y2  1  0.933839  0.935455  0.564323  1
  Tm  Tm3  1  0.352936  0.350604  0.353494  1
  Tm  Tm4  1  0.355994  0.352570  0.938653  1
  Tm  Tm5  1  0.353494  0.942966  0.352936  1
  Tm  Tm6  1  0.938653  0.352784  0.355994  1
  Lu  Lu7  1  0.811081  0.187894  0.189814  1
  Lu  Lu8  1  0.189814  0.811210  0.811081  1
  Lu  Lu9  1  0.189539  0.810461  0.189539  1
  Lu  Lu10  1  0.811970  0.188030  0.811970  1
  Lu  Lu11  1  0.189935  0.187741  0.811035  1
  Lu  Lu12  1  0.811035  0.811289  0.189935  1
  Lu  Lu13  1  0.936592  0.563452  0.561638  1
  Lu  Lu14  1  0.561638  0.938318  0.936592  1
  Lu  Lu15  1  0.564270  0.935730  0.564270  1
  Cd  Cd16  1  0.582159  0.583457  0.580667  1
  Cd  Cd17  1  0.580684  0.582717  0.254687  1
  Cd  Cd18  1  0.580667  0.253718  0.582159  1
  Cd  Cd19  1  0.254687  0.581913  0.580684  1
  Pt  Pt20  1  0.143768  0.143781  0.142201  1
  Pt  Pt21  1  0.142236  0.143648  0.571792  1
  Pt  Pt22  1  0.142201  0.570250  0.143768  1
  Pt  Pt23  1  0.571792  0.142324  0.142236  1
