# generated using pymatgen
data_TbZr3(Co5As3)4
_symmetry_space_group_name_H-M   'P 1'
_cell_length_a   3.73669000
_cell_length_b   12.09279820
_cell_length_c   10.59422704
_cell_angle_alpha   90.05095783
_cell_angle_beta   90.00000000
_cell_angle_gamma   90.00000000
_symmetry_Int_Tables_number   1
_chemical_formula_structural   TbZr3(Co5As3)4
_chemical_formula_sum   'Tb1 Zr3 Co20 As12'
_cell_volume   478.72155179
_cell_formula_units_Z   1
loop_
 _symmetry_equiv_pos_site_id
 _symmetry_equiv_pos_as_xyz
  1  'x, y, z'
loop_
 _atom_site_type_symbol
 _atom_site_label
 _atom_site_symmetry_multiplicity
 _atom_site_fract_x
 _atom_site_fract_y
 _atom_site_fract_z
 _atom_site_occupancy
  Tb  Tb0  1  0.750000  0.703680  0.082348  1
  Zr  Zr1  1  0.250000  0.299181  0.920462  1
  Zr  Zr2  1  0.250000  0.798426  0.579091  1
  Zr  Zr3  1  0.750000  0.201426  0.420731  1
  Co  Co4  1  0.750000  0.697438  0.388267  1
  Co  Co5  1  0.250000  0.301352  0.613572  1
  Co  Co6  1  0.250000  0.804169  0.882730  1
  Co  Co7  1  0.750000  0.198467  0.114875  1
  Co  Co8  1  0.750000  0.992430  0.216013  1
  Co  Co9  1  0.250000  0.007582  0.783228  1
  Co  Co10  1  0.250000  0.504890  0.716135  1
  Co  Co11  1  0.750000  0.491836  0.285134  1
  Co  Co12  1  0.750000  0.679326  0.782612  1
  Co  Co13  1  0.250000  0.319320  0.217366  1
  Co  Co14  1  0.250000  0.821187  0.285195  1
  Co  Co15  1  0.750000  0.179402  0.715728  1
  Co  Co16  1  0.750000  0.934550  0.967053  1
  Co  Co17  1  0.250000  0.072718  0.029313  1
  Co  Co18  1  0.250000  0.568657  0.472340  1
  Co  Co19  1  0.750000  0.429391  0.530253  1
  Co  Co20  1  0.750000  0.986747  0.590236  1
  Co  Co21  1  0.250000  0.013448  0.409410  1
  Co  Co22  1  0.250000  0.509133  0.090231  1
  Co  Co23  1  0.750000  0.484510  0.906998  1
  As  As24  1  0.750000  0.614679  0.586482  1
  As  As25  1  0.250000  0.384148  0.414452  1
  As  As26  1  0.250000  0.889240  0.085475  1
  As  As27  1  0.750000  0.117744  0.913864  1
  As  As28  1  0.750000  0.888555  0.400873  1
  As  As29  1  0.250000  0.110858  0.598810  1
  As  As30  1  0.250000  0.610340  0.899113  1
  As  As31  1  0.750000  0.388679  0.099297  1
  As  As32  1  0.750000  0.870733  0.765375  1
  As  As33  1  0.250000  0.128872  0.234251  1
  As  As34  1  0.250000  0.627372  0.269792  1
  As  As35  1  0.750000  0.369515  0.732897  1
