# generated using pymatgen
data_HoEr(Lu2Os)2
_symmetry_space_group_name_H-M   'P 1'
_cell_length_a   6.21259100
_cell_length_b   7.39249700
_cell_length_c   8.83274900
_cell_angle_alpha   90.00000000
_cell_angle_beta   90.00000000
_cell_angle_gamma   90.00000000
_symmetry_Int_Tables_number   1
_chemical_formula_structural   HoEr(Lu2Os)2
_chemical_formula_sum   'Ho2 Er2 Lu8 Os4'
_cell_volume   405.65777983
_cell_formula_units_Z   2
loop_
 _symmetry_equiv_pos_site_id
 _symmetry_equiv_pos_as_xyz
  1  'x, y, z'
loop_
 _atom_site_type_symbol
 _atom_site_label
 _atom_site_symmetry_multiplicity
 _atom_site_fract_x
 _atom_site_fract_y
 _atom_site_fract_z
 _atom_site_occupancy
  Ho  Ho0  1  0.127811  0.460204  0.750000  1
  Ho  Ho1  1  0.372189  0.960204  0.750000  1
  Er  Er2  1  0.872343  0.539970  0.250000  1
  Er  Er3  1  0.627657  0.039970  0.250000  1
  Lu  Lu4  1  0.336746  0.673628  0.062717  1
  Lu  Lu5  1  0.163254  0.173628  0.437283  1
  Lu  Lu6  1  0.663145  0.326373  0.562309  1
  Lu  Lu7  1  0.836855  0.826373  0.937691  1
  Lu  Lu8  1  0.663145  0.326373  0.937691  1
  Lu  Lu9  1  0.836855  0.826373  0.562309  1
  Lu  Lu10  1  0.336746  0.673628  0.437283  1
  Lu  Lu11  1  0.163254  0.173628  0.062717  1
  Os  Os12  1  0.042868  0.881499  0.250000  1
  Os  Os13  1  0.457132  0.381499  0.250000  1
  Os  Os14  1  0.957763  0.118326  0.750000  1
  Os  Os15  1  0.542237  0.618326  0.750000  1
