# generated using pymatgen
data_Pr4ZnSi8Pt7
_symmetry_space_group_name_H-M   'P 1'
_cell_length_a   4.26292718
_cell_length_b   8.60687998
_cell_length_c   9.86714600
_cell_angle_alpha   89.97504966
_cell_angle_beta   89.98334725
_cell_angle_gamma   90.04911457
_symmetry_Int_Tables_number   1
_chemical_formula_structural   Pr4ZnSi8Pt7
_chemical_formula_sum   'Pr4 Zn1 Si8 Pt7'
_cell_volume   362.03036329
_cell_formula_units_Z   1
loop_
 _symmetry_equiv_pos_site_id
 _symmetry_equiv_pos_as_xyz
  1  'x, y, z'
loop_
 _atom_site_type_symbol
 _atom_site_label
 _atom_site_symmetry_multiplicity
 _atom_site_fract_x
 _atom_site_fract_y
 _atom_site_fract_z
 _atom_site_occupancy
  Pr  Pr0  1  0.750974  0.625154  0.753939  1
  Pr  Pr1  1  0.749550  0.125049  0.753116  1
  Pr  Pr2  1  0.251323  0.876853  0.246634  1
  Pr  Pr3  1  0.248185  0.372881  0.246414  1
  Zn  Zn4  1  0.246274  0.126134  0.503084  1
  Si  Si5  1  0.747394  0.375516  0.001970  1
  Si  Si6  1  0.747052  0.124561  0.363846  1
  Si  Si7  1  0.254866  0.871102  0.634662  1
  Si  Si8  1  0.251137  0.625203  0.998592  1
  Si  Si9  1  0.752680  0.874312  0.001769  1
  Si  Si10  1  0.246800  0.379707  0.635316  1
  Si  Si11  1  0.249144  0.124956  0.997035  1
  Si  Si12  1  0.751063  0.624585  0.365870  1
  Pt  Pt13  1  0.247906  0.375932  0.881245  1
  Pt  Pt14  1  0.750908  0.624907  0.119634  1
  Pt  Pt15  1  0.756013  0.872578  0.500194  1
  Pt  Pt16  1  0.746021  0.376549  0.500354  1
  Pt  Pt17  1  0.749166  0.124730  0.117367  1
  Pt  Pt18  1  0.251234  0.624885  0.498162  1
  Pt  Pt19  1  0.252314  0.874408  0.880799  1
