# generated using pymatgen
data_Ho2Er2ScPb4
_symmetry_space_group_name_H-M   'P 1'
_cell_length_a   8.05231700
_cell_length_b   15.47347800
_cell_length_c   8.15729400
_cell_angle_alpha   90.00000000
_cell_angle_beta   90.00000000
_cell_angle_gamma   90.00000000
_symmetry_Int_Tables_number   1
_chemical_formula_structural   Ho2Er2ScPb4
_chemical_formula_sum   'Ho8 Er8 Sc4 Pb16'
_cell_volume   1016.37721515
_cell_formula_units_Z   4
loop_
 _symmetry_equiv_pos_site_id
 _symmetry_equiv_pos_as_xyz
  1  'x, y, z'
loop_
 _atom_site_type_symbol
 _atom_site_label
 _atom_site_symmetry_multiplicity
 _atom_site_fract_x
 _atom_site_fract_y
 _atom_site_fract_z
 _atom_site_occupancy
  Ho  Ho0  1  0.471380  0.596276  0.676992  1
  Ho  Ho1  1  0.971380  0.903724  0.823008  1
  Ho  Ho2  1  0.528620  0.096276  0.323008  1
  Ho  Ho3  1  0.028620  0.403724  0.176992  1
  Ho  Ho4  1  0.528620  0.403724  0.323008  1
  Ho  Ho5  1  0.028620  0.096276  0.176992  1
  Ho  Ho6  1  0.471380  0.903724  0.676992  1
  Ho  Ho7  1  0.971380  0.596276  0.823008  1
  Er  Er8  1  0.631578  0.623381  0.155533  1
  Er  Er9  1  0.131578  0.876619  0.344467  1
  Er  Er10  1  0.368422  0.123381  0.844467  1
  Er  Er11  1  0.868422  0.376619  0.655533  1
  Er  Er12  1  0.368422  0.376619  0.844467  1
  Er  Er13  1  0.868422  0.123381  0.655533  1
  Er  Er14  1  0.631578  0.876619  0.155533  1
  Er  Er15  1  0.131578  0.623381  0.344467  1
  Sc  Sc16  1  0.798380  0.750000  0.494735  1
  Sc  Sc17  1  0.298380  0.750000  0.005265  1
  Sc  Sc18  1  0.201620  0.250000  0.505265  1
  Sc  Sc19  1  0.701620  0.250000  0.994735  1
  Pb  Pb20  1  0.708826  0.455962  0.959951  1
  Pb  Pb21  1  0.208826  0.044038  0.540049  1
  Pb  Pb22  1  0.291174  0.955962  0.040049  1
  Pb  Pb23  1  0.791174  0.544038  0.459951  1
  Pb  Pb24  1  0.291174  0.544038  0.040049  1
  Pb  Pb25  1  0.791174  0.955962  0.459951  1
  Pb  Pb26  1  0.708826  0.044038  0.959951  1
  Pb  Pb27  1  0.208826  0.455962  0.540049  1
  Pb  Pb28  1  0.439541  0.750000  0.372893  1
  Pb  Pb29  1  0.939541  0.750000  0.127107  1
  Pb  Pb30  1  0.560459  0.250000  0.627107  1
  Pb  Pb31  1  0.060459  0.250000  0.872893  1
  Pb  Pb32  1  0.657505  0.750000  0.841575  1
  Pb  Pb33  1  0.157505  0.750000  0.658425  1
  Pb  Pb34  1  0.342495  0.250000  0.158425  1
  Pb  Pb35  1  0.842495  0.250000  0.341575  1
