# generated using pymatgen
data_Ti4Mo5Pt
_symmetry_space_group_name_H-M   'P 1'
_cell_length_a   4.44903527
_cell_length_b   8.25906718
_cell_length_c   4.45609100
_cell_angle_alpha   90.00000000
_cell_angle_beta   90.00000000
_cell_angle_gamma   74.34546040
_symmetry_Int_Tables_number   1
_chemical_formula_structural   Ti4Mo5Pt
_chemical_formula_sum   'Ti4 Mo5 Pt1'
_cell_volume   157.66484139
_cell_formula_units_Z   1
loop_
 _symmetry_equiv_pos_site_id
 _symmetry_equiv_pos_as_xyz
  1  'x, y, z'
loop_
 _atom_site_type_symbol
 _atom_site_label
 _atom_site_symmetry_multiplicity
 _atom_site_fract_x
 _atom_site_fract_y
 _atom_site_fract_z
 _atom_site_occupancy
  Ti  Ti0  1  0.083847  0.998695  0.000000  1
  Ti  Ti1  1  0.283263  0.601340  0.000000  1
  Ti  Ti2  1  0.584085  0.998039  0.500001  1
  Ti  Ti3  1  0.782486  0.601995  0.500001  1
  Mo  Mo4  1  0.480035  0.205944  0.000000  1
  Mo  Mo5  1  0.886178  0.393994  0.000000  1
  Mo  Mo6  1  0.683704  0.800058  0.000000  1
  Mo  Mo7  1  0.980235  0.205884  0.500001  1
  Mo  Mo8  1  0.385963  0.394060  0.500001  1
  Pt  Pt9  1  0.183381  0.799992  0.500001  1
