# generated using pymatgen
data_Cs4BiSb11Se20
_symmetry_space_group_name_H-M   'P 1'
_cell_length_a   4.12793300
_cell_length_b   12.35764979
_cell_length_c   23.01008404
_cell_angle_alpha   90.05011873
_cell_angle_beta   90.00000000
_cell_angle_gamma   90.00000000
_symmetry_Int_Tables_number   1
_chemical_formula_structural   Cs4BiSb11Se20
_chemical_formula_sum   'Cs4 Bi1 Sb11 Se20'
_cell_volume   1173.77961188
_cell_formula_units_Z   1
loop_
 _symmetry_equiv_pos_site_id
 _symmetry_equiv_pos_as_xyz
  1  'x, y, z'
loop_
 _atom_site_type_symbol
 _atom_site_label
 _atom_site_symmetry_multiplicity
 _atom_site_fract_x
 _atom_site_fract_y
 _atom_site_fract_z
 _atom_site_occupancy
  Cs  Cs0  1  0.250000  0.491648  0.211887  1
  Cs  Cs1  1  0.750000  0.508674  0.788423  1
  Cs  Cs2  1  0.750000  0.992573  0.288800  1
  Cs  Cs3  1  0.250000  0.010011  0.710276  1
  Bi  Bi4  1  0.250000  0.907509  0.930327  1
  Sb  Sb5  1  0.250000  0.367675  0.024140  1
  Sb  Sb6  1  0.750000  0.632459  0.976327  1
  Sb  Sb7  1  0.750000  0.863892  0.477630  1
  Sb  Sb8  1  0.250000  0.136263  0.522019  1
  Sb  Sb9  1  0.250000  0.811738  0.121981  1
  Sb  Sb10  1  0.750000  0.190454  0.878588  1
  Sb  Sb11  1  0.750000  0.310903  0.379698  1
  Sb  Sb12  1  0.250000  0.689521  0.620270  1
  Sb  Sb13  1  0.250000  0.593988  0.430057  1
  Sb  Sb14  1  0.750000  0.406530  0.569729  1
  Sb  Sb15  1  0.750000  0.093521  0.069142  1
  Se  Se16  1  0.250000  0.800264  0.392389  1
  Se  Se17  1  0.750000  0.200156  0.607324  1
  Se  Se18  1  0.750000  0.300955  0.108037  1
  Se  Se19  1  0.250000  0.688586  0.892443  1
  Se  Se20  1  0.250000  0.255709  0.306492  1
  Se  Se21  1  0.750000  0.744904  0.693415  1
  Se  Se22  1  0.750000  0.756234  0.194746  1
  Se  Se23  1  0.250000  0.246675  0.806016  1
  Se  Se24  1  0.250000  0.358993  0.481143  1
  Se  Se25  1  0.750000  0.641349  0.518698  1
  Se  Se26  1  0.750000  0.859043  0.020508  1
  Se  Se27  1  0.250000  0.138579  0.981154  1
  Se  Se28  1  0.250000  0.025964  0.151289  1
  Se  Se29  1  0.750000  0.977651  0.845952  1
  Se  Se30  1  0.750000  0.527297  0.349051  1
  Se  Se31  1  0.250000  0.472967  0.650809  1
  Se  Se32  1  0.250000  0.580524  0.061071  1
  Se  Se33  1  0.750000  0.416621  0.940460  1
  Se  Se34  1  0.750000  0.084346  0.439622  1
  Se  Se35  1  0.250000  0.915827  0.560086  1
