# generated using pymatgen
data_MnNb12Al8Ni3N4
_symmetry_space_group_name_H-M   'P 1'
_cell_length_a   8.21825563
_cell_length_b   8.21825623
_cell_length_c   8.21825600
_cell_angle_alpha   60.20234074
_cell_angle_beta   60.20233833
_cell_angle_gamma   60.20234622
_symmetry_Int_Tables_number   1
_chemical_formula_structural   MnNb12Al8Ni3N4
_chemical_formula_sum   'Mn1 Nb12 Al8 Ni3 N4'
_cell_volume   394.28409301
_cell_formula_units_Z   1
loop_
 _symmetry_equiv_pos_site_id
 _symmetry_equiv_pos_as_xyz
  1  'x, y, z'
loop_
 _atom_site_type_symbol
 _atom_site_label
 _atom_site_symmetry_multiplicity
 _atom_site_fract_x
 _atom_site_fract_y
 _atom_site_fract_z
 _atom_site_occupancy
  Mn  Mn0  1  0.625000  0.625000  0.625000  1
  Nb  Nb1  1  0.441201  0.441201  0.054179  1
  Nb  Nb2  1  0.063290  0.438249  0.063290  1
  Nb  Nb3  1  0.438249  0.063290  0.063290  1
  Nb  Nb4  1  0.063290  0.063290  0.438249  1
  Nb  Nb5  1  0.441201  0.054179  0.441201  1
  Nb  Nb6  1  0.054179  0.441201  0.441201  1
  Nb  Nb7  1  0.808799  0.808799  0.195821  1
  Nb  Nb8  1  0.186710  0.811751  0.186710  1
  Nb  Nb9  1  0.811751  0.186710  0.186710  1
  Nb  Nb10  1  0.186710  0.186710  0.811751  1
  Nb  Nb11  1  0.808799  0.195821  0.808799  1
  Nb  Nb12  1  0.195821  0.808799  0.808799  1
  Al  Al13  1  0.834047  0.834047  0.504480  1
  Al  Al14  1  0.834047  0.504480  0.834047  1
  Al  Al15  1  0.504480  0.834047  0.834047  1
  Al  Al16  1  0.834511  0.834511  0.834511  1
  Al  Al17  1  0.415953  0.415953  0.745520  1
  Al  Al18  1  0.415953  0.745520  0.415953  1
  Al  Al19  1  0.745520  0.415953  0.415953  1
  Al  Al20  1  0.415489  0.415489  0.415489  1
  Ni  Ni21  1  0.625000  0.625000  0.125000  1
  Ni  Ni22  1  0.625000  0.125000  0.625000  1
  Ni  Ni23  1  0.125000  0.625000  0.625000  1
  N  N24  1  0.125000  0.125000  0.625000  1
  N  N25  1  0.125000  0.625000  0.125000  1
  N  N26  1  0.625000  0.125000  0.125000  1
  N  N27  1  0.125000  0.125000  0.125000  1
