# generated using pymatgen
data_YbEr2(AlIr2)3
_symmetry_space_group_name_H-M   'P 1'
_cell_length_a   5.56275000
_cell_length_b   5.56265006
_cell_length_c   15.78752100
_cell_angle_alpha   90.00000000
_cell_angle_beta   90.00000000
_cell_angle_gamma   119.99911955
_symmetry_Int_Tables_number   1
_chemical_formula_structural   YbEr2(AlIr2)3
_chemical_formula_sum   'Yb2 Er4 Al6 Ir12'
_cell_volume   423.07728415
_cell_formula_units_Z   2
loop_
 _symmetry_equiv_pos_site_id
 _symmetry_equiv_pos_as_xyz
  1  'x, y, z'
loop_
 _atom_site_type_symbol
 _atom_site_label
 _atom_site_symmetry_multiplicity
 _atom_site_fract_x
 _atom_site_fract_y
 _atom_site_fract_z
 _atom_site_occupancy
  Yb  Yb0  1  0.333340  0.666686  0.750000  1
  Yb  Yb1  1  0.666660  0.333314  0.250000  1
  Er  Er2  1  0.333332  0.666677  0.542868  1
  Er  Er3  1  0.666668  0.333323  0.457132  1
  Er  Er4  1  0.666668  0.333323  0.042868  1
  Er  Er5  1  0.333332  0.666677  0.957132  1
  Al  Al6  1  0.999996  0.999994  0.250000  1
  Al  Al7  1  0.000004  0.000006  0.750000  1
  Al  Al8  1  0.333338  0.666672  0.250000  1
  Al  Al9  1  0.666662  0.333328  0.750000  1
  Al  Al10  1  0.000000  0.000000  0.000000  1
  Al  Al11  1  0.000000  0.000000  0.500000  1
  Ir  Ir12  1  0.169289  0.338580  0.124744  1
  Ir  Ir13  1  0.830711  0.661420  0.875256  1
  Ir  Ir14  1  0.661424  0.830708  0.124743  1
  Ir  Ir15  1  0.830711  0.661420  0.624744  1
  Ir  Ir16  1  0.338576  0.169292  0.875257  1
  Ir  Ir17  1  0.169289  0.338580  0.375256  1
  Ir  Ir18  1  0.169277  0.830712  0.124741  1
  Ir  Ir19  1  0.338576  0.169292  0.624743  1
  Ir  Ir20  1  0.830723  0.169288  0.875259  1
  Ir  Ir21  1  0.661424  0.830708  0.375257  1
  Ir  Ir22  1  0.830723  0.169288  0.624741  1
  Ir  Ir23  1  0.169277  0.830712  0.375259  1
