# generated using pymatgen
data_Y3HfNb2(B2Ru5)2
_symmetry_space_group_name_H-M   'P 1'
_cell_length_a   9.63896985
_cell_length_b   9.63896985
_cell_length_c   3.13262900
_cell_angle_alpha   90.00000000
_cell_angle_beta   90.00000000
_cell_angle_gamma   90.51633707
_symmetry_Int_Tables_number   1
_chemical_formula_structural   Y3HfNb2(B2Ru5)2
_chemical_formula_sum   'Y3 Hf1 Nb2 B4 Ru10'
_cell_volume   291.03992679
_cell_formula_units_Z   1
loop_
 _symmetry_equiv_pos_site_id
 _symmetry_equiv_pos_as_xyz
  1  'x, y, z'
loop_
 _atom_site_type_symbol
 _atom_site_label
 _atom_site_symmetry_multiplicity
 _atom_site_fract_x
 _atom_site_fract_y
 _atom_site_fract_z
 _atom_site_occupancy
  Y  Y0  1  0.824339  0.674822  0.000000  1
  Y  Y1  1  0.174822  0.324339  0.000000  1
  Y  Y2  1  0.326674  0.826674  0.000000  1
  Hf  Hf3  1  0.675256  0.175256  0.000000  1
  Nb  Nb4  1  0.499278  0.500734  0.000000  1
  Nb  Nb5  1  0.000734  0.999278  0.000000  1
  B  B6  1  0.622296  0.881226  0.000000  1
  B  B7  1  0.381226  0.122296  0.000000  1
  B  B8  1  0.119580  0.619580  0.000000  1
  B  B9  1  0.876622  0.376622  0.000000  1
  Ru  Ru10  1  0.570823  0.720808  0.500000  1
  Ru  Ru11  1  0.437267  0.280299  0.500000  1
  Ru  Ru12  1  0.070805  0.780721  0.500000  1
  Ru  Ru13  1  0.919460  0.215022  0.500000  1
  Ru  Ru14  1  0.280721  0.570805  0.500000  1
  Ru  Ru15  1  0.715022  0.419460  0.500000  1
  Ru  Ru16  1  0.220808  0.070823  0.500000  1
  Ru  Ru17  1  0.780299  0.937267  0.500000  1
  Ru  Ru18  1  0.506605  0.006605  0.500000  1
  Ru  Ru19  1  0.997363  0.497363  0.500000  1
