# generated using pymatgen
data_Pr2YSi5PPd20
_symmetry_space_group_name_H-M   'P 1'
_cell_length_a   8.75648875
_cell_length_b   8.75648881
_cell_length_c   8.75631700
_cell_angle_alpha   60.00064527
_cell_angle_beta   60.00064506
_cell_angle_gamma   59.99870287
_symmetry_Int_Tables_number   1
_chemical_formula_structural   Pr2YSi5PPd20
_chemical_formula_sum   'Pr2 Y1 Si5 P1 Pd20'
_cell_volume   474.75161038
_cell_formula_units_Z   1
loop_
 _symmetry_equiv_pos_site_id
 _symmetry_equiv_pos_as_xyz
  1  'x, y, z'
loop_
 _atom_site_type_symbol
 _atom_site_label
 _atom_site_symmetry_multiplicity
 _atom_site_fract_x
 _atom_site_fract_y
 _atom_site_fract_z
 _atom_site_occupancy
  Pr  Pr0  1  0.249398  0.249398  0.250602  1
  Pr  Pr1  1  0.749398  0.749398  0.750602  1
  Y  Y2  1  0.000536  0.000536  0.999464  1
  Si  Si3  1  0.733838  0.264707  0.266162  1
  Si  Si4  1  0.264707  0.733838  0.735293  1
  Si  Si5  1  0.264707  0.733838  0.266162  1
  Si  Si6  1  0.733838  0.264707  0.735293  1
  Si  Si7  1  0.266103  0.266103  0.733897  1
  P  P8  1  0.735927  0.735927  0.264073  1
  Pd  Pd9  1  0.385769  0.385769  0.385538  1
  Pd  Pd10  1  0.614425  0.614425  0.612805  1
  Pd  Pd11  1  0.385769  0.385769  0.842924  1
  Pd  Pd12  1  0.387195  0.841656  0.385575  1
  Pd  Pd13  1  0.614425  0.614425  0.158344  1
  Pd  Pd14  1  0.614462  0.157076  0.614231  1
  Pd  Pd15  1  0.841656  0.387195  0.385575  1
  Pd  Pd16  1  0.157076  0.614462  0.614231  1
  Pd  Pd17  1  0.345764  0.000123  0.999877  1
  Pd  Pd18  1  0.654485  0.998397  0.001603  1
  Pd  Pd19  1  0.000123  0.345764  0.654236  1
  Pd  Pd20  1  0.998397  0.654485  0.345515  1
  Pd  Pd21  1  0.000123  0.345764  0.999877  1
  Pd  Pd22  1  0.654485  0.998397  0.345515  1
  Pd  Pd23  1  0.998397  0.654485  0.001603  1
  Pd  Pd24  1  0.345764  0.000123  0.654236  1
  Pd  Pd25  1  0.000808  0.000808  0.345282  1
  Pd  Pd26  1  0.000808  0.000808  0.653102  1
  Pd  Pd27  1  0.654718  0.346898  0.999192  1
  Pd  Pd28  1  0.346898  0.654718  0.999192  1
