# generated using pymatgen
data_Y3Tm7Cd3Fe
_symmetry_space_group_name_H-M   'P 1'
_cell_length_a   9.46079100
_cell_length_b   9.46079045
_cell_length_c   9.68727500
_cell_angle_alpha   90.00000000
_cell_angle_beta   90.00000000
_cell_angle_gamma   119.99999843
_symmetry_Int_Tables_number   1
_chemical_formula_structural   Y3Tm7Cd3Fe
_chemical_formula_sum   'Y6 Tm14 Cd6 Fe2'
_cell_volume   750.90870496
_cell_formula_units_Z   2
loop_
 _symmetry_equiv_pos_site_id
 _symmetry_equiv_pos_as_xyz
  1  'x, y, z'
loop_
 _atom_site_type_symbol
 _atom_site_label
 _atom_site_symmetry_multiplicity
 _atom_site_fract_x
 _atom_site_fract_y
 _atom_site_fract_z
 _atom_site_occupancy
  Y  Y0  1  0.540181  0.459819  0.250000  1
  Y  Y1  1  0.540181  0.080363  0.250000  1
  Y  Y2  1  0.919637  0.459819  0.250000  1
  Y  Y3  1  0.459819  0.540181  0.750000  1
  Y  Y4  1  0.459819  0.919637  0.750000  1
  Y  Y5  1  0.080363  0.540181  0.750000  1
  Tm  Tm6  1  0.000000  0.000000  0.500000  1
  Tm  Tm7  1  0.000000  0.000000  0.000000  1
  Tm  Tm8  1  0.212176  0.787824  0.436412  1
  Tm  Tm9  1  0.212176  0.424353  0.436412  1
  Tm  Tm10  1  0.575647  0.787824  0.436412  1
  Tm  Tm11  1  0.787824  0.212176  0.563588  1
  Tm  Tm12  1  0.787824  0.575647  0.563588  1
  Tm  Tm13  1  0.424353  0.212176  0.563588  1
  Tm  Tm14  1  0.787824  0.212176  0.936412  1
  Tm  Tm15  1  0.787824  0.575647  0.936412  1
  Tm  Tm16  1  0.424353  0.212176  0.936412  1
  Tm  Tm17  1  0.212176  0.787824  0.063588  1
  Tm  Tm18  1  0.212176  0.424353  0.063588  1
  Tm  Tm19  1  0.575647  0.787824  0.063588  1
  Cd  Cd20  1  0.886316  0.113684  0.250000  1
  Cd  Cd21  1  0.886316  0.772633  0.250000  1
  Cd  Cd22  1  0.227367  0.113684  0.250000  1
  Cd  Cd23  1  0.113684  0.886316  0.750000  1
  Cd  Cd24  1  0.113684  0.227367  0.750000  1
  Cd  Cd25  1  0.772633  0.886316  0.750000  1
  Fe  Fe26  1  0.333333  0.666667  0.250000  1
  Fe  Fe27  1  0.666667  0.333333  0.750000  1
