# generated using pymatgen
data_Zr3Sc(Ni3Pt)3
_symmetry_space_group_name_H-M   'P 1'
_cell_length_a   5.41411454
_cell_length_b   5.41411540
_cell_length_c   8.78534300
_cell_angle_alpha   90.00000000
_cell_angle_beta   90.00000000
_cell_angle_gamma   119.17210758
_symmetry_Int_Tables_number   1
_chemical_formula_structural   Zr3Sc(Ni3Pt)3
_chemical_formula_sum   'Zr3 Sc1 Ni9 Pt3'
_cell_volume   224.85742811
_cell_formula_units_Z   1
loop_
 _symmetry_equiv_pos_site_id
 _symmetry_equiv_pos_as_xyz
  1  'x, y, z'
loop_
 _atom_site_type_symbol
 _atom_site_label
 _atom_site_symmetry_multiplicity
 _atom_site_fract_x
 _atom_site_fract_y
 _atom_site_fract_z
 _atom_site_occupancy
  Zr  Zr0  1  0.998212  0.001788  0.494633  1
  Zr  Zr1  1  0.998212  0.001788  0.005367  1
  Zr  Zr2  1  0.325260  0.674740  0.250000  1
  Sc  Sc3  1  0.674722  0.325278  0.750000  1
  Ni  Ni4  1  0.504168  0.003823  0.496436  1
  Ni  Ni5  1  0.996177  0.495832  0.496436  1
  Ni  Ni6  1  0.504168  0.003823  0.003564  1
  Ni  Ni7  1  0.996177  0.495832  0.003564  1
  Ni  Ni8  1  0.823891  0.644152  0.250000  1
  Ni  Ni9  1  0.355848  0.176109  0.250000  1
  Ni  Ni10  1  0.819191  0.180809  0.250000  1
  Ni  Ni11  1  0.173915  0.345827  0.750000  1
  Ni  Ni12  1  0.654173  0.826085  0.750000  1
  Pt  Pt13  1  0.500130  0.499870  0.500042  1
  Pt  Pt14  1  0.500130  0.499870  0.999958  1
  Pt  Pt15  1  0.175627  0.824373  0.750000  1
