# generated using pymatgen
data_Hf9Ir6Rh5
_symmetry_space_group_name_H-M   'P 1'
_cell_length_a   7.08737466
_cell_length_b   7.82597880
_cell_length_c   7.82597943
_cell_angle_alpha   78.16830632
_cell_angle_beta   63.07584978
_cell_angle_gamma   63.07584142
_symmetry_Int_Tables_number   1
_chemical_formula_structural   Hf9Ir6Rh5
_chemical_formula_sum   'Hf9 Ir6 Rh5'
_cell_volume   345.07176297
_cell_formula_units_Z   1
loop_
 _symmetry_equiv_pos_site_id
 _symmetry_equiv_pos_as_xyz
  1  'x, y, z'
loop_
 _atom_site_type_symbol
 _atom_site_label
 _atom_site_symmetry_multiplicity
 _atom_site_fract_x
 _atom_site_fract_y
 _atom_site_fract_z
 _atom_site_occupancy
  Hf  Hf0  1  0.998665  0.000000  0.000000  1
  Hf  Hf1  1  0.690361  0.406564  0.215782  1
  Hf  Hf2  1  0.312705  0.593436  0.784218  1
  Hf  Hf3  1  0.096923  0.215782  0.593436  1
  Hf  Hf4  1  0.906143  0.784218  0.406564  1
  Hf  Hf5  1  0.759084  0.650592  0.830220  1
  Hf  Hf6  1  0.239896  0.349408  0.169780  1
  Hf  Hf7  1  0.409676  0.830220  0.349408  1
  Hf  Hf8  1  0.589304  0.169780  0.650592  1
  Ir  Ir9  1  0.253557  0.500000  0.500000  1
  Ir  Ir10  1  0.753557  0.500000  0.500000  1
  Ir  Ir11  1  0.674328  0.314281  0.895838  1
  Ir  Ir12  1  0.884447  0.685719  0.104162  1
  Ir  Ir13  1  0.988609  0.895838  0.685719  1
  Ir  Ir14  1  0.570167  0.104162  0.314281  1
  Rh  Rh15  1  0.499881  0.000000  0.000000  1
  Rh  Rh16  1  0.322077  0.689198  0.102997  1
  Rh  Rh17  1  0.114272  0.310802  0.897003  1
  Rh  Rh18  1  0.011275  0.102997  0.310802  1
  Rh  Rh19  1  0.425073  0.897003  0.689198  1
