# generated using pymatgen
data_SrZr8(In2Co)7
_symmetry_space_group_name_H-M   'P 1'
_cell_length_a   9.49333330
_cell_length_b   9.49331322
_cell_length_c   9.49335168
_cell_angle_alpha   60.37194564
_cell_angle_beta   60.36975390
_cell_angle_gamma   60.37158900
_symmetry_Int_Tables_number   1
_chemical_formula_structural   SrZr8(In2Co)7
_chemical_formula_sum   'Sr1 Zr8 In14 Co7'
_cell_volume   610.05818986
_cell_formula_units_Z   1
loop_
 _symmetry_equiv_pos_site_id
 _symmetry_equiv_pos_as_xyz
  1  'x, y, z'
loop_
 _atom_site_type_symbol
 _atom_site_label
 _atom_site_symmetry_multiplicity
 _atom_site_fract_x
 _atom_site_fract_y
 _atom_site_fract_z
 _atom_site_occupancy
  Sr  Sr0  1  0.500000  0.500000  0.500000  1
  Zr  Zr1  1  0.120957  0.636926  0.120962  1
  Zr  Zr2  1  0.363073  0.879045  0.879050  1
  Zr  Zr3  1  0.879291  0.879302  0.879300  1
  Zr  Zr4  1  0.636927  0.120955  0.120950  1
  Zr  Zr5  1  0.879049  0.879036  0.363075  1
  Zr  Zr6  1  0.120709  0.120698  0.120700  1
  Zr  Zr7  1  0.879043  0.363074  0.879038  1
  Zr  Zr8  1  0.120951  0.120964  0.636925  1
  In  In9  1  0.500015  0.847227  0.152773  1
  In  In10  1  0.500242  0.847306  0.500286  1
  In  In11  1  0.499758  0.152694  0.499714  1
  In  In12  1  0.500223  0.500303  0.847300  1
  In  In13  1  0.152701  0.499721  0.499751  1
  In  In14  1  0.847225  0.152773  0.499959  1
  In  In15  1  0.152775  0.847227  0.500041  1
  In  In16  1  0.499985  0.152773  0.847227  1
  In  In17  1  0.152773  0.500025  0.847229  1
  In  In18  1  0.499777  0.499697  0.152700  1
  In  In19  1  0.847299  0.500279  0.500249  1
  In  In20  1  0.847227  0.499975  0.152771  1
  In  In21  1  0.250346  0.250344  0.250345  1
  In  In22  1  0.749654  0.749656  0.749655  1
  Co  Co23  1  0.782437  0.782441  0.216764  1
  Co  Co24  1  0.000000  0.000000  0.000000  1
  Co  Co25  1  0.217571  0.783229  0.217567  1
  Co  Co26  1  0.216770  0.782431  0.782430  1
  Co  Co27  1  0.217563  0.217559  0.783236  1
  Co  Co28  1  0.782429  0.216771  0.782433  1
  Co  Co29  1  0.783230  0.217569  0.217570  1
