# generated using pymatgen
data_Pa2Co5RhC
_symmetry_space_group_name_H-M   'P 1'
_cell_length_a   3.98864800
_cell_length_b   3.89517200
_cell_length_c   7.79916800
_cell_angle_alpha   90.00000000
_cell_angle_beta   90.00000000
_cell_angle_gamma   90.00000000
_symmetry_Int_Tables_number   1
_chemical_formula_structural   Pa2Co5RhC
_chemical_formula_sum   'Pa2 Co5 Rh1 C1'
_cell_volume   121.17153972
_cell_formula_units_Z   1
loop_
 _symmetry_equiv_pos_site_id
 _symmetry_equiv_pos_as_xyz
  1  'x, y, z'
loop_
 _atom_site_type_symbol
 _atom_site_label
 _atom_site_symmetry_multiplicity
 _atom_site_fract_x
 _atom_site_fract_y
 _atom_site_fract_z
 _atom_site_occupancy
  Pa  Pa0  1  0.000000  0.000000  0.741939  1
  Pa  Pa1  1  0.000000  0.000000  0.258061  1
  Co  Co2  1  0.500000  0.500000  0.759534  1
  Co  Co3  1  0.500000  0.500000  0.240466  1
  Co  Co4  1  0.500000  0.000000  0.000000  1
  Co  Co5  1  0.000000  0.500000  0.000000  1
  Co  Co6  1  0.000000  0.500000  0.500000  1
  Rh  Rh7  1  0.500000  0.000000  0.500000  1
  C  C8  1  0.500000  0.500000  0.000000  1
