# generated using pymatgen
data_CaEr3Ta4(ReB6)4
_symmetry_space_group_name_H-M   'P 1'
_cell_length_a   3.54150600
_cell_length_b   8.92554421
_cell_length_c   11.28409709
_cell_angle_alpha   90.00532838
_cell_angle_beta   90.00000000
_cell_angle_gamma   90.00000000
_symmetry_Int_Tables_number   1
_chemical_formula_structural   CaEr3Ta4(ReB6)4
_chemical_formula_sum   'Ca1 Er3 Ta4 Re4 B24'
_cell_volume   356.68882237
_cell_formula_units_Z   1
loop_
 _symmetry_equiv_pos_site_id
 _symmetry_equiv_pos_as_xyz
  1  'x, y, z'
loop_
 _atom_site_type_symbol
 _atom_site_label
 _atom_site_symmetry_multiplicity
 _atom_site_fract_x
 _atom_site_fract_y
 _atom_site_fract_z
 _atom_site_occupancy
  Ca  Ca0  1  0.000000  0.321435  0.413354  1
  Er  Er1  1  0.000000  0.677850  0.586752  1
  Er  Er2  1  0.000000  0.821827  0.086971  1
  Er  Er3  1  0.000000  0.178149  0.913208  1
  Ta  Ta4  1  0.000000  0.946180  0.374836  1
  Ta  Ta5  1  0.000000  0.054095  0.624392  1
  Ta  Ta6  1  0.000000  0.445457  0.125359  1
  Ta  Ta7  1  0.000000  0.553642  0.875164  1
  Re  Re8  1  0.000000  0.644768  0.317198  1
  Re  Re9  1  0.000000  0.356879  0.683056  1
  Re  Re10  1  0.000000  0.142004  0.180849  1
  Re  Re11  1  0.000000  0.857263  0.818177  1
  B  B12  1  0.500000  0.554480  0.433851  1
  B  B13  1  0.500000  0.446345  0.566615  1
  B  B14  1  0.500000  0.053903  0.065707  1
  B  B15  1  0.500000  0.945894  0.933759  1
  B  B16  1  0.500000  0.754508  0.418293  1
  B  B17  1  0.500000  0.245223  0.582058  1
  B  B18  1  0.500000  0.254558  0.081610  1
  B  B19  1  0.500000  0.745231  0.918370  1
  B  B20  1  0.500000  0.797175  0.262817  1
  B  B21  1  0.500000  0.203055  0.737340  1
  B  B22  1  0.500000  0.297179  0.236626  1
  B  B23  1  0.500000  0.703017  0.763058  1
  B  B24  1  0.500000  0.629649  0.181327  1
  B  B25  1  0.500000  0.370638  0.819026  1
  B  B26  1  0.500000  0.129394  0.318431  1
  B  B27  1  0.500000  0.870437  0.681263  1
  B  B28  1  0.500000  0.981336  0.213248  1
  B  B29  1  0.500000  0.018803  0.786721  1
  B  B30  1  0.500000  0.481172  0.286579  1
  B  B31  1  0.500000  0.518880  0.713681  1
  B  B32  1  0.500000  0.599505  0.026494  1
  B  B33  1  0.500000  0.400893  0.973660  1
  B  B34  1  0.500000  0.098612  0.473646  1
  B  B35  1  0.500000  0.900565  0.526507  1
