# generated using pymatgen
data_Pr3Cu4(SnGe)2
_symmetry_space_group_name_H-M   'P 1'
_cell_length_a   8.47600359
_cell_length_b   8.47600427
_cell_length_c   8.47600400
_cell_angle_alpha   149.13111113
_cell_angle_beta   132.54333022
_cell_angle_gamma   57.69058471
_symmetry_Int_Tables_number   1
_chemical_formula_structural   Pr3Cu4(SnGe)2
_chemical_formula_sum   'Pr3 Cu4 Sn2 Ge2'
_cell_volume   228.48741550
_cell_formula_units_Z   1
loop_
 _symmetry_equiv_pos_site_id
 _symmetry_equiv_pos_as_xyz
  1  'x, y, z'
loop_
 _atom_site_type_symbol
 _atom_site_label
 _atom_site_symmetry_multiplicity
 _atom_site_fract_x
 _atom_site_fract_y
 _atom_site_fract_z
 _atom_site_occupancy
  Pr  Pr0  1  0.500000  0.000000  0.500000  1
  Pr  Pr1  1  0.128121  0.128121  0.000000  1
  Pr  Pr2  1  0.871879  0.871879  0.000000  1
  Cu  Cu3  1  0.472461  0.657560  0.814901  1
  Cu  Cu4  1  0.842658  0.657560  0.185099  1
  Cu  Cu5  1  0.157342  0.342440  0.814901  1
  Cu  Cu6  1  0.527539  0.342440  0.185099  1
  Sn  Sn7  1  0.717465  0.217465  0.500000  1
  Sn  Sn8  1  0.282535  0.782535  0.500000  1
  Ge  Ge9  1  0.187544  0.500000  0.687544  1
  Ge  Ge10  1  0.812456  0.500000  0.312456  1
