# generated using pymatgen
data_Dy8Ho3Er9Pb16
_symmetry_space_group_name_H-M   'P 1'
_cell_length_a   8.17992703
_cell_length_b   8.25554403
_cell_length_c   15.58806201
_cell_angle_alpha   89.99658348
_cell_angle_beta   89.99874093
_cell_angle_gamma   89.99086638
_symmetry_Int_Tables_number   1
_chemical_formula_structural   Dy8Ho3Er9Pb16
_chemical_formula_sum   'Dy8 Ho3 Er9 Pb16'
_cell_volume   1052.65787947
_cell_formula_units_Z   1
loop_
 _symmetry_equiv_pos_site_id
 _symmetry_equiv_pos_as_xyz
  1  'x, y, z'
loop_
 _atom_site_type_symbol
 _atom_site_label
 _atom_site_symmetry_multiplicity
 _atom_site_fract_x
 _atom_site_fract_y
 _atom_site_fract_z
 _atom_site_occupancy
  Dy  Dy0  1  0.536469  0.323276  0.899963  1
  Dy  Dy1  1  0.036446  0.176692  0.600031  1
  Dy  Dy2  1  0.463548  0.676699  0.399968  1
  Dy  Dy3  1  0.963553  0.823269  0.100023  1
  Dy  Dy4  1  0.463554  0.676723  0.100075  1
  Dy  Dy5  1  0.963586  0.823243  0.399925  1
  Dy  Dy6  1  0.536420  0.323243  0.600069  1
  Dy  Dy7  1  0.036447  0.176772  0.899984  1
  Ho  Ho8  1  0.376512  0.841218  0.879120  1
  Ho  Ho9  1  0.876516  0.658767  0.620901  1
  Ho  Ho10  1  0.623510  0.158783  0.379085  1
  Er  Er11  1  0.123504  0.341234  0.120915  1
  Er  Er12  1  0.623550  0.158696  0.120870  1
  Er  Er13  1  0.123550  0.341279  0.379093  1
  Er  Er14  1  0.376455  0.841283  0.620909  1
  Er  Er15  1  0.876441  0.658752  0.879114  1
  Er  Er16  1  0.208278  0.504419  0.750007  1
  Er  Er17  1  0.708265  0.995533  0.750030  1
  Er  Er18  1  0.791744  0.495527  0.249944  1
  Er  Er19  1  0.291652  0.004526  0.249958  1
  Pb  Pb20  1  0.281588  0.033418  0.042972  1
  Pb  Pb21  1  0.781663  0.466797  0.457052  1
  Pb  Pb22  1  0.718302  0.966776  0.542919  1
  Pb  Pb23  1  0.218256  0.533103  0.957184  1
  Pb  Pb24  1  0.718540  0.966736  0.957196  1
  Pb  Pb25  1  0.218540  0.533242  0.542816  1
  Pb  Pb26  1  0.281485  0.033253  0.457157  1
  Pb  Pb27  1  0.781638  0.466722  0.042869  1
  Pb  Pb28  1  0.571184  0.626989  0.749975  1
  Pb  Pb29  1  0.071200  0.873039  0.750018  1
  Pb  Pb30  1  0.428727  0.373001  0.249936  1
  Pb  Pb31  1  0.928900  0.127093  0.249967  1
  Pb  Pb32  1  0.347400  0.153478  0.749962  1
  Pb  Pb33  1  0.847409  0.346525  0.750042  1
  Pb  Pb34  1  0.652590  0.846502  0.249958  1
  Pb  Pb35  1  0.152577  0.653392  0.249993  1
