# generated using pymatgen
data_V9CrSi6
_symmetry_space_group_name_H-M   'P 1'
_cell_length_a   4.71585872
_cell_length_b   7.03982098
_cell_length_c   7.03982092
_cell_angle_alpha   96.44133242
_cell_angle_beta   109.56898090
_cell_angle_gamma   70.43101078
_symmetry_Int_Tables_number   1
_chemical_formula_structural   V9CrSi6
_chemical_formula_sum   'V9 Cr1 Si6'
_cell_volume   207.49425280
_cell_formula_units_Z   1
loop_
 _symmetry_equiv_pos_site_id
 _symmetry_equiv_pos_as_xyz
  1  'x, y, z'
loop_
 _atom_site_type_symbol
 _atom_site_label
 _atom_site_symmetry_multiplicity
 _atom_site_fract_x
 _atom_site_fract_y
 _atom_site_fract_z
 _atom_site_occupancy
  V  V0  1  0.423818  0.849805  0.699790  1
  V  V1  1  0.573833  0.150195  0.300210  1
  V  V2  1  0.926167  0.300210  0.150195  1
  V  V3  1  0.076182  0.699790  0.849805  1
  V  V4  1  0.726377  0.699790  0.150195  1
  V  V5  1  0.275971  0.300210  0.849805  1
  V  V6  1  0.773623  0.150195  0.699790  1
  V  V7  1  0.224029  0.849805  0.300210  1
  V  V8  1  0.250000  0.500000  0.500000  1
  Cr  Cr9  1  0.750000  0.500000  0.500000  1
  Si  Si10  1  0.250000  0.000000  0.000000  1
  Si  Si11  1  0.750000  0.000000  0.000000  1
  Si  Si12  1  0.337799  0.500000  0.170004  1
  Si  Si13  1  0.667795  0.500000  0.829996  1
  Si  Si14  1  0.832205  0.829996  0.500000  1
  Si  Si15  1  0.162201  0.170004  0.500000  1
