# generated using pymatgen
data_Dy3Tm(Al3Ir)6
_symmetry_space_group_name_H-M   'P 1'
_cell_length_a   7.55347705
_cell_length_b   7.55605157
_cell_length_c   9.47258200
_cell_angle_alpha   90.00000000
_cell_angle_beta   90.00000000
_cell_angle_gamma   119.49727048
_symmetry_Int_Tables_number   1
_chemical_formula_structural   Dy3Tm(Al3Ir)6
_chemical_formula_sum   'Dy3 Tm1 Al18 Ir6'
_cell_volume   470.56398130
_cell_formula_units_Z   1
loop_
 _symmetry_equiv_pos_site_id
 _symmetry_equiv_pos_as_xyz
  1  'x, y, z'
loop_
 _atom_site_type_symbol
 _atom_site_label
 _atom_site_symmetry_multiplicity
 _atom_site_fract_x
 _atom_site_fract_y
 _atom_site_fract_z
 _atom_site_occupancy
  Dy  Dy0  1  0.994706  0.671389  0.250000  1
  Dy  Dy1  1  0.005585  0.328593  0.750000  1
  Dy  Dy2  1  0.671336  0.994568  0.250000  1
  Tm  Tm3  1  0.328360  0.005533  0.750000  1
  Al  Al4  1  0.129731  0.129492  0.250000  1
  Al  Al5  1  0.871173  0.870652  0.750000  1
  Al  Al6  1  0.001165  0.335120  0.073561  1
  Al  Al7  1  0.999388  0.665385  0.925622  1
  Al  Al8  1  0.999388  0.665385  0.574378  1
  Al  Al9  1  0.335140  0.001121  0.427234  1
  Al  Al10  1  0.001165  0.335120  0.426439  1
  Al  Al11  1  0.664238  0.998874  0.574490  1
  Al  Al12  1  0.664238  0.998874  0.925510  1
  Al  Al13  1  0.335140  0.001121  0.072766  1
  Al  Al14  1  0.333544  0.333069  0.551912  1
  Al  Al15  1  0.666495  0.666461  0.449338  1
  Al  Al16  1  0.666495  0.666461  0.050662  1
  Al  Al17  1  0.333544  0.333069  0.948088  1
  Al  Al18  1  0.339585  0.548253  0.250000  1
  Al  Al19  1  0.659626  0.450925  0.750000  1
  Al  Al20  1  0.547991  0.339259  0.250000  1
  Al  Al21  1  0.451755  0.661169  0.750000  1
  Ir  Ir22  1  0.672203  0.327831  0.999829  1
  Ir  Ir23  1  0.327794  0.672056  0.999856  1
  Ir  Ir24  1  0.327794  0.672056  0.500144  1
  Ir  Ir25  1  0.672203  0.327831  0.500171  1
  Ir  Ir26  1  0.000109  0.000167  0.999747  1
  Ir  Ir27  1  0.000109  0.000167  0.500253  1
