# generated using pymatgen
data_La8TbNd11Pb16
_symmetry_space_group_name_H-M   'P 1'
_cell_length_a   8.52370812
_cell_length_b   8.58791652
_cell_length_c   16.25880200
_cell_angle_alpha   89.99227420
_cell_angle_beta   89.99054896
_cell_angle_gamma   89.96684718
_symmetry_Int_Tables_number   1
_chemical_formula_structural   La8TbNd11Pb16
_chemical_formula_sum   'La8 Tb1 Nd11 Pb16'
_cell_volume   1190.15861071
_cell_formula_units_Z   1
loop_
 _symmetry_equiv_pos_site_id
 _symmetry_equiv_pos_as_xyz
  1  'x, y, z'
loop_
 _atom_site_type_symbol
 _atom_site_label
 _atom_site_symmetry_multiplicity
 _atom_site_fract_x
 _atom_site_fract_y
 _atom_site_fract_z
 _atom_site_occupancy
  La  La0  1  0.478595  0.679289  0.598147  1
  La  La1  1  0.977773  0.821135  0.901114  1
  La  La2  1  0.521341  0.320627  0.098191  1
  La  La3  1  0.021824  0.179668  0.402245  1
  La  La4  1  0.520733  0.319651  0.403012  1
  La  La5  1  0.021405  0.179477  0.098350  1
  La  La6  1  0.478511  0.679518  0.900853  1
  La  La7  1  0.979177  0.821735  0.598233  1
  Tb  Tb8  1  0.633764  0.156714  0.622258  1
  Nd  Nd9  1  0.132519  0.342609  0.879275  1
  Nd  Nd10  1  0.368140  0.842860  0.120114  1
  Nd  Nd11  1  0.866622  0.657781  0.381624  1
  Nd  Nd12  1  0.367816  0.841502  0.379657  1
  Nd  Nd13  1  0.868170  0.657464  0.119985  1
  Nd  Nd14  1  0.631758  0.157416  0.879372  1
  Nd  Nd15  1  0.131454  0.343077  0.619428  1
  Nd  Nd16  1  0.798963  0.496526  0.749494  1
  Nd  Nd17  1  0.300104  0.002705  0.749504  1
  Nd  Nd18  1  0.199884  0.503114  0.249934  1
  Nd  Nd19  1  0.700254  0.997011  0.250814  1
  Pb  Pb20  1  0.708708  0.965013  0.458898  1
  Pb  Pb21  1  0.209982  0.538571  0.043284  1
  Pb  Pb22  1  0.289628  0.038119  0.955965  1
  Pb  Pb23  1  0.787078  0.456964  0.544161  1
  Pb  Pb24  1  0.297045  0.040378  0.544038  1
  Pb  Pb25  1  0.790168  0.461525  0.955929  1
  Pb  Pb26  1  0.710050  0.962060  0.043829  1
  Pb  Pb27  1  0.209226  0.538705  0.456131  1
  Pb  Pb28  1  0.437208  0.372613  0.748555  1
  Pb  Pb29  1  0.935609  0.124972  0.748456  1
  Pb  Pb30  1  0.564286  0.624445  0.250055  1
  Pb  Pb31  1  0.063161  0.874821  0.250476  1
  Pb  Pb32  1  0.668892  0.853589  0.748562  1
  Pb  Pb33  1  0.169068  0.647888  0.749490  1
  Pb  Pb34  1  0.330667  0.147900  0.250166  1
  Pb  Pb35  1  0.830413  0.352563  0.250401  1
