# generated using pymatgen
data_Mg5Cd9Ga4
_symmetry_space_group_name_H-M   'P 1'
_cell_length_a   18.52530997
_cell_length_b   18.52530993
_cell_length_c   5.91962453
_cell_angle_alpha   97.82246042
_cell_angle_beta   97.82246122
_cell_angle_gamma   11.04113027
_symmetry_Int_Tables_number   1
_chemical_formula_structural   Mg5Cd9Ga4
_chemical_formula_sum   'Mg5 Cd9 Ga4'
_cell_volume   385.41292318
_cell_formula_units_Z   1
loop_
 _symmetry_equiv_pos_site_id
 _symmetry_equiv_pos_as_xyz
  1  'x, y, z'
loop_
 _atom_site_type_symbol
 _atom_site_label
 _atom_site_symmetry_multiplicity
 _atom_site_fract_x
 _atom_site_fract_y
 _atom_site_fract_z
 _atom_site_occupancy
  Mg  Mg0  1  0.998647  0.998647  0.000013  1
  Mg  Mg1  1  0.666172  0.666172  0.320699  1
  Mg  Mg2  1  0.889596  0.889596  0.414165  1
  Mg  Mg3  1  0.109766  0.109766  0.579369  1
  Mg  Mg4  1  0.333636  0.333636  0.680139  1
  Cd  Cd5  1  0.555061  0.555061  0.294599  1
  Cd  Cd6  1  0.778652  0.778652  0.399218  1
  Cd  Cd7  1  0.000174  0.000174  0.496242  1
  Cd  Cd8  1  0.221491  0.221491  0.607521  1
  Cd  Cd9  1  0.445584  0.445584  0.696916  1
  Cd  Cd10  1  0.555752  0.555752  0.800353  1
  Cd  Cd11  1  0.667489  0.667489  0.825246  1
  Cd  Cd12  1  0.777646  0.777646  0.901603  1
  Cd  Cd13  1  0.890758  0.890758  0.919074  1
  Ga  Ga14  1  0.110770  0.110770  0.075225  1
  Ga  Ga15  1  0.221408  0.221408  0.113423  1
  Ga  Ga16  1  0.332916  0.332916  0.176259  1
  Ga  Ga17  1  0.444479  0.444479  0.199934  1
