# generated using pymatgen
data_La20TcBi8Pt3
_symmetry_space_group_name_H-M   'P 1'
_cell_length_a   8.55816773
_cell_length_b   9.28417100
_cell_length_c   13.04959000
_cell_angle_alpha   90.00000000
_cell_angle_beta   89.82324189
_cell_angle_gamma   90.00000000
_symmetry_Int_Tables_number   1
_chemical_formula_structural   La20TcBi8Pt3
_chemical_formula_sum   'La20 Tc1 Bi8 Pt3'
_cell_volume   1036.85666773
_cell_formula_units_Z   1
loop_
 _symmetry_equiv_pos_site_id
 _symmetry_equiv_pos_as_xyz
  1  'x, y, z'
loop_
 _atom_site_type_symbol
 _atom_site_label
 _atom_site_symmetry_multiplicity
 _atom_site_fract_x
 _atom_site_fract_y
 _atom_site_fract_z
 _atom_site_occupancy
  La  La0  1  0.354574  0.750000  0.699398  1
  La  La1  1  0.649512  0.250000  0.295611  1
  La  La2  1  0.850790  0.250000  0.794036  1
  La  La3  1  0.153525  0.750000  0.209122  1
  La  La4  1  0.873405  0.750000  0.801561  1
  La  La5  1  0.127828  0.250000  0.198652  1
  La  La6  1  0.374655  0.250000  0.697663  1
  La  La7  1  0.622087  0.750000  0.305481  1
  La  La8  1  0.684256  0.547090  0.563849  1
  La  La9  1  0.318229  0.471956  0.437454  1
  La  La10  1  0.188758  0.458417  0.934182  1
  La  La11  1  0.318229  0.028044  0.437454  1
  La  La12  1  0.811180  0.542063  0.066169  1
  La  La13  1  0.684256  0.952910  0.563849  1
  La  La14  1  0.811180  0.957937  0.066169  1
  La  La15  1  0.188758  0.041583  0.934182  1
  La  La16  1  0.045996  0.750000  0.497193  1
  La  La17  1  0.948042  0.250000  0.504148  1
  La  La18  1  0.551028  0.250000  0.002993  1
  La  La19  1  0.446248  0.750000  0.994777  1
  Tc  Tc20  1  0.414935  0.750000  0.484981  1
  Bi  Bi21  1  0.577351  0.505577  0.825751  1
  Bi  Bi22  1  0.424194  0.493928  0.172210  1
  Bi  Bi23  1  0.076702  0.493865  0.673565  1
  Bi  Bi24  1  0.424194  0.006072  0.172210  1
  Bi  Bi25  1  0.924037  0.505663  0.326451  1
  Bi  Bi26  1  0.577351  0.994423  0.825751  1
  Bi  Bi27  1  0.924037  0.994337  0.326451  1
  Bi  Bi28  1  0.076702  0.006135  0.673565  1
  Pt  Pt29  1  0.072011  0.750000  0.989205  1
  Pt  Pt30  1  0.927399  0.250000  0.013035  1
  Pt  Pt31  1  0.578546  0.250000  0.512881  1
