# generated using pymatgen
data_Lu12In2TcOs2
_symmetry_space_group_name_H-M   'P 1'
_cell_length_a   8.28726923
_cell_length_b   8.28726994
_cell_length_c   8.28726918
_cell_angle_alpha   109.35062073
_cell_angle_beta   109.35061885
_cell_angle_gamma   109.71268899
_symmetry_Int_Tables_number   1
_chemical_formula_structural   Lu12In2TcOs2
_chemical_formula_sum   'Lu12 In2 Tc1 Os2'
_cell_volume   438.13376020
_cell_formula_units_Z   1
loop_
 _symmetry_equiv_pos_site_id
 _symmetry_equiv_pos_as_xyz
  1  'x, y, z'
loop_
 _atom_site_type_symbol
 _atom_site_label
 _atom_site_symmetry_multiplicity
 _atom_site_fract_x
 _atom_site_fract_y
 _atom_site_fract_z
 _atom_site_occupancy
  Lu  Lu0  1  0.319254  0.319254  0.638576  1
  Lu  Lu1  1  0.680677  0.680677  0.361424  1
  Lu  Lu2  1  0.680677  0.319254  0.000000  1
  Lu  Lu3  1  0.319254  0.680677  0.000000  1
  Lu  Lu4  1  0.184163  0.425469  0.241307  1
  Lu  Lu5  1  0.815057  0.573372  0.758315  1
  Lu  Lu6  1  0.184163  0.942855  0.758693  1
  Lu  Lu7  1  0.942855  0.184163  0.758693  1
  Lu  Lu8  1  0.815057  0.056743  0.241685  1
  Lu  Lu9  1  0.056743  0.815057  0.241685  1
  Lu  Lu10  1  0.425469  0.184163  0.241307  1
  Lu  Lu11  1  0.573372  0.815057  0.758315  1
  In  In12  1  0.999967  0.499967  0.500000  1
  In  In13  1  0.499967  0.999967  0.500000  1
  Tc  Tc14  1  0.658727  0.658727  0.000000  1
  Os  Os15  1  0.344344  0.344344  0.000000  1
  Os  Os16  1  0.000255  0.000255  0.000000  1
