# generated using pymatgen
data_La17Tb(MgIr6)2
_symmetry_space_group_name_H-M   'P 1'
_cell_length_a   11.37717500
_cell_length_b   11.37717500
_cell_length_c   6.45926600
_cell_angle_alpha   90.00000000
_cell_angle_beta   90.00000000
_cell_angle_gamma   90.00000000
_symmetry_Int_Tables_number   1
_chemical_formula_structural   La17Tb(MgIr6)2
_chemical_formula_sum   'La17 Tb1 Mg2 Ir12'
_cell_volume   836.08810789
_cell_formula_units_Z   1
loop_
 _symmetry_equiv_pos_site_id
 _symmetry_equiv_pos_as_xyz
  1  'x, y, z'
loop_
 _atom_site_type_symbol
 _atom_site_label
 _atom_site_symmetry_multiplicity
 _atom_site_fract_x
 _atom_site_fract_y
 _atom_site_fract_z
 _atom_site_occupancy
  La  La0  1  0.280975  0.087136  0.391039  1
  La  La1  1  0.288934  0.912099  0.886456  1
  La  La2  1  0.711066  0.087901  0.886456  1
  La  La3  1  0.719025  0.912864  0.391039  1
  La  La4  1  0.587343  0.782470  0.891476  1
  La  La5  1  0.587134  0.208664  0.384660  1
  La  La6  1  0.412866  0.791336  0.384660  1
  La  La7  1  0.412657  0.217530  0.891476  1
  La  La8  1  0.208664  0.412866  0.615340  1
  La  La9  1  0.217530  0.587343  0.108524  1
  La  La10  1  0.782470  0.412657  0.108524  1
  La  La11  1  0.791336  0.587134  0.615340  1
  La  La12  1  0.912099  0.711066  0.113544  1
  La  La13  1  0.912864  0.280975  0.608961  1
  La  La14  1  0.087136  0.719025  0.608961  1
  La  La15  1  0.087901  0.288934  0.113544  1
  La  La16  1  0.500000  0.500000  0.500000  1
  Tb  Tb17  1  0.000000  0.000000  0.000000  1
  Mg  Mg18  1  0.000000  0.000000  0.500000  1
  Mg  Mg19  1  0.500000  0.500000  0.000000  1
  Ir  Ir20  1  0.850413  0.150599  0.244352  1
  Ir  Ir21  1  0.849401  0.850413  0.755648  1
  Ir  Ir22  1  0.150599  0.149587  0.755648  1
  Ir  Ir23  1  0.149587  0.849401  0.244352  1
  Ir  Ir24  1  0.654337  0.346564  0.745152  1
  Ir  Ir25  1  0.653436  0.654337  0.254848  1
  Ir  Ir26  1  0.346564  0.345663  0.254848  1
  Ir  Ir27  1  0.345663  0.653436  0.745152  1
  Ir  Ir28  1  0.500000  0.000000  0.116985  1
  Ir  Ir29  1  0.500000  0.000000  0.618467  1
  Ir  Ir30  1  0.000000  0.500000  0.883015  1
  Ir  Ir31  1  0.000000  0.500000  0.381533  1
