# generated using pymatgen
data_Tm5Lu3(WO6)4
_symmetry_space_group_name_H-M   'P 1'
_cell_length_a   5.32554725
_cell_length_b   7.61471900
_cell_length_c   11.31359661
_cell_angle_alpha   75.34366116
_cell_angle_beta   90.01972558
_cell_angle_gamma   90.05678002
_symmetry_Int_Tables_number   1
_chemical_formula_structural   Tm5Lu3(WO6)4
_chemical_formula_sum   'Tm5 Lu3 W4 O24'
_cell_volume   443.86611802
_cell_formula_units_Z   1
loop_
 _symmetry_equiv_pos_site_id
 _symmetry_equiv_pos_as_xyz
  1  'x, y, z'
loop_
 _atom_site_type_symbol
 _atom_site_label
 _atom_site_symmetry_multiplicity
 _atom_site_fract_x
 _atom_site_fract_y
 _atom_site_fract_z
 _atom_site_occupancy
  Tm  Tm0  1  0.258528  0.000274  0.749195  1
  Tm  Tm1  1  0.183114  0.794616  0.078608  1
  Tm  Tm2  1  0.741621  0.000457  0.251129  1
  Tm  Tm3  1  0.315972  0.499697  0.749641  1
  Tm  Tm4  1  0.684593  0.499498  0.250861  1
  Lu  Lu5  1  0.182639  0.206465  0.420777  1
  Lu  Lu6  1  0.816589  0.206614  0.920612  1
  Lu  Lu7  1  0.817690  0.793543  0.579152  1
  W  W8  1  0.743964  0.723490  0.884962  1
  W  W9  1  0.256727  0.723353  0.386475  1
  W  W10  1  0.743782  0.276270  0.614215  1
  W  W11  1  0.256115  0.276383  0.114147  1
  O  O12  1  0.539651  0.154097  0.068114  1
  O  O13  1  0.041566  0.059289  0.103925  1
  O  O14  1  0.022664  0.711647  0.769795  1
  O  O15  1  0.458140  0.155691  0.567954  1
  O  O16  1  0.360249  0.486882  0.385798  1
  O  O17  1  0.954469  0.057537  0.603698  1
  O  O18  1  0.541769  0.792388  0.724232  1
  O  O19  1  0.460071  0.792439  0.226479  1
  O  O20  1  0.147654  0.633862  0.551254  1
  O  O21  1  0.045866  0.942504  0.396484  1
  O  O22  1  0.460197  0.846220  0.930029  1
  O  O23  1  0.458195  0.206422  0.275233  1
  O  O24  1  0.852441  0.365542  0.449316  1
  O  O25  1  0.639155  0.486776  0.884523  1
  O  O26  1  0.362767  0.512075  0.114570  1
  O  O27  1  0.954889  0.942850  0.895390  1
  O  O28  1  0.541244  0.845009  0.433079  1
  O  O29  1  0.978974  0.289202  0.230600  1
  O  O30  1  0.541416  0.207099  0.774728  1
  O  O31  1  0.850022  0.633501  0.050171  1
  O  O32  1  0.021822  0.288254  0.729976  1
  O  O33  1  0.147591  0.366031  0.949236  1
  O  O34  1  0.977945  0.711335  0.271272  1
  O  O35  1  0.639911  0.512685  0.614371  1
