# generated using pymatgen
data_Dy4Er7LuOs4
_symmetry_space_group_name_H-M   'P 1'
_cell_length_a   6.28405191
_cell_length_b   7.37926771
_cell_length_c   8.98130200
_cell_angle_alpha   89.97953297
_cell_angle_beta   89.96924617
_cell_angle_gamma   89.96682715
_symmetry_Int_Tables_number   1
_chemical_formula_structural   Dy4Er7LuOs4
_chemical_formula_sum   'Dy4 Er7 Lu1 Os4'
_cell_volume   416.47809723
_cell_formula_units_Z   1
loop_
 _symmetry_equiv_pos_site_id
 _symmetry_equiv_pos_as_xyz
  1  'x, y, z'
loop_
 _atom_site_type_symbol
 _atom_site_label
 _atom_site_symmetry_multiplicity
 _atom_site_fract_x
 _atom_site_fract_y
 _atom_site_fract_z
 _atom_site_occupancy
  Dy  Dy0  1  0.870451  0.538602  0.249616  1
  Dy  Dy1  1  0.629308  0.038061  0.249848  1
  Dy  Dy2  1  0.130069  0.461983  0.750281  1
  Dy  Dy3  1  0.370142  0.961519  0.750265  1
  Er  Er4  1  0.167424  0.175205  0.437296  1
  Er  Er5  1  0.667199  0.324665  0.562533  1
  Er  Er6  1  0.832408  0.824549  0.937635  1
  Er  Er7  1  0.666972  0.325214  0.937558  1
  Er  Er8  1  0.832690  0.824692  0.562714  1
  Er  Er9  1  0.332887  0.675383  0.436587  1
  Er  Er10  1  0.167734  0.175217  0.062746  1
  Lu  Lu11  1  0.332863  0.674904  0.063061  1
  Os  Os12  1  0.042937  0.882138  0.249747  1
  Os  Os13  1  0.457342  0.383218  0.249784  1
  Os  Os14  1  0.957520  0.117178  0.749883  1
  Os  Os15  1  0.542052  0.617473  0.750445  1
