# generated using pymatgen
data_Nd4Al18Ir4PdPt
_symmetry_space_group_name_H-M   'P 1'
_cell_length_a   7.63900701
_cell_length_b   7.63900782
_cell_length_c   9.58704701
_cell_angle_alpha   90.00301810
_cell_angle_beta   90.00301949
_cell_angle_gamma   119.44095254
_symmetry_Int_Tables_number   1
_chemical_formula_structural   Nd4Al18Ir4PdPt
_chemical_formula_sum   'Nd4 Al18 Ir4 Pd1 Pt1'
_cell_volume   487.20127190
_cell_formula_units_Z   1
loop_
 _symmetry_equiv_pos_site_id
 _symmetry_equiv_pos_as_xyz
  1  'x, y, z'
loop_
 _atom_site_type_symbol
 _atom_site_label
 _atom_site_symmetry_multiplicity
 _atom_site_fract_x
 _atom_site_fract_y
 _atom_site_fract_z
 _atom_site_occupancy
  Nd  Nd0  1  0.995530  0.672386  0.249979  1
  Nd  Nd1  1  0.004470  0.327614  0.750021  1
  Nd  Nd2  1  0.672386  0.995530  0.249979  1
  Nd  Nd3  1  0.327614  0.004470  0.750021  1
  Al  Al4  1  0.134346  0.134346  0.249993  1
  Al  Al5  1  0.865654  0.865654  0.750007  1
  Al  Al6  1  0.002484  0.339436  0.074690  1
  Al  Al7  1  0.997516  0.660564  0.925310  1
  Al  Al8  1  0.997498  0.660495  0.574719  1
  Al  Al9  1  0.339505  0.002502  0.425281  1
  Al  Al10  1  0.002502  0.339505  0.425281  1
  Al  Al11  1  0.660495  0.997498  0.574719  1
  Al  Al12  1  0.660564  0.997516  0.925310  1
  Al  Al13  1  0.339436  0.002484  0.074690  1
  Al  Al14  1  0.337842  0.337842  0.550370  1
  Al  Al15  1  0.662158  0.662158  0.449630  1
  Al  Al16  1  0.662234  0.662234  0.050345  1
  Al  Al17  1  0.337766  0.337766  0.949655  1
  Al  Al18  1  0.339043  0.547497  0.250000  1
  Al  Al19  1  0.660957  0.452503  0.750000  1
  Al  Al20  1  0.547497  0.339043  0.250000  1
  Al  Al21  1  0.452503  0.660957  0.750000  1
  Ir  Ir22  1  0.671278  0.328722  0.000000  1
  Ir  Ir23  1  0.328722  0.671278  0.000000  1
  Ir  Ir24  1  0.328716  0.671284  0.500000  1
  Ir  Ir25  1  0.671284  0.328716  0.500000  1
  Pd  Pd26  1  0.000000  0.000000  0.500000  1
  Pt  Pt27  1  0.000000  0.000000  0.000000  1
