# generated using pymatgen
data_Th10Si16Pt
_symmetry_space_group_name_H-M   'P 1'
_cell_length_a   11.35415630
_cell_length_b   11.38226538
_cell_length_c   11.35415784
_cell_angle_alpha   143.28020410
_cell_angle_beta   136.65660691
_cell_angle_gamma   58.02860785
_symmetry_Int_Tables_number   1
_chemical_formula_structural   Th10Si16Pt
_chemical_formula_sum   'Th10 Si16 Pt1'
_cell_volume   597.05117544
_cell_formula_units_Z   1
loop_
 _symmetry_equiv_pos_site_id
 _symmetry_equiv_pos_as_xyz
  1  'x, y, z'
loop_
 _atom_site_type_symbol
 _atom_site_label
 _atom_site_symmetry_multiplicity
 _atom_site_fract_x
 _atom_site_fract_y
 _atom_site_fract_z
 _atom_site_occupancy
  Th  Th0  1  0.055003  0.566154  0.021432  1
  Th  Th1  1  0.351677  0.370331  0.521609  1
  Th  Th2  1  0.153285  0.159652  0.514928  1
  Th  Th3  1  0.456451  0.964597  0.022079  1
  Th  Th4  1  0.644726  0.159652  0.006368  1
  Th  Th5  1  0.942517  0.964597  0.508144  1
  Th  Th6  1  0.848722  0.370331  0.018653  1
  Th  Th7  1  0.544723  0.566154  0.511151  1
  Th  Th8  1  0.247539  0.765255  0.009610  1
  Th  Th9  1  0.755645  0.765255  0.517715  1
  Si  Si10  1  0.110925  0.063220  0.952294  1
  Si  Si11  1  0.799769  0.212204  0.412435  1
  Si  Si12  1  0.299749  0.897207  0.597458  1
  Si  Si13  1  0.400272  0.499273  0.099001  1
  Si  Si14  1  0.890589  0.840507  0.949918  1
  Si  Si15  1  0.101962  0.709172  0.607210  1
  Si  Si16  1  0.199400  0.605841  0.406440  1
  Si  Si17  1  0.699458  0.297476  0.598019  1
  Si  Si18  1  0.001816  0.431056  0.429239  1
  Si  Si19  1  0.705924  0.651396  0.945472  1
  Si  Si20  1  0.598613  0.699661  0.101047  1
  Si  Si21  1  0.000592  0.088172  0.087580  1
  Si  Si22  1  0.498766  0.402641  0.903875  1
  Si  Si23  1  0.292931  0.242254  0.949323  1
  Si  Si24  1  0.592636  0.041642  0.449004  1
  Si  Si25  1  0.406845  0.851288  0.444443  1
  Pt  Pt26  1  0.899463  0.503933  0.604470  1
