# generated using pymatgen
data_Zr8Nb12Si15Sn
_symmetry_space_group_name_H-M   'P 1'
_cell_length_a   6.74576466
_cell_length_b   6.91030191
_cell_length_c   13.26204264
_cell_angle_alpha   89.84240643
_cell_angle_beta   90.24670487
_cell_angle_gamma   89.97536955
_symmetry_Int_Tables_number   1
_chemical_formula_structural   Zr8Nb12Si15Sn
_chemical_formula_sum   'Zr8 Nb12 Si15 Sn1'
_cell_volume   618.20557462
_cell_formula_units_Z   1
loop_
 _symmetry_equiv_pos_site_id
 _symmetry_equiv_pos_as_xyz
  1  'x, y, z'
loop_
 _atom_site_type_symbol
 _atom_site_label
 _atom_site_symmetry_multiplicity
 _atom_site_fract_x
 _atom_site_fract_y
 _atom_site_fract_z
 _atom_site_occupancy
  Zr  Zr0  1  0.491748  0.667504  0.598797  1
  Zr  Zr1  1  0.998441  0.827861  0.905573  1
  Zr  Zr2  1  0.501118  0.326555  0.092811  1
  Zr  Zr3  1  0.017200  0.182488  0.401106  1
  Zr  Zr4  1  0.500523  0.335152  0.404925  1
  Zr  Zr5  1  0.001010  0.171999  0.093578  1
  Zr  Zr6  1  0.498692  0.673444  0.906277  1
  Zr  Zr7  1  0.005341  0.821098  0.601294  1
  Nb  Nb8  1  0.654643  0.183359  0.629792  1
  Nb  Nb9  1  0.160761  0.328933  0.876936  1
  Nb  Nb10  1  0.335382  0.827534  0.122062  1
  Nb  Nb11  1  0.845820  0.653309  0.370011  1
  Nb  Nb12  1  0.329729  0.827880  0.374230  1
  Nb  Nb13  1  0.837260  0.668251  0.122287  1
  Nb  Nb14  1  0.662137  0.172400  0.877555  1
  Nb  Nb15  1  0.163493  0.331920  0.625989  1
  Nb  Nb16  1  0.836552  0.497580  0.750925  1
  Nb  Nb17  1  0.336609  0.002944  0.750885  1
  Nb  Nb18  1  0.163376  0.502359  0.248092  1
  Nb  Nb19  1  0.662668  0.995431  0.244037  1
  Si  Si20  1  0.168741  0.536248  0.037981  1
  Si  Si21  1  0.329661  0.036660  0.961236  1
  Si  Si22  1  0.829023  0.462990  0.538170  1
  Si  Si23  1  0.320381  0.038308  0.539740  1
  Si  Si24  1  0.829734  0.463017  0.961361  1
  Si  Si25  1  0.669542  0.961925  0.037533  1
  Si  Si26  1  0.171986  0.539637  0.464058  1
  Si  Si27  1  0.458390  0.387475  0.753968  1
  Si  Si28  1  0.959582  0.115279  0.750907  1
  Si  Si29  1  0.539244  0.616436  0.248860  1
  Si  Si30  1  0.036888  0.886652  0.247977  1
  Si  Si31  1  0.703908  0.865865  0.750740  1
  Si  Si32  1  0.203194  0.635920  0.753476  1
  Si  Si33  1  0.298830  0.135281  0.247680  1
  Si  Si34  1  0.794555  0.359103  0.246806  1
  Sn  Sn35  1  0.683837  0.961201  0.462348  1
