# generated using pymatgen
data_Tb2Co5Ni5As6
_symmetry_space_group_name_H-M   'P 1'
_cell_length_a   3.82048600
_cell_length_b   10.69499900
_cell_length_c   12.23320700
_cell_angle_alpha   90.00000000
_cell_angle_beta   90.00000000
_cell_angle_gamma   90.00000000
_symmetry_Int_Tables_number   1
_chemical_formula_structural   Tb2Co5Ni5As6
_chemical_formula_sum   'Tb4 Co10 Ni10 As12'
_cell_volume   499.84998732
_cell_formula_units_Z   2
loop_
 _symmetry_equiv_pos_site_id
 _symmetry_equiv_pos_as_xyz
  1  'x, y, z'
loop_
 _atom_site_type_symbol
 _atom_site_label
 _atom_site_symmetry_multiplicity
 _atom_site_fract_x
 _atom_site_fract_y
 _atom_site_fract_z
 _atom_site_occupancy
  Tb  Tb0  1  0.250000  0.580932  0.703225  1
  Tb  Tb1  1  0.250000  0.919068  0.203225  1
  Tb  Tb2  1  0.750000  0.419290  0.297770  1
  Tb  Tb3  1  0.750000  0.080710  0.797770  1
  Co  Co4  1  0.750000  0.783022  0.822095  1
  Co  Co5  1  0.750000  0.716978  0.322095  1
  Co  Co6  1  0.250000  0.881028  0.695879  1
  Co  Co7  1  0.250000  0.618972  0.195879  1
  Co  Co8  1  0.750000  0.117736  0.303716  1
  Co  Co9  1  0.750000  0.382264  0.803716  1
  Co  Co10  1  0.250000  0.469660  0.932722  1
  Co  Co11  1  0.250000  0.030340  0.432722  1
  Co  Co12  1  0.750000  0.530239  0.067946  1
  Co  Co13  1  0.750000  0.969761  0.567946  1
  Ni  Ni14  1  0.250000  0.707576  0.989752  1
  Ni  Ni15  1  0.250000  0.792424  0.489752  1
  Ni  Ni16  1  0.750000  0.290338  0.008248  1
  Ni  Ni17  1  0.750000  0.209662  0.508248  1
  Ni  Ni18  1  0.250000  0.409561  0.486961  1
  Ni  Ni19  1  0.250000  0.090439  0.986961  1
  Ni  Ni20  1  0.750000  0.591579  0.513187  1
  Ni  Ni21  1  0.750000  0.908421  0.013187  1
  Ni  Ni22  1  0.250000  0.216651  0.178268  1
  Ni  Ni23  1  0.250000  0.283349  0.678268  1
  As  As24  1  0.250000  0.418955  0.114677  1
  As  As25  1  0.250000  0.081045  0.614677  1
  As  As26  1  0.750000  0.583298  0.885553  1
  As  As27  1  0.750000  0.916702  0.385553  1
  As  As28  1  0.250000  0.270675  0.870238  1
  As  As29  1  0.250000  0.229325  0.370238  1
  As  As30  1  0.750000  0.729960  0.131627  1
  As  As31  1  0.750000  0.770040  0.631627  1
  As  As32  1  0.250000  0.605982  0.387713  1
  As  As33  1  0.250000  0.894018  0.887713  1
  As  As34  1  0.750000  0.397604  0.610422  1
  As  As35  1  0.750000  0.102396  0.110422  1
