# generated using pymatgen
data_Co3P3Ru2W
_symmetry_space_group_name_H-M   'P 1'
_cell_length_a   5.73438346
_cell_length_b   5.73438358
_cell_length_c   3.75551800
_cell_angle_alpha   90.00000000
_cell_angle_beta   90.00000000
_cell_angle_gamma   119.30672497
_symmetry_Int_Tables_number   1
_chemical_formula_structural   Co3P3Ru2W
_chemical_formula_sum   'Co3 P3 Ru2 W1'
_cell_volume   107.68759895
_cell_formula_units_Z   1
loop_
 _symmetry_equiv_pos_site_id
 _symmetry_equiv_pos_as_xyz
  1  'x, y, z'
loop_
 _atom_site_type_symbol
 _atom_site_label
 _atom_site_symmetry_multiplicity
 _atom_site_fract_x
 _atom_site_fract_y
 _atom_site_fract_z
 _atom_site_occupancy
  Co  Co0  1  0.743715  0.993268  0.000000  1
  Co  Co1  1  0.993268  0.743715  0.000000  1
  Co  Co2  1  0.260551  0.260551  0.000000  1
  P  P3  1  0.330089  0.671979  0.000000  1
  P  P4  1  0.671979  0.330089  0.000000  1
  P  P5  1  0.997738  0.997738  0.500000  1
  Ru  Ru6  1  0.408384  0.008003  0.500000  1
  Ru  Ru7  1  0.008003  0.408384  0.500000  1
  W  W8  1  0.586275  0.586275  0.500000  1
