# generated using pymatgen
data_TaV(SiAs)2
_symmetry_space_group_name_H-M   'P 1'
_cell_length_a   3.46353900
_cell_length_b   3.46353900
_cell_length_c   7.72333300
_cell_angle_alpha   90.00000000
_cell_angle_beta   90.00000000
_cell_angle_gamma   90.00000000
_symmetry_Int_Tables_number   1
_chemical_formula_structural   TaV(SiAs)2
_chemical_formula_sum   'Ta1 V1 Si2 As2'
_cell_volume   92.64989357
_cell_formula_units_Z   1
loop_
 _symmetry_equiv_pos_site_id
 _symmetry_equiv_pos_as_xyz
  1  'x, y, z'
loop_
 _atom_site_type_symbol
 _atom_site_label
 _atom_site_symmetry_multiplicity
 _atom_site_fract_x
 _atom_site_fract_y
 _atom_site_fract_z
 _atom_site_occupancy
  Ta  Ta0  1  0.000000  0.500000  0.746392  1
  V  V1  1  0.500000  0.000000  0.252828  1
  Si  Si2  1  0.000000  0.000000  0.009091  1
  Si  Si3  1  0.500000  0.500000  0.009091  1
  As  As4  1  0.500000  0.000000  0.602305  1
  As  As5  1  0.000000  0.500000  0.380293  1
