# generated using pymatgen
data_LaSe27
_symmetry_space_group_name_H-M   'P 1'
_cell_length_a   14.86396471
_cell_length_b   14.86396474
_cell_length_c   14.86396509
_cell_angle_alpha   118.70622327
_cell_angle_beta   118.70622447
_cell_angle_gamma   118.70621732
_symmetry_Int_Tables_number   1
_chemical_formula_structural   LaSe27
_chemical_formula_sum   'La1 Se27'
_cell_volume   964.49651175
_cell_formula_units_Z   1
loop_
 _symmetry_equiv_pos_site_id
 _symmetry_equiv_pos_as_xyz
  1  'x, y, z'
loop_
 _atom_site_type_symbol
 _atom_site_label
 _atom_site_symmetry_multiplicity
 _atom_site_fract_x
 _atom_site_fract_y
 _atom_site_fract_z
 _atom_site_occupancy
  La  La0  1  0.451942  0.451942  0.451942  1
  Se  Se1  1  0.011688  0.634748  0.634748  1
  Se  Se2  1  0.634748  0.634748  0.011688  1
  Se  Se3  1  0.634748  0.011688  0.634748  1
  Se  Se4  1  0.266756  0.893180  0.748852  1
  Se  Se5  1  0.893180  0.748852  0.266756  1
  Se  Se6  1  0.748852  0.266756  0.893180  1
  Se  Se7  1  0.893180  0.266756  0.748852  1
  Se  Se8  1  0.266756  0.748852  0.893180  1
  Se  Se9  1  0.748852  0.893180  0.266756  1
  Se  Se10  1  0.071025  0.605513  0.405071  1
  Se  Se11  1  0.605513  0.405071  0.071025  1
  Se  Se12  1  0.405071  0.071025  0.605513  1
  Se  Se13  1  0.605513  0.071025  0.405071  1
  Se  Se14  1  0.071025  0.405071  0.605513  1
  Se  Se15  1  0.405071  0.605513  0.071025  1
  Se  Se16  1  0.376514  0.749541  0.601170  1
  Se  Se17  1  0.749541  0.601170  0.376514  1
  Se  Se18  1  0.601170  0.376514  0.749541  1
  Se  Se19  1  0.749541  0.376514  0.601170  1
  Se  Se20  1  0.376514  0.601170  0.749541  1
  Se  Se21  1  0.601170  0.749541  0.376514  1
  Se  Se22  1  0.179047  0.420634  0.420634  1
  Se  Se23  1  0.420634  0.420634  0.179047  1
  Se  Se24  1  0.420634  0.179047  0.420634  1
  Se  Se25  1  0.029963  0.914225  0.914225  1
  Se  Se26  1  0.914225  0.914225  0.029963  1
  Se  Se27  1  0.914225  0.029963  0.914225  1
