# generated using pymatgen
data_Yb5SiSb2
_symmetry_space_group_name_H-M   'P 1'
_cell_length_a   7.95386100
_cell_length_b   9.45923600
_cell_length_c   12.62504000
_cell_angle_alpha   90.00000000
_cell_angle_beta   90.00000000
_cell_angle_gamma   90.00000000
_symmetry_Int_Tables_number   1
_chemical_formula_structural   Yb5SiSb2
_chemical_formula_sum   'Yb20 Si4 Sb8'
_cell_volume   949.87579441
_cell_formula_units_Z   4
loop_
 _symmetry_equiv_pos_site_id
 _symmetry_equiv_pos_as_xyz
  1  'x, y, z'
loop_
 _atom_site_type_symbol
 _atom_site_label
 _atom_site_symmetry_multiplicity
 _atom_site_fract_x
 _atom_site_fract_y
 _atom_site_fract_z
 _atom_site_occupancy
  Yb  Yb0  1  0.444264  0.750000  0.000420  1
  Yb  Yb1  1  0.944264  0.250000  0.499580  1
  Yb  Yb2  1  0.555736  0.250000  0.999580  1
  Yb  Yb3  1  0.055736  0.750000  0.500420  1
  Yb  Yb4  1  0.647275  0.750000  0.301468  1
  Yb  Yb5  1  0.147275  0.250000  0.198532  1
  Yb  Yb6  1  0.352725  0.250000  0.698532  1
  Yb  Yb7  1  0.852725  0.750000  0.801468  1
  Yb  Yb8  1  0.324934  0.750000  0.719181  1
  Yb  Yb9  1  0.824934  0.250000  0.780819  1
  Yb  Yb10  1  0.675066  0.250000  0.280819  1
  Yb  Yb11  1  0.175066  0.750000  0.219181  1
  Yb  Yb12  1  0.322765  0.471522  0.425708  1
  Yb  Yb13  1  0.822765  0.528478  0.074292  1
  Yb  Yb14  1  0.677235  0.971522  0.574292  1
  Yb  Yb15  1  0.177235  0.028478  0.925708  1
  Yb  Yb16  1  0.677235  0.528478  0.574292  1
  Yb  Yb17  1  0.177235  0.471522  0.925708  1
  Yb  Yb18  1  0.322765  0.028478  0.425708  1
  Yb  Yb19  1  0.822765  0.971522  0.074292  1
  Si  Si20  1  0.060469  0.750000  0.990880  1
  Si  Si21  1  0.560469  0.250000  0.509120  1
  Si  Si22  1  0.939531  0.250000  0.009120  1
  Si  Si23  1  0.439531  0.750000  0.490880  1
  Sb  Sb24  1  0.441541  0.007389  0.168732  1
  Sb  Sb25  1  0.941541  0.992611  0.331268  1
  Sb  Sb26  1  0.558459  0.507389  0.831268  1
  Sb  Sb27  1  0.058459  0.492611  0.668732  1
  Sb  Sb28  1  0.558459  0.992611  0.831268  1
  Sb  Sb29  1  0.058459  0.007389  0.668732  1
  Sb  Sb30  1  0.441541  0.492611  0.168732  1
  Sb  Sb31  1  0.941541  0.507389  0.331268  1
