# generated using pymatgen
data_K2Zn(GaAu2)3
_symmetry_space_group_name_H-M   'P 1'
_cell_length_a   5.80871404
_cell_length_b   7.09783896
_cell_length_c   13.34532500
_cell_angle_alpha   90.00000000
_cell_angle_beta   90.00000000
_cell_angle_gamma   89.75914905
_symmetry_Int_Tables_number   1
_chemical_formula_structural   K2Zn(GaAu2)3
_chemical_formula_sum   'K4 Zn2 Ga6 Au12'
_cell_volume   550.21377121
_cell_formula_units_Z   2
loop_
 _symmetry_equiv_pos_site_id
 _symmetry_equiv_pos_as_xyz
  1  'x, y, z'
loop_
 _atom_site_type_symbol
 _atom_site_label
 _atom_site_symmetry_multiplicity
 _atom_site_fract_x
 _atom_site_fract_y
 _atom_site_fract_z
 _atom_site_occupancy
  K  K0  1  0.251464  0.105209  0.078527  1
  K  K1  1  0.248536  0.394791  0.578527  1
  K  K2  1  0.751821  0.894514  0.921785  1
  K  K3  1  0.748179  0.605486  0.421785  1
  Zn  Zn4  1  0.998485  0.905439  0.655136  1
  Zn  Zn5  1  0.501515  0.594561  0.155136  1
  Ga  Ga6  1  0.500187  0.098585  0.341738  1
  Ga  Ga7  1  0.999813  0.401415  0.841738  1
  Ga  Ga8  1  0.006554  0.095253  0.344336  1
  Ga  Ga9  1  0.493446  0.404747  0.844336  1
  Ga  Ga10  1  0.499686  0.902272  0.657852  1
  Ga  Ga11  1  0.000314  0.597728  0.157852  1
  Au  Au12  1  0.251142  0.116805  0.789051  1
  Au  Au13  1  0.248858  0.383195  0.289051  1
  Au  Au14  1  0.752113  0.881164  0.213922  1
  Au  Au15  1  0.747887  0.618836  0.713922  1
  Au  Au16  1  0.242586  0.710674  0.791623  1
  Au  Au17  1  0.257414  0.789326  0.291623  1
  Au  Au18  1  0.754603  0.290084  0.206758  1
  Au  Au19  1  0.745397  0.209916  0.706758  1
  Au  Au20  1  0.242739  0.585071  0.995483  1
  Au  Au21  1  0.257261  0.914929  0.495483  1
  Au  Au22  1  0.748056  0.414706  0.003789  1
  Au  Au23  1  0.751944  0.085294  0.503789  1
