# generated using pymatgen
data_Nb14AlSi3As4
_symmetry_space_group_name_H-M   'P 1'
_cell_length_a   3.54027600
_cell_length_b   7.96639268
_cell_length_c   14.17963872
_cell_angle_alpha   103.80090400
_cell_angle_beta   90.00000000
_cell_angle_gamma   102.83833081
_symmetry_Int_Tables_number   1
_chemical_formula_structural   Nb14AlSi3As4
_chemical_formula_sum   'Nb14 Al1 Si3 As4'
_cell_volume   378.06375586
_cell_formula_units_Z   1
loop_
 _symmetry_equiv_pos_site_id
 _symmetry_equiv_pos_as_xyz
  1  'x, y, z'
loop_
 _atom_site_type_symbol
 _atom_site_label
 _atom_site_symmetry_multiplicity
 _atom_site_fract_x
 _atom_site_fract_y
 _atom_site_fract_z
 _atom_site_occupancy
  Nb  Nb0  1  0.999572  0.999144  0.999638  1
  Nb  Nb1  1  0.498554  0.997107  0.501588  1
  Nb  Nb2  1  0.426798  0.853598  0.825366  1
  Nb  Nb3  1  0.573077  0.146153  0.172734  1
  Nb  Nb4  1  0.197571  0.395143  0.303865  1
  Nb  Nb5  1  0.803545  0.607090  0.691733  1
  Nb  Nb6  1  0.211629  0.423258  0.799510  1
  Nb  Nb7  1  0.787333  0.574666  0.200403  1
  Nb  Nb8  1  0.332514  0.665027  0.028368  1
  Nb  Nb9  1  0.667821  0.335641  0.970133  1
  Nb  Nb10  1  0.997493  0.994987  0.661632  1
  Nb  Nb11  1  0.998276  0.996552  0.338167  1
  Nb  Nb12  1  0.185042  0.370083  0.549393  1
  Nb  Nb13  1  0.820954  0.641908  0.457510  1
  Al  Al14  1  0.630378  0.260754  0.401526  1
  Si  Si15  1  0.173781  0.347560  0.106468  1
  Si  Si16  1  0.825733  0.651468  0.891098  1
  Si  Si17  1  0.370398  0.740797  0.599803  1
  As  As18  1  0.372535  0.745069  0.334660  1
  As  As19  1  0.627221  0.254444  0.666471  1
  As  As20  1  0.062350  0.124700  0.847998  1
  As  As21  1  0.937425  0.874850  0.151937  1
