# generated using pymatgen
data_Ho6Lu4IrRu3
_symmetry_space_group_name_H-M   'P 1'
_cell_length_a   6.27272514
_cell_length_b   7.27230439
_cell_length_c   8.33598062
_cell_angle_alpha   96.96224536
_cell_angle_beta   111.96097468
_cell_angle_gamma   89.95259498
_symmetry_Int_Tables_number   1
_chemical_formula_structural   Ho6Lu4IrRu3
_chemical_formula_sum   'Ho6 Lu4 Ir1 Ru3'
_cell_volume   349.66160351
_cell_formula_units_Z   1
loop_
 _symmetry_equiv_pos_site_id
 _symmetry_equiv_pos_as_xyz
  1  'x, y, z'
loop_
 _atom_site_type_symbol
 _atom_site_label
 _atom_site_symmetry_multiplicity
 _atom_site_fract_x
 _atom_site_fract_y
 _atom_site_fract_z
 _atom_site_occupancy
  Ho  Ho0  1  0.524624  0.083605  0.814194  1
  Ho  Ho1  1  0.475795  0.918765  0.184823  1
  Ho  Ho2  1  0.711452  0.415676  0.184226  1
  Ho  Ho3  1  0.289325  0.583968  0.813039  1
  Ho  Ho4  1  0.292997  0.313947  0.436511  1
  Ho  Ho5  1  0.706937  0.684027  0.565470  1
  Lu  Lu6  1  0.858536  0.182976  0.565073  1
  Lu  Lu7  1  0.140209  0.818240  0.435749  1
  Lu  Lu8  1  0.079455  0.248735  0.998025  1
  Lu  Lu9  1  0.920484  0.750425  0.001075  1
  Ir  Ir10  1  0.317897  0.577016  0.219622  1
  Ru  Ru11  1  0.679241  0.423615  0.781640  1
  Ru  Ru12  1  0.104332  0.923588  0.780566  1
  Ru  Ru13  1  0.898716  0.075415  0.219986  1
