# generated using pymatgen
data_Tb5Y3Re2(TcB12)2
_symmetry_space_group_name_H-M   'P 1'
_cell_length_a   3.69544900
_cell_length_b   9.18728956
_cell_length_c   11.57647003
_cell_angle_alpha   89.94532193
_cell_angle_beta   90.00000000
_cell_angle_gamma   90.00000000
_symmetry_Int_Tables_number   1
_chemical_formula_structural   Tb5Y3Re2(TcB12)2
_chemical_formula_sum   'Tb5 Y3 Re2 Tc2 B24'
_cell_volume   393.03440755
_cell_formula_units_Z   1
loop_
 _symmetry_equiv_pos_site_id
 _symmetry_equiv_pos_as_xyz
  1  'x, y, z'
loop_
 _atom_site_type_symbol
 _atom_site_label
 _atom_site_symmetry_multiplicity
 _atom_site_fract_x
 _atom_site_fract_y
 _atom_site_fract_z
 _atom_site_occupancy
  Tb  Tb0  1  0.000000  0.823861  0.085918  1
  Tb  Tb1  1  0.000000  0.176102  0.914041  1
  Tb  Tb2  1  0.000000  0.323465  0.414118  1
  Tb  Tb3  1  0.000000  0.676525  0.585975  1
  Tb  Tb4  1  0.000000  0.441742  0.130150  1
  Y  Y5  1  0.000000  0.558184  0.869752  1
  Y  Y6  1  0.000000  0.943319  0.369485  1
  Y  Y7  1  0.000000  0.056730  0.630553  1
  Re  Re8  1  0.000000  0.638648  0.320744  1
  Re  Re9  1  0.000000  0.361487  0.679249  1
  Tc  Tc10  1  0.000000  0.138255  0.179343  1
  Tc  Tc11  1  0.000000  0.861618  0.820639  1
  B  B12  1  0.500000  0.053237  0.067386  1
  B  B13  1  0.500000  0.946659  0.932577  1
  B  B14  1  0.500000  0.553264  0.432797  1
  B  B15  1  0.500000  0.446750  0.567294  1
  B  B16  1  0.500000  0.247800  0.081937  1
  B  B17  1  0.500000  0.751855  0.918164  1
  B  B18  1  0.500000  0.748645  0.418243  1
  B  B19  1  0.500000  0.251393  0.581814  1
  B  B20  1  0.500000  0.290862  0.234466  1
  B  B21  1  0.500000  0.708857  0.765485  1
  B  B22  1  0.500000  0.791595  0.265398  1
  B  B23  1  0.500000  0.208538  0.734621  1
  B  B24  1  0.500000  0.130670  0.314050  1
  B  B25  1  0.500000  0.869262  0.685998  1
  B  B26  1  0.500000  0.630604  0.185923  1
  B  B27  1  0.500000  0.369530  0.814269  1
  B  B28  1  0.500000  0.482358  0.288332  1
  B  B29  1  0.500000  0.517903  0.711776  1
  B  B30  1  0.500000  0.982413  0.211691  1
  B  B31  1  0.500000  0.017575  0.788326  1
  B  B32  1  0.500000  0.100321  0.471992  1
  B  B33  1  0.500000  0.899696  0.528017  1
  B  B34  1  0.500000  0.600426  0.027998  1
  B  B35  1  0.500000  0.399849  0.971479  1
