# generated using pymatgen
data_CeTh3Zn5Cu19
_symmetry_space_group_name_H-M   'P 1'
_cell_length_a   5.09807400
_cell_length_b   8.13662157
_cell_length_c   10.26106718
_cell_angle_alpha   89.82262474
_cell_angle_beta   90.00000000
_cell_angle_gamma   90.00000000
_symmetry_Int_Tables_number   1
_chemical_formula_structural   CeTh3Zn5Cu19
_chemical_formula_sum   'Ce1 Th3 Zn5 Cu19'
_cell_volume   425.63830246
_cell_formula_units_Z   1
loop_
 _symmetry_equiv_pos_site_id
 _symmetry_equiv_pos_as_xyz
  1  'x, y, z'
loop_
 _atom_site_type_symbol
 _atom_site_label
 _atom_site_symmetry_multiplicity
 _atom_site_fract_x
 _atom_site_fract_y
 _atom_site_fract_z
 _atom_site_occupancy
  Ce  Ce0  1  0.250000  0.258939  0.566692  1
  Th  Th1  1  0.750000  0.742157  0.439801  1
  Th  Th2  1  0.250000  0.758967  0.936630  1
  Th  Th3  1  0.750000  0.239158  0.056627  1
  Zn  Zn4  1  0.750000  0.354904  0.361535  1
  Zn  Zn5  1  0.250000  0.644551  0.639509  1
  Zn  Zn6  1  0.750000  0.855385  0.139485  1
  Zn  Zn7  1  0.250000  0.145423  0.859680  1
  Zn  Zn8  1  0.250000  0.317076  0.253863  1
  Cu  Cu9  1  0.505684  0.565259  0.191498  1
  Cu  Cu10  1  0.004768  0.436606  0.808029  1
  Cu  Cu11  1  0.993930  0.062522  0.308844  1
  Cu  Cu12  1  0.495066  0.936321  0.691348  1
  Cu  Cu13  1  0.750000  0.682101  0.745917  1
  Cu  Cu14  1  0.750000  0.182466  0.753335  1
  Cu  Cu15  1  0.250000  0.816889  0.246908  1
  Cu  Cu16  1  0.750000  0.935889  0.900700  1
  Cu  Cu17  1  0.250000  0.060813  0.097911  1
  Cu  Cu18  1  0.750000  0.435414  0.597759  1
  Cu  Cu19  1  0.250000  0.563577  0.403418  1
  Cu  Cu20  1  0.750000  0.594346  0.985404  1
  Cu  Cu21  1  0.250000  0.405037  0.013789  1
  Cu  Cu22  1  0.750000  0.097788  0.515419  1
  Cu  Cu23  1  0.250000  0.907703  0.486183  1
  Cu  Cu24  1  0.506070  0.062522  0.308844  1
  Cu  Cu25  1  0.004934  0.936321  0.691348  1
  Cu  Cu26  1  0.994316  0.565259  0.191498  1
  Cu  Cu27  1  0.495232  0.436606  0.808029  1
