# generated using pymatgen
data_Nd3ZrBi5
_symmetry_space_group_name_H-M   'P 1'
_cell_length_a   9.72631706
_cell_length_b   9.72631807
_cell_length_c   6.56370816
_cell_angle_alpha   89.98729023
_cell_angle_beta   89.98729137
_cell_angle_gamma   120.00193059
_symmetry_Int_Tables_number   1
_chemical_formula_structural   Nd3ZrBi5
_chemical_formula_sum   'Nd6 Zr2 Bi10'
_cell_volume   537.73498603
_cell_formula_units_Z   2
loop_
 _symmetry_equiv_pos_site_id
 _symmetry_equiv_pos_as_xyz
  1  'x, y, z'
loop_
 _atom_site_type_symbol
 _atom_site_label
 _atom_site_symmetry_multiplicity
 _atom_site_fract_x
 _atom_site_fract_y
 _atom_site_fract_z
 _atom_site_occupancy
  Nd  Nd0  1  0.618553  0.000027  0.250012  1
  Nd  Nd1  1  0.000028  0.618553  0.250012  1
  Nd  Nd2  1  0.381421  0.381420  0.249937  1
  Nd  Nd3  1  0.381492  0.999979  0.749980  1
  Nd  Nd4  1  0.999979  0.381492  0.749980  1
  Nd  Nd5  1  0.618563  0.618564  0.750080  1
  Zr  Zr6  1  0.000000  0.000000  0.000042  1
  Zr  Zr7  1  0.000009  0.000009  0.499958  1
  Bi  Bi8  1  0.666697  0.333306  0.000044  1
  Bi  Bi9  1  0.333307  0.666697  0.000044  1
  Bi  Bi10  1  0.266062  0.999993  0.249972  1
  Bi  Bi11  1  0.999994  0.266062  0.249972  1
  Bi  Bi12  1  0.733835  0.733834  0.249990  1
  Bi  Bi13  1  0.666707  0.333293  0.499949  1
  Bi  Bi14  1  0.333293  0.666708  0.499949  1
  Bi  Bi15  1  0.733891  0.999997  0.750035  1
  Bi  Bi16  1  0.999997  0.733890  0.750035  1
  Bi  Bi17  1  0.266177  0.266177  0.750009  1
