# generated using pymatgen
data_Tm3AlSn2Pd3
_symmetry_space_group_name_H-M   'P 1'
_cell_length_a   7.61463529
_cell_length_b   7.50723729
_cell_length_c   3.77011400
_cell_angle_alpha   90.00000000
_cell_angle_beta   90.00000000
_cell_angle_gamma   119.53452181
_symmetry_Int_Tables_number   1
_chemical_formula_structural   Tm3AlSn2Pd3
_chemical_formula_sum   'Tm3 Al1 Sn2 Pd3'
_cell_volume   187.51342164
_cell_formula_units_Z   1
loop_
 _symmetry_equiv_pos_site_id
 _symmetry_equiv_pos_as_xyz
  1  'x, y, z'
loop_
 _atom_site_type_symbol
 _atom_site_label
 _atom_site_symmetry_multiplicity
 _atom_site_fract_x
 _atom_site_fract_y
 _atom_site_fract_z
 _atom_site_occupancy
  Tm  Tm0  1  0.000000  0.414343  0.500000  1
  Tm  Tm1  1  0.603092  0.595648  0.500000  1
  Tm  Tm2  1  0.396908  0.992556  0.500000  1
  Al  Al3  1  0.000000  0.742041  0.000000  1
  Sn  Sn4  1  0.261594  0.258954  0.000000  1
  Sn  Sn5  1  0.738406  0.997359  0.000000  1
  Pd  Pd6  1  0.323547  0.669270  0.000000  1
  Pd  Pd7  1  0.676453  0.345723  0.000000  1
  Pd  Pd8  1  0.000000  0.984106  0.500000  1
