# generated using pymatgen
data_NdDy2Ti(Co4P3)2
_symmetry_space_group_name_H-M   'P 1'
_cell_length_a   3.71648100
_cell_length_b   10.64582500
_cell_length_c   12.33641600
_cell_angle_alpha   90.00000000
_cell_angle_beta   90.00000000
_cell_angle_gamma   90.00000000
_symmetry_Int_Tables_number   1
_chemical_formula_structural   NdDy2Ti(Co4P3)2
_chemical_formula_sum   'Nd2 Dy4 Ti2 Co16 P12'
_cell_volume   488.09037728
_cell_formula_units_Z   2
loop_
 _symmetry_equiv_pos_site_id
 _symmetry_equiv_pos_as_xyz
  1  'x, y, z'
loop_
 _atom_site_type_symbol
 _atom_site_label
 _atom_site_symmetry_multiplicity
 _atom_site_fract_x
 _atom_site_fract_y
 _atom_site_fract_z
 _atom_site_occupancy
  Nd  Nd0  1  0.000000  0.500000  0.526057  1
  Nd  Nd1  1  0.500000  0.000000  0.473943  1
  Dy  Dy2  1  0.500000  0.819702  0.203661  1
  Dy  Dy3  1  0.500000  0.180298  0.203661  1
  Dy  Dy4  1  0.000000  0.680298  0.796339  1
  Dy  Dy5  1  0.000000  0.319702  0.796339  1
  Ti  Ti6  1  0.500000  0.500000  0.151390  1
  Ti  Ti7  1  0.000000  0.000000  0.848610  1
  Co  Co8  1  0.500000  0.500000  0.705792  1
  Co  Co9  1  0.000000  0.000000  0.294208  1
  Co  Co10  1  0.000000  0.500000  0.987230  1
  Co  Co11  1  0.500000  0.000000  0.012770  1
  Co  Co12  1  0.500000  0.332026  0.994053  1
  Co  Co13  1  0.500000  0.667974  0.994053  1
  Co  Co14  1  0.000000  0.167974  0.005947  1
  Co  Co15  1  0.000000  0.832026  0.005947  1
  Co  Co16  1  0.500000  0.295455  0.430744  1
  Co  Co17  1  0.500000  0.704545  0.430744  1
  Co  Co18  1  0.000000  0.204545  0.569256  1
  Co  Co19  1  0.000000  0.795455  0.569256  1
  Co  Co20  1  0.500000  0.878909  0.707993  1
  Co  Co21  1  0.500000  0.121091  0.707993  1
  Co  Co22  1  0.000000  0.621091  0.292007  1
  Co  Co23  1  0.000000  0.378909  0.292007  1
  P  P24  1  0.500000  0.500000  0.884177  1
  P  P25  1  0.000000  0.000000  0.115823  1
  P  P26  1  0.500000  0.500000  0.349422  1
  P  P27  1  0.000000  0.000000  0.650578  1
  P  P28  1  0.500000  0.307405  0.617043  1
  P  P29  1  0.500000  0.692595  0.617043  1
  P  P30  1  0.000000  0.192595  0.382957  1
  P  P31  1  0.000000  0.807405  0.382957  1
  P  P32  1  0.500000  0.842928  0.892870  1
  P  P33  1  0.500000  0.157072  0.892870  1
  P  P34  1  0.000000  0.657072  0.107130  1
  P  P35  1  0.000000  0.342928  0.107130  1
