# generated using pymatgen
data_Y20CdIn5Rh2
_symmetry_space_group_name_H-M   'P 1'
_cell_length_a   9.82324401
_cell_length_b   9.87354853
_cell_length_c   9.70285300
_cell_angle_alpha   90.00000000
_cell_angle_beta   90.00000000
_cell_angle_gamma   120.16954265
_symmetry_Int_Tables_number   1
_chemical_formula_structural   Y20CdIn5Rh2
_chemical_formula_sum   'Y20 Cd1 In5 Rh2'
_cell_volume   813.60532644
_cell_formula_units_Z   1
loop_
 _symmetry_equiv_pos_site_id
 _symmetry_equiv_pos_as_xyz
  1  'x, y, z'
loop_
 _atom_site_type_symbol
 _atom_site_label
 _atom_site_symmetry_multiplicity
 _atom_site_fract_x
 _atom_site_fract_y
 _atom_site_fract_z
 _atom_site_occupancy
  Y  Y0  1  0.997293  0.998646  0.501962  1
  Y  Y1  1  0.997293  0.998646  0.998038  1
  Y  Y2  1  0.209574  0.790211  0.440916  1
  Y  Y3  1  0.209574  0.419364  0.440916  1
  Y  Y4  1  0.580879  0.790440  0.438601  1
  Y  Y5  1  0.790652  0.210430  0.559436  1
  Y  Y6  1  0.790652  0.580222  0.559436  1
  Y  Y7  1  0.418296  0.209147  0.560786  1
  Y  Y8  1  0.790652  0.210430  0.940564  1
  Y  Y9  1  0.790652  0.580222  0.940564  1
  Y  Y10  1  0.418296  0.209147  0.939214  1
  Y  Y11  1  0.209574  0.790211  0.059084  1
  Y  Y12  1  0.209574  0.419364  0.059084  1
  Y  Y13  1  0.580879  0.790440  0.061399  1
  Y  Y14  1  0.543094  0.458349  0.250000  1
  Y  Y15  1  0.543094  0.084745  0.250000  1
  Y  Y16  1  0.917525  0.458763  0.250000  1
  Y  Y17  1  0.460236  0.544221  0.750000  1
  Y  Y18  1  0.460236  0.916015  0.750000  1
  Y  Y19  1  0.084081  0.542040  0.750000  1
  Cd  Cd20  1  0.766024  0.883011  0.750000  1
  In  In21  1  0.882912  0.118038  0.250000  1
  In  In22  1  0.882912  0.764875  0.250000  1
  In  In23  1  0.234153  0.117077  0.250000  1
  In  In24  1  0.116727  0.880965  0.750000  1
  In  In25  1  0.116727  0.235761  0.750000  1
  Rh  Rh26  1  0.331599  0.665800  0.250000  1
  Rh  Rh27  1  0.666840  0.333419  0.750000  1
