# generated using pymatgen
data_Tb3Zn3NiPt2
_symmetry_space_group_name_H-M   'P 1'
_cell_length_a   7.28129200
_cell_length_b   7.28129350
_cell_length_c   3.78352800
_cell_angle_alpha   90.00000000
_cell_angle_beta   90.00000000
_cell_angle_gamma   120.00000227
_symmetry_Int_Tables_number   1
_chemical_formula_structural   Tb3Zn3NiPt2
_chemical_formula_sum   'Tb3 Zn3 Ni1 Pt2'
_cell_volume   173.71789540
_cell_formula_units_Z   1
loop_
 _symmetry_equiv_pos_site_id
 _symmetry_equiv_pos_as_xyz
  1  'x, y, z'
loop_
 _atom_site_type_symbol
 _atom_site_label
 _atom_site_symmetry_multiplicity
 _atom_site_fract_x
 _atom_site_fract_y
 _atom_site_fract_z
 _atom_site_occupancy
  Tb  Tb0  1  0.000000  0.596094  0.000000  1
  Tb  Tb1  1  0.403906  0.403906  0.000000  1
  Tb  Tb2  1  0.596094  0.000000  0.000000  1
  Zn  Zn3  1  0.235979  0.000000  0.500000  1
  Zn  Zn4  1  0.764021  0.764021  0.500000  1
  Zn  Zn5  1  0.000000  0.235979  0.500000  1
  Ni  Ni6  1  0.000000  0.000000  0.000000  1
  Pt  Pt7  1  0.666667  0.333333  0.500000  1
  Pt  Pt8  1  0.333333  0.666667  0.500000  1
