# generated using pymatgen
data_Ho4TmPt4
_symmetry_space_group_name_H-M   'P 1'
_cell_length_a   7.43339000
_cell_length_b   7.53601200
_cell_length_c   14.67168100
_cell_angle_alpha   90.00000000
_cell_angle_beta   90.00000000
_cell_angle_gamma   90.00000000
_symmetry_Int_Tables_number   1
_chemical_formula_structural   Ho4TmPt4
_chemical_formula_sum   'Ho16 Tm4 Pt16'
_cell_volume   821.87993170
_cell_formula_units_Z   4
loop_
 _symmetry_equiv_pos_site_id
 _symmetry_equiv_pos_as_xyz
  1  'x, y, z'
loop_
 _atom_site_type_symbol
 _atom_site_label
 _atom_site_symmetry_multiplicity
 _atom_site_fract_x
 _atom_site_fract_y
 _atom_site_fract_z
 _atom_site_occupancy
  Ho  Ho0  1  0.656787  0.168036  0.622549  1
  Ho  Ho1  1  0.156787  0.331964  0.877451  1
  Ho  Ho2  1  0.343213  0.831964  0.122549  1
  Ho  Ho3  1  0.843213  0.668036  0.377451  1
  Ho  Ho4  1  0.343213  0.831964  0.377451  1
  Ho  Ho5  1  0.843213  0.668036  0.122549  1
  Ho  Ho6  1  0.656787  0.168036  0.877451  1
  Ho  Ho7  1  0.156787  0.331964  0.622549  1
  Ho  Ho8  1  0.501921  0.679977  0.593069  1
  Ho  Ho9  1  0.001921  0.820023  0.906931  1
  Ho  Ho10  1  0.498079  0.320023  0.093069  1
  Ho  Ho11  1  0.998079  0.179977  0.406931  1
  Ho  Ho12  1  0.498079  0.320023  0.406931  1
  Ho  Ho13  1  0.998079  0.179977  0.093069  1
  Ho  Ho14  1  0.501921  0.679977  0.906931  1
  Ho  Ho15  1  0.001921  0.820023  0.593069  1
  Tm  Tm16  1  0.818880  0.512306  0.750000  1
  Tm  Tm17  1  0.318880  0.987694  0.750000  1
  Tm  Tm18  1  0.181120  0.487694  0.250000  1
  Tm  Tm19  1  0.681120  0.012306  0.250000  1
  Pt  Pt20  1  0.683857  0.968109  0.457941  1
  Pt  Pt21  1  0.183857  0.531891  0.042059  1
  Pt  Pt22  1  0.316143  0.031891  0.957941  1
  Pt  Pt23  1  0.816143  0.468109  0.542059  1
  Pt  Pt24  1  0.316143  0.031891  0.542059  1
  Pt  Pt25  1  0.816143  0.468109  0.957941  1
  Pt  Pt26  1  0.683857  0.968109  0.042059  1
  Pt  Pt27  1  0.183857  0.531891  0.457941  1
  Pt  Pt28  1  0.454527  0.387995  0.750000  1
  Pt  Pt29  1  0.954527  0.112005  0.750000  1
  Pt  Pt30  1  0.545473  0.612005  0.250000  1
  Pt  Pt31  1  0.045473  0.887995  0.250000  1
  Pt  Pt32  1  0.681854  0.855556  0.750000  1
  Pt  Pt33  1  0.181854  0.644444  0.750000  1
  Pt  Pt34  1  0.318146  0.144444  0.250000  1
  Pt  Pt35  1  0.818146  0.355556  0.250000  1
