# generated using pymatgen
data_Sr4TaCrO8
_symmetry_space_group_name_H-M   'P 1'
_cell_length_a   6.95817061
_cell_length_b   6.95816999
_cell_length_c   5.61559000
_cell_angle_alpha   90.00000000
_cell_angle_beta   90.00000000
_cell_angle_gamma   132.36732007
_symmetry_Int_Tables_number   1
_chemical_formula_structural   Sr4TaCrO8
_chemical_formula_sum   'Sr4 Ta1 Cr1 O8'
_cell_volume   200.87958182
_cell_formula_units_Z   1
loop_
 _symmetry_equiv_pos_site_id
 _symmetry_equiv_pos_as_xyz
  1  'x, y, z'
loop_
 _atom_site_type_symbol
 _atom_site_label
 _atom_site_symmetry_multiplicity
 _atom_site_fract_x
 _atom_site_fract_y
 _atom_site_fract_z
 _atom_site_occupancy
  Sr  Sr0  1  0.648152  0.351848  0.000000  1
  Sr  Sr1  1  0.145606  0.854394  0.500000  1
  Sr  Sr2  1  0.854394  0.145606  0.500000  1
  Sr  Sr3  1  0.351848  0.648152  0.000000  1
  Ta  Ta4  1  0.500000  0.500000  0.500000  1
  Cr  Cr5  1  0.000000  0.000000  0.000000  1
  O  O6  1  0.748862  0.748862  0.747707  1
  O  O7  1  0.251138  0.251138  0.252293  1
  O  O8  1  0.251138  0.251138  0.747707  1
  O  O9  1  0.748862  0.748862  0.252293  1
  O  O10  1  0.838520  0.161480  0.000000  1
  O  O11  1  0.340138  0.659862  0.500000  1
  O  O12  1  0.659862  0.340138  0.500000  1
  O  O13  1  0.161480  0.838520  0.000000  1
