# generated using pymatgen
data_Sr11Dy(GeAu)12
_symmetry_space_group_name_H-M   'P 1'
_cell_length_a   4.64072600
_cell_length_b   7.95851842
_cell_length_c   23.39219700
_cell_angle_alpha   89.96578171
_cell_angle_beta   90.00000000
_cell_angle_gamma   90.00000000
_symmetry_Int_Tables_number   1
_chemical_formula_structural   Sr11Dy(GeAu)12
_chemical_formula_sum   'Sr11 Dy1 Ge12 Au12'
_cell_volume   863.95095375
_cell_formula_units_Z   1
loop_
 _symmetry_equiv_pos_site_id
 _symmetry_equiv_pos_as_xyz
  1  'x, y, z'
loop_
 _atom_site_type_symbol
 _atom_site_label
 _atom_site_symmetry_multiplicity
 _atom_site_fract_x
 _atom_site_fract_y
 _atom_site_fract_z
 _atom_site_occupancy
  Sr  Sr0  1  0.250000  0.793724  0.167538  1
  Sr  Sr1  1  0.250000  0.782092  0.502243  1
  Sr  Sr2  1  0.250000  0.705912  0.332722  1
  Sr  Sr3  1  0.750000  0.219726  0.499179  1
  Sr  Sr4  1  0.750000  0.287598  0.668369  1
  Sr  Sr5  1  0.750000  0.270745  0.998335  1
  Sr  Sr6  1  0.250000  0.785885  0.829955  1
  Sr  Sr7  1  0.250000  0.736595  0.998814  1
  Sr  Sr8  1  0.750000  0.211191  0.168280  1
  Sr  Sr9  1  0.750000  0.296175  0.333476  1
  Sr  Sr10  1  0.250000  0.707854  0.668415  1
  Dy  Dy11  1  0.750000  0.211499  0.833218  1
  Ge  Ge12  1  0.250000  0.411285  0.892873  1
  Ge  Ge13  1  0.750000  0.917968  0.731248  1
  Ge  Ge14  1  0.750000  0.583136  0.225099  1
  Ge  Ge15  1  0.250000  0.091294  0.072317  1
  Ge  Ge16  1  0.750000  0.916973  0.911788  1
  Ge  Ge17  1  0.750000  0.916300  0.607394  1
  Ge  Ge18  1  0.250000  0.409071  0.572312  1
  Ge  Ge19  1  0.250000  0.083479  0.393579  1
  Ge  Ge20  1  0.250000  0.082556  0.275446  1
  Ge  Ge21  1  0.750000  0.591298  0.431831  1
  Ge  Ge22  1  0.250000  0.407143  0.776714  1
  Ge  Ge23  1  0.750000  0.583742  0.105169  1
  Au  Au24  1  0.750000  0.578484  0.902604  1
  Au  Au25  1  0.250000  0.418504  0.429032  1
  Au  Au26  1  0.750000  0.582741  0.572699  1
  Au  Au27  1  0.750000  0.916530  0.404796  1
  Au  Au28  1  0.250000  0.420043  0.092562  1
  Au  Au29  1  0.250000  0.416107  0.238248  1
  Au  Au30  1  0.750000  0.916429  0.262814  1
  Au  Au31  1  0.250000  0.085499  0.745286  1
  Au  Au32  1  0.250000  0.086790  0.918963  1
  Au  Au33  1  0.750000  0.917750  0.076508  1
  Au  Au34  1  0.250000  0.083858  0.595741  1
  Au  Au35  1  0.750000  0.574022  0.764436  1
