# generated using pymatgen
data_Lu3Hf4MgPt4
_symmetry_space_group_name_H-M   'P 1'
_cell_length_a   4.57904200
_cell_length_b   6.95118111
_cell_length_c   8.12912128
_cell_angle_alpha   90.58634246
_cell_angle_beta   90.00000000
_cell_angle_gamma   90.00000000
_symmetry_Int_Tables_number   1
_chemical_formula_structural   Lu3Hf4MgPt4
_chemical_formula_sum   'Lu3 Hf4 Mg1 Pt4'
_cell_volume   258.73435152
_cell_formula_units_Z   1
loop_
 _symmetry_equiv_pos_site_id
 _symmetry_equiv_pos_as_xyz
  1  'x, y, z'
loop_
 _atom_site_type_symbol
 _atom_site_label
 _atom_site_symmetry_multiplicity
 _atom_site_fract_x
 _atom_site_fract_y
 _atom_site_fract_z
 _atom_site_occupancy
  Lu  Lu0  1  0.250000  0.479156  0.178572  1
  Lu  Lu1  1  0.750000  0.018462  0.673798  1
  Lu  Lu2  1  0.750000  0.519436  0.822157  1
  Hf  Hf3  1  0.250000  0.352737  0.571281  1
  Hf  Hf4  1  0.250000  0.853137  0.927812  1
  Hf  Hf5  1  0.750000  0.651361  0.423395  1
  Hf  Hf6  1  0.750000  0.144541  0.079394  1
  Mg  Mg7  1  0.250000  0.974823  0.324849  1
  Pt  Pt8  1  0.250000  0.235205  0.897108  1
  Pt  Pt9  1  0.250000  0.732743  0.603740  1
  Pt  Pt10  1  0.750000  0.766294  0.099069  1
  Pt  Pt11  1  0.750000  0.272106  0.398823  1
