# generated using pymatgen
data_TaFe2SbCl16
_symmetry_space_group_name_H-M   'P 1'
_cell_length_a   10.06829063
_cell_length_b   10.06829078
_cell_length_c   8.84126600
_cell_angle_alpha   90.00000000
_cell_angle_beta   90.00000000
_cell_angle_gamma   128.67789317
_symmetry_Int_Tables_number   1
_chemical_formula_structural   TaFe2SbCl16
_chemical_formula_sum   'Ta1 Fe2 Sb1 Cl16'
_cell_volume   699.67172846
_cell_formula_units_Z   1
loop_
 _symmetry_equiv_pos_site_id
 _symmetry_equiv_pos_as_xyz
  1  'x, y, z'
loop_
 _atom_site_type_symbol
 _atom_site_label
 _atom_site_symmetry_multiplicity
 _atom_site_fract_x
 _atom_site_fract_y
 _atom_site_fract_z
 _atom_site_occupancy
  Ta  Ta0  1  0.116448  0.883552  0.750000  1
  Fe  Fe1  1  0.313663  0.686337  0.750000  1
  Fe  Fe2  1  0.684553  0.315447  0.250000  1
  Sb  Sb3  1  0.882969  0.117031  0.250000  1
  Cl  Cl4  1  0.377682  0.622318  0.546101  1
  Cl  Cl5  1  0.621102  0.378898  0.454277  1
  Cl  Cl6  1  0.419622  0.966096  0.750000  1
  Cl  Cl7  1  0.965612  0.422045  0.250000  1
  Cl  Cl8  1  0.577955  0.034388  0.250000  1
  Cl  Cl9  1  0.033904  0.580378  0.750000  1
  Cl  Cl10  1  0.236394  0.163032  0.750000  1
  Cl  Cl11  1  0.170713  0.239385  0.250000  1
  Cl  Cl12  1  0.760615  0.829287  0.250000  1
  Cl  Cl13  1  0.836968  0.763606  0.750000  1
  Cl  Cl14  1  0.133709  0.866291  0.489930  1
  Cl  Cl15  1  0.867801  0.132199  0.515583  1
  Cl  Cl16  1  0.867801  0.132199  0.984417  1
  Cl  Cl17  1  0.133709  0.866291  0.010070  1
  Cl  Cl18  1  0.377682  0.622318  0.953899  1
  Cl  Cl19  1  0.621102  0.378898  0.045723  1
