# generated using pymatgen
data_Sr2Tb2As7Ir8
_symmetry_space_group_name_H-M   'P 1'
_cell_length_a   4.09774100
_cell_length_b   13.30535859
_cell_length_c   13.71163691
_cell_angle_alpha   81.37115656
_cell_angle_beta   90.00000000
_cell_angle_gamma   90.00000000
_symmetry_Int_Tables_number   1
_chemical_formula_structural   Sr2Tb2As7Ir8
_chemical_formula_sum   'Sr4 Tb4 As14 Ir16'
_cell_volume   739.12275305
_cell_formula_units_Z   2
loop_
 _symmetry_equiv_pos_site_id
 _symmetry_equiv_pos_as_xyz
  1  'x, y, z'
loop_
 _atom_site_type_symbol
 _atom_site_label
 _atom_site_symmetry_multiplicity
 _atom_site_fract_x
 _atom_site_fract_y
 _atom_site_fract_z
 _atom_site_occupancy
  Sr  Sr0  1  0.250000  0.105386  0.789241  1
  Sr  Sr1  1  0.750000  0.894614  0.210759  1
  Sr  Sr2  1  0.250000  0.285271  0.103948  1
  Sr  Sr3  1  0.750000  0.714729  0.896052  1
  Tb  Tb4  1  0.250000  0.520121  0.293058  1
  Tb  Tb5  1  0.750000  0.479879  0.706942  1
  Tb  Tb6  1  0.250000  0.208065  0.440804  1
  Tb  Tb7  1  0.750000  0.791935  0.559196  1
  As  As8  1  0.250000  0.056873  0.101809  1
  As  As9  1  0.750000  0.943127  0.898191  1
  As  As10  1  0.250000  0.316155  0.685475  1
  As  As11  1  0.750000  0.683845  0.314525  1
  As  As12  1  0.250000  0.607370  0.566861  1
  As  As13  1  0.750000  0.392630  0.433139  1
  As  As14  1  0.250000  0.842755  0.718910  1
  As  As15  1  0.750000  0.157245  0.281090  1
  As  As16  1  0.750000  0.257500  0.916960  1
  As  As17  1  0.250000  0.742500  0.083040  1
  As  As18  1  0.750000  0.095594  0.585412  1
  As  As19  1  0.250000  0.904406  0.414588  1
  As  As20  1  0.750000  0.469613  0.130006  1
  As  As21  1  0.250000  0.530387  0.869994  1
  Ir  Ir22  1  0.250000  0.984849  0.573580  1
  Ir  Ir23  1  0.750000  0.015151  0.426420  1
  Ir  Ir24  1  0.250000  0.661280  0.726399  1
  Ir  Ir25  1  0.750000  0.338720  0.273601  1
  Ir  Ir26  1  0.250000  0.550291  0.050903  1
  Ir  Ir27  1  0.750000  0.449709  0.949097  1
  Ir  Ir28  1  0.250000  0.060326  0.280543  1
  Ir  Ir29  1  0.750000  0.939674  0.719457  1
  Ir  Ir30  1  0.250000  0.425477  0.522216  1
  Ir  Ir31  1  0.750000  0.574523  0.477784  1
  Ir  Ir32  1  0.250000  0.919878  0.998786  1
  Ir  Ir33  1  0.750000  0.080122  0.001214  1
  Ir  Ir34  1  0.250000  0.721996  0.404815  1
  Ir  Ir35  1  0.750000  0.278004  0.595185  1
  Ir  Ir36  1  0.250000  0.347828  0.856470  1
  Ir  Ir37  1  0.750000  0.652172  0.143530  1
