# generated using pymatgen
data_ZrGa8Ru9
_symmetry_space_group_name_H-M   'P 1'
_cell_length_a   7.44129332
_cell_length_b   7.44129379
_cell_length_c   5.29386528
_cell_angle_alpha   90.02009269
_cell_angle_beta   90.02009180
_cell_angle_gamma   120.07294208
_symmetry_Int_Tables_number   1
_chemical_formula_structural   ZrGa8Ru9
_chemical_formula_sum   'Zr1 Ga8 Ru9'
_cell_volume   253.67671377
_cell_formula_units_Z   1
loop_
 _symmetry_equiv_pos_site_id
 _symmetry_equiv_pos_as_xyz
  1  'x, y, z'
loop_
 _atom_site_type_symbol
 _atom_site_label
 _atom_site_symmetry_multiplicity
 _atom_site_fract_x
 _atom_site_fract_y
 _atom_site_fract_z
 _atom_site_occupancy
  Zr  Zr0  1  0.666744  0.666744  0.892026  1
  Ga  Ga1  1  0.666686  0.993356  0.221152  1
  Ga  Ga2  1  0.340183  0.340182  0.220878  1
  Ga  Ga3  1  0.993356  0.666687  0.221152  1
  Ga  Ga4  1  0.666702  0.340045  0.562905  1
  Ga  Ga5  1  0.340046  0.666703  0.562905  1
  Ga  Ga6  1  0.993315  0.993315  0.563940  1
  Ga  Ga7  1  0.333131  0.999987  0.892055  1
  Ga  Ga8  1  0.999987  0.333130  0.892055  1
  Ru  Ru9  1  0.666659  0.320059  0.067046  1
  Ru  Ru10  1  0.320060  0.666660  0.067046  1
  Ru  Ru11  1  0.013176  0.013176  0.067593  1
  Ru  Ru12  1  0.333254  0.999942  0.392049  1
  Ru  Ru13  1  0.999942  0.333253  0.392049  1
  Ru  Ru14  1  0.666942  0.666942  0.392087  1
  Ru  Ru15  1  0.666413  0.013144  0.717036  1
  Ru  Ru16  1  0.320261  0.320261  0.716828  1
  Ru  Ru17  1  0.013144  0.666413  0.717036  1
