# generated using pymatgen
data_Gd3AlIn3Ag2
_symmetry_space_group_name_H-M   'P 1'
_cell_length_a   7.59973200
_cell_length_b   7.59973016
_cell_length_c   4.42927700
_cell_angle_alpha   90.00000000
_cell_angle_beta   90.00000000
_cell_angle_gamma   119.99999061
_symmetry_Int_Tables_number   1
_chemical_formula_structural   Gd3AlIn3Ag2
_chemical_formula_sum   'Gd3 Al1 In3 Ag2'
_cell_volume   221.54398511
_cell_formula_units_Z   1
loop_
 _symmetry_equiv_pos_site_id
 _symmetry_equiv_pos_as_xyz
  1  'x, y, z'
loop_
 _atom_site_type_symbol
 _atom_site_label
 _atom_site_symmetry_multiplicity
 _atom_site_fract_x
 _atom_site_fract_y
 _atom_site_fract_z
 _atom_site_occupancy
  Gd  Gd0  1  0.415296  0.997627  0.500000  1
  Gd  Gd1  1  0.002373  0.417671  0.500000  1
  Gd  Gd2  1  0.582329  0.584704  0.500000  1
  Al  Al3  1  0.333333  0.666667  0.000000  1
  In  In4  1  0.748161  0.002490  0.000000  1
  In  In5  1  0.997510  0.745670  0.000000  1
  In  In6  1  0.254330  0.251839  0.000000  1
  Ag  Ag7  1  0.666667  0.333333  0.000000  1
  Ag  Ag8  1  0.000000  0.000000  0.500000  1
