# generated using pymatgen
data_Hf3ZrMo2(PO6)4
_symmetry_space_group_name_H-M   'P 1'
_cell_length_a   9.27566100
_cell_length_b   9.43258346
_cell_length_c   12.49671962
_cell_angle_alpha   89.96403210
_cell_angle_beta   90.00000000
_cell_angle_gamma   90.00000000
_symmetry_Int_Tables_number   1
_chemical_formula_structural   Hf3ZrMo2(PO6)4
_chemical_formula_sum   'Hf6 Zr2 Mo4 P8 O48'
_cell_volume   1093.38085458
_cell_formula_units_Z   2
loop_
 _symmetry_equiv_pos_site_id
 _symmetry_equiv_pos_as_xyz
  1  'x, y, z'
loop_
 _atom_site_type_symbol
 _atom_site_label
 _atom_site_symmetry_multiplicity
 _atom_site_fract_x
 _atom_site_fract_y
 _atom_site_fract_z
 _atom_site_occupancy
  Hf  Hf0  1  0.225522  0.453385  0.629551  1
  Hf  Hf1  1  0.274385  0.546383  0.128481  1
  Hf  Hf2  1  0.774478  0.953385  0.629551  1
  Hf  Hf3  1  0.274679  0.953409  0.870870  1
  Hf  Hf4  1  0.725615  0.046383  0.128481  1
  Hf  Hf5  1  0.725321  0.453409  0.870870  1
  Zr  Zr6  1  0.774403  0.546489  0.370086  1
  Zr  Zr7  1  0.225597  0.046489  0.370086  1
  Mo  Mo8  1  0.038088  0.249935  0.999956  1
  Mo  Mo9  1  0.961912  0.749935  0.999956  1
  Mo  Mo10  1  0.537999  0.249493  0.501626  1
  Mo  Mo11  1  0.462001  0.749493  0.501626  1
  P  P12  1  0.882363  0.604374  0.644267  1
  P  P13  1  0.879815  0.897598  0.356642  1
  P  P14  1  0.618226  0.103969  0.856636  1
  P  P15  1  0.617054  0.394926  0.141910  1
  P  P16  1  0.120185  0.397598  0.356642  1
  P  P17  1  0.117637  0.104374  0.644267  1
  P  P18  1  0.382946  0.894926  0.141910  1
  P  P19  1  0.381774  0.603969  0.856636  1
  O  O20  1  0.641375  0.237186  0.171385  1
  O  O21  1  0.642169  0.262070  0.827731  1
  O  O22  1  0.856681  0.740114  0.326230  1
  O  O23  1  0.858620  0.762459  0.673089  1
  O  O24  1  0.357831  0.762070  0.827731  1
  O  O25  1  0.358625  0.737186  0.171385  1
  O  O26  1  0.141380  0.262459  0.673089  1
  O  O27  1  0.143319  0.240114  0.326230  1
  O  O28  1  0.672488  0.076915  0.971090  1
  O  O29  1  0.671163  0.421722  0.027546  1
  O  O30  1  0.827661  0.577453  0.530078  1
  O  O31  1  0.826553  0.923313  0.471338  1
  O  O32  1  0.328837  0.921722  0.027546  1
  O  O33  1  0.327512  0.576915  0.971090  1
  O  O34  1  0.173447  0.423313  0.471338  1
  O  O35  1  0.172339  0.077453  0.530078  1
  O  O36  1  0.075086  0.842483  0.907182  1
  O  O37  1  0.924896  0.157422  0.092824  1
  O  O38  1  0.572347  0.657963  0.407105  1
  O  O39  1  0.575957  0.842256  0.593981  1
  O  O40  1  0.042381  0.930208  0.348345  1
  O  O41  1  0.044661  0.569449  0.651829  1
  O  O42  1  0.454812  0.429577  0.150178  1
  O  O43  1  0.455843  0.069342  0.848866  1
  O  O44  1  0.955339  0.069449  0.651829  1
  O  O45  1  0.957619  0.430208  0.348345  1
  O  O46  1  0.544157  0.569342  0.848866  1
  O  O47  1  0.545188  0.929577  0.150178  1
  O  O48  1  0.349963  0.870069  0.429211  1
  O  O49  1  0.348451  0.628037  0.572853  1
  O  O50  1  0.150912  0.371543  0.071591  1
  O  O51  1  0.151180  0.128332  0.928668  1
  O  O52  1  0.651549  0.128037  0.572853  1
  O  O53  1  0.650037  0.370069  0.429211  1
  O  O54  1  0.848820  0.628332  0.928668  1
  O  O55  1  0.849088  0.871543  0.071591  1
  O  O56  1  0.299369  0.991437  0.219789  1
  O  O57  1  0.298541  0.508154  0.777960  1
  O  O58  1  0.202802  0.494008  0.277938  1
  O  O59  1  0.200726  0.008526  0.723170  1
  O  O60  1  0.701459  0.008154  0.777960  1
  O  O61  1  0.700631  0.491437  0.219789  1
  O  O62  1  0.799274  0.508526  0.723170  1
  O  O63  1  0.797198  0.994008  0.277938  1
  O  O64  1  0.427653  0.157963  0.407105  1
  O  O65  1  0.424043  0.342256  0.593981  1
  O  O66  1  0.075104  0.657422  0.092824  1
  O  O67  1  0.924914  0.342483  0.907182  1
