# generated using pymatgen
data_Nd6TiAl23(Os3Ru)2
_symmetry_space_group_name_H-M   'P 1'
_cell_length_a   8.93536300
_cell_length_b   8.93536431
_cell_length_c   9.67498100
_cell_angle_alpha   90.00000000
_cell_angle_beta   90.00000000
_cell_angle_gamma   120.00000625
_symmetry_Int_Tables_number   1
_chemical_formula_structural   Nd6TiAl23(Os3Ru)2
_chemical_formula_sum   'Nd6 Ti1 Al23 Os6 Ru2'
_cell_volume   668.96776287
_cell_formula_units_Z   1
loop_
 _symmetry_equiv_pos_site_id
 _symmetry_equiv_pos_as_xyz
  1  'x, y, z'
loop_
 _atom_site_type_symbol
 _atom_site_label
 _atom_site_symmetry_multiplicity
 _atom_site_fract_x
 _atom_site_fract_y
 _atom_site_fract_z
 _atom_site_occupancy
  Nd  Nd0  1  0.192620  0.385238  0.250921  1
  Nd  Nd1  1  0.807734  0.615469  0.748173  1
  Nd  Nd2  1  0.614762  0.807380  0.250921  1
  Nd  Nd3  1  0.384531  0.192266  0.748173  1
  Nd  Nd4  1  0.192620  0.807380  0.250921  1
  Nd  Nd5  1  0.807734  0.192266  0.748173  1
  Ti  Ti6  1  0.333333  0.666667  0.987474  1
  Al  Al7  1  0.666667  0.333333  0.988977  1
  Al  Al8  1  0.666667  0.333333  0.509719  1
  Al  Al9  1  0.333333  0.666667  0.487631  1
  Al  Al10  1  0.162261  0.324523  0.575293  1
  Al  Al11  1  0.837508  0.675015  0.424596  1
  Al  Al12  1  0.675477  0.837739  0.575293  1
  Al  Al13  1  0.837447  0.674892  0.075580  1
  Al  Al14  1  0.324985  0.162492  0.424596  1
  Al  Al15  1  0.159129  0.318259  0.926261  1
  Al  Al16  1  0.162261  0.837739  0.575293  1
  Al  Al17  1  0.325108  0.162553  0.075580  1
  Al  Al18  1  0.837508  0.162492  0.424596  1
  Al  Al19  1  0.681741  0.840871  0.926261  1
  Al  Al20  1  0.837447  0.162553  0.075580  1
  Al  Al21  1  0.159129  0.840871  0.926261  1
  Al  Al22  1  0.562576  0.125152  0.252576  1
  Al  Al23  1  0.439571  0.879142  0.749874  1
  Al  Al24  1  0.874848  0.437424  0.252576  1
  Al  Al25  1  0.120858  0.560429  0.749874  1
  Al  Al26  1  0.562576  0.437424  0.252576  1
  Al  Al27  1  0.439571  0.560429  0.749874  1
  Al  Al28  1  0.000000  0.000000  0.250024  1
  Al  Al29  1  0.000000  0.000000  0.749054  1
  Os  Os30  1  0.498808  0.997616  0.003212  1
  Os  Os31  1  0.002384  0.501192  0.003212  1
  Os  Os32  1  0.499681  0.999361  0.502701  1
  Os  Os33  1  0.498808  0.501192  0.003212  1
  Os  Os34  1  0.000639  0.500319  0.502701  1
  Os  Os35  1  0.499681  0.500319  0.502701  1
  Ru  Ru36  1  0.000000  0.000000  0.000229  1
  Ru  Ru37  1  0.000000  0.000000  0.499328  1
