# generated using pymatgen
data_Ho8LuSi4AgB16
_symmetry_space_group_name_H-M   'P 1'
_cell_length_a   7.16487400
_cell_length_b   7.16487400
_cell_length_c   7.86949600
_cell_angle_alpha   90.00000000
_cell_angle_beta   90.00000000
_cell_angle_gamma   90.00000000
_symmetry_Int_Tables_number   1
_chemical_formula_structural   Ho8LuSi4AgB16
_chemical_formula_sum   'Ho8 Lu1 Si4 Ag1 B16'
_cell_volume   403.98387791
_cell_formula_units_Z   1
loop_
 _symmetry_equiv_pos_site_id
 _symmetry_equiv_pos_as_xyz
  1  'x, y, z'
loop_
 _atom_site_type_symbol
 _atom_site_label
 _atom_site_symmetry_multiplicity
 _atom_site_fract_x
 _atom_site_fract_y
 _atom_site_fract_z
 _atom_site_occupancy
  Ho  Ho0  1  0.681597  0.180397  0.230786  1
  Ho  Ho1  1  0.318403  0.819603  0.769214  1
  Ho  Ho2  1  0.318403  0.819603  0.230786  1
  Ho  Ho3  1  0.819603  0.681597  0.230786  1
  Ho  Ho4  1  0.819603  0.681597  0.769214  1
  Ho  Ho5  1  0.681597  0.180397  0.769214  1
  Ho  Ho6  1  0.180397  0.318403  0.769214  1
  Ho  Ho7  1  0.180397  0.318403  0.230786  1
  Lu  Lu8  1  0.500000  0.500000  0.500000  1
  Si  Si9  1  0.118026  0.613295  0.500000  1
  Si  Si10  1  0.881974  0.386705  0.500000  1
  Si  Si11  1  0.386705  0.118026  0.500000  1
  Si  Si12  1  0.613295  0.881974  0.500000  1
  Ag  Ag13  1  0.000000  0.000000  0.500000  1
  B  B14  1  0.175022  0.038552  0.000000  1
  B  B15  1  0.824978  0.961448  0.000000  1
  B  B16  1  0.961448  0.175022  0.000000  1
  B  B17  1  0.327397  0.540095  0.000000  1
  B  B18  1  0.038552  0.824978  0.000000  1
  B  B19  1  0.672603  0.459905  0.000000  1
  B  B20  1  0.540095  0.672603  0.000000  1
  B  B21  1  0.459905  0.327397  0.000000  1
  B  B22  1  0.089461  0.588608  0.000000  1
  B  B23  1  0.910539  0.411392  0.000000  1
  B  B24  1  0.411392  0.089461  0.000000  1
  B  B25  1  0.588608  0.910539  0.000000  1
  B  B26  1  0.000000  0.000000  0.158861  1
  B  B27  1  0.000000  0.000000  0.841139  1
  B  B28  1  0.500000  0.500000  0.834116  1
  B  B29  1  0.500000  0.500000  0.165884  1
