# generated using pymatgen
data_Tc2Ni4P3
_symmetry_space_group_name_H-M   'P 1'
_cell_length_a   5.94594117
_cell_length_b   5.64007448
_cell_length_c   3.60683600
_cell_angle_alpha   90.00000000
_cell_angle_beta   90.00000000
_cell_angle_gamma   118.31242824
_symmetry_Int_Tables_number   1
_chemical_formula_structural   Tc2Ni4P3
_chemical_formula_sum   'Tc2 Ni4 P3'
_cell_volume   106.48766308
_cell_formula_units_Z   1
loop_
 _symmetry_equiv_pos_site_id
 _symmetry_equiv_pos_as_xyz
  1  'x, y, z'
loop_
 _atom_site_type_symbol
 _atom_site_label
 _atom_site_symmetry_multiplicity
 _atom_site_fract_x
 _atom_site_fract_y
 _atom_site_fract_z
 _atom_site_occupancy
  Tc  Tc0  1  0.402544  0.995415  0.500000  1
  Tc  Tc1  1  0.597456  0.592871  0.500000  1
  Ni  Ni2  1  0.000000  0.400910  0.500000  1
  Ni  Ni3  1  0.000000  0.732829  0.000000  1
  Ni  Ni4  1  0.244797  0.255347  0.000000  1
  Ni  Ni5  1  0.755203  0.010550  0.000000  1
  P  P6  1  0.000000  0.000613  0.500000  1
  P  P7  1  0.659674  0.335568  0.000000  1
  P  P8  1  0.340326  0.675896  0.000000  1
