# generated using pymatgen
data_Ba2AcGa11O20
_symmetry_space_group_name_H-M   'P 1'
_cell_length_a   9.92227094
_cell_length_b   9.92231918
_cell_length_c   5.18366471
_cell_angle_alpha   75.99578023
_cell_angle_beta   75.99580573
_cell_angle_gamma   73.38410834
_symmetry_Int_Tables_number   1
_chemical_formula_structural   Ba2AcGa11O20
_chemical_formula_sum   'Ba2 Ac1 Ga11 O20'
_cell_volume   466.23022007
_cell_formula_units_Z   1
loop_
 _symmetry_equiv_pos_site_id
 _symmetry_equiv_pos_as_xyz
  1  'x, y, z'
loop_
 _atom_site_type_symbol
 _atom_site_label
 _atom_site_symmetry_multiplicity
 _atom_site_fract_x
 _atom_site_fract_y
 _atom_site_fract_z
 _atom_site_occupancy
  Ba  Ba0  1  0.002867  0.002861  0.006174  1
  Ba  Ba1  1  0.284390  0.284391  0.746571  1
  Ac  Ac2  1  0.713250  0.713250  0.284428  1
  Ga  Ga3  1  0.366816  0.633554  0.504167  1
  Ga  Ga4  1  0.633547  0.366815  0.504161  1
  Ga  Ga5  1  0.849720  0.422985  0.842558  1
  Ga  Ga6  1  0.575111  0.148515  0.162063  1
  Ga  Ga7  1  0.148501  0.575112  0.162083  1
  Ga  Ga8  1  0.422978  0.849724  0.842572  1
  Ga  Ga9  1  0.990280  0.714076  0.656035  1
  Ga  Ga10  1  0.283477  0.008079  0.346611  1
  Ga  Ga11  1  0.008075  0.283474  0.346613  1
  Ga  Ga12  1  0.714086  0.990265  0.656015  1
  Ga  Ga13  1  0.502732  0.502727  0.005655  1
  O  O14  1  0.869353  0.603253  0.644856  1
  O  O15  1  0.396625  0.127041  0.340259  1
  O  O16  1  0.127034  0.396627  0.340262  1
  O  O17  1  0.603251  0.869356  0.644845  1
  O  O18  1  0.439796  0.439800  0.389221  1
  O  O19  1  0.569443  0.569445  0.620503  1
  O  O20  1  0.702266  0.989351  0.021754  1
  O  O21  1  0.997700  0.288711  0.989662  1
  O  O22  1  0.288703  0.997704  0.989678  1
  O  O23  1  0.989358  0.702273  0.021768  1
  O  O24  1  0.550766  0.309277  0.891460  1
  O  O25  1  0.698231  0.466213  0.122973  1
  O  O26  1  0.466216  0.698231  0.122998  1
  O  O27  1  0.309280  0.550770  0.891458  1
  O  O28  1  0.897687  0.897683  0.515540  1
  O  O29  1  0.094840  0.094833  0.476554  1
  O  O30  1  0.168451  0.667890  0.425750  1
  O  O31  1  0.331135  0.830144  0.579955  1
  O  O32  1  0.830140  0.331138  0.579948  1
  O  O33  1  0.667898  0.168435  0.425751  1
