# generated using pymatgen
data_Dy5Y5Si6
_symmetry_space_group_name_H-M   'P 1'
_cell_length_a   8.45542938
_cell_length_b   8.45543067
_cell_length_c   6.37002500
_cell_angle_alpha   90.00000000
_cell_angle_beta   90.00000000
_cell_angle_gamma   120.00430923
_symmetry_Int_Tables_number   1
_chemical_formula_structural   Dy5Y5Si6
_chemical_formula_sum   'Dy5 Y5 Si6'
_cell_volume   394.38855936
_cell_formula_units_Z   1
loop_
 _symmetry_equiv_pos_site_id
 _symmetry_equiv_pos_as_xyz
  1  'x, y, z'
loop_
 _atom_site_type_symbol
 _atom_site_label
 _atom_site_symmetry_multiplicity
 _atom_site_fract_x
 _atom_site_fract_y
 _atom_site_fract_z
 _atom_site_occupancy
  Dy  Dy0  1  0.666727  0.332787  0.249966  1
  Dy  Dy1  1  0.332787  0.666727  0.249966  1
  Dy  Dy2  1  0.332787  0.666727  0.750034  1
  Dy  Dy3  1  0.666727  0.332787  0.750034  1
  Dy  Dy4  1  0.756177  0.756177  0.500000  1
  Y  Y5  1  0.243710  0.000355  0.500000  1
  Y  Y6  1  0.000355  0.243710  0.500000  1
  Y  Y7  1  0.243993  0.243993  0.000000  1
  Y  Y8  1  0.756660  0.999838  0.000000  1
  Y  Y9  1  0.999838  0.756660  0.000000  1
  Si  Si10  1  0.393810  0.393810  0.500000  1
  Si  Si11  1  0.606386  0.999946  0.500000  1
  Si  Si12  1  0.999946  0.606386  0.500000  1
  Si  Si13  1  0.606197  0.606197  0.000000  1
  Si  Si14  1  0.393889  0.000060  0.000000  1
  Si  Si15  1  0.000060  0.393889  0.000000  1
