# generated using pymatgen
data_Pr16Sm4Sn11Bi5
_symmetry_space_group_name_H-M   'P 1'
_cell_length_a   8.38691852
_cell_length_b   8.44764603
_cell_length_c   16.20133500
_cell_angle_alpha   90.09341479
_cell_angle_beta   90.34212681
_cell_angle_gamma   89.91673161
_symmetry_Int_Tables_number   1
_chemical_formula_structural   Pr16Sm4Sn11Bi5
_chemical_formula_sum   'Pr16 Sm4 Sn11 Bi5'
_cell_volume   1147.83684580
_cell_formula_units_Z   1
loop_
 _symmetry_equiv_pos_site_id
 _symmetry_equiv_pos_as_xyz
  1  'x, y, z'
loop_
 _atom_site_type_symbol
 _atom_site_label
 _atom_site_symmetry_multiplicity
 _atom_site_fract_x
 _atom_site_fract_y
 _atom_site_fract_z
 _atom_site_occupancy
  Pr  Pr0  1  0.392706  0.838005  0.880644  1
  Pr  Pr1  1  0.892367  0.661066  0.618943  1
  Pr  Pr2  1  0.607308  0.160245  0.380562  1
  Pr  Pr3  1  0.104043  0.337161  0.118731  1
  Pr  Pr4  1  0.609514  0.164959  0.119553  1
  Pr  Pr5  1  0.113374  0.336370  0.382653  1
  Pr  Pr6  1  0.385146  0.838249  0.618173  1
  Pr  Pr7  1  0.889106  0.659328  0.881682  1
  Pr  Pr8  1  0.558584  0.332385  0.891406  1
  Pr  Pr9  1  0.055735  0.174741  0.606742  1
  Pr  Pr10  1  0.444903  0.674346  0.393727  1
  Pr  Pr11  1  0.944544  0.823539  0.109657  1
  Pr  Pr12  1  0.450857  0.668048  0.108644  1
  Pr  Pr13  1  0.958677  0.826553  0.394482  1
  Pr  Pr14  1  0.541249  0.327769  0.605013  1
  Pr  Pr15  1  0.051438  0.175081  0.891333  1
  Sm  Sm16  1  0.221113  0.499776  0.745823  1
  Sm  Sm17  1  0.721510  0.002445  0.748658  1
  Sm  Sm18  1  0.778882  0.499819  0.248213  1
  Sm  Sm19  1  0.278727  0.997791  0.253662  1
  Sn  Sn20  1  0.227960  0.524499  0.546204  1
  Sn  Sn21  1  0.272184  0.023017  0.453753  1
  Sn  Sn22  1  0.768120  0.480775  0.047481  1
  Sn  Sn23  1  0.589273  0.626203  0.749067  1
  Sn  Sn24  1  0.088841  0.875494  0.751535  1
  Sn  Sn25  1  0.409109  0.374364  0.250011  1
  Sn  Sn26  1  0.910638  0.123596  0.250937  1
  Sn  Sn27  1  0.354178  0.141480  0.750928  1
  Sn  Sn28  1  0.852869  0.359873  0.748524  1
  Sn  Sn29  1  0.647688  0.858700  0.251267  1
  Sn  Sn30  1  0.147626  0.637860  0.250204  1
  Bi  Bi31  1  0.266577  0.014825  0.048191  1
  Bi  Bi32  1  0.768792  0.480228  0.452753  1
  Bi  Bi33  1  0.730847  0.980829  0.546651  1
  Bi  Bi34  1  0.232789  0.517574  0.951990  1
  Bi  Bi35  1  0.732725  0.983012  0.952203  1
