# generated using pymatgen
data_Dy19TmCo3Bi8Ru
_symmetry_space_group_name_H-M   'P 1'
_cell_length_a   7.97561022
_cell_length_b   8.90539997
_cell_length_c   12.40273207
_cell_angle_alpha   89.97543337
_cell_angle_beta   90.22833220
_cell_angle_gamma   89.95217423
_symmetry_Int_Tables_number   1
_chemical_formula_structural   Dy19TmCo3Bi8Ru
_chemical_formula_sum   'Dy19 Tm1 Co3 Bi8 Ru1'
_cell_volume   880.90905206
_cell_formula_units_Z   1
loop_
 _symmetry_equiv_pos_site_id
 _symmetry_equiv_pos_as_xyz
  1  'x, y, z'
loop_
 _atom_site_type_symbol
 _atom_site_label
 _atom_site_symmetry_multiplicity
 _atom_site_fract_x
 _atom_site_fract_y
 _atom_site_fract_z
 _atom_site_occupancy
  Dy  Dy0  1  0.846513  0.750215  0.799146  1
  Dy  Dy1  1  0.152239  0.249981  0.199155  1
  Dy  Dy2  1  0.348269  0.249161  0.699632  1
  Dy  Dy3  1  0.653682  0.750330  0.295739  1
  Dy  Dy4  1  0.380198  0.750769  0.693212  1
  Dy  Dy5  1  0.618850  0.248846  0.310292  1
  Dy  Dy6  1  0.881237  0.249875  0.810144  1
  Dy  Dy7  1  0.117722  0.749977  0.188024  1
  Dy  Dy8  1  0.947178  0.751062  0.503783  1
  Dy  Dy9  1  0.049980  0.249337  0.496991  1
  Dy  Dy10  1  0.450472  0.249918  0.997510  1
  Dy  Dy11  1  0.549567  0.750010  0.002087  1
  Dy  Dy12  1  0.324010  0.964580  0.436672  1
  Dy  Dy13  1  0.175943  0.964667  0.936521  1
  Dy  Dy14  1  0.323501  0.534392  0.436411  1
  Dy  Dy15  1  0.822823  0.037153  0.063295  1
  Dy  Dy16  1  0.678017  0.457096  0.565172  1
  Dy  Dy17  1  0.822760  0.462872  0.063178  1
  Dy  Dy18  1  0.175880  0.535255  0.936739  1
  Tm  Tm19  1  0.674637  0.044255  0.564744  1
  Co  Co20  1  0.435038  0.249090  0.491269  1
  Co  Co21  1  0.062123  0.249941  0.991803  1
  Co  Co22  1  0.935775  0.750004  0.007353  1
  Bi  Bi23  1  0.571339  0.491390  0.826832  1
  Bi  Bi24  1  0.428078  0.508018  0.173565  1
  Bi  Bi25  1  0.072304  0.507877  0.673904  1
  Bi  Bi26  1  0.427635  0.991746  0.173367  1
  Bi  Bi27  1  0.929482  0.492063  0.326273  1
  Bi  Bi28  1  0.572057  0.008711  0.826663  1
  Bi  Bi29  1  0.930329  0.007985  0.325935  1
  Bi  Bi30  1  0.070512  0.992247  0.673822  1
  Ru  Ru31  1  0.571849  0.751177  0.510767  1
