# generated using pymatgen
data_Hf3Fe4P4W
_symmetry_space_group_name_H-M   'P 1'
_cell_length_a   3.67935800
_cell_length_b   6.17399591
_cell_length_c   7.00243754
_cell_angle_alpha   90.42001814
_cell_angle_beta   90.00000000
_cell_angle_gamma   90.00000000
_symmetry_Int_Tables_number   1
_chemical_formula_structural   Hf3Fe4P4W
_chemical_formula_sum   'Hf3 Fe4 P4 W1'
_cell_volume   159.06548670
_cell_formula_units_Z   1
loop_
 _symmetry_equiv_pos_site_id
 _symmetry_equiv_pos_as_xyz
  1  'x, y, z'
loop_
 _atom_site_type_symbol
 _atom_site_label
 _atom_site_symmetry_multiplicity
 _atom_site_fract_x
 _atom_site_fract_y
 _atom_site_fract_z
 _atom_site_occupancy
  Hf  Hf0  1  0.750000  0.482689  0.320764  1
  Hf  Hf1  1  0.250000  0.017861  0.815180  1
  Hf  Hf2  1  0.750000  0.977972  0.183562  1
  Fe  Fe3  1  0.750000  0.856766  0.566479  1
  Fe  Fe4  1  0.250000  0.148428  0.439750  1
  Fe  Fe5  1  0.750000  0.355688  0.934795  1
  Fe  Fe6  1  0.250000  0.643846  0.055332  1
  P  P7  1  0.250000  0.278059  0.116331  1
  P  P8  1  0.750000  0.712703  0.877139  1
  P  P9  1  0.250000  0.779093  0.394266  1
  P  P10  1  0.750000  0.228163  0.619826  1
  W  W11  1  0.250000  0.518732  0.676577  1
