# generated using pymatgen
data_Ni2Ag(PO4)2
_symmetry_space_group_name_H-M   'P 1'
_cell_length_a   9.84572100
_cell_length_b   4.93929170
_cell_length_c   8.00798966
_cell_angle_alpha   53.74486688
_cell_angle_beta   90.00000000
_cell_angle_gamma   90.00000000
_symmetry_Int_Tables_number   1
_chemical_formula_structural   Ni2Ag(PO4)2
_chemical_formula_sum   'Ni4 Ag2 P4 O16'
_cell_volume   314.03764548
_cell_formula_units_Z   2
loop_
 _symmetry_equiv_pos_site_id
 _symmetry_equiv_pos_as_xyz
  1  'x, y, z'
loop_
 _atom_site_type_symbol
 _atom_site_label
 _atom_site_symmetry_multiplicity
 _atom_site_fract_x
 _atom_site_fract_y
 _atom_site_fract_z
 _atom_site_occupancy
  Ni  Ni0  1  0.623473  0.166340  0.850494  1
  Ni  Ni1  1  0.123473  0.833660  0.649506  1
  Ni  Ni2  1  0.376527  0.833660  0.149506  1
  Ni  Ni3  1  0.876527  0.166340  0.350494  1
  Ag  Ag4  1  0.000000  0.000000  0.000000  1
  Ag  Ag5  1  0.500000  0.000000  0.500000  1
  P  P6  1  0.818683  0.659756  0.846807  1
  P  P7  1  0.318683  0.340244  0.653193  1
  P  P8  1  0.181317  0.340244  0.153193  1
  P  P9  1  0.681317  0.659756  0.346807  1
  O  O10  1  0.883762  0.586282  0.048681  1
  O  O11  1  0.383762  0.413718  0.451319  1
  O  O12  1  0.116238  0.413718  0.951319  1
  O  O13  1  0.616238  0.586282  0.548681  1
  O  O14  1  0.675941  0.804436  0.818143  1
  O  O15  1  0.175941  0.195564  0.681857  1
  O  O16  1  0.324059  0.195564  0.181857  1
  O  O17  1  0.824059  0.804436  0.318143  1
  O  O18  1  0.916430  0.901019  0.661648  1
  O  O19  1  0.416430  0.098981  0.838352  1
  O  O20  1  0.309294  0.680451  0.625495  1
  O  O21  1  0.809294  0.319549  0.874505  1
  O  O22  1  0.690706  0.319549  0.374505  1
  O  O23  1  0.190706  0.680451  0.125495  1
  O  O24  1  0.583570  0.901019  0.161648  1
  O  O25  1  0.083570  0.098981  0.338352  1
