# generated using pymatgen
data_Tb2NbIr2Ru
_symmetry_space_group_name_H-M   'P 1'
_cell_length_a   5.65757269
_cell_length_b   5.65757169
_cell_length_c   8.26804300
_cell_angle_alpha   90.00000000
_cell_angle_beta   90.00000000
_cell_angle_gamma   120.18900833
_symmetry_Int_Tables_number   1
_chemical_formula_structural   Tb2NbIr2Ru
_chemical_formula_sum   'Tb4 Nb2 Ir4 Ru2'
_cell_volume   228.75113998
_cell_formula_units_Z   2
loop_
 _symmetry_equiv_pos_site_id
 _symmetry_equiv_pos_as_xyz
  1  'x, y, z'
loop_
 _atom_site_type_symbol
 _atom_site_label
 _atom_site_symmetry_multiplicity
 _atom_site_fract_x
 _atom_site_fract_y
 _atom_site_fract_z
 _atom_site_occupancy
  Tb  Tb0  1  0.333687  0.666313  0.437700  1
  Tb  Tb1  1  0.666761  0.333239  0.560334  1
  Tb  Tb2  1  0.666761  0.333239  0.939666  1
  Tb  Tb3  1  0.333687  0.666313  0.062300  1
  Nb  Nb4  1  0.998625  0.001375  0.506183  1
  Nb  Nb5  1  0.998625  0.001375  0.993817  1
  Ir  Ir6  1  0.828092  0.171908  0.250000  1
  Ir  Ir7  1  0.829714  0.658542  0.250000  1
  Ir  Ir8  1  0.341458  0.170286  0.250000  1
  Ir  Ir9  1  0.173990  0.826010  0.750000  1
  Ru  Ru10  1  0.173869  0.345267  0.750000  1
  Ru  Ru11  1  0.654733  0.826131  0.750000  1
