# generated using pymatgen
data_Li3LuSc2Pb3
_symmetry_space_group_name_H-M   'P 1'
_cell_length_a   7.14167248
_cell_length_b   7.14167201
_cell_length_c   4.55583700
_cell_angle_alpha   90.00000000
_cell_angle_beta   90.00000000
_cell_angle_gamma   120.66837314
_symmetry_Int_Tables_number   1
_chemical_formula_structural   Li3LuSc2Pb3
_chemical_formula_sum   'Li3 Lu1 Sc2 Pb3'
_cell_volume   199.86378172
_cell_formula_units_Z   1
loop_
 _symmetry_equiv_pos_site_id
 _symmetry_equiv_pos_as_xyz
  1  'x, y, z'
loop_
 _atom_site_type_symbol
 _atom_site_label
 _atom_site_symmetry_multiplicity
 _atom_site_fract_x
 _atom_site_fract_y
 _atom_site_fract_z
 _atom_site_occupancy
  Li  Li0  1  0.769839  0.000751  0.000000  1
  Li  Li1  1  0.229784  0.229785  0.000000  1
  Li  Li2  1  0.000751  0.769839  0.000000  1
  Lu  Lu3  1  0.555371  0.555371  0.499999  1
  Sc  Sc4  1  0.443553  0.999605  0.499999  1
  Sc  Sc5  1  0.999605  0.443553  0.499999  1
  Pb  Pb6  1  0.667995  0.329186  0.000000  1
  Pb  Pb7  1  0.329186  0.667995  0.000000  1
  Pb  Pb8  1  0.003915  0.003915  0.499999  1
