# generated using pymatgen
data_NdMnSb12OsRu2
_symmetry_space_group_name_H-M   'P 1'
_cell_length_a   8.13499494
_cell_length_b   8.14319815
_cell_length_c   8.14193861
_cell_angle_alpha   109.49042176
_cell_angle_beta   109.46423517
_cell_angle_gamma   109.45745367
_symmetry_Int_Tables_number   1
_chemical_formula_structural   NdMnSb12OsRu2
_chemical_formula_sum   'Nd1 Mn1 Sb12 Os1 Ru2'
_cell_volume   415.20875943
_cell_formula_units_Z   1
loop_
 _symmetry_equiv_pos_site_id
 _symmetry_equiv_pos_as_xyz
  1  'x, y, z'
loop_
 _atom_site_type_symbol
 _atom_site_label
 _atom_site_symmetry_multiplicity
 _atom_site_fract_x
 _atom_site_fract_y
 _atom_site_fract_z
 _atom_site_occupancy
  Nd  Nd0  1  0.000000  0.000000  0.000000  1
  Mn  Mn1  1  0.000000  0.500000  0.000000  1
  Sb  Sb2  1  0.337339  0.180816  0.842021  1
  Sb  Sb3  1  0.662661  0.819184  0.157979  1
  Sb  Sb4  1  0.661241  0.504407  0.842568  1
  Sb  Sb5  1  0.338759  0.495593  0.157432  1
  Sb  Sb6  1  0.181382  0.843071  0.338789  1
  Sb  Sb7  1  0.818618  0.156929  0.661211  1
  Sb  Sb8  1  0.504846  0.842133  0.661367  1
  Sb  Sb9  1  0.495154  0.157867  0.338633  1
  Sb  Sb10  1  0.843628  0.339380  0.182209  1
  Sb  Sb11  1  0.156372  0.660620  0.817791  1
  Sb  Sb12  1  0.842313  0.662377  0.504714  1
  Sb  Sb13  1  0.157687  0.337623  0.495286  1
  Os  Os14  1  0.500000  0.000000  0.000000  1
  Ru  Ru15  1  0.000000  0.000000  0.500000  1
  Ru  Ru16  1  0.500000  0.500000  0.500000  1
