# generated using pymatgen
data_Tm12Th4Cd4Ir3Rh
_symmetry_space_group_name_H-M   'P 1'
_cell_length_a   9.66127230
_cell_length_b   9.66136628
_cell_length_c   9.66146669
_cell_angle_alpha   59.92911171
_cell_angle_beta   59.92916069
_cell_angle_gamma   59.93109530
_symmetry_Int_Tables_number   1
_chemical_formula_structural   Tm12Th4Cd4Ir3Rh
_chemical_formula_sum   'Tm12 Th4 Cd4 Ir3 Rh1'
_cell_volume   636.66172737
_cell_formula_units_Z   1
loop_
 _symmetry_equiv_pos_site_id
 _symmetry_equiv_pos_as_xyz
  1  'x, y, z'
loop_
 _atom_site_type_symbol
 _atom_site_label
 _atom_site_symmetry_multiplicity
 _atom_site_fract_x
 _atom_site_fract_y
 _atom_site_fract_z
 _atom_site_occupancy
  Tm  Tm0  1  0.062400  0.437430  0.437276  1
  Tm  Tm1  1  0.436736  0.063350  0.063219  1
  Tm  Tm2  1  0.437425  0.062410  0.437274  1
  Tm  Tm3  1  0.063348  0.436734  0.063218  1
  Tm  Tm4  1  0.437465  0.437464  0.062208  1
  Tm  Tm5  1  0.063346  0.063342  0.436578  1
  Tm  Tm6  1  0.185841  0.815831  0.815524  1
  Tm  Tm7  1  0.816854  0.184625  0.184255  1
  Tm  Tm8  1  0.815836  0.185835  0.815529  1
  Tm  Tm9  1  0.184623  0.816852  0.184256  1
  Tm  Tm10  1  0.815922  0.815923  0.185419  1
  Tm  Tm11  1  0.184644  0.184632  0.816503  1
  Th  Th12  1  0.600203  0.600197  0.600111  1
  Th  Th13  1  0.601806  0.601815  0.196650  1
  Th  Th14  1  0.602085  0.195938  0.602006  1
  Th  Th15  1  0.195941  0.602077  0.602008  1
  Cd  Cd16  1  0.833317  0.833312  0.834007  1
  Cd  Cd17  1  0.832721  0.832722  0.498678  1
  Cd  Cd18  1  0.832491  0.498761  0.833116  1
  Cd  Cd19  1  0.498758  0.832489  0.833113  1
  Ir  Ir20  1  0.391725  0.391724  0.821920  1
  Ir  Ir21  1  0.391600  0.822066  0.391915  1
  Ir  Ir22  1  0.822062  0.391603  0.391909  1
  Rh  Rh23  1  0.392851  0.392866  0.393307  1
