# generated using pymatgen
data_Tm4Si(Pt5Rh)2
_symmetry_space_group_name_H-M   'P 1'
_cell_length_a   7.24868582
_cell_length_b   7.24868565
_cell_length_c   7.23666660
_cell_angle_alpha   109.53559583
_cell_angle_beta   109.53559437
_cell_angle_gamma   109.40989839
_symmetry_Int_Tables_number   1
_chemical_formula_structural   Tm4Si(Pt5Rh)2
_chemical_formula_sum   'Tm4 Si1 Pt10 Rh2'
_cell_volume   292.46424269
_cell_formula_units_Z   1
loop_
 _symmetry_equiv_pos_site_id
 _symmetry_equiv_pos_as_xyz
  1  'x, y, z'
loop_
 _atom_site_type_symbol
 _atom_site_label
 _atom_site_symmetry_multiplicity
 _atom_site_fract_x
 _atom_site_fract_y
 _atom_site_fract_z
 _atom_site_occupancy
  Tm  Tm0  1  0.998661  0.998661  0.502494  1
  Tm  Tm1  1  0.998712  0.498712  0.997425  1
  Tm  Tm2  1  0.498712  0.998712  0.997425  1
  Tm  Tm3  1  0.503833  0.503833  0.502494  1
  Si  Si4  1  0.997416  0.997416  0.994833  1
  Pt  Pt5  1  0.750804  0.250804  0.501607  1
  Pt  Pt6  1  0.750378  0.501022  0.251399  1
  Pt  Pt7  1  0.500791  0.248366  0.749157  1
  Pt  Pt8  1  0.248366  0.500791  0.749157  1
  Pt  Pt9  1  0.250804  0.750804  0.501607  1
  Pt  Pt10  1  0.501022  0.750378  0.251399  1
  Pt  Pt11  1  0.721510  0.721510  0.998794  1
  Pt  Pt12  1  0.277121  0.999239  0.276360  1
  Pt  Pt13  1  0.999239  0.277121  0.276360  1
  Pt  Pt14  1  0.277283  0.277283  0.998794  1
  Rh  Rh15  1  0.725013  0.000334  0.725348  1
  Rh  Rh16  1  0.000334  0.725013  0.725348  1
