# generated using pymatgen
data_Er4MgNi2Sb
_symmetry_space_group_name_H-M   'P 1'
_cell_length_a   8.54786216
_cell_length_b   8.54786197
_cell_length_c   8.54786185
_cell_angle_alpha   128.84750020
_cell_angle_beta   128.84750153
_cell_angle_gamma   75.25607797
_symmetry_Int_Tables_number   1
_chemical_formula_structural   Er4MgNi2Sb
_chemical_formula_sum   'Er8 Mg2 Ni4 Sb2'
_cell_volume   368.75738229
_cell_formula_units_Z   2
loop_
 _symmetry_equiv_pos_site_id
 _symmetry_equiv_pos_as_xyz
  1  'x, y, z'
loop_
 _atom_site_type_symbol
 _atom_site_label
 _atom_site_symmetry_multiplicity
 _atom_site_fract_x
 _atom_site_fract_y
 _atom_site_fract_z
 _atom_site_occupancy
  Er  Er0  1  0.796551  0.296551  0.832857  1
  Er  Er1  1  0.203449  0.703449  0.167143  1
  Er  Er2  1  0.463694  0.963694  0.167143  1
  Er  Er3  1  0.296551  0.463694  0.500000  1
  Er  Er4  1  0.036306  0.203449  0.500000  1
  Er  Er5  1  0.536306  0.036306  0.832857  1
  Er  Er6  1  0.703449  0.536306  0.500000  1
  Er  Er7  1  0.963694  0.796551  0.500000  1
  Mg  Mg8  1  0.000000  0.000000  0.000000  1
  Mg  Mg9  1  0.500000  0.500000  0.000000  1
  Ni  Ni10  1  0.126242  0.626242  0.752485  1
  Ni  Ni11  1  0.873758  0.373758  0.247515  1
  Ni  Ni12  1  0.626242  0.873758  0.500000  1
  Ni  Ni13  1  0.373758  0.126242  0.500000  1
  Sb  Sb14  1  0.250000  0.250000  0.000000  1
  Sb  Sb15  1  0.750000  0.750000  0.000000  1
