# generated using pymatgen
data_Ac3La13(HgOs)4
_symmetry_space_group_name_H-M   'P 1'
_cell_length_a   10.17812678
_cell_length_b   10.17473094
_cell_length_c   10.17812700
_cell_angle_alpha   59.98895498
_cell_angle_beta   59.99999603
_cell_angle_gamma   59.98895631
_symmetry_Int_Tables_number   1
_chemical_formula_structural   Ac3La13(HgOs)4
_chemical_formula_sum   'Ac3 La13 Hg4 Os4'
_cell_volume   745.19704685
_cell_formula_units_Z   1
loop_
 _symmetry_equiv_pos_site_id
 _symmetry_equiv_pos_as_xyz
  1  'x, y, z'
loop_
 _atom_site_type_symbol
 _atom_site_label
 _atom_site_symmetry_multiplicity
 _atom_site_fract_x
 _atom_site_fract_y
 _atom_site_fract_z
 _atom_site_occupancy
  Ac  Ac0  1  0.945046  0.939939  0.557507  1
  Ac  Ac1  1  0.557507  0.939939  0.557507  1
  Ac  Ac2  1  0.557507  0.939939  0.945046  1
  La  La3  1  0.689451  0.687264  0.311642  1
  La  La4  1  0.153401  0.156983  0.536216  1
  La  La5  1  0.311642  0.687264  0.689451  1
  La  La6  1  0.153401  0.156983  0.153401  1
  La  La7  1  0.536216  0.156983  0.153401  1
  La  La8  1  0.311642  0.687264  0.311642  1
  La  La9  1  0.309015  0.313980  0.688502  1
  La  La10  1  0.688502  0.313980  0.688502  1
  La  La11  1  0.944646  0.553317  0.557392  1
  La  La12  1  0.557392  0.553317  0.944646  1
  La  La13  1  0.153519  0.539442  0.153519  1
  La  La14  1  0.688502  0.313980  0.309015  1
  La  La15  1  0.944646  0.553317  0.944646  1
  Hg  Hg16  1  0.246032  0.915286  0.919341  1
  Hg  Hg17  1  0.919341  0.915286  0.919341  1
  Hg  Hg18  1  0.919341  0.915286  0.246032  1
  Hg  Hg19  1  0.916019  0.251943  0.916019  1
  Os  Os20  1  0.911662  0.364292  0.362023  1
  Os  Os21  1  0.362023  0.364292  0.911662  1
  Os  Os22  1  0.361522  0.915433  0.361522  1
  Os  Os23  1  0.362023  0.364292  0.362023  1
