# generated using pymatgen
data_Y2RuRhF14
_symmetry_space_group_name_H-M   'P 1'
_cell_length_a   5.55883228
_cell_length_b   8.92573982
_cell_length_c   11.98774525
_cell_angle_alpha   62.69699764
_cell_angle_beta   89.57517501
_cell_angle_gamma   90.36671260
_symmetry_Int_Tables_number   1
_chemical_formula_structural   Y2RuRhF14
_chemical_formula_sum   'Y4 Ru2 Rh2 F28'
_cell_volume   528.48166414
_cell_formula_units_Z   2
loop_
 _symmetry_equiv_pos_site_id
 _symmetry_equiv_pos_as_xyz
  1  'x, y, z'
loop_
 _atom_site_type_symbol
 _atom_site_label
 _atom_site_symmetry_multiplicity
 _atom_site_fract_x
 _atom_site_fract_y
 _atom_site_fract_z
 _atom_site_occupancy
  Y  Y0  1  0.259206  0.803788  0.277422  1
  Y  Y1  1  0.740794  0.196212  0.722578  1
  Y  Y2  1  0.762314  0.177236  0.246080  1
  Y  Y3  1  0.237686  0.822764  0.753920  1
  Ru  Ru4  1  0.759114  0.726741  0.043153  1
  Ru  Ru5  1  0.240886  0.273259  0.956847  1
  Rh  Rh6  1  0.258055  0.274487  0.454346  1
  Rh  Rh7  1  0.741945  0.725513  0.545654  1
  F  F8  1  0.938538  0.705815  0.415263  1
  F  F9  1  0.061462  0.294185  0.584737  1
  F  F10  1  0.438607  0.294360  0.079859  1
  F  F11  1  0.561393  0.705640  0.920141  1
  F  F12  1  0.473485  0.731439  0.134167  1
  F  F13  1  0.526515  0.268561  0.865833  1
  F  F14  1  0.967769  0.273751  0.361082  1
  F  F15  1  0.032231  0.726249  0.638918  1
  F  F16  1  0.954602  0.745965  0.169842  1
  F  F17  1  0.045398  0.254035  0.830158  1
  F  F18  1  0.450996  0.257781  0.321494  1
  F  F19  1  0.549004  0.742219  0.678506  1
  F  F20  1  0.769581  0.486464  0.136125  1
  F  F21  1  0.230419  0.513536  0.863875  1
  F  F22  1  0.271590  0.520481  0.355501  1
  F  F23  1  0.728410  0.479519  0.644499  1
  F  F24  1  0.948630  0.278924  0.045352  1
  F  F25  1  0.051370  0.721076  0.954648  1
  F  F26  1  0.444069  0.717679  0.459508  1
  F  F27  1  0.555931  0.282321  0.540492  1
  F  F28  1  0.741551  0.971951  0.451162  1
  F  F29  1  0.258449  0.028049  0.548838  1
  F  F30  1  0.239934  0.034388  0.047430  1
  F  F31  1  0.760066  0.965612  0.952570  1
  F  F32  1  0.582761  0.969713  0.229656  1
  F  F33  1  0.417239  0.030287  0.770344  1
  F  F34  1  0.089133  0.029385  0.267305  1
  F  F35  1  0.910867  0.970615  0.732695  1
