# generated using pymatgen
data_SrNdPt7O18
_symmetry_space_group_name_H-M   'P 1'
_cell_length_a   6.71514918
_cell_length_b   7.11638966
_cell_length_c   7.56690632
_cell_angle_alpha   92.50385788
_cell_angle_beta   96.85592340
_cell_angle_gamma   114.26925469
_symmetry_Int_Tables_number   1
_chemical_formula_structural   SrNdPt7O18
_chemical_formula_sum   'Sr1 Nd1 Pt7 O18'
_cell_volume   325.56706918
_cell_formula_units_Z   1
loop_
 _symmetry_equiv_pos_site_id
 _symmetry_equiv_pos_as_xyz
  1  'x, y, z'
loop_
 _atom_site_type_symbol
 _atom_site_label
 _atom_site_symmetry_multiplicity
 _atom_site_fract_x
 _atom_site_fract_y
 _atom_site_fract_z
 _atom_site_occupancy
  Sr  Sr0  1  0.316655  0.690092  0.611880  1
  Nd  Nd1  1  0.675231  0.303594  0.409739  1
  Pt  Pt2  1  0.606923  0.714688  0.116349  1
  Pt  Pt3  1  0.198364  0.880066  0.183135  1
  Pt  Pt4  1  0.176057  0.383276  0.199311  1
  Pt  Pt5  1  0.999022  0.002221  0.498243  1
  Pt  Pt6  1  0.824646  0.619231  0.799281  1
  Pt  Pt7  1  0.803369  0.120943  0.817393  1
  Pt  Pt8  1  0.397742  0.283968  0.884272  1
  O  O9  1  0.696355  0.488457  0.022561  1
  O  O10  1  0.875725  0.223429  0.073962  1
  O  O11  1  0.315688  0.184250  0.127601  1
  O  O12  1  0.513709  0.934064  0.190071  1
  O  O13  1  0.913699  0.904047  0.233356  1
  O  O14  1  0.091174  0.605510  0.282380  1
  O  O15  1  0.492047  0.553324  0.324668  1
  O  O16  1  0.052925  0.288283  0.426890  1
  O  O17  1  0.293163  0.014822  0.437878  1
  O  O18  1  0.710531  0.000666  0.557784  1
  O  O19  1  0.924953  0.708584  0.564147  1
  O  O20  1  0.515928  0.431798  0.669316  1
  O  O21  1  0.904406  0.393827  0.711262  1
  O  O22  1  0.088303  0.099671  0.763558  1
  O  O23  1  0.489864  0.065507  0.815994  1
  O  O24  1  0.690121  0.818385  0.874198  1
  O  O25  1  0.124791  0.776226  0.927354  1
  O  O26  1  0.308607  0.511067  0.977416  1
