# generated using pymatgen
data_LaTb2ZnIn2
_symmetry_space_group_name_H-M   'P 1'
_cell_length_a   3.69991900
_cell_length_b   3.69991900
_cell_length_c   11.78952600
_cell_angle_alpha   90.00000000
_cell_angle_beta   90.00000000
_cell_angle_gamma   90.00000000
_symmetry_Int_Tables_number   1
_chemical_formula_structural   LaTb2ZnIn2
_chemical_formula_sum   'La1 Tb2 Zn1 In2'
_cell_volume   161.39154438
_cell_formula_units_Z   1
loop_
 _symmetry_equiv_pos_site_id
 _symmetry_equiv_pos_as_xyz
  1  'x, y, z'
loop_
 _atom_site_type_symbol
 _atom_site_label
 _atom_site_symmetry_multiplicity
 _atom_site_fract_x
 _atom_site_fract_y
 _atom_site_fract_z
 _atom_site_occupancy
  La  La0  1  0.000000  0.000000  0.000000  1
  Tb  Tb1  1  0.000000  0.000000  0.356368  1
  Tb  Tb2  1  0.000000  0.000000  0.643632  1
  Zn  Zn3  1  0.500000  0.500000  0.500000  1
  In  In4  1  0.500000  0.500000  0.189252  1
  In  In5  1  0.500000  0.500000  0.810748  1
