# generated using pymatgen
data_Hf12Pa8Si15Pd
_symmetry_space_group_name_H-M   'P 1'
_cell_length_a   7.26350556
_cell_length_b   7.30768445
_cell_length_c   13.38765200
_cell_angle_alpha   89.95247098
_cell_angle_beta   89.87766225
_cell_angle_gamma   90.07294815
_symmetry_Int_Tables_number   1
_chemical_formula_structural   Hf12Pa8Si15Pd
_chemical_formula_sum   'Hf12 Pa8 Si15 Pd1'
_cell_volume   710.60618258
_cell_formula_units_Z   1
loop_
 _symmetry_equiv_pos_site_id
 _symmetry_equiv_pos_as_xyz
  1  'x, y, z'
loop_
 _atom_site_type_symbol
 _atom_site_label
 _atom_site_symmetry_multiplicity
 _atom_site_fract_x
 _atom_site_fract_y
 _atom_site_fract_z
 _atom_site_occupancy
  Hf  Hf0  1  0.170891  0.172433  0.998783  1
  Hf  Hf1  1  0.827215  0.827064  0.500394  1
  Hf  Hf2  1  0.330409  0.680821  0.247864  1
  Hf  Hf3  1  0.672857  0.327108  0.750400  1
  Hf  Hf4  1  0.152125  0.997743  0.377561  1
  Hf  Hf5  1  0.848292  0.998672  0.875334  1
  Hf  Hf6  1  0.499078  0.650145  0.624912  1
  Hf  Hf7  1  0.348718  0.500683  0.874815  1
  Hf  Hf8  1  0.499690  0.350942  0.122094  1
  Hf  Hf9  1  0.651935  0.501490  0.377154  1
  Hf  Hf10  1  0.001897  0.150455  0.624939  1
  Hf  Hf11  1  0.998332  0.848825  0.123321  1
  Pa  Pa12  1  0.998638  0.343642  0.216160  1
  Pa  Pa13  1  0.005135  0.657003  0.715379  1
  Pa  Pa14  1  0.160446  0.496344  0.466194  1
  Pa  Pa15  1  0.503342  0.842010  0.033287  1
  Pa  Pa16  1  0.840792  0.504318  0.965532  1
  Pa  Pa17  1  0.496443  0.155353  0.538522  1
  Pa  Pa18  1  0.342338  0.996242  0.783321  1
  Pa  Pa19  1  0.656209  0.003849  0.282215  1
  Si  Si20  1  0.636243  0.705199  0.817259  1
  Si  Si21  1  0.204610  0.862916  0.567960  1
  Si  Si22  1  0.135893  0.795135  0.931233  1
  Si  Si23  1  0.794413  0.136607  0.068592  1
  Si  Si24  1  0.862127  0.203771  0.433507  1
  Si  Si25  1  0.293652  0.365032  0.682835  1
  Si  Si26  1  0.705007  0.637096  0.182484  1
  Si  Si27  1  0.293663  0.046214  0.183023  1
  Si  Si28  1  0.706950  0.951348  0.685887  1
  Si  Si29  1  0.455724  0.796465  0.435602  1
  Si  Si30  1  0.203811  0.546644  0.064699  1
  Si  Si31  1  0.544332  0.204869  0.934294  1
  Si  Si32  1  0.795981  0.453616  0.565320  1
  Si  Si33  1  0.045165  0.295517  0.814781  1
  Si  Si34  1  0.954732  0.704888  0.314611  1
  Pd  Pd35  1  0.362917  0.289540  0.319729  1
