# generated using pymatgen
data_NdDy2Y2(MnB3)2
_symmetry_space_group_name_H-M   'P 1'
_cell_length_a   5.44346961
_cell_length_b   5.44346834
_cell_length_c   8.33164108
_cell_angle_alpha   70.93293823
_cell_angle_beta   70.93294186
_cell_angle_gamma   60.00002064
_symmetry_Int_Tables_number   1
_chemical_formula_structural   NdDy2Y2(MnB3)2
_chemical_formula_sum   'Nd1 Dy2 Y2 Mn2 B6'
_cell_volume   198.00831081
_cell_formula_units_Z   1
loop_
 _symmetry_equiv_pos_site_id
 _symmetry_equiv_pos_as_xyz
  1  'x, y, z'
loop_
 _atom_site_type_symbol
 _atom_site_label
 _atom_site_symmetry_multiplicity
 _atom_site_fract_x
 _atom_site_fract_y
 _atom_site_fract_z
 _atom_site_occupancy
  Nd  Nd0  1  0.000000  0.000000  0.000000  1
  Dy  Dy1  1  0.250060  0.250060  0.249818  1
  Dy  Dy2  1  0.749940  0.749940  0.750182  1
  Y  Y3  1  0.417378  0.417378  0.747865  1
  Y  Y4  1  0.582622  0.582622  0.252135  1
  Mn  Mn5  1  0.115161  0.115161  0.654516  1
  Mn  Mn6  1  0.884839  0.884839  0.345484  1
  B  B7  1  0.165736  0.834264  0.500000  1
  B  B8  1  0.834264  0.500000  0.500000  1
  B  B9  1  0.500000  0.165736  0.500000  1
  B  B10  1  0.165736  0.500000  0.500000  1
  B  B11  1  0.500000  0.834264  0.500000  1
  B  B12  1  0.834264  0.165736  0.500000  1
