# generated using pymatgen
data_Ho3ErLuPb3
_symmetry_space_group_name_H-M   'P 1'
_cell_length_a   6.54119200
_cell_length_b   8.99841189
_cell_length_c   8.99813800
_cell_angle_alpha   120.00164640
_cell_angle_beta   90.00090972
_cell_angle_gamma   90.00026432
_symmetry_Int_Tables_number   1
_chemical_formula_structural   Ho3ErLuPb3
_chemical_formula_sum   'Ho6 Er2 Lu2 Pb6'
_cell_volume   458.66842189
_cell_formula_units_Z   2
loop_
 _symmetry_equiv_pos_site_id
 _symmetry_equiv_pos_as_xyz
  1  'x, y, z'
loop_
 _atom_site_type_symbol
 _atom_site_label
 _atom_site_symmetry_multiplicity
 _atom_site_fract_x
 _atom_site_fract_y
 _atom_site_fract_z
 _atom_site_occupancy
  Ho  Ho0  1  0.750235  0.237449  0.999998  1
  Ho  Ho1  1  0.750234  0.762579  0.762551  1
  Ho  Ho2  1  0.750237  0.000027  0.237439  1
  Ho  Ho3  1  0.249752  0.762569  0.999996  1
  Ho  Ho4  1  0.249778  0.237437  0.237459  1
  Ho  Ho5  1  0.249758  0.999977  0.762557  1
  Er  Er6  1  0.500005  0.333291  0.666696  1
  Er  Er7  1  0.500007  0.666645  0.333318  1
  Lu  Lu8  1  0.000004  0.666675  0.333326  1
  Lu  Lu9  1  0.999978  0.333365  0.666685  1
  Pb  Pb10  1  0.750616  0.604448  0.999973  1
  Pb  Pb11  1  0.750621  0.395576  0.395579  1
  Pb  Pb12  1  0.750667  0.999976  0.604394  1
  Pb  Pb13  1  0.249403  0.395530  0.999995  1
  Pb  Pb14  1  0.249358  0.604421  0.604420  1
  Pb  Pb15  1  0.249348  0.000035  0.395614  1
