# generated using pymatgen
data_PrGeF7
_symmetry_space_group_name_H-M   'P 1'
_cell_length_a   5.56529100
_cell_length_b   9.04766609
_cell_length_c   12.07256711
_cell_angle_alpha   61.75002794
_cell_angle_beta   90.00000000
_cell_angle_gamma   90.00000000
_symmetry_Int_Tables_number   1
_chemical_formula_structural   PrGeF7
_chemical_formula_sum   'Pr4 Ge4 F28'
_cell_volume   535.48366618
_cell_formula_units_Z   4
loop_
 _symmetry_equiv_pos_site_id
 _symmetry_equiv_pos_as_xyz
  1  'x, y, z'
loop_
 _atom_site_type_symbol
 _atom_site_label
 _atom_site_symmetry_multiplicity
 _atom_site_fract_x
 _atom_site_fract_y
 _atom_site_fract_z
 _atom_site_occupancy
  Pr  Pr0  1  0.759241  0.808057  0.763922  1
  Pr  Pr1  1  0.259241  0.191943  0.736078  1
  Pr  Pr2  1  0.240759  0.191943  0.236078  1
  Pr  Pr3  1  0.740759  0.808057  0.263922  1
  Ge  Ge4  1  0.756367  0.274311  0.957699  1
  Ge  Ge5  1  0.256367  0.725689  0.542301  1
  Ge  Ge6  1  0.243633  0.725689  0.042301  1
  Ge  Ge7  1  0.743633  0.274311  0.457699  1
  F  F8  1  0.425157  0.708674  0.922738  1
  F  F9  1  0.925157  0.291326  0.577262  1
  F  F10  1  0.574843  0.291326  0.077262  1
  F  F11  1  0.074843  0.708674  0.422738  1
  F  F12  1  0.463800  0.282256  0.536335  1
  F  F13  1  0.963800  0.717744  0.963665  1
  F  F14  1  0.536200  0.717744  0.463665  1
  F  F15  1  0.036200  0.282256  0.036335  1
  F  F16  1  0.767428  0.502937  0.865960  1
  F  F17  1  0.267428  0.497063  0.634040  1
  F  F18  1  0.232572  0.497063  0.134040  1
  F  F19  1  0.732572  0.502937  0.365960  1
  F  F20  1  0.760607  0.045481  0.046380  1
  F  F21  1  0.260607  0.954519  0.453620  1
  F  F22  1  0.239393  0.954519  0.953620  1
  F  F23  1  0.739393  0.045481  0.546380  1
  F  F24  1  0.983547  0.728275  0.626046  1
  F  F25  1  0.483547  0.271725  0.873954  1
  F  F26  1  0.016453  0.271725  0.373954  1
  F  F27  1  0.516453  0.728275  0.126046  1
  F  F28  1  0.065110  0.738662  0.165679  1
  F  F29  1  0.565110  0.261338  0.334321  1
  F  F30  1  0.934890  0.261338  0.834321  1
  F  F31  1  0.434890  0.738662  0.665679  1
  F  F32  1  0.395941  0.965047  0.226140  1
  F  F33  1  0.895941  0.034953  0.273860  1
  F  F34  1  0.604059  0.034953  0.773860  1
  F  F35  1  0.104059  0.965047  0.726140  1
