# generated using pymatgen
data_Dy2Ho4VB14W
_symmetry_space_group_name_H-M   'P 1'
_cell_length_a   8.12993516
_cell_length_b   8.12993452
_cell_length_c   9.44462000
_cell_angle_alpha   90.00000000
_cell_angle_beta   90.00000000
_cell_angle_gamma   155.58587821
_symmetry_Int_Tables_number   1
_chemical_formula_structural   Dy2Ho4VB14W
_chemical_formula_sum   'Dy2 Ho4 V1 B14 W1'
_cell_volume   258.02059063
_cell_formula_units_Z   1
loop_
 _symmetry_equiv_pos_site_id
 _symmetry_equiv_pos_as_xyz
  1  'x, y, z'
loop_
 _atom_site_type_symbol
 _atom_site_label
 _atom_site_symmetry_multiplicity
 _atom_site_fract_x
 _atom_site_fract_y
 _atom_site_fract_z
 _atom_site_occupancy
  Dy  Dy0  1  0.242355  0.757645  0.250000  1
  Dy  Dy1  1  0.754559  0.245441  0.750000  1
  Ho  Ho2  1  0.893709  0.106291  0.437735  1
  Ho  Ho3  1  0.106851  0.893149  0.557685  1
  Ho  Ho4  1  0.893709  0.106291  0.062265  1
  Ho  Ho5  1  0.106851  0.893149  0.942315  1
  V  V6  1  0.052750  0.947250  0.250000  1
  B  B7  1  0.727198  0.272802  0.467215  1
  B  B8  1  0.272707  0.727293  0.531205  1
  B  B9  1  0.727198  0.272802  0.032785  1
  B  B10  1  0.272707  0.727293  0.968795  1
  B  B11  1  0.632609  0.367391  0.149803  1
  B  B12  1  0.365158  0.634842  0.854249  1
  B  B13  1  0.632609  0.367391  0.350197  1
  B  B14  1  0.365158  0.634842  0.645751  1
  B  B15  1  0.521180  0.478820  0.095078  1
  B  B16  1  0.480484  0.519516  0.909395  1
  B  B17  1  0.521180  0.478820  0.404922  1
  B  B18  1  0.480484  0.519516  0.590605  1
  B  B19  1  0.458748  0.541252  0.250000  1
  B  B20  1  0.544985  0.455015  0.750000  1
  W  W21  1  0.946812  0.053188  0.750000  1
