# generated using pymatgen
data_ErTm7(Nb2Sn5)2
_symmetry_space_group_name_H-M   'P 1'
_cell_length_a   11.09799282
_cell_length_b   11.10767243
_cell_length_c   11.10767300
_cell_angle_alpha   149.04576399
_cell_angle_beta   131.40264068
_cell_angle_gamma   58.74816803
_symmetry_Int_Tables_number   1
_chemical_formula_structural   ErTm7(Nb2Sn5)2
_chemical_formula_sum   'Er1 Tm7 Nb4 Sn10'
_cell_volume   524.10908885
_cell_formula_units_Z   1
loop_
 _symmetry_equiv_pos_site_id
 _symmetry_equiv_pos_as_xyz
  1  'x, y, z'
loop_
 _atom_site_type_symbol
 _atom_site_label
 _atom_site_symmetry_multiplicity
 _atom_site_fract_x
 _atom_site_fract_y
 _atom_site_fract_z
 _atom_site_occupancy
  Er  Er0  1  0.963025  0.352630  0.610395  1
  Tm  Tm1  1  0.670159  0.438873  0.231286  1
  Tm  Tm2  1  0.328065  0.560875  0.767190  1
  Tm  Tm3  1  0.206129  0.938933  0.267197  1
  Tm  Tm4  1  0.794201  0.061253  0.732947  1
  Tm  Tm5  1  0.259002  0.147577  0.111426  1
  Tm  Tm6  1  0.742014  0.853014  0.888999  1
  Tm  Tm7  1  0.036205  0.647255  0.388950  1
  Nb  Nb8  1  0.305174  0.554689  0.250775  1
  Nb  Nb9  1  0.695653  0.445418  0.750326  1
  Nb  Nb10  1  0.695653  0.945328  0.250235  1
  Nb  Nb11  1  0.305174  0.054398  0.750485  1
  Sn  Sn12  1  0.584305  0.287629  0.296676  1
  Sn  Sn13  1  0.416761  0.712485  0.704275  1
  Sn  Sn14  1  0.991396  0.787505  0.203890  1
  Sn  Sn15  1  0.009149  0.212617  0.796532  1
  Sn  Sn16  1  0.999647  0.249891  0.249728  1
  Sn  Sn17  1  0.999647  0.749920  0.749756  1
  Sn  Sn18  1  0.478380  0.077939  0.400437  1
  Sn  Sn19  1  0.521825  0.922192  0.599635  1
  Sn  Sn20  1  0.677268  0.577912  0.099356  1
  Sn  Sn21  1  0.321169  0.421667  0.899502  1
