# generated using pymatgen
data_TbDyLu3Sn4
_symmetry_space_group_name_H-M   'P 1'
_cell_length_a   7.94554200
_cell_length_b   8.07522600
_cell_length_c   15.25307900
_cell_angle_alpha   90.00000000
_cell_angle_beta   90.00000000
_cell_angle_gamma   90.00000000
_symmetry_Int_Tables_number   1
_chemical_formula_structural   TbDyLu3Sn4
_chemical_formula_sum   'Tb4 Dy4 Lu12 Sn16'
_cell_volume   978.66877692
_cell_formula_units_Z   4
loop_
 _symmetry_equiv_pos_site_id
 _symmetry_equiv_pos_as_xyz
  1  'x, y, z'
loop_
 _atom_site_type_symbol
 _atom_site_label
 _atom_site_symmetry_multiplicity
 _atom_site_fract_x
 _atom_site_fract_y
 _atom_site_fract_z
 _atom_site_occupancy
  Tb  Tb0  1  0.521823  0.320496  0.902978  1
  Tb  Tb1  1  0.021823  0.179504  0.597022  1
  Tb  Tb2  1  0.478177  0.679504  0.402978  1
  Tb  Tb3  1  0.978177  0.820496  0.097022  1
  Dy  Dy4  1  0.478105  0.679507  0.097142  1
  Dy  Dy5  1  0.978105  0.820493  0.402858  1
  Dy  Dy6  1  0.521895  0.320493  0.597142  1
  Dy  Dy7  1  0.021895  0.179507  0.902858  1
  Lu  Lu8  1  0.367361  0.836343  0.877267  1
  Lu  Lu9  1  0.867361  0.663657  0.622733  1
  Lu  Lu10  1  0.632639  0.163657  0.377267  1
  Lu  Lu11  1  0.132639  0.336343  0.122733  1
  Lu  Lu12  1  0.632638  0.163653  0.122751  1
  Lu  Lu13  1  0.132638  0.336347  0.377249  1
  Lu  Lu14  1  0.367362  0.836347  0.622751  1
  Lu  Lu15  1  0.867362  0.663653  0.877249  1
  Lu  Lu16  1  0.197581  0.504727  0.749980  1
  Lu  Lu17  1  0.697581  0.995273  0.750020  1
  Lu  Lu18  1  0.802419  0.495273  0.249980  1
  Lu  Lu19  1  0.302419  0.004727  0.250020  1
  Sn  Sn20  1  0.294632  0.037291  0.041624  1
  Sn  Sn21  1  0.794632  0.462709  0.458376  1
  Sn  Sn22  1  0.705368  0.962709  0.541624  1
  Sn  Sn23  1  0.205368  0.537291  0.958376  1
  Sn  Sn24  1  0.705531  0.962812  0.958273  1
  Sn  Sn25  1  0.205531  0.537188  0.541727  1
  Sn  Sn26  1  0.294469  0.037188  0.458273  1
  Sn  Sn27  1  0.794469  0.462812  0.041727  1
  Sn  Sn28  1  0.563992  0.621417  0.749991  1
  Sn  Sn29  1  0.063992  0.878583  0.750009  1
  Sn  Sn30  1  0.436008  0.378583  0.249991  1
  Sn  Sn31  1  0.936008  0.121417  0.250009  1
  Sn  Sn32  1  0.330564  0.147405  0.749927  1
  Sn  Sn33  1  0.830564  0.352595  0.750073  1
  Sn  Sn34  1  0.669436  0.852595  0.249927  1
  Sn  Sn35  1  0.169436  0.647405  0.250073  1
