# generated using pymatgen
data_Ca6LaNd(Ge3Rh4)2
_symmetry_space_group_name_H-M   'P 1'
_cell_length_a   11.04225103
_cell_length_b   10.99423864
_cell_length_c   7.77467767
_cell_angle_alpha   71.96917761
_cell_angle_beta   71.60401672
_cell_angle_gamma   30.41834189
_symmetry_Int_Tables_number   1
_chemical_formula_structural   Ca6LaNd(Ge3Rh4)2
_chemical_formula_sum   'Ca6 La1 Nd1 Ge6 Rh8'
_cell_volume   452.08724778
_cell_formula_units_Z   1
loop_
 _symmetry_equiv_pos_site_id
 _symmetry_equiv_pos_as_xyz
  1  'x, y, z'
loop_
 _atom_site_type_symbol
 _atom_site_label
 _atom_site_symmetry_multiplicity
 _atom_site_fract_x
 _atom_site_fract_y
 _atom_site_fract_z
 _atom_site_occupancy
  Ca  Ca0  1  0.550275  0.791376  0.093712  1
  Ca  Ca1  1  0.448426  0.207112  0.907052  1
  Ca  Ca2  1  0.926812  0.206745  0.332228  1
  Ca  Ca3  1  0.793744  0.073134  0.164237  1
  Ca  Ca4  1  0.073721  0.793496  0.667021  1
  Ca  Ca5  1  0.205254  0.928017  0.835267  1
  La  La6  1  0.220572  0.435993  0.403895  1
  Nd  Nd7  1  0.778592  0.561704  0.597764  1
  Ge  Ge8  1  0.614365  0.384950  0.749256  1
  Ge  Ge9  1  0.387505  0.614648  0.250082  1
  Ge  Ge10  1  0.295976  0.045853  0.436845  1
  Ge  Ge11  1  0.959862  0.701391  0.052254  1
  Ge  Ge12  1  0.704912  0.954002  0.562469  1
  Ge  Ge13  1  0.041237  0.300659  0.944279  1
  Rh  Rh14  1  0.300301  0.577371  0.026194  1
  Rh  Rh15  1  0.573227  0.303571  0.523064  1
  Rh  Rh16  1  0.701747  0.421383  0.973130  1
  Rh  Rh17  1  0.065111  0.379845  0.190599  1
  Rh  Rh18  1  0.642435  0.912289  0.315013  1
  Rh  Rh19  1  0.426816  0.696793  0.476987  1
  Rh  Rh20  1  0.924907  0.629267  0.812809  1
  Rh  Rh21  1  0.364206  0.080400  0.685841  1
