# generated using pymatgen
data_Lu3Al2(ReN4)3
_symmetry_space_group_name_H-M   'P 1'
_cell_length_a   10.59918785
_cell_length_b   10.59918742
_cell_length_c   10.59918800
_cell_angle_alpha   109.47122365
_cell_angle_beta   109.47122284
_cell_angle_gamma   109.47121924
_symmetry_Int_Tables_number   1
_chemical_formula_structural   Lu3Al2(ReN4)3
_chemical_formula_sum   'Lu12 Al8 Re12 N48'
_cell_volume   916.63375272
_cell_formula_units_Z   4
loop_
 _symmetry_equiv_pos_site_id
 _symmetry_equiv_pos_as_xyz
  1  'x, y, z'
loop_
 _atom_site_type_symbol
 _atom_site_label
 _atom_site_symmetry_multiplicity
 _atom_site_fract_x
 _atom_site_fract_y
 _atom_site_fract_z
 _atom_site_occupancy
  Lu  Lu0  1  0.250000  0.375000  0.125000  1
  Lu  Lu1  1  0.375000  0.750000  0.125000  1
  Lu  Lu2  1  0.375000  0.125000  0.250000  1
  Lu  Lu3  1  0.875000  0.625000  0.250000  1
  Lu  Lu4  1  0.750000  0.125000  0.375000  1
  Lu  Lu5  1  0.125000  0.250000  0.375000  1
  Lu  Lu6  1  0.874999  0.750000  0.625000  1
  Lu  Lu7  1  0.250000  0.875000  0.625000  1
  Lu  Lu8  1  0.125000  0.375000  0.750000  1
  Lu  Lu9  1  0.625000  0.874999  0.750000  1
  Lu  Lu10  1  0.625000  0.250000  0.875000  1
  Lu  Lu11  1  0.750000  0.625000  0.874999  1
  Al  Al12  1  0.000000  0.000000  0.000000  1
  Al  Al13  1  0.500001  0.000000  0.000000  1
  Al  Al14  1  0.000000  0.500001  0.000000  1
  Al  Al15  1  0.500000  0.500000  0.000000  1
  Al  Al16  1  0.000000  0.000000  0.500001  1
  Al  Al17  1  0.500000  0.000000  0.500000  1
  Al  Al18  1  0.000000  0.500000  0.500000  1
  Al  Al19  1  0.500001  0.500001  0.500001  1
  Re  Re20  1  0.874999  0.250000  0.124999  1
  Re  Re21  1  0.750000  0.875000  0.125000  1
  Re  Re22  1  0.625000  0.375000  0.250000  1
  Re  Re23  1  0.124999  0.874999  0.250000  1
  Re  Re24  1  0.250000  0.625000  0.375000  1
  Re  Re25  1  0.625000  0.750000  0.375000  1
  Re  Re26  1  0.375000  0.250000  0.625000  1
  Re  Re27  1  0.750000  0.375000  0.625000  1
  Re  Re28  1  0.875000  0.125000  0.750000  1
  Re  Re29  1  0.375000  0.625000  0.750000  1
  Re  Re30  1  0.250000  0.124999  0.874999  1
  Re  Re31  1  0.125000  0.750000  0.875000  1
  N  N32  1  0.204840  0.118442  0.024281  1
  N  N33  1  0.319441  0.905838  0.024280  1
  N  N34  1  0.881558  0.405838  0.086397  1
  N  N35  1  0.704840  0.680559  0.086397  1
  N  N36  1  0.618442  0.413603  0.094162  1
  N  N37  1  0.975719  0.680559  0.094162  1
  N  N38  1  0.024281  0.204840  0.118442  1
  N  N39  1  0.594162  0.913602  0.118441  1
  N  N40  1  0.204839  0.586397  0.180559  1
  N  N41  1  0.475720  0.594162  0.180559  1
  N  N42  1  0.118442  0.024281  0.204840  1
  N  N43  1  0.586397  0.180559  0.204839  1
  N  N44  1  0.475720  0.381559  0.295160  1
  N  N45  1  0.319441  0.913603  0.295160  1
  N  N46  1  0.905838  0.024280  0.319441  1
  N  N47  1  0.913603  0.295160  0.319441  1
  N  N48  1  0.295160  0.475720  0.381559  1
  N  N49  1  0.586397  0.905839  0.381559  1
  N  N50  1  0.819441  0.524281  0.405839  1
  N  N51  1  0.086397  0.881558  0.405838  1
  N  N52  1  0.094162  0.618442  0.413603  1
  N  N53  1  0.819440  0.795160  0.413603  1
  N  N54  1  0.594162  0.180559  0.475720  1
  N  N55  1  0.381559  0.295160  0.475720  1
  N  N56  1  0.618441  0.704839  0.524280  1
  N  N57  1  0.405839  0.819441  0.524281  1
  N  N58  1  0.180559  0.204839  0.586397  1
  N  N59  1  0.905839  0.381559  0.586397  1
  N  N60  1  0.913602  0.118441  0.594162  1
  N  N61  1  0.180559  0.475720  0.594162  1
  N  N62  1  0.413603  0.094162  0.618442  1
  N  N63  1  0.704839  0.524280  0.618441  1
  N  N64  1  0.086397  0.704840  0.680559  1
  N  N65  1  0.094162  0.975719  0.680559  1
  N  N66  1  0.680559  0.086397  0.704840  1
  N  N67  1  0.524280  0.618441  0.704839  1
  N  N68  1  0.413603  0.819440  0.795160  1
  N  N69  1  0.881559  0.975720  0.795161  1
  N  N70  1  0.524281  0.405839  0.819441  1
  N  N71  1  0.795160  0.413603  0.819440  1
  N  N72  1  0.405838  0.086397  0.881558  1
  N  N73  1  0.975720  0.795161  0.881559  1
  N  N74  1  0.024280  0.319441  0.905838  1
  N  N75  1  0.381559  0.586397  0.905839  1
  N  N76  1  0.295160  0.319441  0.913603  1
  N  N77  1  0.118441  0.594162  0.913602  1
  N  N78  1  0.680559  0.094162  0.975719  1
  N  N79  1  0.795161  0.881559  0.975720  1
