# generated using pymatgen
data_Cs6TmLuBr12
_symmetry_space_group_name_H-M   'P 1'
_cell_length_a   9.99106300
_cell_length_b   9.99354587
_cell_length_c   8.28857200
_cell_angle_alpha   90.00000000
_cell_angle_beta   90.00000000
_cell_angle_gamma   90.06212008
_symmetry_Int_Tables_number   1
_chemical_formula_structural   Cs6TmLuBr12
_chemical_formula_sum   'Cs6 Tm1 Lu1 Br12'
_cell_volume   827.58148709
_cell_formula_units_Z   1
loop_
 _symmetry_equiv_pos_site_id
 _symmetry_equiv_pos_as_xyz
  1  'x, y, z'
loop_
 _atom_site_type_symbol
 _atom_site_label
 _atom_site_symmetry_multiplicity
 _atom_site_fract_x
 _atom_site_fract_y
 _atom_site_fract_z
 _atom_site_occupancy
  Cs  Cs0  1  0.000000  0.000000  0.500000  1
  Cs  Cs1  1  0.000000  0.000000  0.000000  1
  Cs  Cs2  1  0.236347  0.580468  0.500000  1
  Cs  Cs3  1  0.763653  0.419532  0.500000  1
  Cs  Cs4  1  0.419708  0.234894  0.000000  1
  Cs  Cs5  1  0.580292  0.765106  0.000000  1
  Tm  Tm6  1  0.000000  0.500000  0.000000  1
  Lu  Lu7  1  0.500000  0.000000  0.500000  1
  Br  Br8  1  0.689100  0.054984  0.737138  1
  Br  Br9  1  0.310900  0.945016  0.737138  1
  Br  Br10  1  0.944739  0.689757  0.237815  1
  Br  Br11  1  0.055261  0.310243  0.237815  1
  Br  Br12  1  0.310900  0.945016  0.262862  1
  Br  Br13  1  0.689100  0.054984  0.262862  1
  Br  Br14  1  0.055261  0.310243  0.762185  1
  Br  Br15  1  0.944739  0.689757  0.762185  1
  Br  Br16  1  0.569551  0.733129  0.500000  1
  Br  Br17  1  0.430449  0.266871  0.500000  1
  Br  Br18  1  0.267708  0.569881  0.000000  1
  Br  Br19  1  0.732292  0.430119  0.000000  1
