# generated using pymatgen
data_MgAl2(FeRh2)3
_symmetry_space_group_name_H-M   'P 1'
_cell_length_a   4.28294900
_cell_length_b   6.03540500
_cell_length_c   12.85720000
_cell_angle_alpha   90.00021138
_cell_angle_beta   90.00248743
_cell_angle_gamma   90.00007810
_symmetry_Int_Tables_number   1
_chemical_formula_structural   MgAl2(FeRh2)3
_chemical_formula_sum   'Mg2 Al4 Fe6 Rh12'
_cell_volume   332.35002878
_cell_formula_units_Z   2
loop_
 _symmetry_equiv_pos_site_id
 _symmetry_equiv_pos_as_xyz
  1  'x, y, z'
loop_
 _atom_site_type_symbol
 _atom_site_label
 _atom_site_symmetry_multiplicity
 _atom_site_fract_x
 _atom_site_fract_y
 _atom_site_fract_z
 _atom_site_occupancy
  Mg  Mg0  1  0.000017  0.999998  0.999413  1
  Mg  Mg1  1  0.499709  0.500000  0.167265  1
  Al  Al2  1  0.999742  0.000003  0.334461  1
  Al  Al3  1  0.500004  0.499997  0.500297  1
  Al  Al4  1  0.000264  0.000001  0.666350  1
  Al  Al5  1  0.500281  0.500002  0.832221  1
  Fe  Fe6  1  0.999990  0.500000  0.001495  1
  Fe  Fe7  1  0.499750  0.999999  0.165185  1
  Fe  Fe8  1  0.999742  0.500004  0.332565  1
  Fe  Fe9  1  0.500003  0.999999  0.500848  1
  Fe  Fe10  1  0.000255  0.499999  0.665813  1
  Fe  Fe11  1  0.500252  0.000001  0.834084  1
  Rh  Rh12  1  0.500019  0.253636  0.996261  1
  Rh  Rh13  1  0.500014  0.746365  0.996262  1
  Rh  Rh14  1  0.999734  0.246358  0.170397  1
  Rh  Rh15  1  0.999733  0.753645  0.170397  1
  Rh  Rh16  1  0.499780  0.246580  0.337762  1
  Rh  Rh17  1  0.499777  0.753424  0.337762  1
  Rh  Rh18  1  0.000003  0.250232  0.501003  1
  Rh  Rh19  1  0.000000  0.749767  0.501002  1
  Rh  Rh20  1  0.500225  0.249835  0.665692  1
  Rh  Rh21  1  0.500224  0.750164  0.665691  1
  Rh  Rh22  1  0.000242  0.253430  0.828887  1
  Rh  Rh23  1  0.000244  0.746571  0.828887  1
