# generated using pymatgen
data_K2BaAs6(IrRu2)2
_symmetry_space_group_name_H-M   'P 1'
_cell_length_a   9.22470471
_cell_length_b   9.21940816
_cell_length_c   7.13895321
_cell_angle_alpha   67.18855629
_cell_angle_beta   67.19835663
_cell_angle_gamma   36.75989036
_symmetry_Int_Tables_number   1
_chemical_formula_structural   K2BaAs6(IrRu2)2
_chemical_formula_sum   'K2 Ba1 As6 Ir2 Ru4'
_cell_volume   331.65921332
_cell_formula_units_Z   1
loop_
 _symmetry_equiv_pos_site_id
 _symmetry_equiv_pos_as_xyz
  1  'x, y, z'
loop_
 _atom_site_type_symbol
 _atom_site_label
 _atom_site_symmetry_multiplicity
 _atom_site_fract_x
 _atom_site_fract_y
 _atom_site_fract_z
 _atom_site_occupancy
  K  K0  1  0.671391  0.670298  0.000409  1
  K  K1  1  0.328875  0.329571  0.999100  1
  Ba  Ba2  1  0.999683  0.000357  0.000897  1
  As  As3  1  0.882863  0.882554  0.702596  1
  As  As4  1  0.218360  0.212575  0.702577  1
  As  As5  1  0.547190  0.553664  0.703334  1
  As  As6  1  0.451053  0.450680  0.295981  1
  As  As7  1  0.778997  0.785794  0.297173  1
  As  As8  1  0.121602  0.114690  0.297843  1
  Ir  Ir9  1  0.750854  0.250498  0.500188  1
  Ir  Ir10  1  0.082932  0.583247  0.497300  1
  Ru  Ru11  1  0.416317  0.916345  0.502277  1
  Ru  Ru12  1  0.583701  0.084482  0.498308  1
  Ru  Ru13  1  0.916102  0.416472  0.501981  1
  Ru  Ru14  1  0.250080  0.748774  0.500037  1
