# generated using pymatgen
data_TbTm7Hf3Si16Mo9
_symmetry_space_group_name_H-M   'P 1'
_cell_length_a   6.94685512
_cell_length_b   6.94783672
_cell_length_c   12.83449227
_cell_angle_alpha   89.93390973
_cell_angle_beta   90.03994822
_cell_angle_gamma   89.76515799
_symmetry_Int_Tables_number   1
_chemical_formula_structural   TbTm7Hf3Si16Mo9
_chemical_formula_sum   'Tb1 Tm7 Hf3 Si16 Mo9'
_cell_volume   619.45889587
_cell_formula_units_Z   1
loop_
 _symmetry_equiv_pos_site_id
 _symmetry_equiv_pos_as_xyz
  1  'x, y, z'
loop_
 _atom_site_type_symbol
 _atom_site_label
 _atom_site_symmetry_multiplicity
 _atom_site_fract_x
 _atom_site_fract_y
 _atom_site_fract_z
 _atom_site_occupancy
  Tb  Tb0  1  0.660785  0.005346  0.279499  1
  Tm  Tm1  1  0.000945  0.338744  0.216556  1
  Tm  Tm2  1  0.004230  0.659955  0.720921  1
  Tm  Tm3  1  0.160505  0.497976  0.468930  1
  Tm  Tm4  1  0.499173  0.841274  0.030433  1
  Tm  Tm5  1  0.841515  0.499394  0.969105  1
  Tm  Tm6  1  0.497695  0.160497  0.531501  1
  Tm  Tm7  1  0.338445  0.000792  0.783303  1
  Hf  Hf8  1  0.832073  0.831861  0.500238  1
  Hf  Hf9  1  0.330112  0.668811  0.247537  1
  Hf  Hf10  1  0.668751  0.330223  0.752413  1
  Si  Si11  1  0.368390  0.295719  0.317750  1
  Si  Si12  1  0.628730  0.707076  0.818644  1
  Si  Si13  1  0.204478  0.870549  0.569158  1
  Si  Si14  1  0.126929  0.804019  0.933433  1
  Si  Si15  1  0.804610  0.127162  0.065625  1
  Si  Si16  1  0.872130  0.205642  0.432065  1
  Si  Si17  1  0.294819  0.369415  0.682276  1
  Si  Si18  1  0.707141  0.627062  0.181059  1
  Si  Si19  1  0.287178  0.046332  0.182304  1
  Si  Si20  1  0.707086  0.958270  0.688892  1
  Si  Si21  1  0.456124  0.791214  0.438257  1
  Si  Si22  1  0.210336  0.532642  0.058077  1
  Si  Si23  1  0.532538  0.210325  0.941578  1
  Si  Si24  1  0.792162  0.457034  0.562623  1
  Si  Si25  1  0.046193  0.289135  0.817225  1
  Si  Si26  1  0.958943  0.706234  0.311227  1
  Mo  Mo27  1  0.167789  0.167909  0.999818  1
  Mo  Mo28  1  0.160152  0.995777  0.375543  1
  Mo  Mo29  1  0.832604  0.001590  0.876961  1
  Mo  Mo30  1  0.505193  0.658985  0.627164  1
  Mo  Mo31  1  0.345642  0.500128  0.872933  1
  Mo  Mo32  1  0.499236  0.345855  0.126289  1
  Mo  Mo33  1  0.659278  0.505381  0.373403  1
  Mo  Mo34  1  0.996135  0.159950  0.624935  1
  Mo  Mo35  1  0.001957  0.831722  0.122325  1
