# generated using pymatgen
data_Tb13Tm3ZnIn3Rh4
_symmetry_space_group_name_H-M   'P 1'
_cell_length_a   9.64061823
_cell_length_b   9.63160833
_cell_length_c   9.62964949
_cell_angle_alpha   60.08119362
_cell_angle_beta   59.97906890
_cell_angle_gamma   59.85548790
_symmetry_Int_Tables_number   1
_chemical_formula_structural   Tb13Tm3ZnIn3Rh4
_chemical_formula_sum   'Tb13 Tm3 Zn1 In3 Rh4'
_cell_volume   631.85749136
_cell_formula_units_Z   1
loop_
 _symmetry_equiv_pos_site_id
 _symmetry_equiv_pos_as_xyz
  1  'x, y, z'
loop_
 _atom_site_type_symbol
 _atom_site_label
 _atom_site_symmetry_multiplicity
 _atom_site_fract_x
 _atom_site_fract_y
 _atom_site_fract_z
 _atom_site_occupancy
  Tb  Tb0  1  0.646552  0.054452  0.647603  1
  Tb  Tb1  1  0.061252  0.062225  0.438909  1
  Tb  Tb2  1  0.436898  0.435603  0.067420  1
  Tb  Tb3  1  0.651583  0.650202  0.651112  1
  Tb  Tb4  1  0.813957  0.188089  0.187233  1
  Tb  Tb5  1  0.189624  0.812019  0.810258  1
  Tb  Tb6  1  0.053071  0.646383  0.648046  1
  Tb  Tb7  1  0.439507  0.061763  0.060774  1
  Tb  Tb8  1  0.436383  0.067726  0.437026  1
  Tb  Tb9  1  0.061819  0.438064  0.061984  1
  Tb  Tb10  1  0.647833  0.647207  0.053461  1
  Tb  Tb11  1  0.188512  0.813692  0.188173  1
  Tb  Tb12  1  0.067414  0.435622  0.437452  1
  Tm  Tm13  1  0.809447  0.810544  0.190512  1
  Tm  Tm14  1  0.811029  0.190319  0.810324  1
  Tm  Tm15  1  0.188421  0.189108  0.812563  1
  Zn  Zn16  1  0.416740  0.417130  0.417198  1
  In  In17  1  0.418199  0.418078  0.743193  1
  In  In18  1  0.418307  0.743008  0.418387  1
  In  In19  1  0.743432  0.418177  0.418365  1
  Rh  Rh20  1  0.860004  0.424967  0.857254  1
  Rh  Rh21  1  0.855517  0.858057  0.858672  1
  Rh  Rh22  1  0.857907  0.857394  0.426322  1
  Rh  Rh23  1  0.426591  0.860173  0.857759  1
