# generated using pymatgen
data_Tb15TmIn4OsRh3
_symmetry_space_group_name_H-M   'P 1'
_cell_length_a   9.67593149
_cell_length_b   9.73015197
_cell_length_c   9.67481800
_cell_angle_alpha   60.18794205
_cell_angle_beta   60.00380669
_cell_angle_gamma   60.14359101
_symmetry_Int_Tables_number   1
_chemical_formula_structural   Tb15TmIn4OsRh3
_chemical_formula_sum   'Tb15 Tm1 In4 Os1 Rh3'
_cell_volume   645.70813534
_cell_formula_units_Z   1
loop_
 _symmetry_equiv_pos_site_id
 _symmetry_equiv_pos_as_xyz
  1  'x, y, z'
loop_
 _atom_site_type_symbol
 _atom_site_label
 _atom_site_symmetry_multiplicity
 _atom_site_fract_x
 _atom_site_fract_y
 _atom_site_fract_z
 _atom_site_occupancy
  Tb  Tb0  1  0.811033  0.192098  0.808974  1
  Tb  Tb1  1  0.188599  0.192541  0.809431  1
  Tb  Tb2  1  0.649333  0.049140  0.650764  1
  Tb  Tb3  1  0.062183  0.060726  0.438546  1
  Tb  Tb4  1  0.443916  0.436237  0.059923  1
  Tb  Tb5  1  0.651121  0.650758  0.652020  1
  Tb  Tb6  1  0.811033  0.192098  0.187895  1
  Tb  Tb7  1  0.190426  0.810035  0.809960  1
  Tb  Tb8  1  0.047766  0.649514  0.651360  1
  Tb  Tb9  1  0.439143  0.060244  0.062981  1
  Tb  Tb10  1  0.439143  0.060244  0.437631  1
  Tb  Tb11  1  0.058528  0.437594  0.059577  1
  Tb  Tb12  1  0.651121  0.650758  0.046100  1
  Tb  Tb13  1  0.190426  0.810035  0.189578  1
  Tb  Tb14  1  0.058528  0.437594  0.444301  1
  Tm  Tm15  1  0.810844  0.808839  0.190159  1
  In  In16  1  0.417235  0.416799  0.417155  1
  In  In17  1  0.417235  0.416799  0.748809  1
  In  In18  1  0.417527  0.747483  0.417494  1
  In  In19  1  0.748391  0.417196  0.417205  1
  Os  Os20  1  0.858002  0.424832  0.858583  1
  Rh  Rh21  1  0.857241  0.859312  0.860669  1
  Rh  Rh22  1  0.857241  0.859312  0.422779  1
  Rh  Rh23  1  0.423981  0.859805  0.858107  1
