# generated using pymatgen
data_PuNpTcB6
_symmetry_space_group_name_H-M   'P 1'
_cell_length_a   3.62445600
_cell_length_b   9.29232300
_cell_length_c   11.35747600
_cell_angle_alpha   90.00000000
_cell_angle_beta   90.00000000
_cell_angle_gamma   90.00000000
_symmetry_Int_Tables_number   1
_chemical_formula_structural   PuNpTcB6
_chemical_formula_sum   'Pu4 Np4 Tc4 B24'
_cell_volume   382.51542872
_cell_formula_units_Z   4
loop_
 _symmetry_equiv_pos_site_id
 _symmetry_equiv_pos_as_xyz
  1  'x, y, z'
loop_
 _atom_site_type_symbol
 _atom_site_label
 _atom_site_symmetry_multiplicity
 _atom_site_fract_x
 _atom_site_fract_y
 _atom_site_fract_z
 _atom_site_occupancy
  Pu  Pu0  1  0.000000  0.337239  0.407004  1
  Pu  Pu1  1  0.000000  0.662761  0.592996  1
  Pu  Pu2  1  0.000000  0.837239  0.092996  1
  Pu  Pu3  1  0.000000  0.162761  0.907004  1
  Np  Np4  1  0.000000  0.958760  0.400662  1
  Np  Np5  1  0.000000  0.041240  0.599338  1
  Np  Np6  1  0.000000  0.458760  0.099338  1
  Np  Np7  1  0.000000  0.541240  0.900662  1
  Tc  Tc8  1  0.000000  0.646695  0.318719  1
  Tc  Tc9  1  0.000000  0.353305  0.681281  1
  Tc  Tc10  1  0.000000  0.146695  0.181281  1
  Tc  Tc11  1  0.000000  0.853305  0.818719  1
  B  B12  1  0.500000  0.552505  0.431108  1
  B  B13  1  0.500000  0.447495  0.568892  1
  B  B14  1  0.500000  0.052505  0.068892  1
  B  B15  1  0.500000  0.947495  0.931108  1
  B  B16  1  0.500000  0.743579  0.423341  1
  B  B17  1  0.500000  0.256421  0.576659  1
  B  B18  1  0.500000  0.243579  0.076659  1
  B  B19  1  0.500000  0.756421  0.923341  1
  B  B20  1  0.500000  0.804892  0.274623  1
  B  B21  1  0.500000  0.195108  0.725377  1
  B  B22  1  0.500000  0.304892  0.225377  1
  B  B23  1  0.500000  0.695108  0.774623  1
  B  B24  1  0.500000  0.645379  0.188328  1
  B  B25  1  0.500000  0.354621  0.811672  1
  B  B26  1  0.500000  0.145379  0.311672  1
  B  B27  1  0.500000  0.854621  0.688328  1
  B  B28  1  0.500000  0.988876  0.220518  1
  B  B29  1  0.500000  0.011124  0.779482  1
  B  B30  1  0.500000  0.488876  0.279482  1
  B  B31  1  0.500000  0.511124  0.720518  1
  B  B32  1  0.500000  0.641484  0.039330  1
  B  B33  1  0.500000  0.358516  0.960670  1
  B  B34  1  0.500000  0.141484  0.460670  1
  B  B35  1  0.500000  0.858516  0.539330  1
