# generated using pymatgen
data_B4Ir3Pd4Pt
_symmetry_space_group_name_H-M   'P 1'
_cell_length_a   6.76996616
_cell_length_b   6.17271285
_cell_length_c   5.56990139
_cell_angle_alpha   70.56083565
_cell_angle_beta   58.61653999
_cell_angle_gamma   50.49190579
_symmetry_Int_Tables_number   1
_chemical_formula_structural   B4Ir3Pd4Pt
_chemical_formula_sum   'B4 Ir3 Pd4 Pt1'
_cell_volume   153.30993353
_cell_formula_units_Z   1
loop_
 _symmetry_equiv_pos_site_id
 _symmetry_equiv_pos_as_xyz
  1  'x, y, z'
loop_
 _atom_site_type_symbol
 _atom_site_label
 _atom_site_symmetry_multiplicity
 _atom_site_fract_x
 _atom_site_fract_y
 _atom_site_fract_z
 _atom_site_occupancy
  B  B0  1  0.049379  0.989909  0.559371  1
  B  B1  1  0.674683  0.854554  0.203162  1
  B  B2  1  0.417864  0.558948  0.977549  1
  B  B3  1  0.279199  0.184456  0.846198  1
  Ir  Ir4  1  0.380175  0.854478  0.147805  1
  Ir  Ir5  1  0.617839  0.148017  0.855803  1
  Ir  Ir6  1  0.392538  0.867223  0.635711  1
  Pd  Pd7  1  0.937972  0.793425  0.385496  1
  Pd  Pd8  1  0.457614  0.307647  0.369764  1
  Pd  Pd9  1  0.860593  0.370835  0.308886  1
  Pd  Pd10  1  0.885042  0.386077  0.787632  1
  Pt  Pt11  1  0.102302  0.629230  0.867420  1
