# generated using pymatgen
data_Pr8Si15Pt
_symmetry_space_group_name_H-M   'P 1'
_cell_length_a   8.25298500
_cell_length_b   8.25298554
_cell_length_c   8.55825600
_cell_angle_alpha   90.00000000
_cell_angle_beta   90.00000000
_cell_angle_gamma   120.00000185
_symmetry_Int_Tables_number   1
_chemical_formula_structural   Pr8Si15Pt
_chemical_formula_sum   'Pr8 Si15 Pt1'
_cell_volume   504.82172523
_cell_formula_units_Z   1
loop_
 _symmetry_equiv_pos_site_id
 _symmetry_equiv_pos_as_xyz
  1  'x, y, z'
loop_
 _atom_site_type_symbol
 _atom_site_label
 _atom_site_symmetry_multiplicity
 _atom_site_fract_x
 _atom_site_fract_y
 _atom_site_fract_z
 _atom_site_occupancy
  Pr  Pr0  1  0.498513  0.501487  0.744758  1
  Pr  Pr1  1  0.498865  0.501135  0.255365  1
  Pr  Pr2  1  0.002976  0.501487  0.744758  1
  Pr  Pr3  1  0.002272  0.501135  0.255365  1
  Pr  Pr4  1  0.498513  0.997024  0.744758  1
  Pr  Pr5  1  0.498865  0.997728  0.255365  1
  Pr  Pr6  1  0.000000  0.000000  0.748424  1
  Pr  Pr7  1  0.000000  0.000000  0.251420  1
  Si  Si8  1  0.832014  0.167986  0.000146  1
  Si  Si9  1  0.164567  0.835433  0.999640  1
  Si  Si10  1  0.335973  0.167986  0.000146  1
  Si  Si11  1  0.167129  0.832871  0.500377  1
  Si  Si12  1  0.670865  0.835433  0.999640  1
  Si  Si13  1  0.833724  0.166276  0.499633  1
  Si  Si14  1  0.832014  0.664027  0.000146  1
  Si  Si15  1  0.665743  0.832871  0.500377  1
  Si  Si16  1  0.164567  0.329135  0.999640  1
  Si  Si17  1  0.332552  0.166276  0.499633  1
  Si  Si18  1  0.167129  0.334257  0.500377  1
  Si  Si19  1  0.833724  0.667448  0.499633  1
  Si  Si20  1  0.333333  0.666667  0.001216  1
  Si  Si21  1  0.333333  0.666667  0.498793  1
  Si  Si22  1  0.666667  0.333333  0.501016  1
  Pt  Pt23  1  0.666667  0.333333  0.999375  1
