# generated using pymatgen
data_UNb2I15
_symmetry_space_group_name_H-M   'P 1'
_cell_length_a   15.77808918
_cell_length_b   15.77881196
_cell_length_c   7.38060500
_cell_angle_alpha   89.20164073
_cell_angle_beta   89.34651537
_cell_angle_gamma   85.58869418
_symmetry_Int_Tables_number   1
_chemical_formula_structural   UNb2I15
_chemical_formula_sum   'U2 Nb4 I30'
_cell_volume   1831.75215494
_cell_formula_units_Z   2
loop_
 _symmetry_equiv_pos_site_id
 _symmetry_equiv_pos_as_xyz
  1  'x, y, z'
loop_
 _atom_site_type_symbol
 _atom_site_label
 _atom_site_symmetry_multiplicity
 _atom_site_fract_x
 _atom_site_fract_y
 _atom_site_fract_z
 _atom_site_occupancy
  U  U0  1  0.602904  0.397350  0.500167  1
  U  U1  1  0.269662  0.063764  0.021887  1
  Nb  Nb2  1  0.388708  0.612015  0.499500  1
  Nb  Nb3  1  0.055154  0.277851  0.020426  1
  Nb  Nb4  1  0.725965  0.940374  0.978847  1
  Nb  Nb5  1  0.940070  0.726311  0.978843  1
  I  I6  1  0.112458  0.119812  0.803841  1
  I  I7  1  0.880897  0.879945  0.181339  1
  I  I8  1  0.304855  0.920056  0.788339  1
  I  I9  1  0.925711  0.302784  0.794426  1
  I  I10  1  0.704166  0.068770  0.209809  1
  I  I11  1  0.069340  0.703659  0.211228  1
  I  I12  1  0.164086  0.966030  0.255889  1
  I  I13  1  0.976971  0.168184  0.239022  1
  I  I14  1  0.833959  0.023712  0.758417  1
  I  I15  1  0.024996  0.832274  0.757759  1
  I  I16  1  0.413143  0.028370  0.255394  1
  I  I17  1  0.029663  0.408253  0.244581  1
  I  I18  1  0.597169  0.962603  0.748479  1
  I  I19  1  0.962462  0.596819  0.747848  1
  I  I20  1  0.214025  0.221065  0.239067  1
  I  I21  1  0.786319  0.785733  0.775931  1
  I  I22  1  0.498312  0.300054  0.275823  1
  I  I23  1  0.309958  0.501606  0.291498  1
  I  I24  1  0.498529  0.689421  0.708979  1
  I  I25  1  0.700277  0.502571  0.724638  1
  I  I26  1  0.367055  0.168638  0.787420  1
  I  I27  1  0.165819  0.356935  0.803349  1
  I  I28  1  0.643089  0.832198  0.199704  1
  I  I29  1  0.833792  0.641175  0.198951  1
  I  I30  1  0.746929  0.362182  0.261490  1
  I  I31  1  0.363869  0.741799  0.269061  1
  I  I32  1  0.258566  0.636848  0.730291  1
  I  I33  1  0.638811  0.253361  0.738254  1
  I  I34  1  0.546914  0.554917  0.276766  1
  I  I35  1  0.445394  0.452557  0.722738  1
