# generated using pymatgen
data_KCoRh3F18
_symmetry_space_group_name_H-M   'P 1'
_cell_length_a   10.16647400
_cell_length_b   11.17172300
_cell_length_c   14.94169200
_cell_angle_alpha   90.00000000
_cell_angle_beta   90.00000000
_cell_angle_gamma   90.00000000
_symmetry_Int_Tables_number   1
_chemical_formula_structural   KCoRh3F18
_chemical_formula_sum   'K4 Co4 Rh12 F72'
_cell_volume   1697.03302167
_cell_formula_units_Z   4
loop_
 _symmetry_equiv_pos_site_id
 _symmetry_equiv_pos_as_xyz
  1  'x, y, z'
loop_
 _atom_site_type_symbol
 _atom_site_label
 _atom_site_symmetry_multiplicity
 _atom_site_fract_x
 _atom_site_fract_y
 _atom_site_fract_z
 _atom_site_occupancy
  K  K0  1  0.524932  0.928361  0.750000  1
  K  K1  1  0.975068  0.428361  0.750000  1
  K  K2  1  0.475068  0.071639  0.250000  1
  K  K3  1  0.024932  0.571639  0.250000  1
  Co  Co4  1  0.000000  0.000000  0.500000  1
  Co  Co5  1  0.500000  0.500000  0.000000  1
  Co  Co6  1  0.000000  0.000000  0.000000  1
  Co  Co7  1  0.500000  0.500000  0.500000  1
  Rh  Rh8  1  0.103718  0.021480  0.750000  1
  Rh  Rh9  1  0.396282  0.521480  0.750000  1
  Rh  Rh10  1  0.896282  0.978520  0.250000  1
  Rh  Rh11  1  0.603718  0.478520  0.250000  1
  Rh  Rh12  1  0.699475  0.207795  0.548208  1
  Rh  Rh13  1  0.800525  0.707795  0.951792  1
  Rh  Rh14  1  0.300525  0.792205  0.048208  1
  Rh  Rh15  1  0.199475  0.292205  0.451792  1
  Rh  Rh16  1  0.300525  0.792205  0.451792  1
  Rh  Rh17  1  0.199475  0.292205  0.048208  1
  Rh  Rh18  1  0.699475  0.207795  0.951792  1
  Rh  Rh19  1  0.800525  0.707795  0.548208  1
  F  F20  1  0.102029  0.022480  0.618259  1
  F  F21  1  0.397971  0.522480  0.881741  1
  F  F22  1  0.897971  0.977520  0.118259  1
  F  F23  1  0.602029  0.477520  0.381741  1
  F  F24  1  0.897971  0.977520  0.381741  1
  F  F25  1  0.602029  0.477520  0.118259  1
  F  F26  1  0.102029  0.022480  0.881741  1
  F  F27  1  0.397971  0.522480  0.618259  1
  F  F28  1  0.164957  0.862736  0.750000  1
  F  F29  1  0.335043  0.362736  0.750000  1
  F  F30  1  0.835043  0.137264  0.250000  1
  F  F31  1  0.664957  0.637264  0.250000  1
  F  F32  1  0.282612  0.070538  0.750000  1
  F  F33  1  0.217388  0.570538  0.750000  1
  F  F34  1  0.717388  0.929462  0.250000  1
  F  F35  1  0.782612  0.429462  0.250000  1
  F  F36  1  0.049164  0.184117  0.750000  1
  F  F37  1  0.450836  0.684117  0.750000  1
  F  F38  1  0.950836  0.815883  0.250000  1
  F  F39  1  0.549164  0.315883  0.250000  1
  F  F40  1  0.927445  0.970622  0.750000  1
  F  F41  1  0.572555  0.470621  0.750000  1
  F  F42  1  0.072555  0.029378  0.250000  1
  F  F43  1  0.427445  0.529378  0.250000  1
  F  F44  1  0.833745  0.080485  0.552509  1
  F  F45  1  0.666255  0.580485  0.947491  1
  F  F46  1  0.166255  0.919515  0.052509  1
  F  F47  1  0.333745  0.419515  0.447491  1
  F  F48  1  0.166255  0.919515  0.447491  1
  F  F49  1  0.333745  0.419515  0.052509  1
  F  F50  1  0.833745  0.080485  0.947491  1
  F  F51  1  0.666255  0.580485  0.552509  1
  F  F52  1  0.798806  0.290921  0.462713  1
  F  F53  1  0.701194  0.790921  0.037287  1
  F  F54  1  0.201194  0.709079  0.962713  1
  F  F55  1  0.298806  0.209079  0.537287  1
  F  F56  1  0.201194  0.709079  0.537287  1
  F  F57  1  0.298806  0.209079  0.962713  1
  F  F58  1  0.798806  0.290921  0.037287  1
  F  F59  1  0.701194  0.790921  0.462713  1
  F  F60  1  0.608430  0.125455  0.456747  1
  F  F61  1  0.891570  0.625455  0.043253  1
  F  F62  1  0.391570  0.874545  0.956747  1
  F  F63  1  0.108430  0.374545  0.543253  1
  F  F64  1  0.391570  0.874545  0.543253  1
  F  F65  1  0.108430  0.374545  0.956747  1
  F  F66  1  0.608430  0.125455  0.043253  1
  F  F67  1  0.891570  0.625455  0.456747  1
  F  F68  1  0.566018  0.335357  0.545284  1
  F  F69  1  0.933982  0.835357  0.954716  1
  F  F70  1  0.433982  0.664643  0.045284  1
  F  F71  1  0.066018  0.164643  0.454716  1
  F  F72  1  0.433982  0.664643  0.454716  1
  F  F73  1  0.066018  0.164643  0.045284  1
  F  F74  1  0.566018  0.335357  0.954716  1
  F  F75  1  0.933982  0.835357  0.545284  1
  F  F76  1  0.600603  0.122355  0.635134  1
  F  F77  1  0.899397  0.622355  0.864866  1
  F  F78  1  0.399397  0.877645  0.135134  1
  F  F79  1  0.100603  0.377645  0.364866  1
  F  F80  1  0.399397  0.877645  0.364866  1
  F  F81  1  0.100603  0.377645  0.135134  1
  F  F82  1  0.600603  0.122355  0.864866  1
  F  F83  1  0.899397  0.622355  0.635134  1
  F  F84  1  0.789517  0.289783  0.640983  1
  F  F85  1  0.710483  0.789783  0.859017  1
  F  F86  1  0.210483  0.710217  0.140983  1
  F  F87  1  0.289517  0.210217  0.359017  1
  F  F88  1  0.210483  0.710217  0.359017  1
  F  F89  1  0.289517  0.210217  0.140983  1
  F  F90  1  0.789517  0.289783  0.859017  1
  F  F91  1  0.710483  0.789783  0.640983  1
