# generated using pymatgen
data_Ba2HoC2(O2F)3
_symmetry_space_group_name_H-M   'P 1'
_cell_length_a   9.56714000
_cell_length_b   7.04205600
_cell_length_c   11.90606200
_cell_angle_alpha   90.00000000
_cell_angle_beta   90.00000000
_cell_angle_gamma   90.00000000
_symmetry_Int_Tables_number   1
_chemical_formula_structural   Ba2HoC2(O2F)3
_chemical_formula_sum   'Ba8 Ho4 C8 O24 F12'
_cell_volume   802.13920521
_cell_formula_units_Z   4
loop_
 _symmetry_equiv_pos_site_id
 _symmetry_equiv_pos_as_xyz
  1  'x, y, z'
loop_
 _atom_site_type_symbol
 _atom_site_label
 _atom_site_symmetry_multiplicity
 _atom_site_fract_x
 _atom_site_fract_y
 _atom_site_fract_z
 _atom_site_occupancy
  Ba  Ba0  1  0.380064  0.238428  0.071348  1
  Ba  Ba1  1  0.119936  0.738428  0.071348  1
  Ba  Ba2  1  0.619936  0.238428  0.428653  1
  Ba  Ba3  1  0.880064  0.738428  0.428653  1
  Ba  Ba4  1  0.119936  0.261572  0.571348  1
  Ba  Ba5  1  0.380064  0.761572  0.571348  1
  Ba  Ba6  1  0.880064  0.261572  0.928652  1
  Ba  Ba7  1  0.619936  0.761572  0.928652  1
  Ho  Ho8  1  0.000000  0.271610  0.250000  1
  Ho  Ho9  1  0.500000  0.771610  0.250000  1
  Ho  Ho10  1  0.500000  0.228390  0.750000  1
  Ho  Ho11  1  0.000000  0.728390  0.750000  1
  C  C12  1  0.694340  0.479300  0.179523  1
  C  C13  1  0.805661  0.979300  0.179523  1
  C  C14  1  0.305661  0.479300  0.320476  1
  C  C15  1  0.194339  0.979300  0.320476  1
  C  C16  1  0.805661  0.020700  0.679524  1
  C  C17  1  0.694340  0.520700  0.679524  1
  C  C18  1  0.194339  0.020700  0.820476  1
  C  C19  1  0.305661  0.520700  0.820476  1
  O  O20  1  0.910002  0.019891  0.113076  1
  O  O21  1  0.589998  0.519891  0.113076  1
  O  O22  1  0.798424  0.380093  0.145665  1
  O  O23  1  0.701576  0.880093  0.145665  1
  O  O24  1  0.185889  0.044332  0.217612  1
  O  O25  1  0.314112  0.544332  0.217612  1
  O  O26  1  0.814112  0.044332  0.282387  1
  O  O27  1  0.685889  0.544332  0.282387  1
  O  O28  1  0.201576  0.380093  0.354335  1
  O  O29  1  0.298424  0.880093  0.354335  1
  O  O30  1  0.089998  0.019891  0.386924  1
  O  O31  1  0.410002  0.519891  0.386924  1
  O  O32  1  0.589998  0.480109  0.613076  1
  O  O33  1  0.910002  0.980109  0.613076  1
  O  O34  1  0.701576  0.119907  0.645665  1
  O  O35  1  0.798424  0.619907  0.645665  1
  O  O36  1  0.314112  0.455668  0.717613  1
  O  O37  1  0.185889  0.955668  0.717613  1
  O  O38  1  0.685889  0.455668  0.782388  1
  O  O39  1  0.814112  0.955668  0.782388  1
  O  O40  1  0.298424  0.119907  0.854335  1
  O  O41  1  0.201576  0.619907  0.854335  1
  O  O42  1  0.410002  0.480109  0.886924  1
  O  O43  1  0.089998  0.980109  0.886924  1
  F  F44  1  0.093698  0.348375  0.079535  1
  F  F45  1  0.406302  0.848373  0.079535  1
  F  F46  1  0.500000  0.096494  0.250000  1
  F  F47  1  0.000000  0.596494  0.250000  1
  F  F48  1  0.906302  0.348375  0.420465  1
  F  F49  1  0.593698  0.848373  0.420465  1
  F  F50  1  0.406302  0.151625  0.579535  1
  F  F51  1  0.093698  0.651625  0.579535  1
  F  F52  1  0.000000  0.403504  0.750000  1
  F  F53  1  0.500000  0.903504  0.750000  1
  F  F54  1  0.593698  0.151625  0.920465  1
  F  F55  1  0.906302  0.651625  0.920465  1
