# generated using pymatgen
data_TbCd(CuPt)2
_symmetry_space_group_name_H-M   'P 1'
_cell_length_a   5.23489299
_cell_length_b   5.52547764
_cell_length_c   5.23489357
_cell_angle_alpha   58.14614525
_cell_angle_beta   58.26310915
_cell_angle_gamma   58.14614455
_symmetry_Int_Tables_number   1
_chemical_formula_structural   TbCd(CuPt)2
_chemical_formula_sum   'Tb1 Cd1 Cu2 Pt2'
_cell_volume   102.61738413
_cell_formula_units_Z   1
loop_
 _symmetry_equiv_pos_site_id
 _symmetry_equiv_pos_as_xyz
  1  'x, y, z'
loop_
 _atom_site_type_symbol
 _atom_site_label
 _atom_site_symmetry_multiplicity
 _atom_site_fract_x
 _atom_site_fract_y
 _atom_site_fract_z
 _atom_site_occupancy
  Tb  Tb0  1  0.746342  0.753658  0.746342  1
  Cd  Cd1  1  0.994536  0.005464  0.994536  1
  Cu  Cu2  1  0.877418  0.371842  0.378898  1
  Cu  Cu3  1  0.378898  0.371842  0.877418  1
  Pt  Pt4  1  0.376403  0.874308  0.376403  1
  Pt  Pt5  1  0.376403  0.372884  0.376403  1
