# generated using pymatgen
data_YLuMo2F14
_symmetry_space_group_name_H-M   'P 1'
_cell_length_a   5.61983135
_cell_length_b   9.03743340
_cell_length_c   12.15402300
_cell_angle_alpha   62.57028191
_cell_angle_beta   90.18199633
_cell_angle_gamma   90.03885747
_symmetry_Int_Tables_number   1
_chemical_formula_structural   YLuMo2F14
_chemical_formula_sum   'Y2 Lu2 Mo4 F28'
_cell_volume   547.88815947
_cell_formula_units_Z   2
loop_
 _symmetry_equiv_pos_site_id
 _symmetry_equiv_pos_as_xyz
  1  'x, y, z'
loop_
 _atom_site_type_symbol
 _atom_site_label
 _atom_site_symmetry_multiplicity
 _atom_site_fract_x
 _atom_site_fract_y
 _atom_site_fract_z
 _atom_site_occupancy
  Y  Y0  1  0.762970  0.183533  0.234910  1
  Y  Y1  1  0.237030  0.816467  0.765090  1
  Lu  Lu2  1  0.265018  0.813960  0.264929  1
  Lu  Lu3  1  0.734982  0.186040  0.735071  1
  Mo  Mo4  1  0.758498  0.728762  0.045828  1
  Mo  Mo5  1  0.241502  0.271238  0.954172  1
  Mo  Mo6  1  0.258072  0.276321  0.457160  1
  Mo  Mo7  1  0.741928  0.723679  0.542840  1
  F  F8  1  0.948125  0.708087  0.417188  1
  F  F9  1  0.051875  0.291913  0.582812  1
  F  F10  1  0.447698  0.289165  0.079885  1
  F  F11  1  0.552302  0.710835  0.920115  1
  F  F12  1  0.473727  0.733596  0.149532  1
  F  F13  1  0.526273  0.266404  0.850468  1
  F  F14  1  0.974034  0.268771  0.354356  1
  F  F15  1  0.025966  0.731229  0.645644  1
  F  F16  1  0.965167  0.751071  0.171377  1
  F  F17  1  0.034833  0.248929  0.828623  1
  F  F18  1  0.459914  0.253202  0.331168  1
  F  F19  1  0.540086  0.746798  0.668832  1
  F  F20  1  0.763779  0.483001  0.141614  1
  F  F21  1  0.236221  0.516999  0.858386  1
  F  F22  1  0.264142  0.522142  0.358674  1
  F  F23  1  0.735858  0.477858  0.641326  1
  F  F24  1  0.945143  0.277676  0.050457  1
  F  F25  1  0.054857  0.722324  0.949543  1
  F  F26  1  0.442068  0.721856  0.444849  1
  F  F27  1  0.557932  0.278144  0.555151  1
  F  F28  1  0.742929  0.969033  0.445806  1
  F  F29  1  0.257071  0.030967  0.554194  1
  F  F30  1  0.243569  0.026590  0.054280  1
  F  F31  1  0.756431  0.973410  0.945720  1
  F  F32  1  0.569345  0.972768  0.232778  1
  F  F33  1  0.430655  0.027232  0.767222  1
  F  F34  1  0.077818  0.017307  0.266818  1
  F  F35  1  0.922182  0.982693  0.733182  1
