# generated using pymatgen
data_NdThB10Rh
_symmetry_space_group_name_H-M   'P 1'
_cell_length_a   4.20679700
_cell_length_b   5.73862993
_cell_length_c   11.46383169
_cell_angle_alpha   90.04715829
_cell_angle_beta   90.00000000
_cell_angle_gamma   90.00000000
_symmetry_Int_Tables_number   1
_chemical_formula_structural   NdThB10Rh
_chemical_formula_sum   'Nd2 Th2 B20 Rh2'
_cell_volume   276.75114650
_cell_formula_units_Z   2
loop_
 _symmetry_equiv_pos_site_id
 _symmetry_equiv_pos_as_xyz
  1  'x, y, z'
loop_
 _atom_site_type_symbol
 _atom_site_label
 _atom_site_symmetry_multiplicity
 _atom_site_fract_x
 _atom_site_fract_y
 _atom_site_fract_z
 _atom_site_occupancy
  Nd  Nd0  1  0.500000  0.297311  0.865232  1
  Nd  Nd1  1  0.500000  0.702689  0.134768  1
  Th  Th2  1  0.500000  0.796553  0.636891  1
  Th  Th3  1  0.500000  0.203447  0.363109  1
  B  B4  1  0.000000  0.118125  0.542810  1
  B  B5  1  0.000000  0.881875  0.457190  1
  B  B6  1  0.000000  0.618550  0.956711  1
  B  B7  1  0.000000  0.381450  0.043289  1
  B  B8  1  0.000000  0.134658  0.696604  1
  B  B9  1  0.000000  0.865342  0.303396  1
  B  B10  1  0.300459  0.218933  0.118641  1
  B  B11  1  0.300459  0.781067  0.881359  1
  B  B12  1  0.698373  0.718550  0.380933  1
  B  B13  1  0.698373  0.281450  0.619067  1
  B  B14  1  0.699541  0.781067  0.881359  1
  B  B15  1  0.699541  0.218933  0.118641  1
  B  B16  1  0.301627  0.281450  0.619067  1
  B  B17  1  0.301627  0.718550  0.380933  1
  B  B18  1  0.000000  0.056955  0.193095  1
  B  B19  1  0.000000  0.943045  0.806905  1
  B  B20  1  0.000000  0.555692  0.307481  1
  B  B21  1  0.000000  0.444308  0.692519  1
  B  B22  1  0.000000  0.363627  0.197219  1
  B  B23  1  0.000000  0.636373  0.802781  1
  Rh  Rh24  1  0.000000  0.500000  0.500000  1
  Rh  Rh25  1  0.000000  0.000000  0.000000  1
