# generated using pymatgen
data_Yb4Al13Si5Ir6
_symmetry_space_group_name_H-M   'P 1'
_cell_length_a   7.47472740
_cell_length_b   7.44776078
_cell_length_c   9.44510235
_cell_angle_alpha   89.94983325
_cell_angle_beta   90.05400926
_cell_angle_gamma   119.77775816
_symmetry_Int_Tables_number   1
_chemical_formula_structural   Yb4Al13Si5Ir6
_chemical_formula_sum   'Yb4 Al13 Si5 Ir6'
_cell_volume   456.37975477
_cell_formula_units_Z   1
loop_
 _symmetry_equiv_pos_site_id
 _symmetry_equiv_pos_as_xyz
  1  'x, y, z'
loop_
 _atom_site_type_symbol
 _atom_site_label
 _atom_site_symmetry_multiplicity
 _atom_site_fract_x
 _atom_site_fract_y
 _atom_site_fract_z
 _atom_site_occupancy
  Yb  Yb0  1  0.000971  0.662806  0.253330  1
  Yb  Yb1  1  0.004889  0.341653  0.749142  1
  Yb  Yb2  1  0.674861  0.007393  0.252663  1
  Yb  Yb3  1  0.319624  0.991521  0.745066  1
  Al  Al4  1  0.129324  0.127679  0.250604  1
  Al  Al5  1  0.871345  0.872018  0.750395  1
  Al  Al6  1  0.665019  0.996925  0.578194  1
  Al  Al7  1  0.661788  0.997359  0.923843  1
  Al  Al8  1  0.339010  0.002956  0.072197  1
  Al  Al9  1  0.336358  0.334763  0.558328  1
  Al  Al10  1  0.664833  0.669120  0.440229  1
  Al  Al11  1  0.664309  0.669098  0.058460  1
  Al  Al12  1  0.336189  0.331643  0.941428  1
  Al  Al13  1  0.337264  0.546542  0.250471  1
  Al  Al14  1  0.660771  0.449961  0.750475  1
  Al  Al15  1  0.546538  0.343385  0.250144  1
  Al  Al16  1  0.453353  0.658258  0.749268  1
  Si  Si17  1  0.001471  0.327351  0.068501  1
  Si  Si18  1  0.997265  0.670853  0.932388  1
  Si  Si19  1  0.990980  0.665831  0.572112  1
  Si  Si20  1  0.340375  0.006476  0.422328  1
  Si  Si21  1  0.002972  0.327743  0.429068  1
  Ir  Ir22  1  0.688022  0.338032  0.003425  1
  Ir  Ir23  1  0.311416  0.660925  0.998775  1
  Ir  Ir24  1  0.311639  0.670511  0.499770  1
  Ir  Ir25  1  0.681441  0.331274  0.498086  1
  Ir  Ir26  1  0.000843  0.999501  0.001140  1
  Ir  Ir27  1  0.007133  0.998426  0.500173  1
