# generated using pymatgen
data_Tb3In3SnPdRu
_symmetry_space_group_name_H-M   'P 1'
_cell_length_a   7.90676100
_cell_length_b   7.90676221
_cell_length_c   3.85599500
_cell_angle_alpha   90.00000000
_cell_angle_beta   90.00000000
_cell_angle_gamma   119.99999911
_symmetry_Int_Tables_number   1
_chemical_formula_structural   Tb3In3SnPdRu
_chemical_formula_sum   'Tb3 In3 Sn1 Pd1 Ru1'
_cell_volume   208.76821946
_cell_formula_units_Z   1
loop_
 _symmetry_equiv_pos_site_id
 _symmetry_equiv_pos_as_xyz
  1  'x, y, z'
loop_
 _atom_site_type_symbol
 _atom_site_label
 _atom_site_symmetry_multiplicity
 _atom_site_fract_x
 _atom_site_fract_y
 _atom_site_fract_z
 _atom_site_occupancy
  Tb  Tb0  1  0.610408  0.031465  0.500000  1
  Tb  Tb1  1  0.421058  0.389592  0.500000  1
  Tb  Tb2  1  0.968535  0.578942  0.500000  1
  In  In3  1  0.748538  0.736707  0.000000  1
  In  In4  1  0.263293  0.011831  0.000000  1
  In  In5  1  0.988169  0.251462  0.000000  1
  Sn  Sn6  1  0.333333  0.666667  0.000000  1
  Pd  Pd7  1  0.000000  0.000000  0.500000  1
  Ru  Ru8  1  0.666667  0.333333  0.000000  1
