# generated using pymatgen
data_Er4Tm12MgIn3Rh4
_symmetry_space_group_name_H-M   'P 1'
_cell_length_a   9.55342270
_cell_length_b   9.54797500
_cell_length_c   9.55931899
_cell_angle_alpha   60.02540297
_cell_angle_beta   60.02546793
_cell_angle_gamma   59.94449143
_symmetry_Int_Tables_number   1
_chemical_formula_structural   Er4Tm12MgIn3Rh4
_chemical_formula_sum   'Er4 Tm12 Mg1 In3 Rh4'
_cell_volume   616.54733387
_cell_formula_units_Z   1
loop_
 _symmetry_equiv_pos_site_id
 _symmetry_equiv_pos_as_xyz
  1  'x, y, z'
loop_
 _atom_site_type_symbol
 _atom_site_label
 _atom_site_symmetry_multiplicity
 _atom_site_fract_x
 _atom_site_fract_y
 _atom_site_fract_z
 _atom_site_occupancy
  Er  Er0  1  0.061342  0.061376  0.438246  1
  Er  Er1  1  0.435698  0.064782  0.435437  1
  Er  Er2  1  0.061802  0.438015  0.061520  1
  Er  Er3  1  0.048402  0.649709  0.649817  1
  Tm  Tm4  1  0.436182  0.436004  0.063753  1
  Tm  Tm5  1  0.649776  0.047511  0.650064  1
  Tm  Tm6  1  0.187544  0.812003  0.187266  1
  Tm  Tm7  1  0.187455  0.187412  0.812061  1
  Tm  Tm8  1  0.809522  0.809692  0.190720  1
  Tm  Tm9  1  0.438770  0.061103  0.060879  1
  Tm  Tm10  1  0.811831  0.187622  0.187361  1
  Tm  Tm11  1  0.063927  0.436222  0.436105  1
  Tm  Tm12  1  0.809522  0.190741  0.809855  1
  Tm  Tm13  1  0.190597  0.809819  0.809942  1
  Tm  Tm14  1  0.649643  0.649800  0.047870  1
  Tm  Tm15  1  0.651556  0.651780  0.651815  1
  Mg  Mg16  1  0.422719  0.422532  0.422601  1
  In  In17  1  0.748501  0.417627  0.417558  1
  In  In18  1  0.417823  0.748528  0.417236  1
  In  In19  1  0.417695  0.417169  0.748910  1
  Rh  Rh20  1  0.858456  0.858492  0.425972  1
  Rh  Rh21  1  0.856807  0.857515  0.857715  1
  Rh  Rh22  1  0.426271  0.858334  0.858742  1
  Rh  Rh23  1  0.858160  0.426213  0.858557  1
