# generated using pymatgen
data_Hf6AlNiSe
_symmetry_space_group_name_H-M   'P 1'
_cell_length_a   3.42364200
_cell_length_b   7.66903687
_cell_length_c   7.66903800
_cell_angle_alpha   119.99999626
_cell_angle_beta   90.00000000
_cell_angle_gamma   90.00000000
_symmetry_Int_Tables_number   1
_chemical_formula_structural   Hf6AlNiSe
_chemical_formula_sum   'Hf6 Al1 Ni1 Se1'
_cell_volume   174.38162036
_cell_formula_units_Z   1
loop_
 _symmetry_equiv_pos_site_id
 _symmetry_equiv_pos_as_xyz
  1  'x, y, z'
loop_
 _atom_site_type_symbol
 _atom_site_label
 _atom_site_symmetry_multiplicity
 _atom_site_fract_x
 _atom_site_fract_y
 _atom_site_fract_z
 _atom_site_occupancy
  Hf  Hf0  1  0.500000  0.747956  0.753525  1
  Hf  Hf1  1  0.500000  0.005569  0.252044  1
  Hf  Hf2  1  0.500000  0.246475  0.994431  1
  Hf  Hf3  1  0.000000  0.409093  0.400214  1
  Hf  Hf4  1  0.000000  0.991121  0.590907  1
  Hf  Hf5  1  0.000000  0.599786  0.008879  1
  Al  Al6  1  0.500000  0.333333  0.666667  1
  Ni  Ni7  1  0.000000  0.000000  0.000000  1
  Se  Se8  1  0.500000  0.666667  0.333333  1
