# generated using pymatgen
data_Ho2TcP4Ir5
_symmetry_space_group_name_H-M   'P 1'
_cell_length_a   3.98249000
_cell_length_b   11.19154000
_cell_length_c   12.71421100
_cell_angle_alpha   90.00000000
_cell_angle_beta   90.00000000
_cell_angle_gamma   90.00000000
_symmetry_Int_Tables_number   1
_chemical_formula_structural   Ho2TcP4Ir5
_chemical_formula_sum   'Ho6 Tc3 P12 Ir15'
_cell_volume   566.67487797
_cell_formula_units_Z   3
loop_
 _symmetry_equiv_pos_site_id
 _symmetry_equiv_pos_as_xyz
  1  'x, y, z'
loop_
 _atom_site_type_symbol
 _atom_site_label
 _atom_site_symmetry_multiplicity
 _atom_site_fract_x
 _atom_site_fract_y
 _atom_site_fract_z
 _atom_site_occupancy
  Ho  Ho0  1  0.000000  0.500000  0.522574  1
  Ho  Ho1  1  0.500000  0.000000  0.476587  1
  Ho  Ho2  1  0.500000  0.815901  0.204367  1
  Ho  Ho3  1  0.500000  0.184099  0.204367  1
  Ho  Ho4  1  0.000000  0.679948  0.796783  1
  Ho  Ho5  1  0.000000  0.320052  0.796783  1
  Tc  Tc6  1  0.000000  0.500000  0.992218  1
  Tc  Tc7  1  0.500000  0.500000  0.160717  1
  Tc  Tc8  1  0.000000  0.000000  0.838797  1
  P  P9  1  0.500000  0.314099  0.618789  1
  P  P10  1  0.500000  0.685901  0.618789  1
  P  P11  1  0.000000  0.185946  0.381332  1
  P  P12  1  0.000000  0.814054  0.381332  1
  P  P13  1  0.500000  0.500000  0.877168  1
  P  P14  1  0.000000  0.000000  0.126208  1
  P  P15  1  0.500000  0.845163  0.887501  1
  P  P16  1  0.500000  0.154837  0.887501  1
  P  P17  1  0.000000  0.651519  0.109809  1
  P  P18  1  0.000000  0.348481  0.109809  1
  P  P19  1  0.500000  0.500000  0.345879  1
  P  P20  1  0.000000  0.000000  0.652471  1
  Ir  Ir21  1  0.500000  0.000000  0.005548  1
  Ir  Ir22  1  0.500000  0.297828  0.431704  1
  Ir  Ir23  1  0.500000  0.702172  0.431704  1
  Ir  Ir24  1  0.000000  0.203305  0.568931  1
  Ir  Ir25  1  0.000000  0.796695  0.568931  1
  Ir  Ir26  1  0.500000  0.872905  0.710794  1
  Ir  Ir27  1  0.500000  0.127095  0.710794  1
  Ir  Ir28  1  0.000000  0.627615  0.288884  1
  Ir  Ir29  1  0.000000  0.372385  0.288884  1
  Ir  Ir30  1  0.500000  0.329206  0.981605  1
  Ir  Ir31  1  0.500000  0.670794  0.981605  1
  Ir  Ir32  1  0.000000  0.167143  0.020830  1
  Ir  Ir33  1  0.000000  0.832857  0.020830  1
  Ir  Ir34  1  0.500000  0.500000  0.695325  1
  Ir  Ir35  1  0.000000  0.000000  0.303853  1
