# generated using pymatgen
data_YEr2Cu2(AgSn2)2
_symmetry_space_group_name_H-M   'P 1'
_cell_length_a   4.50538647
_cell_length_b   7.22676222
_cell_length_c   8.64058625
_cell_angle_alpha   115.44323771
_cell_angle_beta   105.11224354
_cell_angle_gamma   89.99999233
_symmetry_Int_Tables_number   1
_chemical_formula_structural   YEr2Cu2(AgSn2)2
_chemical_formula_sum   'Y1 Er2 Cu2 Ag2 Sn4'
_cell_volume   243.22758431
_cell_formula_units_Z   1
loop_
 _symmetry_equiv_pos_site_id
 _symmetry_equiv_pos_as_xyz
  1  'x, y, z'
loop_
 _atom_site_type_symbol
 _atom_site_label
 _atom_site_symmetry_multiplicity
 _atom_site_fract_x
 _atom_site_fract_y
 _atom_site_fract_z
 _atom_site_occupancy
  Y  Y0  1  0.000000  0.000000  0.000000  1
  Er  Er1  1  0.871524  0.347339  0.743047  1
  Er  Er2  1  0.128476  0.652661  0.256953  1
  Cu  Cu3  1  0.340954  0.028093  0.681907  1
  Cu  Cu4  1  0.659046  0.971907  0.318093  1
  Ag  Ag5  1  0.317447  0.621572  0.634894  1
  Ag  Ag6  1  0.682553  0.378428  0.365106  1
  Sn  Sn7  1  0.217614  0.178052  0.435228  1
  Sn  Sn8  1  0.782386  0.821948  0.564772  1
  Sn  Sn9  1  0.505518  0.307419  0.011035  1
  Sn  Sn10  1  0.494482  0.692581  0.988965  1
