# generated using pymatgen
data_Tc(RuCl6)5
_symmetry_space_group_name_H-M   'P 1'
_cell_length_a   13.29648365
_cell_length_b   13.31437725
_cell_length_c   6.28104977
_cell_angle_alpha   88.71011947
_cell_angle_beta   88.85333177
_cell_angle_gamma   86.62178868
_symmetry_Int_Tables_number   1
_chemical_formula_structural   Tc(RuCl6)5
_chemical_formula_sum   'Tc1 Ru5 Cl30'
_cell_volume   1109.55382704
_cell_formula_units_Z   1
loop_
 _symmetry_equiv_pos_site_id
 _symmetry_equiv_pos_as_xyz
  1  'x, y, z'
loop_
 _atom_site_type_symbol
 _atom_site_label
 _atom_site_symmetry_multiplicity
 _atom_site_fract_x
 _atom_site_fract_y
 _atom_site_fract_z
 _atom_site_occupancy
  Tc  Tc0  1  0.563102  0.770945  0.524448  1
  Ru  Ru1  1  0.768970  0.565261  0.524412  1
  Ru  Ru2  1  0.435534  0.230639  0.475992  1
  Ru  Ru3  1  0.230556  0.435426  0.475585  1
  Ru  Ru4  1  0.102362  0.897509  0.000287  1
  Ru  Ru5  1  0.897513  0.102469  0.999823  1
  Cl  Cl6  1  0.666659  0.475664  0.744720  1
  Cl  Cl7  1  0.525843  0.332018  0.255431  1
  Cl  Cl8  1  0.331986  0.525867  0.255280  1
  Cl  Cl9  1  0.480151  0.663627  0.743989  1
  Cl  Cl10  1  0.799007  0.433381  0.309983  1
  Cl  Cl11  1  0.567003  0.201283  0.691262  1
  Cl  Cl12  1  0.951279  0.951275  0.209327  1
  Cl  Cl13  1  0.048737  0.048775  0.790638  1
  Cl  Cl14  1  0.765220  0.130612  0.222982  1
  Cl  Cl15  1  0.869139  0.234627  0.776706  1
  Cl  Cl16  1  0.234591  0.869496  0.776647  1
  Cl  Cl17  1  0.130816  0.765376  0.223255  1
  Cl  Cl18  1  0.807839  0.001874  0.793662  1
  Cl  Cl19  1  0.998228  0.191889  0.206121  1
  Cl  Cl20  1  0.191986  0.998190  0.206273  1
  Cl  Cl21  1  0.001680  0.808117  0.793953  1
  Cl  Cl22  1  0.717022  0.715224  0.729882  1
  Cl  Cl23  1  0.284910  0.285106  0.273251  1
  Cl  Cl24  1  0.531491  0.903031  0.738485  1
  Cl  Cl25  1  0.099100  0.464133  0.260031  1
  Cl  Cl26  1  0.464085  0.099339  0.259880  1
  Cl  Cl27  1  0.900818  0.535527  0.738979  1
  Cl  Cl28  1  0.670174  0.853621  0.304346  1
  Cl  Cl29  1  0.140473  0.333887  0.695978  1
  Cl  Cl30  1  0.333748  0.140568  0.695826  1
  Cl  Cl31  1  0.858086  0.667516  0.304029  1
  Cl  Cl32  1  0.618430  0.617031  0.319198  1
  Cl  Cl33  1  0.381301  0.381014  0.677765  1
  Cl  Cl34  1  0.430582  0.802829  0.310480  1
  Cl  Cl35  1  0.201580  0.566852  0.691099  1
