# generated using pymatgen
data_Tb15Ho4InIr12
_symmetry_space_group_name_H-M   'P 1'
_cell_length_a   10.90852704
_cell_length_b   10.91021612
_cell_length_c   6.32755206
_cell_angle_alpha   90.01512152
_cell_angle_beta   89.99372798
_cell_angle_gamma   89.99280520
_symmetry_Int_Tables_number   1
_chemical_formula_structural   Tb15Ho4InIr12
_chemical_formula_sum   'Tb15 Ho4 In1 Ir12'
_cell_volume   753.06969663
_cell_formula_units_Z   1
loop_
 _symmetry_equiv_pos_site_id
 _symmetry_equiv_pos_as_xyz
  1  'x, y, z'
loop_
 _atom_site_type_symbol
 _atom_site_label
 _atom_site_symmetry_multiplicity
 _atom_site_fract_x
 _atom_site_fract_y
 _atom_site_fract_z
 _atom_site_occupancy
  Tb  Tb0  1  0.283803  0.085271  0.379331  1
  Tb  Tb1  1  0.290416  0.911600  0.879722  1
  Tb  Tb2  1  0.709615  0.088437  0.879753  1
  Tb  Tb3  1  0.716052  0.914896  0.379567  1
  Tb  Tb4  1  0.588272  0.791165  0.880869  1
  Tb  Tb5  1  0.588063  0.208657  0.377465  1
  Tb  Tb6  1  0.411897  0.791331  0.377434  1
  Tb  Tb7  1  0.411623  0.208817  0.880952  1
  Tb  Tb8  1  0.208519  0.411752  0.622530  1
  Tb  Tb9  1  0.208708  0.588000  0.119081  1
  Tb  Tb10  1  0.791412  0.411674  0.119142  1
  Tb  Tb11  1  0.791370  0.588072  0.622571  1
  Tb  Tb12  1  0.911574  0.709552  0.120303  1
  Tb  Tb13  1  0.915081  0.283920  0.620411  1
  Tb  Tb14  1  0.085095  0.716058  0.620491  1
  Ho  Ho15  1  0.088396  0.291023  0.119678  1
  Ho  Ho16  1  0.000131  0.000237  0.000240  1
  Ho  Ho17  1  0.499983  0.500008  0.000052  1
  Ho  Ho18  1  0.500021  0.500032  0.500006  1
  In  In19  1  0.000012  0.999998  0.500002  1
  Ir  Ir20  1  0.846454  0.155448  0.245235  1
  Ir  Ir21  1  0.844683  0.846046  0.754522  1
  Ir  Ir22  1  0.155099  0.154177  0.755422  1
  Ir  Ir23  1  0.153888  0.844712  0.245504  1
  Ir  Ir24  1  0.653906  0.347147  0.747360  1
  Ir  Ir25  1  0.652846  0.653927  0.252602  1
  Ir  Ir26  1  0.346719  0.345956  0.252461  1
  Ir  Ir27  1  0.346074  0.652855  0.747328  1
  Ir  Ir28  1  0.499981  0.000005  0.124462  1
  Ir  Ir29  1  0.500005  0.000012  0.620371  1
  Ir  Ir30  1  0.000157  0.499584  0.875904  1
  Ir  Ir31  1  0.000148  0.499631  0.379229  1
