# generated using pymatgen
data_Ho5(InBi)2
_symmetry_space_group_name_H-M   'P 1'
_cell_length_a   8.88042118
_cell_length_b   8.88042214
_cell_length_c   8.16438000
_cell_angle_alpha   90.00000000
_cell_angle_beta   90.00000000
_cell_angle_gamma   125.18199605
_symmetry_Int_Tables_number   1
_chemical_formula_structural   Ho5(InBi)2
_chemical_formula_sum   'Ho10 In4 Bi4'
_cell_volume   526.24222656
_cell_formula_units_Z   2
loop_
 _symmetry_equiv_pos_site_id
 _symmetry_equiv_pos_as_xyz
  1  'x, y, z'
loop_
 _atom_site_type_symbol
 _atom_site_label
 _atom_site_symmetry_multiplicity
 _atom_site_fract_x
 _atom_site_fract_y
 _atom_site_fract_z
 _atom_site_occupancy
  Ho  Ho0  1  0.035654  0.302994  0.333515  1
  Ho  Ho1  1  0.964346  0.697006  0.666485  1
  Ho  Ho2  1  0.464346  0.197006  0.833515  1
  Ho  Ho3  1  0.802994  0.535654  0.166485  1
  Ho  Ho4  1  0.535654  0.802994  0.166485  1
  Ho  Ho5  1  0.197006  0.464346  0.833515  1
  Ho  Ho6  1  0.697006  0.964346  0.666485  1
  Ho  Ho7  1  0.302994  0.035654  0.333515  1
  Ho  Ho8  1  0.000000  0.000000  0.000000  1
  Ho  Ho9  1  0.500000  0.500000  0.500000  1
  In  In10  1  0.369721  0.369721  0.129459  1
  In  In11  1  0.630279  0.630279  0.870541  1
  In  In12  1  0.130279  0.130279  0.629459  1
  In  In13  1  0.869721  0.869721  0.370541  1
  Bi  Bi14  1  0.794688  0.205312  0.000000  1
  Bi  Bi15  1  0.205312  0.794688  0.000000  1
  Bi  Bi16  1  0.705312  0.294688  0.500000  1
  Bi  Bi17  1  0.294688  0.705312  0.500000  1
