# generated using pymatgen
data_Tb3Ho13(CdRu)4
_symmetry_space_group_name_H-M   'P 1'
_cell_length_a   9.60293859
_cell_length_b   9.60654388
_cell_length_c   9.60138131
_cell_angle_alpha   59.99293575
_cell_angle_beta   59.98271951
_cell_angle_gamma   59.97685327
_symmetry_Int_Tables_number   1
_chemical_formula_structural   Tb3Ho13(CdRu)4
_chemical_formula_sum   'Tb3 Ho13 Cd4 Ru4'
_cell_volume   626.08616318
_cell_formula_units_Z   1
loop_
 _symmetry_equiv_pos_site_id
 _symmetry_equiv_pos_as_xyz
  1  'x, y, z'
loop_
 _atom_site_type_symbol
 _atom_site_label
 _atom_site_symmetry_multiplicity
 _atom_site_fract_x
 _atom_site_fract_y
 _atom_site_fract_z
 _atom_site_occupancy
  Tb  Tb0  1  0.938737  0.561263  0.938737  1
  Tb  Tb1  1  0.561389  0.561546  0.938511  1
  Tb  Tb2  1  0.938511  0.938554  0.561389  1
  Ho  Ho3  1  0.345777  0.346134  0.346065  1
  Ho  Ho4  1  0.345631  0.345777  0.962639  1
  Ho  Ho5  1  0.346065  0.962024  0.345777  1
  Ho  Ho6  1  0.962639  0.345952  0.345631  1
  Ho  Ho7  1  0.810731  0.189068  0.189494  1
  Ho  Ho8  1  0.189494  0.810707  0.810731  1
  Ho  Ho9  1  0.189294  0.810706  0.189294  1
  Ho  Ho10  1  0.810637  0.189363  0.810637  1
  Ho  Ho11  1  0.189593  0.189171  0.810650  1
  Ho  Ho12  1  0.810650  0.810586  0.189593  1
  Ho  Ho13  1  0.938548  0.561480  0.561342  1
  Ho  Ho14  1  0.561342  0.938630  0.938548  1
  Ho  Ho15  1  0.561591  0.938409  0.561591  1
  Cd  Cd16  1  0.580114  0.580307  0.579915  1
  Cd  Cd17  1  0.579886  0.580267  0.259759  1
  Cd  Cd18  1  0.579915  0.259662  0.580114  1
  Cd  Cd19  1  0.259759  0.580085  0.579886  1
  Ru  Ru20  1  0.139012  0.139003  0.138805  1
  Ru  Ru21  1  0.139018  0.139159  0.582858  1
  Ru  Ru22  1  0.138805  0.583180  0.139012  1
  Ru  Ru23  1  0.582858  0.138965  0.139018  1
