# generated using pymatgen
data_Sc2AlRe2Os
_symmetry_space_group_name_H-M   'P 1'
_cell_length_a   5.25887492
_cell_length_b   5.25347951
_cell_length_c   8.66080700
_cell_angle_alpha   90.00000000
_cell_angle_beta   90.00000000
_cell_angle_gamma   119.96608842
_symmetry_Int_Tables_number   1
_chemical_formula_structural   Sc2AlRe2Os
_chemical_formula_sum   'Sc4 Al2 Re4 Os2'
_cell_volume   207.28944126
_cell_formula_units_Z   2
loop_
 _symmetry_equiv_pos_site_id
 _symmetry_equiv_pos_as_xyz
  1  'x, y, z'
loop_
 _atom_site_type_symbol
 _atom_site_label
 _atom_site_symmetry_multiplicity
 _atom_site_fract_x
 _atom_site_fract_y
 _atom_site_fract_z
 _atom_site_occupancy
  Sc  Sc0  1  0.329830  0.664916  0.431843  1
  Sc  Sc1  1  0.654465  0.327232  0.552397  1
  Sc  Sc2  1  0.654465  0.327232  0.947603  1
  Sc  Sc3  1  0.329830  0.664916  0.068157  1
  Al  Al4  1  0.189819  0.347134  0.750000  1
  Al  Al5  1  0.189819  0.842683  0.750000  1
  Re  Re6  1  0.345339  0.172670  0.250000  1
  Re  Re7  1  0.831923  0.660973  0.250000  1
  Re  Re8  1  0.680386  0.840192  0.750000  1
  Re  Re9  1  0.831923  0.170951  0.250000  1
  Os  Os10  1  0.981100  0.990550  0.993234  1
  Os  Os11  1  0.981100  0.990550  0.506766  1
