# generated using pymatgen
data_HfZrP2PdRu
_symmetry_space_group_name_H-M   'P 1'
_cell_length_a   3.81825200
_cell_length_b   6.51781600
_cell_length_c   7.50853100
_cell_angle_alpha   90.00000000
_cell_angle_beta   90.00000000
_cell_angle_gamma   90.00000000
_symmetry_Int_Tables_number   1
_chemical_formula_structural   HfZrP2PdRu
_chemical_formula_sum   'Hf2 Zr2 P4 Pd2 Ru2'
_cell_volume   186.86228796
_cell_formula_units_Z   2
loop_
 _symmetry_equiv_pos_site_id
 _symmetry_equiv_pos_as_xyz
  1  'x, y, z'
loop_
 _atom_site_type_symbol
 _atom_site_label
 _atom_site_symmetry_multiplicity
 _atom_site_fract_x
 _atom_site_fract_y
 _atom_site_fract_z
 _atom_site_occupancy
  Hf  Hf0  1  0.250000  0.973300  0.820118  1
  Hf  Hf1  1  0.250000  0.473300  0.679882  1
  Zr  Zr2  1  0.750000  0.530275  0.322285  1
  Zr  Zr3  1  0.750000  0.030275  0.177715  1
  P  P4  1  0.250000  0.745300  0.112356  1
  P  P5  1  0.250000  0.245300  0.387644  1
  P  P6  1  0.750000  0.262373  0.863813  1
  P  P7  1  0.750000  0.762373  0.636187  1
  Pd  Pd8  1  0.250000  0.349541  0.065269  1
  Pd  Pd9  1  0.250000  0.849541  0.434731  1
  Ru  Ru10  1  0.750000  0.139212  0.559419  1
  Ru  Ru11  1  0.750000  0.639212  0.940581  1
