# generated using pymatgen
data_AcDySn5Ir3
_symmetry_space_group_name_H-M   'P 1'
_cell_length_a   13.69614691
_cell_length_b   13.69614655
_cell_length_c   7.35785500
_cell_angle_alpha   90.00000000
_cell_angle_beta   90.00000000
_cell_angle_gamma   160.94474343
_symmetry_Int_Tables_number   1
_chemical_formula_structural   AcDySn5Ir3
_chemical_formula_sum   'Ac2 Dy2 Sn10 Ir6'
_cell_volume   450.61374357
_cell_formula_units_Z   2
loop_
 _symmetry_equiv_pos_site_id
 _symmetry_equiv_pos_as_xyz
  1  'x, y, z'
loop_
 _atom_site_type_symbol
 _atom_site_label
 _atom_site_symmetry_multiplicity
 _atom_site_fract_x
 _atom_site_fract_y
 _atom_site_fract_z
 _atom_site_occupancy
  Ac  Ac0  1  0.171402  0.828598  0.757270  1
  Ac  Ac1  1  0.828598  0.171402  0.257270  1
  Dy  Dy2  1  0.475967  0.524033  0.735383  1
  Dy  Dy3  1  0.524033  0.475967  0.235383  1
  Sn  Sn4  1  0.881283  0.118717  0.732952  1
  Sn  Sn5  1  0.118717  0.881283  0.232952  1
  Sn  Sn6  1  0.704530  0.295470  0.056907  1
  Sn  Sn7  1  0.295470  0.704530  0.556907  1
  Sn  Sn8  1  0.592366  0.407634  0.611127  1
  Sn  Sn9  1  0.407634  0.592366  0.111127  1
  Sn  Sn10  1  0.953809  0.046191  0.395215  1
  Sn  Sn11  1  0.046191  0.953809  0.895215  1
  Sn  Sn12  1  0.289921  0.710079  0.973205  1
  Sn  Sn13  1  0.710079  0.289921  0.473205  1
  Ir  Ir14  1  0.048587  0.951413  0.516370  1
  Ir  Ir15  1  0.951413  0.048587  0.016370  1
  Ir  Ir16  1  0.778013  0.221987  0.764111  1
  Ir  Ir17  1  0.221987  0.778013  0.264111  1
  Ir  Ir18  1  0.396483  0.603517  0.485459  1
  Ir  Ir19  1  0.603517  0.396483  0.985459  1
