# generated using pymatgen
data_Ho12InFe2Cu3
_symmetry_space_group_name_H-M   'P 1'
_cell_length_a   8.33094654
_cell_length_b   8.33276022
_cell_length_c   8.33094600
_cell_angle_alpha   112.30618940
_cell_angle_beta   110.19663760
_cell_angle_gamma   105.96549091
_symmetry_Int_Tables_number   1
_chemical_formula_structural   Ho12InFe2Cu3
_chemical_formula_sum   'Ho12 In1 Fe2 Cu3'
_cell_volume   443.84912026
_cell_formula_units_Z   1
loop_
 _symmetry_equiv_pos_site_id
 _symmetry_equiv_pos_as_xyz
  1  'x, y, z'
loop_
 _atom_site_type_symbol
 _atom_site_label
 _atom_site_symmetry_multiplicity
 _atom_site_fract_x
 _atom_site_fract_y
 _atom_site_fract_z
 _atom_site_occupancy
  Ho  Ho0  1  0.818019  0.713458  0.531476  1
  Ho  Ho1  1  0.181981  0.286542  0.468524  1
  Ho  Ho2  1  0.181983  0.713458  0.895440  1
  Ho  Ho3  1  0.818017  0.286542  0.104560  1
  Ho  Ho4  1  0.689860  0.383064  0.693205  1
  Ho  Ho5  1  0.310140  0.616936  0.306795  1
  Ho  Ho6  1  0.689873  0.996721  0.306847  1
  Ho  Ho7  1  0.310127  0.003279  0.693153  1
  Ho  Ho8  1  0.575792  0.768404  0.807368  1
  Ho  Ho9  1  0.424208  0.231596  0.192632  1
  Ho  Ho10  1  0.961036  0.768404  0.192612  1
  Ho  Ho11  1  0.038964  0.231596  0.807388  1
  In  In12  1  0.500000  0.500000  0.000000  1
  Fe  Fe13  1  0.107966  0.607920  0.499954  1
  Fe  Fe14  1  0.892034  0.392080  0.500046  1
  Cu  Cu15  1  0.643319  0.000000  0.643319  1
  Cu  Cu16  1  0.356681  0.000000  0.356681  1
  Cu  Cu17  1  0.000000  0.000000  0.000000  1
