# generated using pymatgen
data_Ce8Dy5Y7Si16
_symmetry_space_group_name_H-M   'P 1'
_cell_length_a   7.55325700
_cell_length_b   7.82874101
_cell_length_c   14.88488400
_cell_angle_alpha   90.00162474
_cell_angle_beta   90.00028825
_cell_angle_gamma   89.99811178
_symmetry_Int_Tables_number   1
_chemical_formula_structural   Ce8Dy5Y7Si16
_chemical_formula_sum   'Ce8 Dy5 Y7 Si16'
_cell_volume   880.18029536
_cell_formula_units_Z   1
loop_
 _symmetry_equiv_pos_site_id
 _symmetry_equiv_pos_as_xyz
  1  'x, y, z'
loop_
 _atom_site_type_symbol
 _atom_site_label
 _atom_site_symmetry_multiplicity
 _atom_site_fract_x
 _atom_site_fract_y
 _atom_site_fract_z
 _atom_site_occupancy
  Ce  Ce0  1  0.974162  0.821745  0.097957  1
  Ce  Ce1  1  0.473308  0.678756  0.401199  1
  Ce  Ce2  1  0.525877  0.322089  0.902086  1
  Ce  Ce3  1  0.026075  0.178541  0.598869  1
  Ce  Ce4  1  0.026286  0.178795  0.901707  1
  Ce  Ce5  1  0.526036  0.321189  0.598702  1
  Ce  Ce6  1  0.474382  0.678320  0.097747  1
  Ce  Ce7  1  0.973381  0.820910  0.401375  1
  Dy  Dy8  1  0.317587  0.178558  0.377755  1
  Dy  Dy9  1  0.317805  0.179360  0.121949  1
  Dy  Dy10  1  0.817897  0.320615  0.377827  1
  Dy  Dy11  1  0.182397  0.679461  0.877842  1
  Dy  Dy12  1  0.682388  0.820813  0.622314  1
  Y  Y13  1  0.649640  0.985638  0.249740  1
  Y  Y14  1  0.149609  0.514326  0.249740  1
  Y  Y15  1  0.850294  0.485354  0.750277  1
  Y  Y16  1  0.350465  0.014785  0.750176  1
  Y  Y17  1  0.682178  0.821068  0.877883  1
  Y  Y18  1  0.182097  0.679087  0.622231  1
  Y  Y19  1  0.817697  0.321099  0.121803  1
  Si  Si20  1  0.767451  0.621406  0.249851  1
  Si  Si21  1  0.267385  0.878572  0.249534  1
  Si  Si22  1  0.732517  0.121634  0.750129  1
  Si  Si23  1  0.232579  0.378587  0.750464  1
  Si  Si24  1  0.024656  0.107983  0.249986  1
  Si  Si25  1  0.524535  0.391509  0.249897  1
  Si  Si26  1  0.475525  0.607779  0.750159  1
  Si  Si27  1  0.975560  0.892330  0.750220  1
  Si  Si28  1  0.855839  0.527957  0.960147  1
  Si  Si29  1  0.355404  0.972681  0.539958  1
  Si  Si30  1  0.644279  0.027832  0.039652  1
  Si  Si31  1  0.144319  0.471154  0.460572  1
  Si  Si32  1  0.144943  0.472441  0.039524  1
  Si  Si33  1  0.644387  0.027909  0.460467  1
  Si  Si34  1  0.355514  0.972375  0.960334  1
  Si  Si35  1  0.855544  0.527343  0.539924  1
