# generated using pymatgen
data_Dy2Ho6Ti12Si15As
_symmetry_space_group_name_H-M   'P 1'
_cell_length_a   7.04309906
_cell_length_b   7.03606447
_cell_length_c   12.93742411
_cell_angle_alpha   89.97595875
_cell_angle_beta   89.81953970
_cell_angle_gamma   89.93084469
_symmetry_Int_Tables_number   1
_chemical_formula_structural   Dy2Ho6Ti12Si15As
_chemical_formula_sum   'Dy2 Ho6 Ti12 Si15 As1'
_cell_volume   641.11939388
_cell_formula_units_Z   1
loop_
 _symmetry_equiv_pos_site_id
 _symmetry_equiv_pos_as_xyz
  1  'x, y, z'
loop_
 _atom_site_type_symbol
 _atom_site_label
 _atom_site_symmetry_multiplicity
 _atom_site_fract_x
 _atom_site_fract_y
 _atom_site_fract_z
 _atom_site_occupancy
  Dy  Dy0  1  0.341531  0.002235  0.466020  1
  Dy  Dy1  1  0.496949  0.842071  0.717421  1
  Ho  Ho2  1  0.502399  0.158894  0.216381  1
  Ho  Ho3  1  0.840706  0.497098  0.283193  1
  Ho  Ho4  1  0.158695  0.501676  0.783430  1
  Ho  Ho5  1  0.660289  0.995360  0.967553  1
  Ho  Ho6  1  0.999846  0.343502  0.531977  1
  Ho  Ho7  1  0.998015  0.659015  0.033550  1
  Ti  Ti8  1  0.325811  0.326512  0.999784  1
  Ti  Ti9  1  0.173098  0.826990  0.249940  1
  Ti  Ti10  1  0.823876  0.173719  0.750247  1
  Ti  Ti11  1  0.673260  0.672931  0.500006  1
  Ti  Ti12  1  0.153767  0.009081  0.875588  1
  Ti  Ti13  1  0.491913  0.651497  0.125750  1
  Ti  Ti14  1  0.509140  0.347790  0.626978  1
  Ti  Ti15  1  0.654060  0.494423  0.874837  1
  Ti  Ti16  1  0.347655  0.507634  0.373880  1
  Ti  Ti17  1  0.847575  0.992445  0.375627  1
  Ti  Ti18  1  0.007797  0.151617  0.124147  1
  Ti  Ti19  1  0.989933  0.844232  0.623251  1
  Si  Si20  1  0.368383  0.703066  0.933829  1
  Si  Si21  1  0.630322  0.297896  0.434396  1
  Si  Si22  1  0.702945  0.369260  0.066211  1
  Si  Si23  1  0.297138  0.630298  0.566020  1
  Si  Si24  1  0.797192  0.869269  0.184366  1
  Si  Si25  1  0.130670  0.202837  0.315906  1
  Si  Si26  1  0.870349  0.797703  0.815656  1
  Si  Si27  1  0.290879  0.952881  0.064561  1
  Si  Si28  1  0.547427  0.790436  0.314442  1
  Si  Si29  1  0.461000  0.211422  0.819485  1
  Si  Si30  1  0.791056  0.546842  0.685198  1
  Si  Si31  1  0.208869  0.452678  0.185344  1
  Si  Si32  1  0.709318  0.046597  0.564227  1
  Si  Si33  1  0.953559  0.290748  0.935530  1
  Si  Si34  1  0.046814  0.709516  0.434906  1
  As  As35  1  0.197764  0.129832  0.680360  1
