# generated using pymatgen
data_LaNd(Ni4Pt)2
_symmetry_space_group_name_H-M   'P 1'
_cell_length_a   4.05230900
_cell_length_b   5.16891780
_cell_length_c   8.66223079
_cell_angle_alpha   93.38310393
_cell_angle_beta   90.00000000
_cell_angle_gamma   90.00000000
_symmetry_Int_Tables_number   1
_chemical_formula_structural   LaNd(Ni4Pt)2
_chemical_formula_sum   'La1 Nd1 Ni8 Pt2'
_cell_volume   181.12333815
_cell_formula_units_Z   1
loop_
 _symmetry_equiv_pos_site_id
 _symmetry_equiv_pos_as_xyz
  1  'x, y, z'
loop_
 _atom_site_type_symbol
 _atom_site_label
 _atom_site_symmetry_multiplicity
 _atom_site_fract_x
 _atom_site_fract_y
 _atom_site_fract_z
 _atom_site_occupancy
  La  La0  1  0.000000  0.000000  0.000000  1
  Nd  Nd1  1  0.000000  0.500000  0.500000  1
  Ni  Ni2  1  0.000000  0.977384  0.341910  1
  Ni  Ni3  1  0.000000  0.475587  0.841010  1
  Ni  Ni4  1  0.000000  0.524413  0.158990  1
  Ni  Ni5  1  0.000000  0.022616  0.658090  1
  Ni  Ni6  1  0.500000  0.500000  0.000000  1
  Ni  Ni7  1  0.500000  0.000000  0.500000  1
  Ni  Ni8  1  0.500000  0.750178  0.251502  1
  Ni  Ni9  1  0.500000  0.249822  0.748498  1
  Pt  Pt10  1  0.500000  0.252410  0.252114  1
  Pt  Pt11  1  0.500000  0.747590  0.747886  1
