# generated using pymatgen
data_Ir3Os3W2
_symmetry_space_group_name_H-M   'P 1'
_cell_length_a   5.56345362
_cell_length_b   5.53662567
_cell_length_c   4.42509000
_cell_angle_alpha   90.00000000
_cell_angle_beta   90.00000000
_cell_angle_gamma   119.94661954
_symmetry_Int_Tables_number   1
_chemical_formula_structural   Ir3Os3W2
_chemical_formula_sum   'Ir3 Os3 W2'
_cell_volume   118.10702443
_cell_formula_units_Z   1
loop_
 _symmetry_equiv_pos_site_id
 _symmetry_equiv_pos_as_xyz
  1  'x, y, z'
loop_
 _atom_site_type_symbol
 _atom_site_label
 _atom_site_symmetry_multiplicity
 _atom_site_fract_x
 _atom_site_fract_y
 _atom_site_fract_z
 _atom_site_occupancy
  Ir  Ir0  1  0.168519  0.332330  0.750000  1
  Ir  Ir1  1  0.166508  0.836539  0.750000  1
  Ir  Ir2  1  0.835141  0.669432  0.250000  1
  Os  Os3  1  0.668849  0.835860  0.750000  1
  Os  Os4  1  0.329801  0.163536  0.250000  1
  Os  Os5  1  0.830835  0.162253  0.250000  1
  W  W6  1  0.664235  0.329880  0.750000  1
  W  W7  1  0.336113  0.670170  0.250000  1
