# generated using pymatgen
data_TbCu3RhAu
_symmetry_space_group_name_H-M   'P 1'
_cell_length_a   5.01237779
_cell_length_b   5.01237744
_cell_length_c   5.20402007
_cell_angle_alpha   61.21089060
_cell_angle_beta   61.21090686
_cell_angle_gamma   59.99999520
_symmetry_Int_Tables_number   1
_chemical_formula_structural   TbCu3RhAu
_chemical_formula_sum   'Tb1 Cu3 Rh1 Au1'
_cell_volume   94.10710242
_cell_formula_units_Z   1
loop_
 _symmetry_equiv_pos_site_id
 _symmetry_equiv_pos_as_xyz
  1  'x, y, z'
loop_
 _atom_site_type_symbol
 _atom_site_label
 _atom_site_symmetry_multiplicity
 _atom_site_fract_x
 _atom_site_fract_y
 _atom_site_fract_z
 _atom_site_occupancy
  Tb  Tb0  1  0.998650  0.998650  0.004048  1
  Cu  Cu1  1  0.627738  0.129389  0.615136  1
  Cu  Cu2  1  0.129389  0.627738  0.615136  1
  Cu  Cu3  1  0.627738  0.627738  0.615136  1
  Rh  Rh4  1  0.627886  0.627886  0.116342  1
  Au  Au5  1  0.238599  0.238599  0.284203  1
