# generated using pymatgen
data_Lu12Fe3Pt
_symmetry_space_group_name_H-M   'P 1'
_cell_length_a   6.18513801
_cell_length_b   6.99865000
_cell_length_c   8.89014000
_cell_angle_alpha   90.00000000
_cell_angle_beta   90.00000000
_cell_angle_gamma   90.00418149
_symmetry_Int_Tables_number   1
_chemical_formula_structural   Lu12Fe3Pt
_chemical_formula_sum   'Lu12 Fe3 Pt1'
_cell_volume   384.83296696
_cell_formula_units_Z   1
loop_
 _symmetry_equiv_pos_site_id
 _symmetry_equiv_pos_as_xyz
  1  'x, y, z'
loop_
 _atom_site_type_symbol
 _atom_site_label
 _atom_site_symmetry_multiplicity
 _atom_site_fract_x
 _atom_site_fract_y
 _atom_site_fract_z
 _atom_site_occupancy
  Lu  Lu0  1  0.321014  0.674764  0.068425  1
  Lu  Lu1  1  0.175558  0.176355  0.433295  1
  Lu  Lu2  1  0.677903  0.314478  0.557484  1
  Lu  Lu3  1  0.832994  0.830855  0.939316  1
  Lu  Lu4  1  0.677903  0.314478  0.942516  1
  Lu  Lu5  1  0.832994  0.830855  0.560684  1
  Lu  Lu6  1  0.321014  0.674764  0.431575  1
  Lu  Lu7  1  0.175558  0.176355  0.066705  1
  Lu  Lu8  1  0.866773  0.545929  0.250000  1
  Lu  Lu9  1  0.628252  0.041657  0.250000  1
  Lu  Lu10  1  0.118512  0.453908  0.750000  1
  Lu  Lu11  1  0.365837  0.967821  0.750000  1
  Fe  Fe12  1  0.030955  0.888211  0.250000  1
  Fe  Fe13  1  0.471054  0.388466  0.250000  1
  Fe  Fe14  1  0.962564  0.112686  0.750000  1
  Pt  Pt15  1  0.541117  0.608419  0.750000  1
