# generated using pymatgen
data_Ho3Er5Sc8(Ga3Co)2
_symmetry_space_group_name_H-M   'P 1'
_cell_length_a   9.54157600
_cell_length_b   9.54331261
_cell_length_c   6.85507200
_cell_angle_alpha   90.00134111
_cell_angle_beta   89.99925393
_cell_angle_gamma   119.99420777
_symmetry_Int_Tables_number   1
_chemical_formula_structural   Ho3Er5Sc8(Ga3Co)2
_chemical_formula_sum   'Ho3 Er5 Sc8 Ga6 Co2'
_cell_volume   540.61396708
_cell_formula_units_Z   1
loop_
 _symmetry_equiv_pos_site_id
 _symmetry_equiv_pos_as_xyz
  1  'x, y, z'
loop_
 _atom_site_type_symbol
 _atom_site_label
 _atom_site_symmetry_multiplicity
 _atom_site_fract_x
 _atom_site_fract_y
 _atom_site_fract_z
 _atom_site_occupancy
  Ho  Ho0  1  0.534308  0.068665  0.711756  1
  Ho  Ho1  1  0.999969  0.999966  0.229204  1
  Ho  Ho2  1  0.000000  0.999977  0.729042  1
  Er  Er3  1  0.465412  0.534616  0.211286  1
  Er  Er4  1  0.069170  0.534611  0.211301  1
  Er  Er5  1  0.465304  0.930602  0.211359  1
  Er  Er6  1  0.534538  0.465516  0.711490  1
  Er  Er7  1  0.930986  0.465555  0.711475  1
  Sc  Sc8  1  0.174094  0.825618  0.512766  1
  Sc  Sc9  1  0.651455  0.825552  0.512762  1
  Sc  Sc10  1  0.174238  0.348465  0.512743  1
  Sc  Sc11  1  0.825904  0.174438  0.012984  1
  Sc  Sc12  1  0.348653  0.174499  0.013201  1
  Sc  Sc13  1  0.825775  0.651532  0.012618  1
  Sc  Sc14  1  0.333180  0.666372  0.823203  1
  Sc  Sc15  1  0.666848  0.333644  0.322669  1
  Ga  Ga16  1  0.163999  0.836082  0.951096  1
  Ga  Ga17  1  0.672071  0.836056  0.951031  1
  Ga  Ga18  1  0.163965  0.327930  0.951083  1
  Ga  Ga19  1  0.836208  0.163951  0.451113  1
  Ga  Ga20  1  0.327743  0.163970  0.451011  1
  Ga  Ga21  1  0.836029  0.672068  0.451207  1
  Co  Co22  1  0.333252  0.666543  0.458739  1
  Co  Co23  1  0.666899  0.333775  0.958906  1
