# generated using pymatgen
data_Ca3NdAs3
_symmetry_space_group_name_H-M   'P 1'
_cell_length_a   7.78703106
_cell_length_b   7.78703120
_cell_length_c   7.82696597
_cell_angle_alpha   109.53894511
_cell_angle_beta   109.53893782
_cell_angle_gamma   109.27633137
_symmetry_Int_Tables_number   1
_chemical_formula_structural   Ca3NdAs3
_chemical_formula_sum   'Ca6 Nd2 As6'
_cell_volume   365.62115281
_cell_formula_units_Z   2
loop_
 _symmetry_equiv_pos_site_id
 _symmetry_equiv_pos_as_xyz
  1  'x, y, z'
loop_
 _atom_site_type_symbol
 _atom_site_label
 _atom_site_symmetry_multiplicity
 _atom_site_fract_x
 _atom_site_fract_y
 _atom_site_fract_z
 _atom_site_occupancy
  Ca  Ca0  1  0.997341  0.127528  0.493929  1
  Ca  Ca1  1  0.368022  0.364522  0.370860  1
  Ca  Ca2  1  0.627528  0.497341  0.993929  1
  Ca  Ca3  1  0.502370  0.005856  0.134241  1
  Ca  Ca4  1  0.864522  0.868022  0.870860  1
  Ca  Ca5  1  0.505856  0.002370  0.634241  1
  Nd  Nd6  1  0.000183  0.636708  0.501658  1
  Nd  Nd7  1  0.136708  0.500183  0.001658  1
  As  As8  1  0.878475  0.254685  0.126446  1
  As  As9  1  0.370724  0.626267  0.751035  1
  As  As10  1  0.126267  0.870724  0.251035  1
  As  As11  1  0.622175  0.745145  0.371829  1
  As  As12  1  0.245145  0.122175  0.871829  1
  As  As13  1  0.754685  0.378475  0.626446  1
