# generated using pymatgen
data_Nd4Al18Ni2IrRh3
_symmetry_space_group_name_H-M   'P 1'
_cell_length_a   7.59399304
_cell_length_b   7.59399237
_cell_length_c   9.55322914
_cell_angle_alpha   89.98999986
_cell_angle_beta   89.99000141
_cell_angle_gamma   119.68048966
_symmetry_Int_Tables_number   1
_chemical_formula_structural   Nd4Al18Ni2IrRh3
_chemical_formula_sum   'Nd4 Al18 Ni2 Ir1 Rh3'
_cell_volume   478.64157716
_cell_formula_units_Z   1
loop_
 _symmetry_equiv_pos_site_id
 _symmetry_equiv_pos_as_xyz
  1  'x, y, z'
loop_
 _atom_site_type_symbol
 _atom_site_label
 _atom_site_symmetry_multiplicity
 _atom_site_fract_x
 _atom_site_fract_y
 _atom_site_fract_z
 _atom_site_occupancy
  Nd  Nd0  1  0.993963  0.668222  0.250260  1
  Nd  Nd1  1  0.005538  0.331166  0.749593  1
  Nd  Nd2  1  0.668834  0.994462  0.250407  1
  Nd  Nd3  1  0.331778  0.006037  0.749740  1
  Al  Al4  1  0.125576  0.125690  0.250160  1
  Al  Al5  1  0.874310  0.874424  0.749840  1
  Al  Al6  1  0.001736  0.332221  0.072574  1
  Al  Al7  1  0.998721  0.667848  0.927368  1
  Al  Al8  1  0.998542  0.667794  0.572792  1
  Al  Al9  1  0.332206  0.001458  0.427208  1
  Al  Al10  1  0.001950  0.332331  0.427205  1
  Al  Al11  1  0.667669  0.998050  0.572795  1
  Al  Al12  1  0.667779  0.998264  0.927426  1
  Al  Al13  1  0.332152  0.001279  0.072632  1
  Al  Al14  1  0.332669  0.332840  0.546121  1
  Al  Al15  1  0.667160  0.667331  0.453879  1
  Al  Al16  1  0.667207  0.667233  0.046560  1
  Al  Al17  1  0.332767  0.332793  0.953440  1
  Al  Al18  1  0.338028  0.545105  0.249861  1
  Al  Al19  1  0.661782  0.455566  0.750381  1
  Al  Al20  1  0.544434  0.338218  0.249619  1
  Al  Al21  1  0.454895  0.661972  0.750139  1
  Ni  Ni22  1  0.000046  0.999954  0.000000  1
  Ni  Ni23  1  0.999975  0.000025  0.500000  1
  Ir  Ir24  1  0.671236  0.328764  0.500000  1
  Rh  Rh25  1  0.671214  0.328786  0.000000  1
  Rh  Rh26  1  0.328926  0.671074  0.000000  1
  Rh  Rh27  1  0.328907  0.671093  0.500000  1
