# generated using pymatgen
data_Y7Sn22HgOs6
_symmetry_space_group_name_H-M   'P 1'
_cell_length_a   9.84839100
_cell_length_b   9.84839193
_cell_length_c   10.18787700
_cell_angle_alpha   90.00000000
_cell_angle_beta   90.00000000
_cell_angle_gamma   120.00000695
_symmetry_Int_Tables_number   1
_chemical_formula_structural   Y7Sn22HgOs6
_chemical_formula_sum   'Y7 Sn22 Hg1 Os6'
_cell_volume   855.74604464
_cell_formula_units_Z   1
loop_
 _symmetry_equiv_pos_site_id
 _symmetry_equiv_pos_as_xyz
  1  'x, y, z'
loop_
 _atom_site_type_symbol
 _atom_site_label
 _atom_site_symmetry_multiplicity
 _atom_site_fract_x
 _atom_site_fract_y
 _atom_site_fract_z
 _atom_site_occupancy
  Y  Y0  1  0.000000  0.000000  0.000000  1
  Y  Y1  1  0.036501  0.518250  0.306729  1
  Y  Y2  1  0.481750  0.963499  0.306729  1
  Y  Y3  1  0.481750  0.518250  0.306729  1
  Y  Y4  1  0.963499  0.481750  0.693271  1
  Y  Y5  1  0.518250  0.036501  0.693271  1
  Y  Y6  1  0.518250  0.481750  0.693271  1
  Sn  Sn7  1  0.122377  0.877623  0.266732  1
  Sn  Sn8  1  0.755244  0.877623  0.266732  1
  Sn  Sn9  1  0.122377  0.244756  0.266732  1
  Sn  Sn10  1  0.877623  0.122377  0.733268  1
  Sn  Sn11  1  0.244756  0.122377  0.733268  1
  Sn  Sn12  1  0.877623  0.755244  0.733268  1
  Sn  Sn13  1  0.350038  0.000000  0.000000  1
  Sn  Sn14  1  0.649962  0.649962  0.000000  1
  Sn  Sn15  1  0.000000  0.350038  0.000000  1
  Sn  Sn16  1  0.350038  0.350038  0.000000  1
  Sn  Sn17  1  0.000000  0.649962  0.000000  1
  Sn  Sn18  1  0.649962  0.000000  0.000000  1
  Sn  Sn19  1  0.779336  0.558670  0.459324  1
  Sn  Sn20  1  0.779336  0.220664  0.459324  1
  Sn  Sn21  1  0.441330  0.220664  0.459324  1
  Sn  Sn22  1  0.220664  0.441330  0.540676  1
  Sn  Sn23  1  0.220664  0.779336  0.540676  1
  Sn  Sn24  1  0.558670  0.779336  0.540676  1
  Sn  Sn25  1  0.666667  0.333333  0.175930  1
  Sn  Sn26  1  0.333333  0.666667  0.824070  1
  Sn  Sn27  1  0.666667  0.333333  0.876297  1
  Sn  Sn28  1  0.333333  0.666667  0.123703  1
  Hg  Hg29  1  0.000000  0.000000  0.500000  1
  Os  Os30  1  0.168432  0.831568  0.796613  1
  Os  Os31  1  0.663137  0.831568  0.796613  1
  Os  Os32  1  0.168432  0.336863  0.796613  1
  Os  Os33  1  0.831568  0.168432  0.203387  1
  Os  Os34  1  0.336863  0.168432  0.203387  1
  Os  Os35  1  0.831568  0.663137  0.203387  1
