# generated using pymatgen
data_Th(UH4)3
_symmetry_space_group_name_H-M   'P 1'
_cell_length_a   6.72386500
_cell_length_b   6.69798200
_cell_length_c   6.69798200
_cell_angle_alpha   90.00000000
_cell_angle_beta   90.00000000
_cell_angle_gamma   90.00000000
_symmetry_Int_Tables_number   1
_chemical_formula_structural   Th(UH4)3
_chemical_formula_sum   'Th2 U6 H24'
_cell_volume   301.65250585
_cell_formula_units_Z   2
loop_
 _symmetry_equiv_pos_site_id
 _symmetry_equiv_pos_as_xyz
  1  'x, y, z'
loop_
 _atom_site_type_symbol
 _atom_site_label
 _atom_site_symmetry_multiplicity
 _atom_site_fract_x
 _atom_site_fract_y
 _atom_site_fract_z
 _atom_site_occupancy
  Th  Th0  1  0.250000  0.000000  0.500000  1
  Th  Th1  1  0.750000  0.000000  0.500000  1
  U  U2  1  0.000000  0.000000  0.000000  1
  U  U3  1  0.500000  0.500000  0.500000  1
  U  U4  1  0.000000  0.500000  0.249428  1
  U  U5  1  0.000000  0.500000  0.750572  1
  U  U6  1  0.500000  0.749428  0.000000  1
  U  U7  1  0.500000  0.250572  0.000000  1
  H  H8  1  0.000000  0.158217  0.299078  1
  H  H9  1  0.500000  0.200922  0.658217  1
  H  H10  1  0.500000  0.799078  0.341783  1
  H  H11  1  0.806927  0.649323  0.500000  1
  H  H12  1  0.193073  0.649323  0.500000  1
  H  H13  1  0.345090  0.500000  0.804167  1
  H  H14  1  0.654910  0.500000  0.804167  1
  H  H15  1  0.306927  0.000000  0.149323  1
  H  H16  1  0.154910  0.304167  0.000000  1
  H  H17  1  0.845090  0.695833  0.000000  1
  H  H18  1  0.306927  0.000000  0.850677  1
  H  H19  1  0.845090  0.304167  0.000000  1
  H  H20  1  0.693073  0.000000  0.149323  1
  H  H21  1  0.693073  0.000000  0.850677  1
  H  H22  1  0.154910  0.695833  0.000000  1
  H  H23  1  0.000000  0.841783  0.700922  1
  H  H24  1  0.000000  0.158217  0.700922  1
  H  H25  1  0.000000  0.841783  0.299078  1
  H  H26  1  0.654910  0.500000  0.195833  1
  H  H27  1  0.345090  0.500000  0.195833  1
  H  H28  1  0.806927  0.350677  0.500000  1
  H  H29  1  0.193073  0.350677  0.500000  1
  H  H30  1  0.500000  0.799078  0.658217  1
  H  H31  1  0.500000  0.200922  0.341783  1
