# generated using pymatgen
data_Nb2Zn(CoSb)3
_symmetry_space_group_name_H-M   'P 1'
_cell_length_a   7.30538885
_cell_length_b   7.30538850
_cell_length_c   7.27307250
_cell_angle_alpha   99.58711306
_cell_angle_beta   99.58711989
_cell_angle_gamma   119.95348119
_symmetry_Int_Tables_number   1
_chemical_formula_structural   Nb2Zn(CoSb)3
_chemical_formula_sum   'Nb4 Zn2 Co6 Sb6'
_cell_volume   317.13146891
_cell_formula_units_Z   2
loop_
 _symmetry_equiv_pos_site_id
 _symmetry_equiv_pos_as_xyz
  1  'x, y, z'
loop_
 _atom_site_type_symbol
 _atom_site_label
 _atom_site_symmetry_multiplicity
 _atom_site_fract_x
 _atom_site_fract_y
 _atom_site_fract_z
 _atom_site_occupancy
  Nb  Nb0  1  0.001863  0.500094  0.498423  1
  Nb  Nb1  1  0.330135  0.163897  0.498475  1
  Nb  Nb2  1  0.500094  0.001863  0.998422  1
  Nb  Nb3  1  0.163897  0.330135  0.998475  1
  Zn  Zn4  1  0.837317  0.667547  0.004457  1
  Zn  Zn5  1  0.667548  0.837318  0.504456  1
  Co  Co6  1  0.277507  0.444057  0.368698  1
  Co  Co7  1  0.621910  0.136155  0.368879  1
  Co  Co8  1  0.975160  0.793399  0.385211  1
  Co  Co9  1  0.444057  0.277507  0.868698  1
  Co  Co10  1  0.136154  0.621910  0.868879  1
  Co  Co11  1  0.793399  0.975160  0.885213  1
  Sb  Sb12  1  0.254203  0.749683  0.247752  1
  Sb  Sb13  1  0.588553  0.430662  0.248581  1
  Sb  Sb14  1  0.908364  0.069491  0.254524  1
  Sb  Sb15  1  0.749684  0.254204  0.747752  1
  Sb  Sb16  1  0.430663  0.588554  0.748581  1
  Sb  Sb17  1  0.069491  0.908364  0.754524  1
