# generated using pymatgen
data_Tb2Lu2Al17GaIr6
_symmetry_space_group_name_H-M   'P 1'
_cell_length_a   7.53642280
_cell_length_b   7.53642383
_cell_length_c   9.47363000
_cell_angle_alpha   90.00000000
_cell_angle_beta   90.00000000
_cell_angle_gamma   119.42898156
_symmetry_Int_Tables_number   1
_chemical_formula_structural   Tb2Lu2Al17GaIr6
_chemical_formula_sum   'Tb2 Lu2 Al17 Ga1 Ir6'
_cell_volume   468.64920491
_cell_formula_units_Z   1
loop_
 _symmetry_equiv_pos_site_id
 _symmetry_equiv_pos_as_xyz
  1  'x, y, z'
loop_
 _atom_site_type_symbol
 _atom_site_label
 _atom_site_symmetry_multiplicity
 _atom_site_fract_x
 _atom_site_fract_y
 _atom_site_fract_z
 _atom_site_occupancy
  Tb  Tb0  1  0.994029  0.674393  0.250000  1
  Tb  Tb1  1  0.674393  0.994029  0.250000  1
  Lu  Lu2  1  0.005170  0.327404  0.750000  1
  Lu  Lu3  1  0.327404  0.005170  0.750000  1
  Al  Al4  1  0.870735  0.870735  0.750000  1
  Al  Al5  1  0.001667  0.335683  0.071048  1
  Al  Al6  1  0.999554  0.664100  0.923192  1
  Al  Al7  1  0.999554  0.664100  0.576808  1
  Al  Al8  1  0.335683  0.001667  0.428952  1
  Al  Al9  1  0.001667  0.335683  0.428952  1
  Al  Al10  1  0.664100  0.999554  0.576808  1
  Al  Al11  1  0.664100  0.999554  0.923192  1
  Al  Al12  1  0.335683  0.001667  0.071048  1
  Al  Al13  1  0.332681  0.332681  0.557107  1
  Al  Al14  1  0.665681  0.665681  0.451967  1
  Al  Al15  1  0.665681  0.665681  0.048033  1
  Al  Al16  1  0.332681  0.332681  0.942893  1
  Al  Al17  1  0.338542  0.548809  0.250000  1
  Al  Al18  1  0.660454  0.449685  0.750000  1
  Al  Al19  1  0.548809  0.338542  0.250000  1
  Al  Al20  1  0.449685  0.660454  0.750000  1
  Ga  Ga21  1  0.134785  0.134785  0.250000  1
  Ir  Ir22  1  0.671017  0.327185  0.999050  1
  Ir  Ir23  1  0.327185  0.671017  0.999050  1
  Ir  Ir24  1  0.327185  0.671017  0.500950  1
  Ir  Ir25  1  0.671017  0.327185  0.500950  1
  Ir  Ir26  1  0.000427  0.000427  0.996132  1
  Ir  Ir27  1  0.000427  0.000427  0.503868  1
