# generated using pymatgen
data_Dy8Ga(Si4Pt)3
_symmetry_space_group_name_H-M   'P 1'
_cell_length_a   8.13994400
_cell_length_b   8.13994565
_cell_length_c   8.16147900
_cell_angle_alpha   90.00001920
_cell_angle_beta   90.00000000
_cell_angle_gamma   120.00015091
_symmetry_Int_Tables_number   1
_chemical_formula_structural   Dy8Ga(Si4Pt)3
_chemical_formula_sum   'Dy8 Ga1 Si12 Pt3'
_cell_volume   468.31898206
_cell_formula_units_Z   1
loop_
 _symmetry_equiv_pos_site_id
 _symmetry_equiv_pos_as_xyz
  1  'x, y, z'
loop_
 _atom_site_type_symbol
 _atom_site_label
 _atom_site_symmetry_multiplicity
 _atom_site_fract_x
 _atom_site_fract_y
 _atom_site_fract_z
 _atom_site_occupancy
  Dy  Dy0  1  0.000000  0.000000  0.250569  1
  Dy  Dy1  1  0.000000  0.000000  0.750656  1
  Dy  Dy2  1  0.002705  0.501353  0.249327  1
  Dy  Dy3  1  0.498648  0.501352  0.249327  1
  Dy  Dy4  1  0.499218  0.998435  0.750476  1
  Dy  Dy5  1  0.498647  0.997295  0.249327  1
  Dy  Dy6  1  0.499218  0.500782  0.750477  1
  Dy  Dy7  1  0.001565  0.500782  0.750476  1
  Ga  Ga8  1  0.666667  0.333333  0.493113  1
  Si  Si9  1  0.165782  0.331565  0.998423  1
  Si  Si10  1  0.668435  0.834218  0.998423  1
  Si  Si11  1  0.167009  0.334019  0.497836  1
  Si  Si12  1  0.331633  0.165817  0.002069  1
  Si  Si13  1  0.165782  0.834217  0.998423  1
  Si  Si14  1  0.665982  0.832991  0.497836  1
  Si  Si15  1  0.834184  0.668367  0.002069  1
  Si  Si16  1  0.327151  0.163576  0.502998  1
  Si  Si17  1  0.167009  0.832991  0.497836  1
  Si  Si18  1  0.836424  0.672849  0.502998  1
  Si  Si19  1  0.834183  0.165817  0.002069  1
  Si  Si20  1  0.836424  0.163576  0.502998  1
  Pt  Pt21  1  0.333333  0.666666  0.001509  1
  Pt  Pt22  1  0.333333  0.666667  0.502433  1
  Pt  Pt23  1  0.666667  0.333333  0.998331  1
