# generated using pymatgen
data_Er20Ir8Os3Ru
_symmetry_space_group_name_H-M   'P 1'
_cell_length_a   10.74453200
_cell_length_b   10.74453200
_cell_length_c   6.36632300
_cell_angle_alpha   90.00000000
_cell_angle_beta   90.00000000
_cell_angle_gamma   90.00000000
_symmetry_Int_Tables_number   1
_chemical_formula_structural   Er20Ir8Os3Ru
_chemical_formula_sum   'Er20 Ir8 Os3 Ru1'
_cell_volume   734.95995437
_cell_formula_units_Z   1
loop_
 _symmetry_equiv_pos_site_id
 _symmetry_equiv_pos_as_xyz
  1  'x, y, z'
loop_
 _atom_site_type_symbol
 _atom_site_label
 _atom_site_symmetry_multiplicity
 _atom_site_fract_x
 _atom_site_fract_y
 _atom_site_fract_z
 _atom_site_occupancy
  Er  Er0  1  0.293708  0.086170  0.376740  1
  Er  Er1  1  0.293672  0.913730  0.876404  1
  Er  Er2  1  0.706328  0.086270  0.876404  1
  Er  Er3  1  0.706292  0.913830  0.376740  1
  Er  Er4  1  0.586270  0.793672  0.876404  1
  Er  Er5  1  0.586170  0.206292  0.376740  1
  Er  Er6  1  0.413830  0.793708  0.376740  1
  Er  Er7  1  0.413730  0.206328  0.876404  1
  Er  Er8  1  0.206598  0.413829  0.623591  1
  Er  Er9  1  0.206470  0.586304  0.122804  1
  Er  Er10  1  0.793530  0.413696  0.122804  1
  Er  Er11  1  0.793402  0.586171  0.623591  1
  Er  Er12  1  0.913696  0.706470  0.122804  1
  Er  Er13  1  0.913829  0.293402  0.623591  1
  Er  Er14  1  0.086171  0.706598  0.623591  1
  Er  Er15  1  0.086304  0.293530  0.122804  1
  Er  Er16  1  0.000000  0.000000  0.500036  1
  Er  Er17  1  0.000000  0.000000  0.000250  1
  Er  Er18  1  0.500000  0.500000  0.000250  1
  Er  Er19  1  0.500000  0.500000  0.500036  1
  Ir  Ir20  1  0.848025  0.152583  0.250129  1
  Ir  Ir21  1  0.848005  0.847525  0.750093  1
  Ir  Ir22  1  0.151995  0.152475  0.750093  1
  Ir  Ir23  1  0.151975  0.847417  0.250129  1
  Ir  Ir24  1  0.652475  0.348005  0.750093  1
  Ir  Ir25  1  0.652583  0.651975  0.250129  1
  Ir  Ir26  1  0.347417  0.348025  0.250129  1
  Ir  Ir27  1  0.347525  0.651995  0.750093  1
  Os  Os28  1  0.500000  0.000000  0.123183  1
  Os  Os29  1  0.500000  0.000000  0.622987  1
  Os  Os30  1  0.000000  0.500000  0.876545  1
  Ru  Ru31  1  0.000000  0.500000  0.377669  1
