# generated using pymatgen
data_RbEu3Se4
_symmetry_space_group_name_H-M   'P 1'
_cell_length_a   4.38591600
_cell_length_b   4.38591665
_cell_length_c   30.14812600
_cell_angle_alpha   90.00000000
_cell_angle_beta   90.00000000
_cell_angle_gamma   119.99998003
_symmetry_Int_Tables_number   1
_chemical_formula_structural   RbEu3Se4
_chemical_formula_sum   'Rb2 Eu6 Se8'
_cell_volume   502.24049262
_cell_formula_units_Z   2
loop_
 _symmetry_equiv_pos_site_id
 _symmetry_equiv_pos_as_xyz
  1  'x, y, z'
loop_
 _atom_site_type_symbol
 _atom_site_label
 _atom_site_symmetry_multiplicity
 _atom_site_fract_x
 _atom_site_fract_y
 _atom_site_fract_z
 _atom_site_occupancy
  Rb  Rb0  1  0.666667  0.333333  0.250000  1
  Rb  Rb1  1  0.333333  0.666667  0.750000  1
  Eu  Eu2  1  0.666667  0.333333  0.620130  1
  Eu  Eu3  1  0.666667  0.333333  0.879870  1
  Eu  Eu4  1  0.333333  0.666667  0.379870  1
  Eu  Eu5  1  0.333333  0.666667  0.120130  1
  Eu  Eu6  1  0.000000  0.000000  0.500000  1
  Eu  Eu7  1  0.000000  0.000000  0.000000  1
  Se  Se8  1  0.000000  0.000000  0.169845  1
  Se  Se9  1  0.666667  0.333333  0.443169  1
  Se  Se10  1  0.000000  0.000000  0.669845  1
  Se  Se11  1  0.333333  0.666667  0.943169  1
  Se  Se12  1  0.333333  0.666667  0.556831  1
  Se  Se13  1  0.000000  0.000000  0.330155  1
  Se  Se14  1  0.666667  0.333333  0.056831  1
  Se  Se15  1  0.000000  0.000000  0.830155  1
