# generated using pymatgen
data_Pr16Cd4CoPd3
_symmetry_space_group_name_H-M   'P 1'
_cell_length_a   10.06629551
_cell_length_b   10.06629622
_cell_length_c   10.06629557
_cell_angle_alpha   59.84078360
_cell_angle_beta   59.84078407
_cell_angle_gamma   59.84078745
_symmetry_Int_Tables_number   1
_chemical_formula_structural   Pr16Cd4CoPd3
_chemical_formula_sum   'Pr16 Cd4 Co1 Pd3'
_cell_volume   718.65746374
_cell_formula_units_Z   1
loop_
 _symmetry_equiv_pos_site_id
 _symmetry_equiv_pos_as_xyz
  1  'x, y, z'
loop_
 _atom_site_type_symbol
 _atom_site_label
 _atom_site_symmetry_multiplicity
 _atom_site_fract_x
 _atom_site_fract_y
 _atom_site_fract_z
 _atom_site_occupancy
  Pr  Pr0  1  0.351435  0.351435  0.351435  1
  Pr  Pr1  1  0.345281  0.345281  0.950378  1
  Pr  Pr2  1  0.345281  0.950378  0.345281  1
  Pr  Pr3  1  0.950378  0.345281  0.345281  1
  Pr  Pr4  1  0.821603  0.189589  0.189589  1
  Pr  Pr5  1  0.190521  0.807818  0.807818  1
  Pr  Pr6  1  0.189589  0.821603  0.189589  1
  Pr  Pr7  1  0.807818  0.190521  0.807818  1
  Pr  Pr8  1  0.189589  0.189589  0.821603  1
  Pr  Pr9  1  0.807818  0.807818  0.190521  1
  Pr  Pr10  1  0.939006  0.562805  0.562805  1
  Pr  Pr11  1  0.561731  0.935743  0.935743  1
  Pr  Pr12  1  0.562805  0.939006  0.562805  1
  Pr  Pr13  1  0.935743  0.561731  0.935743  1
  Pr  Pr14  1  0.562805  0.562805  0.939006  1
  Pr  Pr15  1  0.935743  0.935743  0.561731  1
  Cd  Cd16  1  0.579755  0.579755  0.579755  1
  Cd  Cd17  1  0.580918  0.580918  0.258709  1
  Cd  Cd18  1  0.580918  0.258709  0.580918  1
  Cd  Cd19  1  0.258709  0.580918  0.580918  1
  Co  Co20  1  0.143379  0.143379  0.143379  1
  Pd  Pd21  1  0.144236  0.144236  0.570702  1
  Pd  Pd22  1  0.144236  0.570702  0.144236  1
  Pd  Pd23  1  0.570702  0.144236  0.144236  1
