# generated using pymatgen
data_Ta6Al3Si(TcC)2
_symmetry_space_group_name_H-M   'P 1'
_cell_length_a   8.29802573
_cell_length_b   8.29336200
_cell_length_c   8.29336065
_cell_angle_alpha   60.01222664
_cell_angle_beta   59.98139482
_cell_angle_gamma   59.98139445
_symmetry_Int_Tables_number   1
_chemical_formula_structural   Ta6Al3Si(TcC)2
_chemical_formula_sum   'Ta12 Al6 Si2 Tc4 C4'
_cell_volume   403.49564825
_cell_formula_units_Z   2
loop_
 _symmetry_equiv_pos_site_id
 _symmetry_equiv_pos_as_xyz
  1  'x, y, z'
loop_
 _atom_site_type_symbol
 _atom_site_label
 _atom_site_symmetry_multiplicity
 _atom_site_fract_x
 _atom_site_fract_y
 _atom_site_fract_z
 _atom_site_occupancy
  Ta  Ta0  1  0.556736  0.942878  0.556660  1
  Ta  Ta1  1  0.308938  0.691442  0.691442  1
  Ta  Ta2  1  0.696012  0.306660  0.306660  1
  Ta  Ta3  1  0.306274  0.693340  0.307122  1
  Ta  Ta4  1  0.693675  0.688256  0.309956  1
  Ta  Ta5  1  0.306274  0.307122  0.693340  1
  Ta  Ta6  1  0.556736  0.556660  0.942878  1
  Ta  Ta7  1  0.941822  0.558558  0.558558  1
  Ta  Ta8  1  0.559331  0.943340  0.943340  1
  Ta  Ta9  1  0.941887  0.940044  0.561744  1
  Ta  Ta10  1  0.693675  0.309956  0.688256  1
  Ta  Ta11  1  0.941887  0.561744  0.940044  1
  Al  Al12  1  0.336483  0.997912  0.333712  1
  Al  Al13  1  0.336483  0.333712  0.997912  1
  Al  Al14  1  0.918109  0.252088  0.916288  1
  Al  Al15  1  0.918109  0.916288  0.252088  1
  Al  Al16  1  0.251080  0.917186  0.917186  1
  Al  Al17  1  0.335451  0.332814  0.332814  1
  Si  Si18  1  0.916683  0.914350  0.914350  1
  Si  Si19  1  0.995381  0.335650  0.335650  1
  Tc  Tc20  1  0.121652  0.130017  0.130017  1
  Tc  Tc21  1  0.631687  0.119983  0.119983  1
  Tc  Tc22  1  0.117159  0.625000  0.125000  1
  Tc  Tc23  1  0.117159  0.125000  0.625000  1
  C  C24  1  0.625300  0.625062  0.625062  1
  C  C25  1  0.125425  0.624938  0.624938  1
  C  C26  1  0.625296  0.125000  0.625000  1
  C  C27  1  0.625296  0.625000  0.125000  1
