# generated using pymatgen
data_Sc2Ta3B10
_symmetry_space_group_name_H-M   'P 1'
_cell_length_a   6.19868660
_cell_length_b   7.06154766
_cell_length_c   7.45445865
_cell_angle_alpha   94.11454930
_cell_angle_beta   102.05300311
_cell_angle_gamma   115.95947307
_symmetry_Int_Tables_number   1
_chemical_formula_structural   Sc2Ta3B10
_chemical_formula_sum   'Sc4 Ta6 B20'
_cell_volume   281.92652541
_cell_formula_units_Z   2
loop_
 _symmetry_equiv_pos_site_id
 _symmetry_equiv_pos_as_xyz
  1  'x, y, z'
loop_
 _atom_site_type_symbol
 _atom_site_label
 _atom_site_symmetry_multiplicity
 _atom_site_fract_x
 _atom_site_fract_y
 _atom_site_fract_z
 _atom_site_occupancy
  Sc  Sc0  1  0.999156  0.998574  0.999719  1
  Sc  Sc1  1  0.499399  0.998924  0.000175  1
  Sc  Sc2  1  0.001052  0.202470  0.600350  1
  Sc  Sc3  1  0.001198  0.601343  0.800434  1
  Ta  Ta4  1  0.499818  0.797208  0.399530  1
  Ta  Ta5  1  0.999118  0.398568  0.201641  1
  Ta  Ta6  1  0.501166  0.204309  0.598527  1
  Ta  Ta7  1  0.999603  0.800566  0.399460  1
  Ta  Ta8  1  0.500354  0.600839  0.799558  1
  Ta  Ta9  1  0.498812  0.397443  0.200349  1
  B  B10  1  0.334044  0.233974  0.867797  1
  B  B11  1  0.332828  0.631834  0.067410  1
  B  B12  1  0.167487  0.367262  0.933878  1
  B  B13  1  0.333100  0.032536  0.266680  1
  B  B14  1  0.167185  0.766246  0.133901  1
  B  B15  1  0.833214  0.233452  0.867094  1
  B  B16  1  0.166780  0.165874  0.333936  1
  B  B17  1  0.833086  0.631684  0.067465  1
  B  B18  1  0.332902  0.433220  0.466539  1
  B  B19  1  0.666482  0.366284  0.934242  1
  B  B20  1  0.832151  0.031564  0.267230  1
  B  B21  1  0.666539  0.766080  0.133390  1
  B  B22  1  0.333778  0.835047  0.665742  1
  B  B23  1  0.167330  0.567630  0.533926  1
  B  B24  1  0.665924  0.165556  0.334566  1
  B  B25  1  0.833356  0.433081  0.467234  1
  B  B26  1  0.167427  0.967729  0.730363  1
  B  B27  1  0.833001  0.834732  0.664455  1
  B  B28  1  0.667266  0.567876  0.533432  1
  B  B29  1  0.666442  0.968092  0.730978  1
