# generated using pymatgen
data_Pr4TmIr2Rh
_symmetry_space_group_name_H-M   'P 1'
_cell_length_a   11.21184100
_cell_length_b   11.21184100
_cell_length_c   6.58594300
_cell_angle_alpha   90.00000000
_cell_angle_beta   90.00000000
_cell_angle_gamma   90.00000000
_symmetry_Int_Tables_number   1
_chemical_formula_structural   Pr4TmIr2Rh
_chemical_formula_sum   'Pr16 Tm4 Ir8 Rh4'
_cell_volume   827.88845831
_cell_formula_units_Z   4
loop_
 _symmetry_equiv_pos_site_id
 _symmetry_equiv_pos_as_xyz
  1  'x, y, z'
loop_
 _atom_site_type_symbol
 _atom_site_label
 _atom_site_symmetry_multiplicity
 _atom_site_fract_x
 _atom_site_fract_y
 _atom_site_fract_z
 _atom_site_occupancy
  Pr  Pr0  1  0.287195  0.087582  0.381885  1
  Pr  Pr1  1  0.287195  0.912418  0.881885  1
  Pr  Pr2  1  0.712805  0.087582  0.881885  1
  Pr  Pr3  1  0.712805  0.912418  0.381885  1
  Pr  Pr4  1  0.587582  0.787195  0.881885  1
  Pr  Pr5  1  0.587582  0.212805  0.381885  1
  Pr  Pr6  1  0.412418  0.787195  0.381885  1
  Pr  Pr7  1  0.412418  0.212805  0.881885  1
  Pr  Pr8  1  0.212805  0.412418  0.618115  1
  Pr  Pr9  1  0.212805  0.587582  0.118115  1
  Pr  Pr10  1  0.787195  0.412418  0.118115  1
  Pr  Pr11  1  0.787195  0.587582  0.618115  1
  Pr  Pr12  1  0.912418  0.712805  0.118115  1
  Pr  Pr13  1  0.912418  0.287195  0.618115  1
  Pr  Pr14  1  0.087582  0.712805  0.618115  1
  Pr  Pr15  1  0.087582  0.287195  0.118115  1
  Tm  Tm16  1  0.000000  0.000000  0.500000  1
  Tm  Tm17  1  0.000000  0.000000  0.000000  1
  Tm  Tm18  1  0.500000  0.500000  0.000000  1
  Tm  Tm19  1  0.500000  0.500000  0.500000  1
  Ir  Ir20  1  0.852751  0.147249  0.250000  1
  Ir  Ir21  1  0.852751  0.852751  0.750000  1
  Ir  Ir22  1  0.147249  0.147249  0.750000  1
  Ir  Ir23  1  0.147249  0.852751  0.250000  1
  Ir  Ir24  1  0.647249  0.352751  0.750000  1
  Ir  Ir25  1  0.647249  0.647249  0.250000  1
  Ir  Ir26  1  0.352751  0.352751  0.250000  1
  Ir  Ir27  1  0.352751  0.647249  0.750000  1
  Rh  Rh28  1  0.500000  0.000000  0.116631  1
  Rh  Rh29  1  0.500000  0.000000  0.616631  1
  Rh  Rh30  1  0.000000  0.500000  0.883369  1
  Rh  Rh31  1  0.000000  0.500000  0.383369  1
