# generated using pymatgen
data_Tb6CoP12Rh15W2
_symmetry_space_group_name_H-M   'P 1'
_cell_length_a   3.90811400
_cell_length_b   11.10359700
_cell_length_c   12.78359400
_cell_angle_alpha   90.00000000
_cell_angle_beta   90.00000000
_cell_angle_gamma   90.00000000
_symmetry_Int_Tables_number   1
_chemical_formula_structural   Tb6CoP12Rh15W2
_chemical_formula_sum   'Tb6 Co1 P12 Rh15 W2'
_cell_volume   554.73284896
_cell_formula_units_Z   1
loop_
 _symmetry_equiv_pos_site_id
 _symmetry_equiv_pos_as_xyz
  1  'x, y, z'
loop_
 _atom_site_type_symbol
 _atom_site_label
 _atom_site_symmetry_multiplicity
 _atom_site_fract_x
 _atom_site_fract_y
 _atom_site_fract_z
 _atom_site_occupancy
  Tb  Tb0  1  0.000000  0.500000  0.521844  1
  Tb  Tb1  1  0.500000  0.000000  0.478154  1
  Tb  Tb2  1  0.500000  0.818666  0.201853  1
  Tb  Tb3  1  0.500000  0.181334  0.201853  1
  Tb  Tb4  1  0.000000  0.685114  0.798205  1
  Tb  Tb5  1  0.000000  0.314886  0.798205  1
  Co  Co6  1  0.500000  0.000000  0.007958  1
  P  P7  1  0.500000  0.314175  0.617921  1
  P  P8  1  0.500000  0.685825  0.617921  1
  P  P9  1  0.000000  0.184706  0.381954  1
  P  P10  1  0.000000  0.815294  0.381954  1
  P  P11  1  0.500000  0.500000  0.875368  1
  P  P12  1  0.000000  0.000000  0.121625  1
  P  P13  1  0.500000  0.852486  0.891516  1
  P  P14  1  0.500000  0.147514  0.891516  1
  P  P15  1  0.000000  0.653639  0.111707  1
  P  P16  1  0.000000  0.346361  0.111707  1
  P  P17  1  0.500000  0.500000  0.345887  1
  P  P18  1  0.000000  0.000000  0.654339  1
  Rh  Rh19  1  0.000000  0.500000  0.986956  1
  Rh  Rh20  1  0.500000  0.294619  0.431691  1
  Rh  Rh21  1  0.500000  0.705381  0.431691  1
  Rh  Rh22  1  0.000000  0.204808  0.568684  1
  Rh  Rh23  1  0.000000  0.795192  0.568684  1
  Rh  Rh24  1  0.500000  0.875481  0.710166  1
  Rh  Rh25  1  0.500000  0.124519  0.710166  1
  Rh  Rh26  1  0.000000  0.624960  0.290762  1
  Rh  Rh27  1  0.000000  0.375040  0.290762  1
  Rh  Rh28  1  0.500000  0.330459  0.985959  1
  Rh  Rh29  1  0.500000  0.669541  0.985959  1
  Rh  Rh30  1  0.000000  0.164022  0.013794  1
  Rh  Rh31  1  0.000000  0.835978  0.013794  1
  Rh  Rh32  1  0.500000  0.500000  0.698268  1
  Rh  Rh33  1  0.000000  0.000000  0.299720  1
  W  W34  1  0.500000  0.500000  0.157058  1
  W  W35  1  0.000000  0.000000  0.844395  1
