# generated using pymatgen
data_TaPd5Au2
_symmetry_space_group_name_H-M   'P 1'
_cell_length_a   8.50083792
_cell_length_b   8.50083761
_cell_length_c   8.50084001
_cell_angle_alpha   152.58990888
_cell_angle_beta   152.58990551
_cell_angle_gamma   39.15246231
_symmetry_Int_Tables_number   1
_chemical_formula_structural   TaPd5Au2
_chemical_formula_sum   'Ta1 Pd5 Au2'
_cell_volume   129.95825210
_cell_formula_units_Z   1
loop_
 _symmetry_equiv_pos_site_id
 _symmetry_equiv_pos_as_xyz
  1  'x, y, z'
loop_
 _atom_site_type_symbol
 _atom_site_label
 _atom_site_symmetry_multiplicity
 _atom_site_fract_x
 _atom_site_fract_y
 _atom_site_fract_z
 _atom_site_occupancy
  Ta  Ta0  1  0.000000  0.000000  0.000000  1
  Pd  Pd1  1  0.500000  0.500000  0.000000  1
  Pd  Pd2  1  0.882402  0.382402  0.500000  1
  Pd  Pd3  1  0.382402  0.882402  0.500000  1
  Pd  Pd4  1  0.117598  0.617598  0.500000  1
  Pd  Pd5  1  0.617598  0.117598  0.500000  1
  Au  Au6  1  0.745883  0.745883  0.000000  1
  Au  Au7  1  0.254117  0.254117  0.000000  1
