# generated using pymatgen
data_BaSrU2O7
_symmetry_space_group_name_H-M   'P 1'
_cell_length_a   8.07904883
_cell_length_b   8.07904925
_cell_length_c   8.07904901
_cell_angle_alpha   119.78348599
_cell_angle_beta   119.97473352
_cell_angle_gamma   90.20959674
_symmetry_Int_Tables_number   1
_chemical_formula_structural   BaSrU2O7
_chemical_formula_sum   'Ba2 Sr2 U4 O14'
_cell_volume   373.55445390
_cell_formula_units_Z   2
loop_
 _symmetry_equiv_pos_site_id
 _symmetry_equiv_pos_as_xyz
  1  'x, y, z'
loop_
 _atom_site_type_symbol
 _atom_site_label
 _atom_site_symmetry_multiplicity
 _atom_site_fract_x
 _atom_site_fract_y
 _atom_site_fract_z
 _atom_site_occupancy
  Ba  Ba0  1  0.500000  0.000000  0.000000  1
  Ba  Ba1  1  0.500000  0.500000  0.500000  1
  Sr  Sr2  1  0.000000  0.000000  0.000000  1
  Sr  Sr3  1  0.500000  0.500000  0.000000  1
  U  U4  1  0.000000  0.000000  0.500000  1
  U  U5  1  0.000000  0.500000  0.500000  1
  U  U6  1  0.000000  0.500000  0.000000  1
  U  U7  1  0.500000  0.000000  0.500000  1
  O  O8  1  0.910251  0.750000  0.160251  1
  O  O9  1  0.681767  0.909752  0.354799  1
  O  O10  1  0.637120  0.912213  0.724907  1
  O  O11  1  0.681767  0.326968  0.772015  1
  O  O12  1  0.318233  0.673032  0.227985  1
  O  O13  1  0.318233  0.090248  0.645201  1
  O  O14  1  0.687306  0.412213  0.275093  1
  O  O15  1  0.054953  0.826968  0.645201  1
  O  O16  1  0.054953  0.409752  0.227985  1
  O  O17  1  0.089749  0.250000  0.839749  1
  O  O18  1  0.362880  0.087787  0.275093  1
  O  O19  1  0.945047  0.173032  0.354799  1
  O  O20  1  0.945047  0.590248  0.772015  1
  O  O21  1  0.312694  0.587787  0.724907  1
