# generated using pymatgen
data_La2GePdI2
_symmetry_space_group_name_H-M   'P 1'
_cell_length_a   4.47326900
_cell_length_b   4.47326874
_cell_length_c   12.07043100
_cell_angle_alpha   90.00000000
_cell_angle_beta   90.00000000
_cell_angle_gamma   120.00000934
_symmetry_Int_Tables_number   1
_chemical_formula_structural   La2GePdI2
_chemical_formula_sum   'La2 Ge1 Pd1 I2'
_cell_volume   209.17191556
_cell_formula_units_Z   1
loop_
 _symmetry_equiv_pos_site_id
 _symmetry_equiv_pos_as_xyz
  1  'x, y, z'
loop_
 _atom_site_type_symbol
 _atom_site_label
 _atom_site_symmetry_multiplicity
 _atom_site_fract_x
 _atom_site_fract_y
 _atom_site_fract_z
 _atom_site_occupancy
  La  La0  1  0.000000  0.000000  0.157381  1
  La  La1  1  0.000000  0.000000  0.844595  1
  Ge  Ge2  1  0.666667  0.333333  0.009919  1
  Pd  Pd3  1  0.333333  0.666667  0.991989  1
  I  I4  1  0.666667  0.333333  0.665170  1
  I  I5  1  0.333333  0.666667  0.330946  1
