# generated using pymatgen
data_Ho9Er(Tl3Ir)2
_symmetry_space_group_name_H-M   'P 1'
_cell_length_a   9.17478400
_cell_length_b   9.17478506
_cell_length_c   6.83720000
_cell_angle_alpha   90.00000000
_cell_angle_beta   90.00000000
_cell_angle_gamma   120.02018907
_symmetry_Int_Tables_number   1
_chemical_formula_structural   Ho9Er(Tl3Ir)2
_chemical_formula_sum   'Ho9 Er1 Tl6 Ir2'
_cell_volume   498.32454006
_cell_formula_units_Z   1
loop_
 _symmetry_equiv_pos_site_id
 _symmetry_equiv_pos_as_xyz
  1  'x, y, z'
loop_
 _atom_site_type_symbol
 _atom_site_label
 _atom_site_symmetry_multiplicity
 _atom_site_fract_x
 _atom_site_fract_y
 _atom_site_fract_z
 _atom_site_occupancy
  Ho  Ho0  1  0.000013  0.763161  0.750000  1
  Ho  Ho1  1  0.236837  0.999973  0.250000  1
  Ho  Ho2  1  0.763161  0.000013  0.750000  1
  Ho  Ho3  1  0.333260  0.666604  0.500210  1
  Ho  Ho4  1  0.999973  0.236837  0.250000  1
  Ho  Ho5  1  0.666604  0.333260  0.500210  1
  Ho  Ho6  1  0.763269  0.763269  0.250000  1
  Ho  Ho7  1  0.333260  0.666604  0.999790  1
  Ho  Ho8  1  0.666604  0.333260  0.999790  1
  Er  Er9  1  0.236470  0.236470  0.750000  1
  Tl  Tl10  1  0.406446  0.406446  0.250000  1
  Tl  Tl11  1  0.000266  0.406230  0.750000  1
  Tl  Tl12  1  0.000015  0.593512  0.250000  1
  Tl  Tl13  1  0.593512  0.000015  0.250000  1
  Tl  Tl14  1  0.406230  0.000266  0.750000  1
  Tl  Tl15  1  0.593200  0.593200  0.750000  1
  Ir  Ir16  1  0.000439  0.000439  0.999676  1
  Ir  Ir17  1  0.000439  0.000439  0.500324  1
