# generated using pymatgen
data_Ba2GaSi3Au10
_symmetry_space_group_name_H-M   'P 1'
_cell_length_a   7.17255500
_cell_length_b   9.16006000
_cell_length_c   10.31296800
_cell_angle_alpha   90.00000000
_cell_angle_beta   90.00000000
_cell_angle_gamma   90.00000000
_symmetry_Int_Tables_number   1
_chemical_formula_structural   Ba2GaSi3Au10
_chemical_formula_sum   'Ba4 Ga2 Si6 Au20'
_cell_volume   677.57266279
_cell_formula_units_Z   2
loop_
 _symmetry_equiv_pos_site_id
 _symmetry_equiv_pos_as_xyz
  1  'x, y, z'
loop_
 _atom_site_type_symbol
 _atom_site_label
 _atom_site_symmetry_multiplicity
 _atom_site_fract_x
 _atom_site_fract_y
 _atom_site_fract_z
 _atom_site_occupancy
  Ba  Ba0  1  0.250000  0.243581  0.117144  1
  Ba  Ba1  1  0.250000  0.743581  0.382856  1
  Ba  Ba2  1  0.750000  0.755753  0.882071  1
  Ba  Ba3  1  0.750000  0.255753  0.617929  1
  Ga  Ga4  1  0.250000  0.044669  0.626673  1
  Ga  Ga5  1  0.250000  0.544669  0.873327  1
  Si  Si6  1  0.750000  0.958208  0.368666  1
  Si  Si7  1  0.750000  0.458208  0.131334  1
  Si  Si8  1  0.250000  0.327509  0.457460  1
  Si  Si9  1  0.250000  0.827509  0.042540  1
  Si  Si10  1  0.750000  0.666386  0.543295  1
  Si  Si11  1  0.750000  0.166386  0.956705  1
  Au  Au12  1  0.047072  0.098571  0.393308  1
  Au  Au13  1  0.452928  0.598571  0.106692  1
  Au  Au14  1  0.553558  0.898059  0.603718  1
  Au  Au15  1  0.946442  0.398059  0.896282  1
  Au  Au16  1  0.946442  0.898059  0.603718  1
  Au  Au17  1  0.553558  0.398059  0.896282  1
  Au  Au18  1  0.452928  0.098571  0.393308  1
  Au  Au19  1  0.047072  0.598571  0.106692  1
  Au  Au20  1  0.033519  0.075050  0.854515  1
  Au  Au21  1  0.466481  0.575050  0.645485  1
  Au  Au22  1  0.532700  0.925738  0.146138  1
  Au  Au23  1  0.967300  0.425738  0.353862  1
  Au  Au24  1  0.967300  0.925738  0.146138  1
  Au  Au25  1  0.532700  0.425738  0.353862  1
  Au  Au26  1  0.466481  0.075050  0.854515  1
  Au  Au27  1  0.033519  0.575050  0.645485  1
  Au  Au28  1  0.250000  0.314140  0.696986  1
  Au  Au29  1  0.250000  0.814140  0.803014  1
  Au  Au30  1  0.750000  0.694918  0.305781  1
  Au  Au31  1  0.750000  0.194918  0.194219  1
