# generated using pymatgen
data_La3NiCl3
_symmetry_space_group_name_H-M   'P 1'
_cell_length_a   10.21800969
_cell_length_b   10.21800965
_cell_length_c   10.21801000
_cell_angle_alpha   109.47121934
_cell_angle_beta   109.47121927
_cell_angle_gamma   109.47122206
_symmetry_Int_Tables_number   1
_chemical_formula_structural   La3NiCl3
_chemical_formula_sum   'La12 Ni4 Cl12'
_cell_volume   821.25316780
_cell_formula_units_Z   4
loop_
 _symmetry_equiv_pos_site_id
 _symmetry_equiv_pos_as_xyz
  1  'x, y, z'
loop_
 _atom_site_type_symbol
 _atom_site_label
 _atom_site_symmetry_multiplicity
 _atom_site_fract_x
 _atom_site_fract_y
 _atom_site_fract_z
 _atom_site_occupancy
  La  La0  1  0.260844  0.750000  0.239156  1
  La  La1  1  0.489156  0.750000  0.010844  1
  La  La2  1  0.239156  0.478311  0.489156  1
  La  La3  1  0.010844  0.021689  0.260844  1
  La  La4  1  0.239156  0.260844  0.750000  1
  La  La5  1  0.010844  0.489156  0.750000  1
  La  La6  1  0.489156  0.239156  0.478311  1
  La  La7  1  0.260844  0.010844  0.021689  1
  La  La8  1  0.750000  0.239156  0.260844  1
  La  La9  1  0.750000  0.010844  0.489156  1
  La  La10  1  0.478311  0.489156  0.239156  1
  La  La11  1  0.021689  0.260844  0.010844  1
  Ni  Ni12  1  0.500000  0.000000  0.250000  1
  Ni  Ni13  1  0.250000  0.500000  0.000000  1
  Ni  Ni14  1  0.000000  0.250000  0.500000  1
  Ni  Ni15  1  0.250000  0.250000  0.250000  1
  Cl  Cl16  1  0.250000  0.995296  0.504704  1
  Cl  Cl17  1  0.509410  0.504704  0.754704  1
  Cl  Cl18  1  0.250000  0.754704  0.745296  1
  Cl  Cl19  1  0.990590  0.745296  0.995296  1
  Cl  Cl20  1  0.995296  0.504704  0.250000  1
  Cl  Cl21  1  0.745296  0.995296  0.990590  1
  Cl  Cl22  1  0.754704  0.745296  0.250000  1
  Cl  Cl23  1  0.504704  0.754704  0.509410  1
  Cl  Cl24  1  0.504704  0.250000  0.995296  1
  Cl  Cl25  1  0.754704  0.509410  0.504704  1
  Cl  Cl26  1  0.745296  0.250000  0.754704  1
  Cl  Cl27  1  0.995296  0.990590  0.745296  1
