# generated using pymatgen
data_CeNd4PaSe10
_symmetry_space_group_name_H-M   'P 1'
_cell_length_a   7.84611100
_cell_length_b   8.45480000
_cell_length_c   12.52825300
_cell_angle_alpha   90.00000000
_cell_angle_beta   90.00000000
_cell_angle_gamma   90.00000000
_symmetry_Int_Tables_number   1
_chemical_formula_structural   CeNd4PaSe10
_chemical_formula_sum   'Ce2 Nd8 Pa2 Se20'
_cell_volume   831.09046875
_cell_formula_units_Z   2
loop_
 _symmetry_equiv_pos_site_id
 _symmetry_equiv_pos_as_xyz
  1  'x, y, z'
loop_
 _atom_site_type_symbol
 _atom_site_label
 _atom_site_symmetry_multiplicity
 _atom_site_fract_x
 _atom_site_fract_y
 _atom_site_fract_z
 _atom_site_occupancy
  Ce  Ce0  1  0.077859  0.750000  0.490622  1
  Ce  Ce1  1  0.422141  0.750000  0.990622  1
  Nd  Nd2  1  0.525069  0.501092  0.321804  1
  Nd  Nd3  1  0.974931  0.998908  0.821804  1
  Nd  Nd4  1  0.477262  0.996574  0.678880  1
  Nd  Nd5  1  0.022738  0.503426  0.178880  1
  Nd  Nd6  1  0.477262  0.503426  0.678880  1
  Nd  Nd7  1  0.022738  0.996574  0.178880  1
  Nd  Nd8  1  0.525069  0.998908  0.321804  1
  Nd  Nd9  1  0.974931  0.501092  0.821804  1
  Pa  Pa10  1  0.930657  0.250000  0.506377  1
  Pa  Pa11  1  0.569343  0.250000  0.006377  1
  Se  Se12  1  0.835311  0.963513  0.596835  1
  Se  Se13  1  0.664689  0.536487  0.096835  1
  Se  Se14  1  0.165121  0.449567  0.402728  1
  Se  Se15  1  0.334879  0.050433  0.902728  1
  Se  Se16  1  0.165121  0.050433  0.402728  1
  Se  Se17  1  0.334879  0.449567  0.902728  1
  Se  Se18  1  0.835311  0.536487  0.596835  1
  Se  Se19  1  0.664689  0.963513  0.096835  1
  Se  Se20  1  0.824494  0.750000  0.312166  1
  Se  Se21  1  0.675506  0.750000  0.812166  1
  Se  Se22  1  0.169086  0.250000  0.682617  1
  Se  Se23  1  0.330914  0.250000  0.182617  1
  Se  Se24  1  0.462802  0.750000  0.500358  1
  Se  Se25  1  0.037198  0.750000  0.000358  1
  Se  Se26  1  0.547426  0.250000  0.501059  1
  Se  Se27  1  0.952574  0.250000  0.001059  1
  Se  Se28  1  0.198144  0.750000  0.718644  1
  Se  Se29  1  0.301856  0.750000  0.218644  1
  Se  Se30  1  0.805214  0.250000  0.287664  1
  Se  Se31  1  0.694786  0.250000  0.787664  1
