# generated using pymatgen
data_Fe(WO3)2
_symmetry_space_group_name_H-M   'P 1'
_cell_length_a   4.71773600
_cell_length_b   10.77744660
_cell_length_c   9.43563000
_cell_angle_alpha   64.03966224
_cell_angle_beta   90.00000000
_cell_angle_gamma   90.00000000
_symmetry_Int_Tables_number   1
_chemical_formula_structural   Fe(WO3)2
_chemical_formula_sum   'Fe4 W8 O24'
_cell_volume   431.34731992
_cell_formula_units_Z   4
loop_
 _symmetry_equiv_pos_site_id
 _symmetry_equiv_pos_as_xyz
  1  'x, y, z'
loop_
 _atom_site_type_symbol
 _atom_site_label
 _atom_site_symmetry_multiplicity
 _atom_site_fract_x
 _atom_site_fract_y
 _atom_site_fract_z
 _atom_site_occupancy
  Fe  Fe0  1  0.500000  0.500000  0.000000  1
  Fe  Fe1  1  0.000000  0.000000  0.500000  1
  Fe  Fe2  1  0.500000  0.500000  0.500000  1
  Fe  Fe3  1  0.000000  0.000000  0.000000  1
  W  W4  1  0.000000  0.663910  0.168045  1
  W  W5  1  0.000000  0.663910  0.668045  1
  W  W6  1  0.500000  0.163910  0.168045  1
  W  W7  1  0.500000  0.163910  0.668045  1
  W  W8  1  0.500000  0.836090  0.831955  1
  W  W9  1  0.500000  0.836090  0.331955  1
  W  W10  1  0.000000  0.336090  0.331955  1
  W  W11  1  0.000000  0.336090  0.831955  1
  O  O12  1  0.690011  0.000000  0.155023  1
  O  O13  1  0.690011  0.000000  0.655023  1
  O  O14  1  0.809989  0.500000  0.155023  1
  O  O15  1  0.809989  0.500000  0.655023  1
  O  O16  1  0.190011  0.500000  0.844977  1
  O  O17  1  0.190011  0.500000  0.344977  1
  O  O18  1  0.309989  0.000000  0.344977  1
  O  O19  1  0.309989  0.000000  0.844977  1
  O  O20  1  0.710145  0.677109  0.806363  1
  O  O21  1  0.710145  0.677109  0.306363  1
  O  O22  1  0.289855  0.677109  0.016529  1
  O  O23  1  0.289855  0.677109  0.516529  1
  O  O24  1  0.289855  0.322891  0.193637  1
  O  O25  1  0.289855  0.322891  0.693637  1
  O  O26  1  0.210145  0.822891  0.693637  1
  O  O27  1  0.210145  0.822891  0.193637  1
  O  O28  1  0.789855  0.822891  0.983471  1
  O  O29  1  0.789855  0.822891  0.483471  1
  O  O30  1  0.789855  0.177109  0.306363  1
  O  O31  1  0.789855  0.177109  0.806363  1
  O  O32  1  0.210145  0.177109  0.016529  1
  O  O33  1  0.210145  0.177109  0.516529  1
  O  O34  1  0.710145  0.322891  0.983471  1
  O  O35  1  0.710145  0.322891  0.483471  1
