# generated using pymatgen
data_Ba12GeP3Br8
_symmetry_space_group_name_H-M   'P 1'
_cell_length_a   15.73561889
_cell_length_b   15.00739854
_cell_length_c   8.39386500
_cell_angle_alpha   78.92767997
_cell_angle_beta   69.58366702
_cell_angle_gamma   31.16349688
_symmetry_Int_Tables_number   1
_chemical_formula_structural   Ba12GeP3Br8
_chemical_formula_sum   'Ba12 Ge1 P3 Br8'
_cell_volume   937.88166775
_cell_formula_units_Z   1
loop_
 _symmetry_equiv_pos_site_id
 _symmetry_equiv_pos_as_xyz
  1  'x, y, z'
loop_
 _atom_site_type_symbol
 _atom_site_label
 _atom_site_symmetry_multiplicity
 _atom_site_fract_x
 _atom_site_fract_y
 _atom_site_fract_z
 _atom_site_occupancy
  Ba  Ba0  1  0.385013  0.937396  0.587014  1
  Ba  Ba1  1  0.593125  0.085800  0.386530  1
  Ba  Ba2  1  0.313827  0.863024  0.159080  1
  Ba  Ba3  1  0.937062  0.385782  0.091659  1
  Ba  Ba4  1  0.469957  0.026824  0.030543  1
  Ba  Ba5  1  0.863587  0.313538  0.662974  1
  Ba  Ba6  1  0.086871  0.591499  0.933769  1
  Ba  Ba7  1  0.664781  0.159370  0.861571  1
  Ba  Ba8  1  0.780228  0.220458  0.217784  1
  Ba  Ba9  1  0.220463  0.779832  0.781554  1
  Ba  Ba10  1  0.158589  0.665771  0.314906  1
  Ba  Ba11  1  0.027002  0.470327  0.472615  1
  Ge  Ge12  1  0.332731  0.334111  0.166679  1
  P  P13  1  0.084052  0.084229  0.915898  1
  P  P14  1  0.918660  0.917728  0.081530  1
  P  P15  1  0.163981  0.163975  0.336185  1
  Br  Br16  1  0.669184  0.668625  0.831156  1
  Br  Br17  1  0.745910  0.746741  0.253927  1
  Br  Br18  1  0.251377  0.250411  0.748945  1
  Br  Br19  1  0.579780  0.579921  0.419958  1
  Br  Br20  1  0.998649  0.999763  0.501186  1
  Br  Br21  1  0.829574  0.829421  0.670791  1
  Br  Br22  1  0.421220  0.422015  0.578098  1
  Br  Br23  1  0.504377  0.503441  0.995649  1
