# generated using pymatgen
data_Tb2Ho2Al3ZnPt4
_symmetry_space_group_name_H-M   'P 1'
_cell_length_a   4.43244200
_cell_length_b   6.82483801
_cell_length_c   7.82934400
_cell_angle_alpha   89.77887909
_cell_angle_beta   90.00000000
_cell_angle_gamma   90.00000000
_symmetry_Int_Tables_number   1
_chemical_formula_structural   Tb2Ho2Al3ZnPt4
_chemical_formula_sum   'Tb2 Ho2 Al3 Zn1 Pt4'
_cell_volume   236.84136235
_cell_formula_units_Z   1
loop_
 _symmetry_equiv_pos_site_id
 _symmetry_equiv_pos_as_xyz
  1  'x, y, z'
loop_
 _atom_site_type_symbol
 _atom_site_label
 _atom_site_symmetry_multiplicity
 _atom_site_fract_x
 _atom_site_fract_y
 _atom_site_fract_z
 _atom_site_occupancy
  Tb  Tb0  1  0.750000  0.970689  0.317612  1
  Tb  Tb1  1  0.750000  0.466650  0.178182  1
  Ho  Ho2  1  0.250000  0.029728  0.685749  1
  Ho  Ho3  1  0.250000  0.529013  0.818403  1
  Al  Al4  1  0.250000  0.647535  0.439598  1
  Al  Al5  1  0.750000  0.855562  0.936401  1
  Al  Al6  1  0.750000  0.356648  0.561029  1
  Zn  Zn7  1  0.250000  0.149461  0.064164  1
  Pt  Pt8  1  0.250000  0.273417  0.391245  1
  Pt  Pt9  1  0.250000  0.763495  0.116300  1
  Pt  Pt10  1  0.750000  0.728143  0.619017  1
  Pt  Pt11  1  0.750000  0.229658  0.872299  1
