# generated using pymatgen
data_Nb8Cr2Ga6C
_symmetry_space_group_name_H-M   'P 1'
_cell_length_a   7.68388000
_cell_length_b   7.68387926
_cell_length_c   5.15698800
_cell_angle_alpha   90.00000000
_cell_angle_beta   90.00000000
_cell_angle_gamma   119.99999458
_symmetry_Int_Tables_number   1
_chemical_formula_structural   Nb8Cr2Ga6C
_chemical_formula_sum   'Nb8 Cr2 Ga6 C1'
_cell_volume   263.68649162
_cell_formula_units_Z   1
loop_
 _symmetry_equiv_pos_site_id
 _symmetry_equiv_pos_as_xyz
  1  'x, y, z'
loop_
 _atom_site_type_symbol
 _atom_site_label
 _atom_site_symmetry_multiplicity
 _atom_site_fract_x
 _atom_site_fract_y
 _atom_site_fract_z
 _atom_site_occupancy
  Nb  Nb0  1  0.666667  0.333333  0.000000  1
  Nb  Nb1  1  0.333333  0.666667  0.000000  1
  Nb  Nb2  1  0.000000  0.765539  0.241893  1
  Nb  Nb3  1  0.234461  0.234461  0.241893  1
  Nb  Nb4  1  0.765539  0.000000  0.241893  1
  Nb  Nb5  1  0.000000  0.234461  0.758107  1
  Nb  Nb6  1  0.765539  0.765539  0.758107  1
  Nb  Nb7  1  0.234461  0.000000  0.758107  1
  Cr  Cr8  1  0.333333  0.666667  0.500000  1
  Cr  Cr9  1  0.666667  0.333333  0.500000  1
  Ga  Ga10  1  0.000000  0.406546  0.268269  1
  Ga  Ga11  1  0.593454  0.593454  0.268269  1
  Ga  Ga12  1  0.406546  0.000000  0.268269  1
  Ga  Ga13  1  0.000000  0.593454  0.731731  1
  Ga  Ga14  1  0.406546  0.406546  0.731731  1
  Ga  Ga15  1  0.593454  0.000000  0.731731  1
  C  C16  1  0.000000  0.000000  0.500000  1
