# generated using pymatgen
data_LiHf4Fe3Si7
_symmetry_space_group_name_H-M   'P 1'
_cell_length_a   9.43479846
_cell_length_b   9.43448913
_cell_length_c   9.54724071
_cell_angle_alpha   94.27428384
_cell_angle_beta   94.27642524
_cell_angle_gamma   148.11501823
_symmetry_Int_Tables_number   1
_chemical_formula_structural   LiHf4Fe3Si7
_chemical_formula_sum   'Li2 Hf8 Fe6 Si14'
_cell_volume   432.04027736
_cell_formula_units_Z   2
loop_
 _symmetry_equiv_pos_site_id
 _symmetry_equiv_pos_as_xyz
  1  'x, y, z'
loop_
 _atom_site_type_symbol
 _atom_site_label
 _atom_site_symmetry_multiplicity
 _atom_site_fract_x
 _atom_site_fract_y
 _atom_site_fract_z
 _atom_site_occupancy
  Li  Li0  1  0.107162  0.892907  0.500043  1
  Li  Li1  1  0.392894  0.607165  0.500042  1
  Hf  Hf2  1  0.138510  0.138510  0.277027  1
  Hf  Hf3  1  0.861520  0.861516  0.723034  1
  Hf  Hf4  1  0.138084  0.861871  0.999928  1
  Hf  Hf5  1  0.861842  0.138063  0.999928  1
  Hf  Hf6  1  0.313509  0.512790  0.806163  1
  Hf  Hf7  1  0.706508  0.507237  0.193796  1
  Hf  Hf8  1  0.487292  0.686565  0.193834  1
  Hf  Hf9  1  0.492680  0.293397  0.806202  1
  Fe  Fe10  1  0.114402  0.614417  0.228801  1
  Fe  Fe11  1  0.385608  0.885617  0.771229  1
  Fe  Fe12  1  0.901070  0.098919  0.500000  1
  Fe  Fe13  1  0.598950  0.401060  0.500002  1
  Fe  Fe14  1  0.594374  0.094374  0.188749  1
  Fe  Fe15  1  0.905421  0.405419  0.810870  1
  Si  Si16  1  0.294258  0.294224  0.588471  1
  Si  Si17  1  0.705793  0.705757  0.411554  1
  Si  Si18  1  0.289100  0.710416  0.999789  1
  Si  Si19  1  0.710683  0.289389  0.999779  1
  Si  Si20  1  0.041811  0.456497  0.598260  1
  Si  Si21  1  0.858195  0.443582  0.402006  1
  Si  Si22  1  0.543771  0.958427  0.402005  1
  Si  Si23  1  0.556449  0.141798  0.598263  1
  Si  Si24  1  0.251996  0.251966  0.999985  1
  Si  Si25  1  0.747994  0.748023  0.000003  1
  Si  Si26  1  0.320562  0.019581  0.294387  1
  Si  Si27  1  0.725086  0.026278  0.705780  1
  Si  Si28  1  0.980639  0.679431  0.705734  1
  Si  Si29  1  0.973835  0.274806  0.294338  1
