# generated using pymatgen
data_Y2Er3P12Ru16Pt3
_symmetry_space_group_name_H-M   'P 1'
_cell_length_a   12.59229205
_cell_length_b   12.59032500
_cell_length_c   3.98511200
_cell_angle_alpha   90.00000000
_cell_angle_beta   90.00000000
_cell_angle_gamma   119.99482921
_symmetry_Int_Tables_number   1
_chemical_formula_structural   Y2Er3P12Ru16Pt3
_chemical_formula_sum   'Y2 Er3 P12 Ru16 Pt3'
_cell_volume   547.18668135
_cell_formula_units_Z   1
loop_
 _symmetry_equiv_pos_site_id
 _symmetry_equiv_pos_as_xyz
  1  'x, y, z'
loop_
 _atom_site_type_symbol
 _atom_site_label
 _atom_site_symmetry_multiplicity
 _atom_site_fract_x
 _atom_site_fract_y
 _atom_site_fract_z
 _atom_site_occupancy
  Y  Y0  1  0.182008  0.181956  0.500000  1
  Y  Y1  1  0.817992  0.999948  0.500000  1
  Er  Er2  1  0.000000  0.818202  0.500000  1
  Er  Er3  1  0.333329  0.666717  0.000000  1
  Er  Er4  1  0.666671  0.333387  0.000000  1
  P  P5  1  0.815300  0.814922  0.000000  1
  P  P6  1  0.184700  0.999622  0.000000  1
  P  P7  1  0.000000  0.184804  0.000000  1
  P  P8  1  0.180506  0.480881  0.500000  1
  P  P9  1  0.519299  0.699668  0.500000  1
  P  P10  1  0.300326  0.819542  0.500000  1
  P  P11  1  0.699674  0.519215  0.500000  1
  P  P12  1  0.819494  0.300374  0.500000  1
  P  P13  1  0.480701  0.180367  0.500000  1
  P  P14  1  0.365381  0.365378  0.000000  1
  P  P15  1  0.634619  0.999997  0.000000  1
  P  P16  1  0.000000  0.635079  0.000000  1
  Ru  Ru17  1  0.711497  0.711249  0.500000  1
  Ru  Ru18  1  0.288503  0.999752  0.500000  1
  Ru  Ru19  1  0.000000  0.288880  0.500000  1
  Ru  Ru20  1  0.185093  0.378819  0.000000  1
  Ru  Ru21  1  0.621232  0.806248  0.000000  1
  Ru  Ru22  1  0.193115  0.814903  0.000000  1
  Ru  Ru23  1  0.806885  0.621788  0.000000  1
  Ru  Ru24  1  0.814907  0.193727  0.000000  1
  Ru  Ru25  1  0.378768  0.185016  0.000000  1
  Ru  Ru26  1  0.369328  0.494469  0.500000  1
  Ru  Ru27  1  0.505544  0.874837  0.500000  1
  Ru  Ru28  1  0.125152  0.630812  0.500000  1
  Ru  Ru29  1  0.874848  0.505661  0.500000  1
  Ru  Ru30  1  0.630672  0.125142  0.500000  1
  Ru  Ru31  1  0.494456  0.369294  0.500000  1
  Ru  Ru32  1  0.000000  0.999210  0.000000  1
  Pt  Pt33  1  0.551541  0.551534  0.000000  1
  Pt  Pt34  1  0.448459  0.999993  0.000000  1
  Pt  Pt35  1  0.000000  0.448612  0.000000  1
