# generated using pymatgen
data_Ba2SrAu2
_symmetry_space_group_name_H-M   'P 1'
_cell_length_a   8.64255071
_cell_length_b   8.64255002
_cell_length_c   8.64254986
_cell_angle_alpha   71.01340820
_cell_angle_beta   71.01340813
_cell_angle_gamma   71.01341257
_symmetry_Int_Tables_number   1
_chemical_formula_structural   Ba2SrAu2
_chemical_formula_sum   'Ba6 Sr3 Au6'
_cell_volume   559.55081179
_cell_formula_units_Z   3
loop_
 _symmetry_equiv_pos_site_id
 _symmetry_equiv_pos_as_xyz
  1  'x, y, z'
loop_
 _atom_site_type_symbol
 _atom_site_label
 _atom_site_symmetry_multiplicity
 _atom_site_fract_x
 _atom_site_fract_y
 _atom_site_fract_z
 _atom_site_occupancy
  Ba  Ba0  1  0.895280  0.170110  0.655394  1
  Ba  Ba1  1  0.655394  0.895280  0.170110  1
  Ba  Ba2  1  0.170110  0.655394  0.895280  1
  Ba  Ba3  1  0.104720  0.829890  0.344606  1
  Ba  Ba4  1  0.344606  0.104720  0.829890  1
  Ba  Ba5  1  0.829890  0.344606  0.104720  1
  Sr  Sr6  1  0.500000  0.500000  0.500000  1
  Sr  Sr7  1  0.300954  0.300954  0.300954  1
  Sr  Sr8  1  0.699046  0.699046  0.699046  1
  Au  Au9  1  0.907079  0.539911  0.350220  1
  Au  Au10  1  0.350220  0.907079  0.539911  1
  Au  Au11  1  0.539911  0.350220  0.907079  1
  Au  Au12  1  0.092921  0.460089  0.649780  1
  Au  Au13  1  0.649780  0.092921  0.460089  1
  Au  Au14  1  0.460089  0.649780  0.092921  1
