# generated using pymatgen
data_Er3Zr2Sn2Sb
_symmetry_space_group_name_H-M   'P 1'
_cell_length_a   8.78274631
_cell_length_b   8.78274750
_cell_length_c   6.04890300
_cell_angle_alpha   90.00000000
_cell_angle_beta   90.00000000
_cell_angle_gamma   119.91697260
_symmetry_Int_Tables_number   1
_chemical_formula_structural   Er3Zr2Sn2Sb
_chemical_formula_sum   'Er6 Zr4 Sn4 Sb2'
_cell_volume   404.41823305
_cell_formula_units_Z   2
loop_
 _symmetry_equiv_pos_site_id
 _symmetry_equiv_pos_as_xyz
  1  'x, y, z'
loop_
 _atom_site_type_symbol
 _atom_site_label
 _atom_site_symmetry_multiplicity
 _atom_site_fract_x
 _atom_site_fract_y
 _atom_site_fract_z
 _atom_site_occupancy
  Er  Er0  1  0.759504  0.759504  0.750000  1
  Er  Er1  1  0.243034  0.001017  0.750000  1
  Er  Er2  1  0.001017  0.243034  0.750000  1
  Er  Er3  1  0.242453  0.242453  0.250000  1
  Er  Er4  1  0.756602  0.998459  0.250000  1
  Er  Er5  1  0.998459  0.756602  0.250000  1
  Zr  Zr6  1  0.667006  0.332601  0.999621  1
  Zr  Zr7  1  0.332601  0.667006  0.999621  1
  Zr  Zr8  1  0.332601  0.667006  0.500379  1
  Zr  Zr9  1  0.667006  0.332601  0.500379  1
  Sn  Sn10  1  0.400369  0.400369  0.750000  1
  Sn  Sn11  1  0.602149  0.000695  0.750000  1
  Sn  Sn12  1  0.000695  0.602149  0.750000  1
  Sn  Sn13  1  0.600155  0.600155  0.250000  1
  Sb  Sb14  1  0.396490  0.999859  0.250000  1
  Sb  Sb15  1  0.999859  0.396490  0.250000  1
