# generated using pymatgen
data_Lu10In8PtRhAu2
_symmetry_space_group_name_H-M   'P 1'
_cell_length_a   3.58085800
_cell_length_b   8.06544852
_cell_length_c   18.06128495
_cell_angle_alpha   89.88179567
_cell_angle_beta   90.00000000
_cell_angle_gamma   90.00000000
_symmetry_Int_Tables_number   1
_chemical_formula_structural   Lu10In8PtRhAu2
_chemical_formula_sum   'Lu10 In8 Pt1 Rh1 Au2'
_cell_volume   521.63093993
_cell_formula_units_Z   1
loop_
 _symmetry_equiv_pos_site_id
 _symmetry_equiv_pos_as_xyz
  1  'x, y, z'
loop_
 _atom_site_type_symbol
 _atom_site_label
 _atom_site_symmetry_multiplicity
 _atom_site_fract_x
 _atom_site_fract_y
 _atom_site_fract_z
 _atom_site_occupancy
  Lu  Lu0  1  0.000000  0.119865  0.419183  1
  Lu  Lu1  1  0.000000  0.880174  0.580771  1
  Lu  Lu2  1  0.000000  0.383950  0.914533  1
  Lu  Lu3  1  0.000000  0.617692  0.084363  1
  Lu  Lu4  1  0.000000  0.257055  0.217492  1
  Lu  Lu5  1  0.000000  0.739442  0.782905  1
  Lu  Lu6  1  0.000000  0.269019  0.723194  1
  Lu  Lu7  1  0.000000  0.733330  0.277658  1
  Lu  Lu8  1  0.000000  0.999188  0.999936  1
  Lu  Lu9  1  0.000000  0.499811  0.500095  1
  In  In10  1  0.500000  0.423507  0.352852  1
  In  In11  1  0.500000  0.575119  0.648372  1
  In  In12  1  0.500000  0.078590  0.853586  1
  In  In13  1  0.500000  0.924151  0.146360  1
  In  In14  1  0.500000  0.292427  0.064686  1
  In  In15  1  0.500000  0.705863  0.933748  1
  In  In16  1  0.500000  0.210465  0.566469  1
  In  In17  1  0.500000  0.789798  0.433388  1
  Pt  Pt18  1  0.500000  0.529617  0.195643  1
  Rh  Rh19  1  0.500000  0.470902  0.805016  1
  Au  Au20  1  0.500000  0.029875  0.302075  1
  Au  Au21  1  0.500000  0.970159  0.697675  1
