# generated using pymatgen
data_Ac2NpS5
_symmetry_space_group_name_H-M   'P 1'
_cell_length_a   7.76391000
_cell_length_b   8.43868900
_cell_length_c   12.28657600
_cell_angle_alpha   90.00000000
_cell_angle_beta   90.00000000
_cell_angle_gamma   90.00000000
_symmetry_Int_Tables_number   1
_chemical_formula_structural   Ac2NpS5
_chemical_formula_sum   'Ac8 Np4 S20'
_cell_volume   804.98232636
_cell_formula_units_Z   4
loop_
 _symmetry_equiv_pos_site_id
 _symmetry_equiv_pos_as_xyz
  1  'x, y, z'
loop_
 _atom_site_type_symbol
 _atom_site_label
 _atom_site_symmetry_multiplicity
 _atom_site_fract_x
 _atom_site_fract_y
 _atom_site_fract_z
 _atom_site_occupancy
  Ac  Ac0  1  0.031624  0.001457  0.674180  1
  Ac  Ac1  1  0.531624  0.998543  0.825820  1
  Ac  Ac2  1  0.468376  0.498543  0.174180  1
  Ac  Ac3  1  0.968376  0.501457  0.325820  1
  Ac  Ac4  1  0.968376  0.998543  0.325820  1
  Ac  Ac5  1  0.468376  0.001457  0.174180  1
  Ac  Ac6  1  0.531624  0.501457  0.825820  1
  Ac  Ac7  1  0.031624  0.498543  0.674180  1
  Np  Np8  1  0.554063  0.250000  0.503346  1
  Np  Np9  1  0.054063  0.750000  0.996654  1
  Np  Np10  1  0.945937  0.250000  0.003346  1
  Np  Np11  1  0.445937  0.750000  0.496654  1
  S  S12  1  0.340035  0.250000  0.685864  1
  S  S13  1  0.840035  0.750000  0.814136  1
  S  S14  1  0.159965  0.250000  0.185864  1
  S  S15  1  0.659965  0.750000  0.314136  1
  S  S16  1  0.943787  0.250000  0.503262  1
  S  S17  1  0.443787  0.750000  0.996738  1
  S  S18  1  0.556213  0.250000  0.003262  1
  S  S19  1  0.056213  0.750000  0.496738  1
  S  S20  1  0.660889  0.532997  0.588298  1
  S  S21  1  0.160889  0.467003  0.911702  1
  S  S22  1  0.839111  0.967003  0.088298  1
  S  S23  1  0.339111  0.032997  0.411702  1
  S  S24  1  0.339111  0.467003  0.411702  1
  S  S25  1  0.839111  0.532997  0.088298  1
  S  S26  1  0.160889  0.032997  0.911702  1
  S  S27  1  0.660889  0.967003  0.588298  1
  S  S28  1  0.816992  0.250000  0.792222  1
  S  S29  1  0.316992  0.750000  0.707778  1
  S  S30  1  0.683008  0.250000  0.292222  1
  S  S31  1  0.183008  0.750000  0.207778  1
