# generated using pymatgen
data_CeH6Rh
_symmetry_space_group_name_H-M   'P 1'
_cell_length_a   4.71726119
_cell_length_b   4.71726237
_cell_length_c   4.70981126
_cell_angle_alpha   58.53382517
_cell_angle_beta   58.53383471
_cell_angle_gamma   58.48807457
_symmetry_Int_Tables_number   1
_chemical_formula_structural   CeH6Rh
_chemical_formula_sum   'Ce1 H6 Rh1'
_cell_volume   71.59735438
_cell_formula_units_Z   1
loop_
 _symmetry_equiv_pos_site_id
 _symmetry_equiv_pos_as_xyz
  1  'x, y, z'
loop_
 _atom_site_type_symbol
 _atom_site_label
 _atom_site_symmetry_multiplicity
 _atom_site_fract_x
 _atom_site_fract_y
 _atom_site_fract_z
 _atom_site_occupancy
  Ce  Ce0  1  0.500000  0.500000  0.500000  1
  H  H1  1  0.572980  0.098876  0.098531  1
  H  H2  1  0.098876  0.572980  0.098531  1
  H  H3  1  0.901123  0.901123  0.427863  1
  H  H4  1  0.098877  0.098877  0.572136  1
  H  H5  1  0.901124  0.427019  0.901469  1
  H  H6  1  0.427019  0.901124  0.901469  1
  Rh  Rh7  1  0.000000  0.000000  0.000000  1
