# generated using pymatgen
data_YHo5GaCo2
_symmetry_space_group_name_H-M   'P 1'
_cell_length_a   8.24537461
_cell_length_b   8.22433988
_cell_length_c   8.22434029
_cell_angle_alpha   111.83428881
_cell_angle_beta   109.48006699
_cell_angle_gamma   107.03737184
_symmetry_Int_Tables_number   1
_chemical_formula_structural   YHo5GaCo2
_chemical_formula_sum   'Y2 Ho10 Ga2 Co4'
_cell_volume   429.09251478
_cell_formula_units_Z   2
loop_
 _symmetry_equiv_pos_site_id
 _symmetry_equiv_pos_as_xyz
  1  'x, y, z'
loop_
 _atom_site_type_symbol
 _atom_site_label
 _atom_site_symmetry_multiplicity
 _atom_site_fract_x
 _atom_site_fract_y
 _atom_site_fract_z
 _atom_site_occupancy
  Y  Y0  1  0.956963  0.260560  0.696403  1
  Y  Y1  1  0.043037  0.739440  0.303597  1
  Ho  Ho2  1  0.672692  0.861540  0.187480  1
  Ho  Ho3  1  0.327308  0.514788  0.188848  1
  Ho  Ho4  1  0.327308  0.138460  0.812520  1
  Ho  Ho5  1  0.672692  0.485212  0.811152  1
  Ho  Ho6  1  0.564056  0.261542  0.302514  1
  Ho  Ho7  1  0.435944  0.738458  0.697486  1
  Ho  Ho8  1  0.180963  0.781064  0.960623  1
  Ho  Ho9  1  0.819037  0.779660  0.600102  1
  Ho  Ho10  1  0.180963  0.220340  0.399898  1
  Ho  Ho11  1  0.819037  0.218936  0.039377  1
  Ga  Ga12  1  0.000000  0.500000  0.500000  1
  Ga  Ga13  1  0.500000  0.000000  0.500000  1
  Co  Co14  1  0.115711  0.114688  0.001024  1
  Co  Co15  1  0.884289  0.885312  0.998976  1
  Co  Co16  1  0.660840  0.498519  0.162321  1
  Co  Co17  1  0.339160  0.501481  0.837679  1
