# generated using pymatgen
data_Sc5Co17(ReP6)2
_symmetry_space_group_name_H-M   'P 1'
_cell_length_a   11.88337327
_cell_length_b   11.82325264
_cell_length_c   3.62774400
_cell_angle_alpha   90.00000000
_cell_angle_beta   90.00000000
_cell_angle_gamma   119.83277784
_symmetry_Int_Tables_number   1
_chemical_formula_structural   Sc5Co17(ReP6)2
_chemical_formula_sum   'Sc5 Co17 Re2 P12'
_cell_volume   442.15375082
_cell_formula_units_Z   1
loop_
 _symmetry_equiv_pos_site_id
 _symmetry_equiv_pos_as_xyz
  1  'x, y, z'
loop_
 _atom_site_type_symbol
 _atom_site_label
 _atom_site_symmetry_multiplicity
 _atom_site_fract_x
 _atom_site_fract_y
 _atom_site_fract_z
 _atom_site_occupancy
  Sc  Sc0  1  0.664969  0.331326  0.000000  1
  Sc  Sc1  1  0.335031  0.666358  0.000000  1
  Sc  Sc2  1  0.181692  0.181227  0.500000  1
  Sc  Sc3  1  0.818308  0.999533  0.500000  1
  Sc  Sc4  1  0.000000  0.815578  0.500000  1
  Co  Co5  1  0.000000  0.450393  0.000000  1
  Co  Co6  1  0.822633  0.199155  0.000000  1
  Co  Co7  1  0.804959  0.626702  0.000000  1
  Co  Co8  1  0.372237  0.177239  0.000000  1
  Co  Co9  1  0.195041  0.821743  0.000000  1
  Co  Co10  1  0.627763  0.805002  0.000000  1
  Co  Co11  1  0.177367  0.376523  0.000000  1
  Co  Co12  1  0.644394  0.126143  0.500000  1
  Co  Co13  1  0.871847  0.515991  0.500000  1
  Co  Co14  1  0.483576  0.354606  0.500000  1
  Co  Co15  1  0.128153  0.644143  0.500000  1
  Co  Co16  1  0.516424  0.871030  0.500000  1
  Co  Co17  1  0.355606  0.481749  0.500000  1
  Co  Co18  1  0.718663  0.718668  0.500000  1
  Co  Co19  1  0.281337  0.000005  0.500000  1
  Co  Co20  1  0.000000  0.285076  0.500000  1
  Co  Co21  1  0.000000  0.002437  0.000000  1
  Re  Re22  1  0.552437  0.551822  0.000000  1
  Re  Re23  1  0.447563  0.999384  0.000000  1
  P  P24  1  0.356053  0.357463  0.000000  1
  P  P25  1  0.643947  0.001410  0.000000  1
  P  P26  1  0.000000  0.637133  0.000000  1
  P  P27  1  0.833241  0.316146  0.500000  1
  P  P28  1  0.685582  0.517119  0.500000  1
  P  P29  1  0.482070  0.166243  0.500000  1
  P  P30  1  0.314418  0.831537  0.500000  1
  P  P31  1  0.517930  0.684174  0.500000  1
  P  P32  1  0.166759  0.482906  0.500000  1
  P  P33  1  0.826030  0.825605  0.000000  1
  P  P34  1  0.173970  0.999575  0.000000  1
  P  P35  1  0.000000  0.178855  0.000000  1
