# generated using pymatgen
data_Sc11Ir2RuPt
_symmetry_space_group_name_H-M   'P 1'
_cell_length_a   9.50277733
_cell_length_b   9.50277648
_cell_length_c   9.46975600
_cell_angle_alpha   60.11487290
_cell_angle_beta   60.11487585
_cell_angle_gamma   59.77024539
_symmetry_Int_Tables_number   1
_chemical_formula_structural   Sc11Ir2RuPt
_chemical_formula_sum   'Sc22 Ir4 Ru2 Pt2'
_cell_volume   604.66438365
_cell_formula_units_Z   2
loop_
 _symmetry_equiv_pos_site_id
 _symmetry_equiv_pos_as_xyz
  1  'x, y, z'
loop_
 _atom_site_type_symbol
 _atom_site_label
 _atom_site_symmetry_multiplicity
 _atom_site_fract_x
 _atom_site_fract_y
 _atom_site_fract_z
 _atom_site_occupancy
  Sc  Sc0  1  0.803832  0.803832  0.196168  1
  Sc  Sc1  1  0.196423  0.803577  0.196423  1
  Sc  Sc2  1  0.803577  0.196423  0.196423  1
  Sc  Sc3  1  0.196168  0.196168  0.803832  1
  Sc  Sc4  1  0.803577  0.196423  0.803577  1
  Sc  Sc5  1  0.196423  0.803577  0.803577  1
  Sc  Sc6  1  0.617719  0.617719  0.150077  1
  Sc  Sc7  1  0.614487  0.150077  0.617719  1
  Sc  Sc8  1  0.150077  0.614487  0.617719  1
  Sc  Sc9  1  0.617719  0.617719  0.614487  1
  Sc  Sc10  1  0.382281  0.382281  0.849923  1
  Sc  Sc11  1  0.385513  0.849923  0.382281  1
  Sc  Sc12  1  0.849923  0.385513  0.382281  1
  Sc  Sc13  1  0.382281  0.382281  0.385513  1
  Sc  Sc14  1  0.841019  0.841019  0.471549  1
  Sc  Sc15  1  0.846411  0.471549  0.841019  1
  Sc  Sc16  1  0.471549  0.846411  0.841019  1
  Sc  Sc17  1  0.841019  0.841019  0.846411  1
  Sc  Sc18  1  0.158981  0.158981  0.528451  1
  Sc  Sc19  1  0.153589  0.528451  0.158981  1
  Sc  Sc20  1  0.528451  0.153589  0.158981  1
  Sc  Sc21  1  0.158981  0.158981  0.153589  1
  Ir  Ir22  1  0.500000  0.000000  0.500000  1
  Ir  Ir23  1  0.000000  0.500000  0.500000  1
  Ir  Ir24  1  0.000000  0.500000  0.000000  1
  Ir  Ir25  1  0.500000  0.000000  0.000000  1
  Ru  Ru26  1  0.000000  0.000000  0.000000  1
  Ru  Ru27  1  0.500000  0.500000  0.500000  1
  Pt  Pt28  1  0.000000  0.000000  0.500000  1
  Pt  Pt29  1  0.500000  0.500000  0.000000  1
