# generated using pymatgen
data_Y4Be4MoIr9
_symmetry_space_group_name_H-M   'P 1'
_cell_length_a   5.51150300
_cell_length_b   5.51150222
_cell_length_c   21.85610900
_cell_angle_alpha   90.00000000
_cell_angle_beta   90.00000000
_cell_angle_gamma   119.99999867
_symmetry_Int_Tables_number   1
_chemical_formula_structural   Y4Be4MoIr9
_chemical_formula_sum   'Y8 Be8 Mo2 Ir18'
_cell_volume   574.96779573
_cell_formula_units_Z   2
loop_
 _symmetry_equiv_pos_site_id
 _symmetry_equiv_pos_as_xyz
  1  'x, y, z'
loop_
 _atom_site_type_symbol
 _atom_site_label
 _atom_site_symmetry_multiplicity
 _atom_site_fract_x
 _atom_site_fract_y
 _atom_site_fract_z
 _atom_site_occupancy
  Y  Y0  1  0.333333  0.666667  0.527774  1
  Y  Y1  1  0.666667  0.333333  0.472226  1
  Y  Y2  1  0.666667  0.333333  0.027774  1
  Y  Y3  1  0.333333  0.666667  0.972226  1
  Y  Y4  1  0.333333  0.666667  0.675492  1
  Y  Y5  1  0.666667  0.333333  0.324508  1
  Y  Y6  1  0.666667  0.333333  0.175492  1
  Y  Y7  1  0.333333  0.666667  0.824508  1
  Be  Be8  1  0.333333  0.666667  0.173933  1
  Be  Be9  1  0.666667  0.333333  0.826067  1
  Be  Be10  1  0.666667  0.333333  0.673933  1
  Be  Be11  1  0.333333  0.666667  0.326067  1
  Be  Be12  1  0.000000  0.000000  0.170710  1
  Be  Be13  1  0.000000  0.000000  0.829290  1
  Be  Be14  1  0.000000  0.000000  0.670710  1
  Be  Be15  1  0.000000  0.000000  0.329290  1
  Mo  Mo16  1  0.000000  0.000000  0.000000  1
  Mo  Mo17  1  0.000000  0.000000  0.500000  1
  Ir  Ir18  1  0.169276  0.338553  0.093598  1
  Ir  Ir19  1  0.830724  0.661447  0.906402  1
  Ir  Ir20  1  0.661447  0.830724  0.093598  1
  Ir  Ir21  1  0.830724  0.661447  0.593598  1
  Ir  Ir22  1  0.338553  0.169276  0.906402  1
  Ir  Ir23  1  0.169276  0.338553  0.406402  1
  Ir  Ir24  1  0.169276  0.830724  0.093598  1
  Ir  Ir25  1  0.338553  0.169276  0.593598  1
  Ir  Ir26  1  0.830724  0.169276  0.906402  1
  Ir  Ir27  1  0.661447  0.830724  0.406402  1
  Ir  Ir28  1  0.830724  0.169276  0.593598  1
  Ir  Ir29  1  0.169276  0.830724  0.406402  1
  Ir  Ir30  1  0.165866  0.331731  0.250000  1
  Ir  Ir31  1  0.834134  0.668269  0.750000  1
  Ir  Ir32  1  0.668269  0.834134  0.250000  1
  Ir  Ir33  1  0.331731  0.165866  0.750000  1
  Ir  Ir34  1  0.165866  0.834134  0.250000  1
  Ir  Ir35  1  0.834134  0.165866  0.750000  1
