# generated using pymatgen
data_Al2V12GaPt
_symmetry_space_group_name_H-M   'P 1'
_cell_length_a   4.77862200
_cell_length_b   4.79152400
_cell_length_c   9.65137200
_cell_angle_alpha   90.00000000
_cell_angle_beta   90.00000000
_cell_angle_gamma   90.00000000
_symmetry_Int_Tables_number   1
_chemical_formula_structural   Al2V12GaPt
_chemical_formula_sum   'Al2 V12 Ga1 Pt1'
_cell_volume   220.98632582
_cell_formula_units_Z   1
loop_
 _symmetry_equiv_pos_site_id
 _symmetry_equiv_pos_as_xyz
  1  'x, y, z'
loop_
 _atom_site_type_symbol
 _atom_site_label
 _atom_site_symmetry_multiplicity
 _atom_site_fract_x
 _atom_site_fract_y
 _atom_site_fract_z
 _atom_site_occupancy
  Al  Al0  1  0.000000  0.000000  0.251573  1
  Al  Al1  1  0.000000  0.000000  0.748427  1
  V  V2  1  0.500000  0.000000  0.630876  1
  V  V3  1  0.500000  0.000000  0.120476  1
  V  V4  1  0.747552  0.500000  0.249551  1
  V  V5  1  0.747552  0.500000  0.750449  1
  V  V6  1  0.000000  0.758273  0.500000  1
  V  V7  1  0.000000  0.751207  0.000000  1
  V  V8  1  0.500000  0.000000  0.369124  1
  V  V9  1  0.500000  0.000000  0.879524  1
  V  V10  1  0.252448  0.500000  0.249551  1
  V  V11  1  0.252448  0.500000  0.750449  1
  V  V12  1  0.000000  0.241727  0.500000  1
  V  V13  1  0.000000  0.248793  0.000000  1
  Ga  Ga14  1  0.500000  0.500000  0.500000  1
  Pt  Pt15  1  0.500000  0.500000  0.000000  1
