# generated using pymatgen
data_LiDyY2In3AgIr
_symmetry_space_group_name_H-M   'P 1'
_cell_length_a   7.93743024
_cell_length_b   7.95264925
_cell_length_c   3.73782200
_cell_angle_alpha   90.00000000
_cell_angle_beta   90.00000000
_cell_angle_gamma   120.03806136
_symmetry_Int_Tables_number   1
_chemical_formula_structural   LiDyY2In3AgIr
_chemical_formula_sum   'Li1 Dy1 Y2 In3 Ag1 Ir1'
_cell_volume   204.25575601
_cell_formula_units_Z   1
loop_
 _symmetry_equiv_pos_site_id
 _symmetry_equiv_pos_as_xyz
  1  'x, y, z'
loop_
 _atom_site_type_symbol
 _atom_site_label
 _atom_site_symmetry_multiplicity
 _atom_site_fract_x
 _atom_site_fract_y
 _atom_site_fract_z
 _atom_site_occupancy
  Li  Li0  1  0.999909  0.000452  0.000000  1
  Dy  Dy1  1  0.030163  0.426186  0.000000  1
  Y  Y2  1  0.576563  0.604601  0.000000  1
  Y  Y3  1  0.395153  0.970673  0.000000  1
  In  In4  1  0.993999  0.738045  0.500000  1
  In  In5  1  0.262583  0.256686  0.500000  1
  In  In6  1  0.743126  0.005828  0.500000  1
  Ag  Ag7  1  0.667304  0.333020  0.500000  1
  Ir  Ir8  1  0.331200  0.664508  0.500000  1
