# generated using pymatgen
data_AlIn(Ni7B2)3
_symmetry_space_group_name_H-M   'P 1'
_cell_length_a   7.43258042
_cell_length_b   7.43258118
_cell_length_c   7.43258000
_cell_angle_alpha   59.99999634
_cell_angle_beta   59.99999296
_cell_angle_gamma   59.99999869
_symmetry_Int_Tables_number   1
_chemical_formula_structural   AlIn(Ni7B2)3
_chemical_formula_sum   'Al1 In1 Ni21 B6'
_cell_volume   290.33796814
_cell_formula_units_Z   1
loop_
 _symmetry_equiv_pos_site_id
 _symmetry_equiv_pos_as_xyz
  1  'x, y, z'
loop_
 _atom_site_type_symbol
 _atom_site_label
 _atom_site_symmetry_multiplicity
 _atom_site_fract_x
 _atom_site_fract_y
 _atom_site_fract_z
 _atom_site_occupancy
  Al  Al0  1  0.750000  0.750000  0.750000  1
  In  In1  1  0.250000  0.250000  0.250000  1
  Ni  Ni2  1  0.388321  0.388321  0.388321  1
  Ni  Ni3  1  0.619396  0.619396  0.619396  1
  Ni  Ni4  1  0.388321  0.388321  0.835036  1
  Ni  Ni5  1  0.388321  0.835036  0.388321  1
  Ni  Ni6  1  0.619396  0.619396  0.141814  1
  Ni  Ni7  1  0.619396  0.141814  0.619396  1
  Ni  Ni8  1  0.835036  0.388321  0.388321  1
  Ni  Ni9  1  0.141814  0.619396  0.619396  1
  Ni  Ni10  1  0.338725  0.998685  0.998685  1
  Ni  Ni11  1  0.663906  0.998685  0.998685  1
  Ni  Ni12  1  0.998685  0.338725  0.663906  1
  Ni  Ni13  1  0.998685  0.663906  0.338725  1
  Ni  Ni14  1  0.998685  0.338725  0.998685  1
  Ni  Ni15  1  0.663906  0.998685  0.338725  1
  Ni  Ni16  1  0.998685  0.663906  0.998685  1
  Ni  Ni17  1  0.338725  0.998685  0.663906  1
  Ni  Ni18  1  0.998685  0.998685  0.338725  1
  Ni  Ni19  1  0.998685  0.998685  0.663906  1
  Ni  Ni20  1  0.663906  0.338725  0.998685  1
  Ni  Ni21  1  0.338725  0.663906  0.998685  1
  Ni  Ni22  1  0.000000  0.000000  0.000000  1
  B  B23  1  0.727644  0.272356  0.272356  1
  B  B24  1  0.272356  0.727644  0.727644  1
  B  B25  1  0.272356  0.727644  0.272356  1
  B  B26  1  0.727644  0.272356  0.727644  1
  B  B27  1  0.272356  0.272356  0.727644  1
  B  B28  1  0.727644  0.727644  0.272356  1
