# generated using pymatgen
data_PrNdCo3P7Ru9
_symmetry_space_group_name_H-M   'P 1'
_cell_length_a   9.39244100
_cell_length_b   9.39244204
_cell_length_c   3.86563700
_cell_angle_alpha   90.00000000
_cell_angle_beta   90.00000000
_cell_angle_gamma   119.99999281
_symmetry_Int_Tables_number   1
_chemical_formula_structural   PrNdCo3P7Ru9
_chemical_formula_sum   'Pr1 Nd1 Co3 P7 Ru9'
_cell_volume   295.33079337
_cell_formula_units_Z   1
loop_
 _symmetry_equiv_pos_site_id
 _symmetry_equiv_pos_as_xyz
  1  'x, y, z'
loop_
 _atom_site_type_symbol
 _atom_site_label
 _atom_site_symmetry_multiplicity
 _atom_site_fract_x
 _atom_site_fract_y
 _atom_site_fract_z
 _atom_site_occupancy
  Pr  Pr0  1  0.000000  0.000000  0.000000  1
  Nd  Nd1  1  0.333333  0.666667  0.500000  1
  Co  Co2  1  0.822755  0.599830  0.000000  1
  Co  Co3  1  0.400170  0.222925  0.000000  1
  Co  Co4  1  0.777075  0.177245  0.000000  1
  P  P5  1  0.777643  0.730838  0.500000  1
  P  P6  1  0.269162  0.046806  0.500000  1
  P  P7  1  0.953194  0.222357  0.500000  1
  P  P8  1  0.666667  0.333333  0.000000  1
  P  P9  1  0.074414  0.634663  0.000000  1
  P  P10  1  0.365337  0.439751  0.000000  1
  P  P11  1  0.560249  0.925586  0.000000  1
  Ru  Ru12  1  0.089777  0.392791  0.000000  1
  Ru  Ru13  1  0.607209  0.696985  0.000000  1
  Ru  Ru14  1  0.303015  0.910223  0.000000  1
  Ru  Ru15  1  0.047489  0.764832  0.500000  1
  Ru  Ru16  1  0.235168  0.282655  0.500000  1
  Ru  Ru17  1  0.717345  0.952511  0.500000  1
  Ru  Ru18  1  0.871758  0.418236  0.500000  1
  Ru  Ru19  1  0.581764  0.453523  0.500000  1
  Ru  Ru20  1  0.546477  0.128242  0.500000  1
