# generated using pymatgen
data_FeN5O14
_symmetry_space_group_name_H-M   'P 1'
_cell_length_a   7.37816770
_cell_length_b   7.37814914
_cell_length_c   9.29843514
_cell_angle_alpha   52.44650766
_cell_angle_beta   52.44658227
_cell_angle_gamma   50.33299476
_symmetry_Int_Tables_number   1
_chemical_formula_structural   FeN5O14
_chemical_formula_sum   'Fe1 N5 O14'
_cell_volume   288.04443362
_cell_formula_units_Z   1
loop_
 _symmetry_equiv_pos_site_id
 _symmetry_equiv_pos_as_xyz
  1  'x, y, z'
loop_
 _atom_site_type_symbol
 _atom_site_label
 _atom_site_symmetry_multiplicity
 _atom_site_fract_x
 _atom_site_fract_y
 _atom_site_fract_z
 _atom_site_occupancy
  Fe  Fe0  1  0.015317  0.984684  0.000000  1
  N  N1  1  0.873225  0.455991  0.685233  1
  N  N2  1  0.544010  0.126774  0.314767  1
  N  N3  1  0.145360  0.593457  0.967712  1
  N  N4  1  0.406544  0.854640  0.032287  1
  N  N5  1  0.151397  0.848600  0.500001  1
  O  O6  1  0.988053  0.327315  0.809714  1
  O  O7  1  0.672686  0.011947  0.190285  1
  O  O8  1  0.749713  0.373790  0.709655  1
  O  O9  1  0.626213  0.250285  0.290345  1
  O  O10  1  0.899909  0.651490  0.553795  1
  O  O11  1  0.348513  0.100089  0.446206  1
  O  O12  1  0.082776  0.824621  0.839851  1
  O  O13  1  0.175381  0.917223  0.160149  1
  O  O14  1  0.131806  0.579065  0.118689  1
  O  O15  1  0.420934  0.868196  0.881310  1
  O  O16  1  0.208698  0.415144  0.941711  1
  O  O17  1  0.584857  0.791299  0.058289  1
  O  O18  1  0.333336  0.666661  0.500002  1
  O  O19  1  0.969470  0.030532  0.500001  1
