# generated using pymatgen
data_Sc4Mn3MoOs4
_symmetry_space_group_name_H-M   'P 1'
_cell_length_a   5.17822014
_cell_length_b   5.04399079
_cell_length_c   8.56675200
_cell_angle_alpha   90.00000000
_cell_angle_beta   90.00000000
_cell_angle_gamma   120.15825620
_symmetry_Int_Tables_number   1
_chemical_formula_structural   Sc4Mn3MoOs4
_chemical_formula_sum   'Sc4 Mn3 Mo1 Os4'
_cell_volume   193.46697553
_cell_formula_units_Z   1
loop_
 _symmetry_equiv_pos_site_id
 _symmetry_equiv_pos_as_xyz
  1  'x, y, z'
loop_
 _atom_site_type_symbol
 _atom_site_label
 _atom_site_symmetry_multiplicity
 _atom_site_fract_x
 _atom_site_fract_y
 _atom_site_fract_z
 _atom_site_occupancy
  Sc  Sc0  1  0.331589  0.666732  0.434467  1
  Sc  Sc1  1  0.667422  0.337271  0.559697  1
  Sc  Sc2  1  0.667422  0.337271  0.940303  1
  Sc  Sc3  1  0.331589  0.666732  0.065533  1
  Mn  Mn4  1  0.172762  0.829278  0.750000  1
  Mn  Mn5  1  0.342676  0.165592  0.250000  1
  Mn  Mn6  1  0.834324  0.657449  0.250000  1
  Mo  Mo7  1  0.171938  0.339452  0.750000  1
  Os  Os8  1  0.656977  0.826770  0.750000  1
  Os  Os9  1  0.999037  0.998375  0.006131  1
  Os  Os10  1  0.825226  0.176705  0.250000  1
  Os  Os11  1  0.999037  0.998375  0.493869  1
