# generated using pymatgen
data_EuZn9Au2
_symmetry_space_group_name_H-M   'P 1'
_cell_length_a   8.45563072
_cell_length_b   8.45563045
_cell_length_c   8.45563076
_cell_angle_alpha   99.81158933
_cell_angle_beta   99.81158513
_cell_angle_gamma   131.23756045
_symmetry_Int_Tables_number   1
_chemical_formula_structural   EuZn9Au2
_chemical_formula_sum   'Eu2 Zn18 Au4'
_cell_volume   414.07409161
_cell_formula_units_Z   2
loop_
 _symmetry_equiv_pos_site_id
 _symmetry_equiv_pos_as_xyz
  1  'x, y, z'
loop_
 _atom_site_type_symbol
 _atom_site_label
 _atom_site_symmetry_multiplicity
 _atom_site_fract_x
 _atom_site_fract_y
 _atom_site_fract_z
 _atom_site_occupancy
  Eu  Eu0  1  0.000000  0.000000  0.000000  1
  Eu  Eu1  1  0.250000  0.750000  0.500000  1
  Zn  Zn2  1  0.754944  0.168961  0.828152  1
  Zn  Zn3  1  0.073208  0.245056  0.414017  1
  Zn  Zn4  1  0.340809  0.168961  0.414017  1
  Zn  Zn5  1  0.073208  0.659191  0.828152  1
  Zn  Zn6  1  0.909191  0.581039  0.085983  1
  Zn  Zn7  1  0.340809  0.926792  0.171848  1
  Zn  Zn8  1  0.750000  0.250000  0.500000  1
  Zn  Zn9  1  0.909191  0.823208  0.328152  1
  Zn  Zn10  1  0.500000  0.500000  0.000000  1
  Zn  Zn11  1  0.418961  0.090809  0.914017  1
  Zn  Zn12  1  0.495056  0.581039  0.671848  1
  Zn  Zn13  1  0.176792  0.090809  0.671848  1
  Zn  Zn14  1  0.754944  0.926792  0.585983  1
  Zn  Zn15  1  0.831039  0.659191  0.585983  1
  Zn  Zn16  1  0.418961  0.504944  0.328152  1
  Zn  Zn17  1  0.495056  0.823208  0.914017  1
  Zn  Zn18  1  0.176792  0.504944  0.085983  1
  Zn  Zn19  1  0.831039  0.245056  0.171848  1
  Au  Au20  1  0.625000  0.875000  0.250000  1
  Au  Au21  1  0.625000  0.375000  0.250000  1
  Au  Au22  1  0.125000  0.375000  0.750000  1
  Au  Au23  1  0.625000  0.375000  0.750000  1
