# generated using pymatgen
data_Pr2Y3Er(IrO7)2
_symmetry_space_group_name_H-M   'P 1'
_cell_length_a   6.47928261
_cell_length_b   6.48004884
_cell_length_c   7.51769300
_cell_angle_alpha   90.00000000
_cell_angle_beta   90.00000000
_cell_angle_gamma   109.82630908
_symmetry_Int_Tables_number   1
_chemical_formula_structural   Pr2Y3Er(IrO7)2
_chemical_formula_sum   'Pr2 Y3 Er1 Ir2 O14'
_cell_volume   296.92894379
_cell_formula_units_Z   1
loop_
 _symmetry_equiv_pos_site_id
 _symmetry_equiv_pos_as_xyz
  1  'x, y, z'
loop_
 _atom_site_type_symbol
 _atom_site_label
 _atom_site_symmetry_multiplicity
 _atom_site_fract_x
 _atom_site_fract_y
 _atom_site_fract_z
 _atom_site_occupancy
  Pr  Pr0  1  0.999349  0.998949  0.999202  1
  Pr  Pr1  1  0.999349  0.998949  0.500798  1
  Y  Y2  1  0.515537  0.061228  0.250000  1
  Y  Y3  1  0.937756  0.484912  0.750000  1
  Y  Y4  1  0.062200  0.515185  0.250000  1
  Er  Er5  1  0.486238  0.938487  0.750000  1
  Ir  Ir6  1  0.499329  0.499222  0.999049  1
  Ir  Ir7  1  0.499329  0.499222  0.500951  1
  O  O8  1  0.589876  0.594811  0.750000  1
  O  O9  1  0.412521  0.413160  0.250000  1
  O  O10  1  0.837621  0.120689  0.750000  1
  O  O11  1  0.160004  0.878971  0.250000  1
  O  O12  1  0.125226  0.840117  0.750000  1
  O  O13  1  0.878512  0.159256  0.250000  1
  O  O14  1  0.440388  0.180309  0.964293  1
  O  O15  1  0.559112  0.819591  0.469142  1
  O  O16  1  0.179960  0.437303  0.966389  1
  O  O17  1  0.819117  0.561218  0.466831  1
  O  O18  1  0.440388  0.180309  0.535707  1
  O  O19  1  0.559112  0.819591  0.030858  1
  O  O20  1  0.819117  0.561218  0.033169  1
  O  O21  1  0.179960  0.437303  0.533611  1
