# generated using pymatgen
data_V12FeIrPt2
_symmetry_space_group_name_H-M   'P 1'
_cell_length_a   4.77238200
_cell_length_b   4.77190500
_cell_length_c   9.53296700
_cell_angle_alpha   90.00000000
_cell_angle_beta   90.00000000
_cell_angle_gamma   90.00000000
_symmetry_Int_Tables_number   1
_chemical_formula_structural   V12FeIrPt2
_chemical_formula_sum   'V12 Fe1 Ir1 Pt2'
_cell_volume   217.09762766
_cell_formula_units_Z   1
loop_
 _symmetry_equiv_pos_site_id
 _symmetry_equiv_pos_as_xyz
  1  'x, y, z'
loop_
 _atom_site_type_symbol
 _atom_site_label
 _atom_site_symmetry_multiplicity
 _atom_site_fract_x
 _atom_site_fract_y
 _atom_site_fract_z
 _atom_site_occupancy
  V  V0  1  0.500000  0.000000  0.621230  1
  V  V1  1  0.500000  0.000000  0.126602  1
  V  V2  1  0.747117  0.500000  0.257396  1
  V  V3  1  0.744440  0.500000  0.741919  1
  V  V4  1  0.000000  0.745149  0.498248  1
  V  V5  1  0.000000  0.751204  0.002197  1
  V  V6  1  0.500000  0.000000  0.378037  1
  V  V7  1  0.500000  0.000000  0.874189  1
  V  V8  1  0.252883  0.500000  0.257396  1
  V  V9  1  0.255560  0.500000  0.741919  1
  V  V10  1  0.000000  0.254851  0.498248  1
  V  V11  1  0.000000  0.248796  0.002197  1
  Fe  Fe12  1  0.500000  0.500000  0.500750  1
  Ir  Ir13  1  0.000000  0.000000  0.250514  1
  Pt  Pt14  1  0.500000  0.500000  0.999786  1
  Pt  Pt15  1  0.000000  0.000000  0.749373  1
