# generated using pymatgen
data_Pr2Ga5PdRu2
_symmetry_space_group_name_H-M   'P 1'
_cell_length_a   8.73086046
_cell_length_b   8.73912705
_cell_length_c   8.73864400
_cell_angle_alpha   141.19897998
_cell_angle_beta   107.97593900
_cell_angle_gamma   84.96161064
_symmetry_Int_Tables_number   1
_chemical_formula_structural   Pr2Ga5PdRu2
_chemical_formula_sum   'Pr4 Ga10 Pd2 Ru4'
_cell_volume   384.14682393
_cell_formula_units_Z   2
loop_
 _symmetry_equiv_pos_site_id
 _symmetry_equiv_pos_as_xyz
  1  'x, y, z'
loop_
 _atom_site_type_symbol
 _atom_site_label
 _atom_site_symmetry_multiplicity
 _atom_site_fract_x
 _atom_site_fract_y
 _atom_site_fract_z
 _atom_site_occupancy
  Pr  Pr0  1  0.861840  0.632962  0.228880  1
  Pr  Pr1  1  0.138160  0.367038  0.771120  1
  Pr  Pr2  1  0.593543  0.864347  0.729224  1
  Pr  Pr3  1  0.406457  0.135653  0.270776  1
  Ga  Ga4  1  0.500009  0.742208  0.242215  1
  Ga  Ga5  1  0.499991  0.257792  0.757785  1
  Ga  Ga6  1  0.208277  0.959415  0.757528  1
  Ga  Ga7  1  0.791751  0.549244  0.751136  1
  Ga  Ga8  1  0.791723  0.040585  0.242472  1
  Ga  Ga9  1  0.208249  0.450756  0.248864  1
  Ga  Ga10  1  0.075876  0.908983  0.166881  1
  Ga  Ga11  1  0.924124  0.091017  0.833119  1
  Ga  Ga12  1  0.268664  0.594106  0.674556  1
  Ga  Ga13  1  0.731336  0.405894  0.325444  1
  Pd  Pd14  1  0.258806  0.852765  0.406030  1
  Pd  Pd15  1  0.741194  0.147235  0.593970  1
  Ru  Ru16  1  0.558414  0.647408  0.910997  1
  Ru  Ru17  1  0.441586  0.352592  0.089003  1
  Ru  Ru18  1  0.000000  0.745985  0.745971  1
  Ru  Ru19  1  0.000000  0.254015  0.254029  1
