# generated using pymatgen
data_Yb3Tm4Sn23Ir6
_symmetry_space_group_name_H-M   'P 1'
_cell_length_a   9.85012599
_cell_length_b   9.85992274
_cell_length_c   10.12127700
_cell_angle_alpha   90.00000000
_cell_angle_beta   89.95538548
_cell_angle_gamma   120.03290519
_symmetry_Int_Tables_number   1
_chemical_formula_structural   Yb3Tm4Sn23Ir6
_chemical_formula_sum   'Yb3 Tm4 Sn23 Ir6'
_cell_volume   851.01451480
_cell_formula_units_Z   1
loop_
 _symmetry_equiv_pos_site_id
 _symmetry_equiv_pos_as_xyz
  1  'x, y, z'
loop_
 _atom_site_type_symbol
 _atom_site_label
 _atom_site_symmetry_multiplicity
 _atom_site_fract_x
 _atom_site_fract_y
 _atom_site_fract_z
 _atom_site_occupancy
  Yb  Yb0  1  0.000000  0.000000  0.000000  1
  Yb  Yb1  1  0.036569  0.518284  0.302487  1
  Yb  Yb2  1  0.963431  0.481716  0.697513  1
  Tm  Tm3  1  0.484494  0.516480  0.303401  1
  Tm  Tm4  1  0.515506  0.483520  0.696599  1
  Tm  Tm5  1  0.484494  0.968013  0.303401  1
  Tm  Tm6  1  0.515506  0.031987  0.696599  1
  Sn  Sn7  1  0.352125  0.001171  0.001092  1
  Sn  Sn8  1  0.647875  0.998829  0.998908  1
  Sn  Sn9  1  0.000000  0.350049  0.000000  1
  Sn  Sn10  1  0.000000  0.649951  0.000000  1
  Sn  Sn11  1  0.647875  0.649046  0.998908  1
  Sn  Sn12  1  0.352125  0.350954  0.001092  1
  Sn  Sn13  1  0.331129  0.665565  0.825821  1
  Sn  Sn14  1  0.668871  0.334435  0.174179  1
  Sn  Sn15  1  0.000000  0.000000  0.500000  1
  Sn  Sn16  1  0.777236  0.224307  0.458918  1
  Sn  Sn17  1  0.222764  0.775693  0.541082  1
  Sn  Sn18  1  0.777236  0.552928  0.458918  1
  Sn  Sn19  1  0.222764  0.447072  0.541082  1
  Sn  Sn20  1  0.448005  0.224002  0.460342  1
  Sn  Sn21  1  0.551995  0.775998  0.539658  1
  Sn  Sn22  1  0.338319  0.669160  0.126011  1
  Sn  Sn23  1  0.661681  0.330840  0.873989  1
  Sn  Sn24  1  0.117349  0.882004  0.284138  1
  Sn  Sn25  1  0.882651  0.117996  0.715862  1
  Sn  Sn26  1  0.117349  0.235347  0.284138  1
  Sn  Sn27  1  0.882651  0.764653  0.715862  1
  Sn  Sn28  1  0.763343  0.881672  0.285624  1
  Sn  Sn29  1  0.236657  0.118328  0.714376  1
  Ir  Ir30  1  0.827013  0.166906  0.200998  1
  Ir  Ir31  1  0.172987  0.833094  0.799002  1
  Ir  Ir32  1  0.827013  0.660106  0.200998  1
  Ir  Ir33  1  0.172987  0.339894  0.799002  1
  Ir  Ir34  1  0.343011  0.171506  0.203383  1
  Ir  Ir35  1  0.656989  0.828494  0.796617  1
