# generated using pymatgen
data_Tm6Fe4Si5Ge
_symmetry_space_group_name_H-M   'P 1'
_cell_length_a   5.57314198
_cell_length_b   5.57314236
_cell_length_c   13.49182300
_cell_angle_alpha   90.00000000
_cell_angle_beta   90.00000000
_cell_angle_gamma   137.29690552
_symmetry_Int_Tables_number   1
_chemical_formula_structural   Tm6Fe4Si5Ge
_chemical_formula_sum   'Tm6 Fe4 Si5 Ge1'
_cell_volume   284.20273638
_cell_formula_units_Z   1
loop_
 _symmetry_equiv_pos_site_id
 _symmetry_equiv_pos_as_xyz
  1  'x, y, z'
loop_
 _atom_site_type_symbol
 _atom_site_label
 _atom_site_symmetry_multiplicity
 _atom_site_fract_x
 _atom_site_fract_y
 _atom_site_fract_z
 _atom_site_occupancy
  Tm  Tm0  1  0.637254  0.362746  0.250000  1
  Tm  Tm1  1  0.362581  0.637419  0.750000  1
  Tm  Tm2  1  0.920846  0.079154  0.110296  1
  Tm  Tm3  1  0.079898  0.920102  0.887892  1
  Tm  Tm4  1  0.079898  0.920102  0.612108  1
  Tm  Tm5  1  0.920846  0.079154  0.389704  1
  Fe  Fe6  1  0.785343  0.214657  0.581315  1
  Fe  Fe7  1  0.212829  0.787171  0.421060  1
  Fe  Fe8  1  0.212829  0.787171  0.078940  1
  Fe  Fe9  1  0.785343  0.214657  0.918685  1
  Si  Si10  1  0.673002  0.326998  0.750000  1
  Si  Si11  1  0.623292  0.376708  0.039382  1
  Si  Si12  1  0.376118  0.623882  0.960099  1
  Si  Si13  1  0.376118  0.623882  0.539901  1
  Si  Si14  1  0.623292  0.376708  0.460618  1
  Ge  Ge15  1  0.330511  0.669489  0.250000  1
