# generated using pymatgen
data_SrBi3RuPt3O14
_symmetry_space_group_name_H-M   'P 1'
_cell_length_a   7.38613200
_cell_length_b   7.38613292
_cell_length_c   7.40029132
_cell_angle_alpha   60.63969721
_cell_angle_beta   60.63969465
_cell_angle_gamma   60.67088748
_symmetry_Int_Tables_number   1
_chemical_formula_structural   SrBi3RuPt3O14
_chemical_formula_sum   'Sr1 Bi3 Ru1 Pt3 O14'
_cell_volume   289.66496707
_cell_formula_units_Z   1
loop_
 _symmetry_equiv_pos_site_id
 _symmetry_equiv_pos_as_xyz
  1  'x, y, z'
loop_
 _atom_site_type_symbol
 _atom_site_label
 _atom_site_symmetry_multiplicity
 _atom_site_fract_x
 _atom_site_fract_y
 _atom_site_fract_z
 _atom_site_occupancy
  Sr  Sr0  1  0.125000  0.125000  0.125000  1
  Bi  Bi1  1  0.125000  0.125000  0.625000  1
  Bi  Bi2  1  0.125000  0.625000  0.125000  1
  Bi  Bi3  1  0.625000  0.125000  0.125000  1
  Ru  Ru4  1  0.625000  0.625000  0.125000  1
  Pt  Pt5  1  0.625000  0.125000  0.625000  1
  Pt  Pt6  1  0.125000  0.625000  0.625000  1
  Pt  Pt7  1  0.625000  0.625000  0.625000  1
  O  O8  1  0.257097  0.257097  0.252603  1
  O  O9  1  0.992903  0.992903  0.997397  1
  O  O10  1  0.544163  0.955640  0.540949  1
  O  O11  1  0.300997  0.695070  0.293932  1
  O  O12  1  0.546458  0.546458  0.954437  1
  O  O13  1  0.955640  0.544163  0.540949  1
  O  O14  1  0.554930  0.949003  0.956068  1
  O  O15  1  0.957629  0.957629  0.546547  1
  O  O16  1  0.949003  0.554930  0.956068  1
  O  O17  1  0.695070  0.300997  0.293932  1
  O  O18  1  0.294360  0.705837  0.709051  1
  O  O19  1  0.705837  0.294360  0.709051  1
  O  O20  1  0.292371  0.292371  0.703453  1
  O  O21  1  0.703542  0.703542  0.295563  1
