# generated using pymatgen
data_Tb2Er2ReOsC4
_symmetry_space_group_name_H-M   'P 1'
_cell_length_a   5.10753600
_cell_length_b   6.54093900
_cell_length_c   9.79296300
_cell_angle_alpha   90.00000000
_cell_angle_beta   90.00000000
_cell_angle_gamma   90.00000000
_symmetry_Int_Tables_number   1
_chemical_formula_structural   Tb2Er2ReOsC4
_chemical_formula_sum   'Tb4 Er4 Re2 Os2 C8'
_cell_volume   327.16410521
_cell_formula_units_Z   2
loop_
 _symmetry_equiv_pos_site_id
 _symmetry_equiv_pos_as_xyz
  1  'x, y, z'
loop_
 _atom_site_type_symbol
 _atom_site_label
 _atom_site_symmetry_multiplicity
 _atom_site_fract_x
 _atom_site_fract_y
 _atom_site_fract_z
 _atom_site_occupancy
  Tb  Tb0  1  0.750000  0.468633  0.785972  1
  Tb  Tb1  1  0.250000  0.031367  0.285972  1
  Tb  Tb2  1  0.750000  0.970561  0.713078  1
  Tb  Tb3  1  0.250000  0.529439  0.213078  1
  Er  Er4  1  0.750000  0.823808  0.055281  1
  Er  Er5  1  0.250000  0.676192  0.555281  1
  Er  Er6  1  0.750000  0.321144  0.443810  1
  Er  Er7  1  0.250000  0.178856  0.943810  1
  Re  Re8  1  0.750000  0.775506  0.364839  1
  Re  Re9  1  0.250000  0.724494  0.864839  1
  Os  Os10  1  0.750000  0.275334  0.134807  1
  Os  Os11  1  0.250000  0.224666  0.634807  1
  C  C12  1  0.750000  0.173852  0.950022  1
  C  C13  1  0.250000  0.825581  0.051022  1
  C  C14  1  0.750000  0.674419  0.551022  1
  C  C15  1  0.250000  0.326148  0.450022  1
  C  C16  1  0.750000  0.042893  0.260346  1
  C  C17  1  0.250000  0.457107  0.760346  1
  C  C18  1  0.750000  0.542079  0.240823  1
  C  C19  1  0.250000  0.957921  0.740823  1
