# generated using pymatgen
data_V(WSe3)2
_symmetry_space_group_name_H-M   'P 1'
_cell_length_a   3.33060700
_cell_length_b   3.33060701
_cell_length_c   31.98991800
_cell_angle_alpha   90.00000000
_cell_angle_beta   90.00000000
_cell_angle_gamma   120.00000979
_symmetry_Int_Tables_number   1
_chemical_formula_structural   V(WSe3)2
_chemical_formula_sum   'V1 W2 Se6'
_cell_volume   307.31976934
_cell_formula_units_Z   1
loop_
 _symmetry_equiv_pos_site_id
 _symmetry_equiv_pos_as_xyz
  1  'x, y, z'
loop_
 _atom_site_type_symbol
 _atom_site_label
 _atom_site_symmetry_multiplicity
 _atom_site_fract_x
 _atom_site_fract_y
 _atom_site_fract_z
 _atom_site_occupancy
  V  V0  1  0.666667  0.333333  0.000000  1
  W  W1  1  0.333333  0.666667  0.768973  1
  W  W2  1  0.333333  0.666667  0.231027  1
  Se  Se3  1  0.333333  0.666667  0.050131  1
  Se  Se4  1  0.666667  0.333333  0.821448  1
  Se  Se5  1  0.666667  0.333333  0.283492  1
  Se  Se6  1  0.333333  0.666667  0.949869  1
  Se  Se7  1  0.666667  0.333333  0.716508  1
  Se  Se8  1  0.666667  0.333333  0.178552  1
