# generated using pymatgen
data_Yb4URu7
_symmetry_space_group_name_H-M   'P 1'
_cell_length_a   5.57584971
_cell_length_b   5.22489457
_cell_length_c   8.87763700
_cell_angle_alpha   90.00000000
_cell_angle_beta   90.00000000
_cell_angle_gamma   122.30115655
_symmetry_Int_Tables_number   1
_chemical_formula_structural   Yb4URu7
_chemical_formula_sum   'Yb4 U1 Ru7'
_cell_volume   218.61083921
_cell_formula_units_Z   1
loop_
 _symmetry_equiv_pos_site_id
 _symmetry_equiv_pos_as_xyz
  1  'x, y, z'
loop_
 _atom_site_type_symbol
 _atom_site_label
 _atom_site_symmetry_multiplicity
 _atom_site_fract_x
 _atom_site_fract_y
 _atom_site_fract_z
 _atom_site_occupancy
  Yb  Yb0  1  0.670973  0.342064  0.549441  1
  Yb  Yb1  1  0.344394  0.688722  0.426581  1
  Yb  Yb2  1  0.344394  0.688722  0.073419  1
  Yb  Yb3  1  0.670973  0.342064  0.950559  1
  U  U4  1  0.142669  0.284984  0.750000  1
  Ru  Ru5  1  0.011783  0.022951  0.504025  1
  Ru  Ru6  1  0.011783  0.022951  0.995975  1
  Ru  Ru7  1  0.158619  0.780901  0.750000  1
  Ru  Ru8  1  0.622157  0.781272  0.750000  1
  Ru  Ru9  1  0.832523  0.664847  0.250000  1
  Ru  Ru10  1  0.846578  0.190141  0.250000  1
  Ru  Ru11  1  0.343155  0.190383  0.250000  1
