# generated using pymatgen
data_Gd2Dy3(OsO6)2
_symmetry_space_group_name_H-M   'P 1'
_cell_length_a   6.91670279
_cell_length_b   6.91670262
_cell_length_c   7.54104680
_cell_angle_alpha   74.12225770
_cell_angle_beta   74.12225848
_cell_angle_gamma   48.48276648
_symmetry_Int_Tables_number   1
_chemical_formula_structural   Gd2Dy3(OsO6)2
_chemical_formula_sum   'Gd2 Dy3 Os2 O12'
_cell_volume   257.68257483
_cell_formula_units_Z   1
loop_
 _symmetry_equiv_pos_site_id
 _symmetry_equiv_pos_as_xyz
  1  'x, y, z'
loop_
 _atom_site_type_symbol
 _atom_site_label
 _atom_site_symmetry_multiplicity
 _atom_site_fract_x
 _atom_site_fract_y
 _atom_site_fract_z
 _atom_site_occupancy
  Gd  Gd0  1  0.302147  0.302147  0.356829  1
  Gd  Gd1  1  0.697853  0.697853  0.643171  1
  Dy  Dy2  1  0.311798  0.311798  0.830337  1
  Dy  Dy3  1  0.688202  0.688202  0.169663  1
  Dy  Dy4  1  0.000000  0.000000  0.500000  1
  Os  Os5  1  0.781293  0.218707  0.000000  1
  Os  Os6  1  0.218707  0.781293  0.000000  1
  O  O7  1  0.914855  0.416243  0.917420  1
  O  O8  1  0.416243  0.914855  0.917420  1
  O  O9  1  0.085145  0.583757  0.082580  1
  O  O10  1  0.583757  0.085145  0.082580  1
  O  O11  1  0.099917  0.596744  0.575518  1
  O  O12  1  0.596744  0.099917  0.575518  1
  O  O13  1  0.900083  0.403256  0.424482  1
  O  O14  1  0.403256  0.900083  0.424482  1
  O  O15  1  0.999617  0.999617  0.796774  1
  O  O16  1  0.000383  0.000383  0.203226  1
  O  O17  1  0.499687  0.499687  0.828587  1
  O  O18  1  0.500313  0.500313  0.171413  1
