# generated using pymatgen
data_LaTm2IrO7
_symmetry_space_group_name_H-M   'P 1'
_cell_length_a   6.43679741
_cell_length_b   6.43679703
_cell_length_c   7.47562000
_cell_angle_alpha   90.00000000
_cell_angle_beta   90.00000000
_cell_angle_gamma   109.34844876
_symmetry_Int_Tables_number   1
_chemical_formula_structural   LaTm2IrO7
_chemical_formula_sum   'La2 Tm4 Ir2 O14'
_cell_volume   292.23922352
_cell_formula_units_Z   2
loop_
 _symmetry_equiv_pos_site_id
 _symmetry_equiv_pos_as_xyz
  1  'x, y, z'
loop_
 _atom_site_type_symbol
 _atom_site_label
 _atom_site_symmetry_multiplicity
 _atom_site_fract_x
 _atom_site_fract_y
 _atom_site_fract_z
 _atom_site_occupancy
  La  La0  1  0.000000  0.000000  0.500000  1
  La  La1  1  0.000000  0.000000  0.000000  1
  Tm  Tm2  1  0.514272  0.060028  0.250000  1
  Tm  Tm3  1  0.939972  0.485728  0.750000  1
  Tm  Tm4  1  0.485728  0.939972  0.750000  1
  Tm  Tm5  1  0.060028  0.514272  0.250000  1
  Ir  Ir6  1  0.500000  0.500000  0.500000  1
  Ir  Ir7  1  0.500000  0.500000  0.000000  1
  O  O8  1  0.442989  0.179120  0.534316  1
  O  O9  1  0.820880  0.557011  0.465684  1
  O  O10  1  0.442989  0.179120  0.965684  1
  O  O11  1  0.820880  0.557011  0.034316  1
  O  O12  1  0.557011  0.820880  0.465684  1
  O  O13  1  0.179120  0.442989  0.534316  1
  O  O14  1  0.557011  0.820880  0.034316  1
  O  O15  1  0.179120  0.442989  0.965684  1
  O  O16  1  0.163764  0.875204  0.250000  1
  O  O17  1  0.124796  0.836236  0.750000  1
  O  O18  1  0.836236  0.124796  0.750000  1
  O  O19  1  0.875204  0.163764  0.250000  1
  O  O20  1  0.405790  0.405790  0.250000  1
  O  O21  1  0.594210  0.594210  0.750000  1
