# generated using pymatgen
data_Sm5NiIrO12
_symmetry_space_group_name_H-M   'P 1'
_cell_length_a   6.94307802
_cell_length_b   6.94307752
_cell_length_c   7.47245000
_cell_angle_alpha   74.41697357
_cell_angle_beta   74.41698328
_cell_angle_gamma   51.03548337
_symmetry_Int_Tables_number   1
_chemical_formula_structural   Sm5NiIrO12
_chemical_formula_sum   'Sm5 Ni1 Ir1 O12'
_cell_volume   267.38672092
_cell_formula_units_Z   1
loop_
 _symmetry_equiv_pos_site_id
 _symmetry_equiv_pos_as_xyz
  1  'x, y, z'
loop_
 _atom_site_type_symbol
 _atom_site_label
 _atom_site_symmetry_multiplicity
 _atom_site_fract_x
 _atom_site_fract_y
 _atom_site_fract_z
 _atom_site_occupancy
  Sm  Sm0  1  0.315781  0.294070  0.357848  1
  Sm  Sm1  1  0.705930  0.684219  0.642152  1
  Sm  Sm2  1  0.694559  0.690467  0.166923  1
  Sm  Sm3  1  0.309533  0.305441  0.833077  1
  Sm  Sm4  1  0.006736  0.993264  0.500000  1
  Ni  Ni5  1  0.746821  0.253179  0.000000  1
  Ir  Ir6  1  0.236325  0.763675  0.000000  1
  O  O7  1  0.101871  0.592676  0.574947  1
  O  O8  1  0.005269  0.993185  0.178734  1
  O  O9  1  0.407324  0.898129  0.425053  1
  O  O10  1  0.479162  0.521344  0.179943  1
  O  O11  1  0.098167  0.578824  0.080858  1
  O  O12  1  0.909686  0.398205  0.422201  1
  O  O13  1  0.006815  0.994731  0.821266  1
  O  O14  1  0.601795  0.090313  0.577799  1
  O  O15  1  0.478656  0.520838  0.820057  1
  O  O16  1  0.576393  0.101998  0.079055  1
  O  O17  1  0.421176  0.901833  0.919142  1
  O  O18  1  0.898002  0.423607  0.920945  1
