# generated using pymatgen
data_Cs6NdHoI12
_symmetry_space_group_name_H-M   'P 1'
_cell_length_a   10.74683704
_cell_length_b   10.75939614
_cell_length_c   8.84325800
_cell_angle_alpha   90.00000000
_cell_angle_beta   90.00000000
_cell_angle_gamma   89.96542605
_symmetry_Int_Tables_number   1
_chemical_formula_structural   Cs6NdHoI12
_chemical_formula_sum   'Cs6 Nd1 Ho1 I12'
_cell_volume   1022.54111162
_cell_formula_units_Z   1
loop_
 _symmetry_equiv_pos_site_id
 _symmetry_equiv_pos_as_xyz
  1  'x, y, z'
loop_
 _atom_site_type_symbol
 _atom_site_label
 _atom_site_symmetry_multiplicity
 _atom_site_fract_x
 _atom_site_fract_y
 _atom_site_fract_z
 _atom_site_occupancy
  Cs  Cs0  1  0.000000  0.000000  0.500000  1
  Cs  Cs1  1  0.000000  0.000000  0.000000  1
  Cs  Cs2  1  0.235416  0.586368  0.500000  1
  Cs  Cs3  1  0.764584  0.413632  0.500000  1
  Cs  Cs4  1  0.413519  0.231261  0.000000  1
  Cs  Cs5  1  0.586481  0.768739  0.000000  1
  Nd  Nd6  1  0.000000  0.500000  0.000000  1
  Ho  Ho7  1  0.500000  0.000000  0.500000  1
  I  I8  1  0.693291  0.057913  0.742552  1
  I  I9  1  0.306709  0.942087  0.742552  1
  I  I10  1  0.940234  0.698637  0.248560  1
  I  I11  1  0.059766  0.301363  0.248560  1
  I  I12  1  0.306709  0.942087  0.257448  1
  I  I13  1  0.693291  0.057913  0.257448  1
  I  I14  1  0.059766  0.301363  0.751440  1
  I  I15  1  0.940234  0.698637  0.751440  1
  I  I16  1  0.570036  0.726760  0.500000  1
  I  I17  1  0.429964  0.273240  0.500000  1
  I  I18  1  0.281538  0.570521  0.000000  1
  I  I19  1  0.718462  0.429479  0.000000  1
