# generated using pymatgen
data_FeCoPt7
_symmetry_space_group_name_H-M   'P 1'
_cell_length_a   6.19329115
_cell_length_b   6.19329202
_cell_length_c   6.17052345
_cell_angle_alpha   95.72889147
_cell_angle_beta   95.72889268
_cell_angle_gamma   143.23439926
_symmetry_Int_Tables_number   1
_chemical_formula_structural   FeCoPt7
_chemical_formula_sum   'Fe1 Co1 Pt7'
_cell_volume   134.38032620
_cell_formula_units_Z   1
loop_
 _symmetry_equiv_pos_site_id
 _symmetry_equiv_pos_as_xyz
  1  'x, y, z'
loop_
 _atom_site_type_symbol
 _atom_site_label
 _atom_site_symmetry_multiplicity
 _atom_site_fract_x
 _atom_site_fract_y
 _atom_site_fract_z
 _atom_site_occupancy
  Fe  Fe0  1  0.002934  0.997066  0.000000  1
  Co  Co1  1  0.661629  0.338371  0.000000  1
  Pt  Pt2  1  0.334701  0.665299  0.000000  1
  Pt  Pt3  1  0.662238  0.656467  0.318705  1
  Pt  Pt4  1  0.322875  0.993862  0.316736  1
  Pt  Pt5  1  0.996931  0.330980  0.327911  1
  Pt  Pt6  1  0.669020  0.003069  0.672089  1
  Pt  Pt7  1  0.006138  0.677125  0.683264  1
  Pt  Pt8  1  0.343533  0.337762  0.681294  1
