# generated using pymatgen
data_Zr4TaNb3Si4
_symmetry_space_group_name_H-M   'P 1'
_cell_length_a   3.65361800
_cell_length_b   7.01736937
_cell_length_c   8.52169519
_cell_angle_alpha   89.84813560
_cell_angle_beta   90.00000000
_cell_angle_gamma   90.00000000
_symmetry_Int_Tables_number   1
_chemical_formula_structural   Zr4TaNb3Si4
_chemical_formula_sum   'Zr4 Ta1 Nb3 Si4'
_cell_volume   218.48516082
_cell_formula_units_Z   1
loop_
 _symmetry_equiv_pos_site_id
 _symmetry_equiv_pos_as_xyz
  1  'x, y, z'
loop_
 _atom_site_type_symbol
 _atom_site_label
 _atom_site_symmetry_multiplicity
 _atom_site_fract_x
 _atom_site_fract_y
 _atom_site_fract_z
 _atom_site_occupancy
  Zr  Zr0  1  0.250000  0.043927  0.333369  1
  Zr  Zr1  1  0.250000  0.544620  0.167374  1
  Zr  Zr2  1  0.750000  0.955107  0.666428  1
  Zr  Zr3  1  0.750000  0.454599  0.832020  1
  Ta  Ta4  1  0.750000  0.368296  0.440516  1
  Nb  Nb5  1  0.250000  0.132776  0.941471  1
  Nb  Nb6  1  0.250000  0.632529  0.559531  1
  Nb  Nb7  1  0.750000  0.869380  0.058847  1
  Si  Si8  1  0.250000  0.251985  0.638788  1
  Si  Si9  1  0.250000  0.752696  0.860422  1
  Si  Si10  1  0.750000  0.746311  0.360042  1
  Si  Si11  1  0.750000  0.247773  0.141193  1
