# generated using pymatgen
data_La3NdSb10
_symmetry_space_group_name_H-M   'P 1'
_cell_length_a   4.33386400
_cell_length_b   13.71818482
_cell_length_c   15.46139537
_cell_angle_alpha   77.91994373
_cell_angle_beta   90.00000000
_cell_angle_gamma   90.00000000
_symmetry_Int_Tables_number   1
_chemical_formula_structural   La3NdSb10
_chemical_formula_sum   'La6 Nd2 Sb20'
_cell_volume   898.86730169
_cell_formula_units_Z   2
loop_
 _symmetry_equiv_pos_site_id
 _symmetry_equiv_pos_as_xyz
  1  'x, y, z'
loop_
 _atom_site_type_symbol
 _atom_site_label
 _atom_site_symmetry_multiplicity
 _atom_site_fract_x
 _atom_site_fract_y
 _atom_site_fract_z
 _atom_site_occupancy
  La  La0  1  0.750000  0.332190  0.143244  1
  La  La1  1  0.250000  0.947319  0.366159  1
  La  La2  1  0.250000  0.667810  0.856756  1
  La  La3  1  0.250000  0.667532  0.577685  1
  La  La4  1  0.750000  0.052681  0.633841  1
  La  La5  1  0.750000  0.332468  0.422315  1
  Nd  Nd6  1  0.250000  0.396998  0.772355  1
  Nd  Nd7  1  0.750000  0.603002  0.227645  1
  Sb  Sb8  1  0.750000  0.856786  0.814835  1
  Sb  Sb9  1  0.250000  0.863272  0.674827  1
  Sb  Sb10  1  0.250000  0.145004  0.474421  1
  Sb  Sb11  1  0.750000  0.288164  0.937051  1
  Sb  Sb12  1  0.250000  0.147127  0.777739  1
  Sb  Sb13  1  0.750000  0.575646  0.441702  1
  Sb  Sb14  1  0.750000  0.136728  0.325173  1
  Sb  Sb15  1  0.250000  0.703118  0.354828  1
  Sb  Sb16  1  0.750000  0.296882  0.645172  1
  Sb  Sb17  1  0.750000  0.852873  0.222261  1
  Sb  Sb18  1  0.250000  0.420276  0.973597  1
  Sb  Sb19  1  0.250000  0.424354  0.558298  1
  Sb  Sb20  1  0.750000  0.576189  0.736893  1
  Sb  Sb21  1  0.250000  0.423811  0.263107  1
  Sb  Sb22  1  0.750000  0.854996  0.525579  1
  Sb  Sb23  1  0.750000  0.036153  0.882403  1
  Sb  Sb24  1  0.250000  0.711836  0.062949  1
  Sb  Sb25  1  0.250000  0.963847  0.117597  1
  Sb  Sb26  1  0.250000  0.143214  0.185165  1
  Sb  Sb27  1  0.750000  0.579724  0.026403  1
