# generated using pymatgen
data_Pr7NdTe8
_symmetry_space_group_name_H-M   'P 1'
_cell_length_a   9.11694591
_cell_length_b   9.11694598
_cell_length_c   9.11694577
_cell_angle_alpha   59.22894824
_cell_angle_beta   59.22894975
_cell_angle_gamma   59.22894573
_symmetry_Int_Tables_number   1
_chemical_formula_structural   Pr7NdTe8
_chemical_formula_sum   'Pr7 Nd1 Te8'
_cell_volume   526.42589486
_cell_formula_units_Z   1
loop_
 _symmetry_equiv_pos_site_id
 _symmetry_equiv_pos_as_xyz
  1  'x, y, z'
loop_
 _atom_site_type_symbol
 _atom_site_label
 _atom_site_symmetry_multiplicity
 _atom_site_fract_x
 _atom_site_fract_y
 _atom_site_fract_z
 _atom_site_occupancy
  Pr  Pr0  1  0.125000  0.625000  0.125000  1
  Pr  Pr1  1  0.125000  0.125000  0.625000  1
  Pr  Pr2  1  0.625000  0.125000  0.125000  1
  Pr  Pr3  1  0.625000  0.125000  0.625000  1
  Pr  Pr4  1  0.625000  0.625000  0.625000  1
  Pr  Pr5  1  0.125000  0.625000  0.625000  1
  Pr  Pr6  1  0.625000  0.625000  0.125000  1
  Nd  Nd7  1  0.125000  0.125000  0.125000  1
  Te  Te8  1  0.374146  0.875916  0.374146  1
  Te  Te9  1  0.875854  0.374084  0.875854  1
  Te  Te10  1  0.875854  0.875854  0.374084  1
  Te  Te11  1  0.875153  0.875153  0.875153  1
  Te  Te12  1  0.875916  0.374146  0.374146  1
  Te  Te13  1  0.374146  0.374146  0.875916  1
  Te  Te14  1  0.374847  0.374847  0.374847  1
  Te  Te15  1  0.374084  0.875854  0.875854  1
