# generated using pymatgen
data_Zr6U(Mn8Si3)2
_symmetry_space_group_name_H-M   'P 1'
_cell_length_a   8.30162239
_cell_length_b   8.30162235
_cell_length_c   8.30162200
_cell_angle_alpha   60.00000139
_cell_angle_beta   60.00000157
_cell_angle_gamma   59.99999397
_symmetry_Int_Tables_number   1
_chemical_formula_structural   Zr6U(Mn8Si3)2
_chemical_formula_sum   'Zr6 U1 Mn16 Si6'
_cell_volume   404.55157373
_cell_formula_units_Z   1
loop_
 _symmetry_equiv_pos_site_id
 _symmetry_equiv_pos_as_xyz
  1  'x, y, z'
loop_
 _atom_site_type_symbol
 _atom_site_label
 _atom_site_symmetry_multiplicity
 _atom_site_fract_x
 _atom_site_fract_y
 _atom_site_fract_z
 _atom_site_occupancy
  Zr  Zr0  1  0.290626  0.709374  0.709374  1
  Zr  Zr1  1  0.709374  0.709374  0.290626  1
  Zr  Zr2  1  0.290626  0.290626  0.709374  1
  Zr  Zr3  1  0.709374  0.290626  0.290626  1
  Zr  Zr4  1  0.709374  0.290626  0.709374  1
  Zr  Zr5  1  0.290626  0.709374  0.290626  1
  U  U6  1  0.000000  0.000000  0.000000  1
  Mn  Mn7  1  0.879557  0.879557  0.879557  1
  Mn  Mn8  1  0.031157  0.322947  0.322947  1
  Mn  Mn9  1  0.120443  0.120443  0.638670  1
  Mn  Mn10  1  0.322947  0.031157  0.322947  1
  Mn  Mn11  1  0.322947  0.322947  0.322947  1
  Mn  Mn12  1  0.677053  0.677053  0.968843  1
  Mn  Mn13  1  0.879557  0.879557  0.361330  1
  Mn  Mn14  1  0.677053  0.677053  0.677053  1
  Mn  Mn15  1  0.677053  0.968843  0.677053  1
  Mn  Mn16  1  0.322947  0.322947  0.031157  1
  Mn  Mn17  1  0.879557  0.361330  0.879557  1
  Mn  Mn18  1  0.638670  0.120443  0.120443  1
  Mn  Mn19  1  0.120443  0.638670  0.120443  1
  Mn  Mn20  1  0.120443  0.120443  0.120443  1
  Mn  Mn21  1  0.968843  0.677053  0.677053  1
  Mn  Mn22  1  0.361330  0.879557  0.879557  1
  Si  Si23  1  0.000000  0.000000  0.500000  1
  Si  Si24  1  0.000000  0.500000  0.000000  1
  Si  Si25  1  0.500000  0.000000  0.500000  1
  Si  Si26  1  0.000000  0.500000  0.500000  1
  Si  Si27  1  0.500000  0.000000  0.000000  1
  Si  Si28  1  0.500000  0.500000  0.000000  1
