# generated using pymatgen
data_Lu2Al9NiRh2
_symmetry_space_group_name_H-M   'P 1'
_cell_length_a   7.51052321
_cell_length_b   7.51052380
_cell_length_c   9.28790000
_cell_angle_alpha   90.00000000
_cell_angle_beta   90.00000000
_cell_angle_gamma   119.98365190
_symmetry_Int_Tables_number   1
_chemical_formula_structural   Lu2Al9NiRh2
_chemical_formula_sum   'Lu4 Al18 Ni2 Rh4'
_cell_volume   453.79541269
_cell_formula_units_Z   2
loop_
 _symmetry_equiv_pos_site_id
 _symmetry_equiv_pos_as_xyz
  1  'x, y, z'
loop_
 _atom_site_type_symbol
 _atom_site_label
 _atom_site_symmetry_multiplicity
 _atom_site_fract_x
 _atom_site_fract_y
 _atom_site_fract_z
 _atom_site_occupancy
  Lu  Lu0  1  0.994055  0.667366  0.250000  1
  Lu  Lu1  1  0.005945  0.332634  0.750000  1
  Lu  Lu2  1  0.667366  0.994055  0.250000  1
  Lu  Lu3  1  0.332634  0.005945  0.750000  1
  Al  Al4  1  0.118466  0.118466  0.250000  1
  Al  Al5  1  0.881534  0.881534  0.750000  1
  Al  Al6  1  0.998538  0.331130  0.075658  1
  Al  Al7  1  0.001462  0.668870  0.924342  1
  Al  Al8  1  0.001462  0.668870  0.575658  1
  Al  Al9  1  0.331130  0.998538  0.424342  1
  Al  Al10  1  0.998538  0.331130  0.424342  1
  Al  Al11  1  0.668870  0.001462  0.575658  1
  Al  Al12  1  0.668870  0.001462  0.924342  1
  Al  Al13  1  0.331130  0.998538  0.075658  1
  Al  Al14  1  0.329330  0.329330  0.551494  1
  Al  Al15  1  0.670670  0.670670  0.448506  1
  Al  Al16  1  0.670670  0.670670  0.051494  1
  Al  Al17  1  0.329330  0.329330  0.948506  1
  Al  Al18  1  0.338216  0.547441  0.250000  1
  Al  Al19  1  0.661784  0.452559  0.750000  1
  Al  Al20  1  0.547441  0.338216  0.250000  1
  Al  Al21  1  0.452559  0.661784  0.750000  1
  Ni  Ni22  1  0.000000  0.000000  0.000000  1
  Ni  Ni23  1  0.000000  0.000000  0.500000  1
  Rh  Rh24  1  0.672921  0.327079  0.000000  1
  Rh  Rh25  1  0.327079  0.672921  0.000000  1
  Rh  Rh26  1  0.327079  0.672921  0.500000  1
  Rh  Rh27  1  0.672921  0.327079  0.500000  1
