# generated using pymatgen
data_Eu5Ir2
_symmetry_space_group_name_H-M   'P 1'
_cell_length_a   6.62510456
_cell_length_b   7.68171953
_cell_length_c   8.78324608
_cell_angle_alpha   96.88263163
_cell_angle_beta   112.15691474
_cell_angle_gamma   90.00000171
_symmetry_Int_Tables_number   1
_chemical_formula_structural   Eu5Ir2
_chemical_formula_sum   'Eu10 Ir4'
_cell_volume   410.50967625
_cell_formula_units_Z   2
loop_
 _symmetry_equiv_pos_site_id
 _symmetry_equiv_pos_as_xyz
  1  'x, y, z'
loop_
 _atom_site_type_symbol
 _atom_site_label
 _atom_site_symmetry_multiplicity
 _atom_site_fract_x
 _atom_site_fract_y
 _atom_site_fract_z
 _atom_site_occupancy
  Eu  Eu0  1  0.575735  0.250000  0.000000  1
  Eu  Eu1  1  0.424264  0.750000  0.000000  1
  Eu  Eu2  1  0.977270  0.919163  0.178606  1
  Eu  Eu3  1  0.201336  0.419163  0.178606  1
  Eu  Eu4  1  0.798619  0.320520  0.434719  1
  Eu  Eu5  1  0.636100  0.820521  0.434719  1
  Eu  Eu6  1  0.363900  0.179479  0.565281  1
  Eu  Eu7  1  0.201381  0.679480  0.565281  1
  Eu  Eu8  1  0.798664  0.580837  0.821393  1
  Eu  Eu9  1  0.022730  0.080837  0.821393  1
  Ir  Ir10  1  0.821526  0.581630  0.220276  1
  Ir  Ir11  1  0.398751  0.081631  0.220276  1
  Ir  Ir12  1  0.601249  0.918369  0.779724  1
  Ir  Ir13  1  0.178474  0.418370  0.779724  1
