# generated using pymatgen
data_In10HgIr4Au
_symmetry_space_group_name_H-M   'P 1'
_cell_length_a   7.14270900
_cell_length_b   7.17599408
_cell_length_c   7.17490600
_cell_angle_alpha   90.00000000
_cell_angle_beta   90.00000000
_cell_angle_gamma   90.10288497
_symmetry_Int_Tables_number   1
_chemical_formula_structural   In10HgIr4Au
_chemical_formula_sum   'In10 Hg1 Ir4 Au1'
_cell_volume   367.75665792
_cell_formula_units_Z   1
loop_
 _symmetry_equiv_pos_site_id
 _symmetry_equiv_pos_as_xyz
  1  'x, y, z'
loop_
 _atom_site_type_symbol
 _atom_site_label
 _atom_site_symmetry_multiplicity
 _atom_site_fract_x
 _atom_site_fract_y
 _atom_site_fract_z
 _atom_site_occupancy
  In  In0  1  0.326630  0.352828  0.268593  1
  In  In1  1  0.145310  0.831711  0.759087  1
  In  In2  1  0.145310  0.831711  0.240913  1
  In  In3  1  0.854690  0.168289  0.240913  1
  In  In4  1  0.854690  0.168289  0.759087  1
  In  In5  1  0.500000  0.000000  0.000000  1
  In  In6  1  0.673370  0.647172  0.268593  1
  In  In7  1  0.673370  0.647172  0.731407  1
  In  In8  1  0.326630  0.352828  0.731407  1
  In  In9  1  0.500000  0.000000  0.500000  1
  Hg  Hg10  1  0.000000  0.500000  0.000000  1
  Ir  Ir11  1  0.160887  0.147873  0.000000  1
  Ir  Ir12  1  0.642778  0.337569  0.500000  1
  Ir  Ir13  1  0.357222  0.662431  0.500000  1
  Ir  Ir14  1  0.839113  0.852127  0.000000  1
  Au  Au15  1  0.000000  0.500000  0.500000  1
