# generated using pymatgen
data_CdSb12(RuPt)2
_symmetry_space_group_name_H-M   'P 1'
_cell_length_a   8.19063074
_cell_length_b   8.19062261
_cell_length_c   8.19063172
_cell_angle_alpha   109.48586959
_cell_angle_beta   109.44144975
_cell_angle_gamma   109.48638949
_symmetry_Int_Tables_number   1
_chemical_formula_structural   CdSb12(RuPt)2
_chemical_formula_sum   'Cd1 Sb12 Ru2 Pt2'
_cell_volume   422.98936998
_cell_formula_units_Z   1
loop_
 _symmetry_equiv_pos_site_id
 _symmetry_equiv_pos_as_xyz
  1  'x, y, z'
loop_
 _atom_site_type_symbol
 _atom_site_label
 _atom_site_symmetry_multiplicity
 _atom_site_fract_x
 _atom_site_fract_y
 _atom_site_fract_z
 _atom_site_occupancy
  Cd  Cd0  1  0.000000  0.000000  0.000000  1
  Sb  Sb1  1  0.157351  0.490979  0.333628  1
  Sb  Sb2  1  0.505868  0.655341  0.840925  1
  Sb  Sb3  1  0.335196  0.841451  0.185646  1
  Sb  Sb4  1  0.814415  0.655341  0.149473  1
  Sb  Sb5  1  0.655806  0.841451  0.506255  1
  Sb  Sb6  1  0.185585  0.344659  0.850527  1
  Sb  Sb7  1  0.664804  0.158549  0.814354  1
  Sb  Sb8  1  0.344194  0.158549  0.493745  1
  Sb  Sb9  1  0.494132  0.344659  0.159075  1
  Sb  Sb10  1  0.842649  0.509021  0.666372  1
  Sb  Sb11  1  0.848701  0.193377  0.344674  1
  Sb  Sb12  1  0.151299  0.806623  0.655326  1
  Ru  Ru13  1  0.500000  0.500000  0.500000  1
  Ru  Ru14  1  0.000000  0.500000  0.000000  1
  Pt  Pt15  1  0.500000  0.000000  0.000000  1
  Pt  Pt16  1  0.000000  0.000000  0.500000  1
