# generated using pymatgen
data_Y6ScNi17P12
_symmetry_space_group_name_H-M   'P 1'
_cell_length_a   3.80322900
_cell_length_b   10.61501500
_cell_length_c   12.39037900
_cell_angle_alpha   90.00000000
_cell_angle_beta   90.00000000
_cell_angle_gamma   90.00000000
_symmetry_Int_Tables_number   1
_chemical_formula_structural   Y6ScNi17P12
_chemical_formula_sum   'Y6 Sc1 Ni17 P12'
_cell_volume   500.21611516
_cell_formula_units_Z   1
loop_
 _symmetry_equiv_pos_site_id
 _symmetry_equiv_pos_as_xyz
  1  'x, y, z'
loop_
 _atom_site_type_symbol
 _atom_site_label
 _atom_site_symmetry_multiplicity
 _atom_site_fract_x
 _atom_site_fract_y
 _atom_site_fract_z
 _atom_site_occupancy
  Y  Y0  1  0.750000  0.250000  0.471846  1
  Y  Y1  1  0.250000  0.750000  0.521772  1
  Y  Y2  1  0.250000  0.929599  0.793762  1
  Y  Y3  1  0.250000  0.570401  0.793762  1
  Y  Y4  1  0.750000  0.067098  0.203559  1
  Y  Y5  1  0.750000  0.432902  0.203559  1
  Sc  Sc6  1  0.250000  0.250000  0.847346  1
  Ni  Ni7  1  0.750000  0.750000  0.162867  1
  Ni  Ni8  1  0.250000  0.250000  0.296876  1
  Ni  Ni9  1  0.750000  0.750000  0.701679  1
  Ni  Ni10  1  0.750000  0.250000  0.015628  1
  Ni  Ni11  1  0.250000  0.750000  0.986647  1
  Ni  Ni12  1  0.250000  0.425683  0.010508  1
  Ni  Ni13  1  0.250000  0.074317  0.010508  1
  Ni  Ni14  1  0.750000  0.589701  0.999138  1
  Ni  Ni15  1  0.750000  0.910299  0.999138  1
  Ni  Ni16  1  0.250000  0.452294  0.567190  1
  Ni  Ni17  1  0.250000  0.047706  0.567190  1
  Ni  Ni18  1  0.750000  0.550484  0.429726  1
  Ni  Ni19  1  0.750000  0.949516  0.429726  1
  Ni  Ni20  1  0.250000  0.870343  0.290799  1
  Ni  Ni21  1  0.250000  0.629657  0.290799  1
  Ni  Ni22  1  0.750000  0.129114  0.705357  1
  Ni  Ni23  1  0.750000  0.370886  0.705357  1
  P  P24  1  0.250000  0.250000  0.118458  1
  P  P25  1  0.750000  0.750000  0.879177  1
  P  P26  1  0.250000  0.250000  0.640495  1
  P  P27  1  0.750000  0.750000  0.346237  1
  P  P28  1  0.250000  0.437721  0.382274  1
  P  P29  1  0.250000  0.062279  0.382274  1
  P  P30  1  0.750000  0.564798  0.613374  1
  P  P31  1  0.750000  0.935202  0.613374  1
  P  P32  1  0.250000  0.898426  0.111432  1
  P  P33  1  0.250000  0.601574  0.111432  1
  P  P34  1  0.750000  0.086833  0.898367  1
  P  P35  1  0.750000  0.413167  0.898367  1
