# generated using pymatgen
data_Dy5ErCo2Si5Ge
_symmetry_space_group_name_H-M   'P 1'
_cell_length_a   5.64379673
_cell_length_b   5.64379755
_cell_length_c   13.51220178
_cell_angle_alpha   70.64750882
_cell_angle_beta   70.64750604
_cell_angle_gamma   43.30403666
_symmetry_Int_Tables_number   1
_chemical_formula_structural   Dy5ErCo2Si5Ge
_chemical_formula_sum   'Dy5 Er1 Co2 Si5 Ge1'
_cell_volume   275.79626282
_cell_formula_units_Z   1
loop_
 _symmetry_equiv_pos_site_id
 _symmetry_equiv_pos_as_xyz
  1  'x, y, z'
loop_
 _atom_site_type_symbol
 _atom_site_label
 _atom_site_symmetry_multiplicity
 _atom_site_fract_x
 _atom_site_fract_y
 _atom_site_fract_z
 _atom_site_occupancy
  Dy  Dy0  1  0.744723  0.744723  0.771172  1
  Dy  Dy1  1  0.398118  0.398118  0.921815  1
  Dy  Dy2  1  0.600569  0.600569  0.081611  1
  Dy  Dy3  1  0.475334  0.475334  0.379601  1
  Dy  Dy4  1  0.252929  0.252929  0.228845  1
  Er  Er5  1  0.527029  0.527029  0.616764  1
  Co  Co6  1  0.753588  0.753588  0.418795  1
  Co  Co7  1  0.251071  0.251071  0.577753  1
  Si  Si8  1  0.141333  0.141333  0.454973  1
  Si  Si9  1  0.861203  0.861203  0.544021  1
  Si  Si10  1  0.945177  0.945177  0.242615  1
  Si  Si11  1  0.885774  0.885774  0.077229  1
  Si  Si12  1  0.116156  0.116156  0.926993  1
  Ge  Ge13  1  0.046997  0.046997  0.757812  1
