# generated using pymatgen
data_Ho6Er4Cd7InPd4
_symmetry_space_group_name_H-M   'P 1'
_cell_length_a   3.62058300
_cell_length_b   7.97035161
_cell_length_c   18.32407893
_cell_angle_alpha   89.75285685
_cell_angle_beta   90.00000000
_cell_angle_gamma   90.00000000
_symmetry_Int_Tables_number   1
_chemical_formula_structural   Ho6Er4Cd7InPd4
_chemical_formula_sum   'Ho6 Er4 Cd7 In1 Pd4'
_cell_volume   528.77888168
_cell_formula_units_Z   1
loop_
 _symmetry_equiv_pos_site_id
 _symmetry_equiv_pos_as_xyz
  1  'x, y, z'
loop_
 _atom_site_type_symbol
 _atom_site_label
 _atom_site_symmetry_multiplicity
 _atom_site_fract_x
 _atom_site_fract_y
 _atom_site_fract_z
 _atom_site_occupancy
  Ho  Ho0  1  0.000000  0.498054  0.500335  1
  Ho  Ho1  1  0.000000  0.001498  0.999729  1
  Ho  Ho2  1  0.000000  0.738952  0.281031  1
  Ho  Ho3  1  0.000000  0.260976  0.718686  1
  Ho  Ho4  1  0.000000  0.758553  0.780759  1
  Ho  Ho5  1  0.000000  0.241002  0.219381  1
  Er  Er6  1  0.000000  0.613173  0.083754  1
  Er  Er7  1  0.000000  0.387835  0.916326  1
  Er  Er8  1  0.000000  0.886830  0.583417  1
  Er  Er9  1  0.000000  0.113127  0.416128  1
  Cd  Cd10  1  0.500000  0.714507  0.932259  1
  Cd  Cd11  1  0.500000  0.286380  0.068169  1
  Cd  Cd12  1  0.500000  0.784374  0.432140  1
  Cd  Cd13  1  0.500000  0.213729  0.568452  1
  Cd  Cd14  1  0.500000  0.577715  0.647873  1
  Cd  Cd15  1  0.500000  0.423429  0.351934  1
  Cd  Cd16  1  0.500000  0.923470  0.148032  1
  In  In17  1  0.500000  0.076335  0.851088  1
  Pd  Pd18  1  0.500000  0.525919  0.195364  1
  Pd  Pd19  1  0.500000  0.474216  0.804661  1
  Pd  Pd20  1  0.500000  0.974282  0.695740  1
  Pd  Pd21  1  0.500000  0.025645  0.304746  1
