# generated using pymatgen
data_Zr2MnNiIr2
_symmetry_space_group_name_H-M   'P 1'
_cell_length_a   4.95153170
_cell_length_b   5.15240723
_cell_length_c   5.15240767
_cell_angle_alpha   62.46894227
_cell_angle_beta   60.63924380
_cell_angle_gamma   60.63922365
_symmetry_Int_Tables_number   1
_chemical_formula_structural   Zr2MnNiIr2
_chemical_formula_sum   'Zr2 Mn1 Ni1 Ir2'
_cell_volume   95.49652708
_cell_formula_units_Z   1
loop_
 _symmetry_equiv_pos_site_id
 _symmetry_equiv_pos_as_xyz
  1  'x, y, z'
loop_
 _atom_site_type_symbol
 _atom_site_label
 _atom_site_symmetry_multiplicity
 _atom_site_fract_x
 _atom_site_fract_y
 _atom_site_fract_z
 _atom_site_occupancy
  Zr  Zr0  1  0.618077  0.629060  0.629060  1
  Zr  Zr1  1  0.381923  0.370940  0.370940  1
  Mn  Mn2  1  0.500000  0.000000  0.000000  1
  Ni  Ni3  1  0.000000  0.000000  0.000000  1
  Ir  Ir4  1  0.000000  0.500000  0.000000  1
  Ir  Ir5  1  0.000000  0.000000  0.500000  1
