# generated using pymatgen
data_HoEr3(MnC2)2
_symmetry_space_group_name_H-M   'P 1'
_cell_length_a   4.99749700
_cell_length_b   6.29422451
_cell_length_c   9.61847900
_cell_angle_alpha   89.90550169
_cell_angle_beta   90.00000000
_cell_angle_gamma   90.00000000
_symmetry_Int_Tables_number   1
_chemical_formula_structural   HoEr3(MnC2)2
_chemical_formula_sum   'Ho2 Er6 Mn4 C8'
_cell_volume   302.55238612
_cell_formula_units_Z   2
loop_
 _symmetry_equiv_pos_site_id
 _symmetry_equiv_pos_as_xyz
  1  'x, y, z'
loop_
 _atom_site_type_symbol
 _atom_site_label
 _atom_site_symmetry_multiplicity
 _atom_site_fract_x
 _atom_site_fract_y
 _atom_site_fract_z
 _atom_site_occupancy
  Ho  Ho0  1  0.750000  0.974357  0.714872  1
  Ho  Ho1  1  0.250000  0.025643  0.285128  1
  Er  Er2  1  0.250000  0.682495  0.555204  1
  Er  Er3  1  0.750000  0.317505  0.444796  1
  Er  Er4  1  0.750000  0.817292  0.055201  1
  Er  Er5  1  0.250000  0.182708  0.944799  1
  Er  Er6  1  0.250000  0.525673  0.215713  1
  Er  Er7  1  0.750000  0.474327  0.784287  1
  Mn  Mn8  1  0.250000  0.727807  0.857769  1
  Mn  Mn9  1  0.750000  0.272193  0.142231  1
  Mn  Mn10  1  0.750000  0.771699  0.357754  1
  Mn  Mn11  1  0.250000  0.228301  0.642246  1
  C  C12  1  0.250000  0.462338  0.760464  1
  C  C13  1  0.750000  0.537662  0.239536  1
  C  C14  1  0.750000  0.037611  0.260304  1
  C  C15  1  0.250000  0.962389  0.739696  1
  C  C16  1  0.250000  0.809483  0.036925  1
  C  C17  1  0.750000  0.190517  0.963075  1
  C  C18  1  0.750000  0.688723  0.536901  1
  C  C19  1  0.250000  0.311277  0.463099  1
