# generated using pymatgen
data_NdHo(Cu2P)4
_symmetry_space_group_name_H-M   'P 1'
_cell_length_a   7.31519894
_cell_length_b   7.31519884
_cell_length_c   3.81918300
_cell_angle_alpha   90.00000000
_cell_angle_beta   90.00000000
_cell_angle_gamma   89.67995670
_symmetry_Int_Tables_number   1
_chemical_formula_structural   NdHo(Cu2P)4
_chemical_formula_sum   'Nd1 Ho1 Cu8 P4'
_cell_volume   204.36944731
_cell_formula_units_Z   1
loop_
 _symmetry_equiv_pos_site_id
 _symmetry_equiv_pos_as_xyz
  1  'x, y, z'
loop_
 _atom_site_type_symbol
 _atom_site_label
 _atom_site_symmetry_multiplicity
 _atom_site_fract_x
 _atom_site_fract_y
 _atom_site_fract_z
 _atom_site_occupancy
  Nd  Nd0  1  0.500000  0.500000  0.500000  1
  Ho  Ho1  1  0.000000  0.000000  0.000000  1
  Cu  Cu2  1  0.665551  0.917257  0.500000  1
  Cu  Cu3  1  0.162703  0.584746  0.000000  1
  Cu  Cu4  1  0.415254  0.837297  0.000000  1
  Cu  Cu5  1  0.917257  0.665551  0.500000  1
  Cu  Cu6  1  0.837297  0.415254  0.000000  1
  Cu  Cu7  1  0.584746  0.162703  0.000000  1
  Cu  Cu8  1  0.082743  0.334449  0.500000  1
  Cu  Cu9  1  0.334449  0.082743  0.500000  1
  P  P10  1  0.281447  0.281447  0.000000  1
  P  P11  1  0.718553  0.718553  0.000000  1
  P  P12  1  0.790173  0.209827  0.500000  1
  P  P13  1  0.209827  0.790173  0.500000  1
