# generated using pymatgen
data_Tb5DyAl24ZnOs7
_symmetry_space_group_name_H-M   'P 1'
_cell_length_a   8.86594519
_cell_length_b   8.86594547
_cell_length_c   9.55426715
_cell_angle_alpha   89.95945539
_cell_angle_beta   90.04054570
_cell_angle_gamma   119.98026505
_symmetry_Int_Tables_number   1
_chemical_formula_structural   Tb5DyAl24ZnOs7
_chemical_formula_sum   'Tb5 Dy1 Al24 Zn1 Os7'
_cell_volume   650.52545522
_cell_formula_units_Z   1
loop_
 _symmetry_equiv_pos_site_id
 _symmetry_equiv_pos_as_xyz
  1  'x, y, z'
loop_
 _atom_site_type_symbol
 _atom_site_label
 _atom_site_symmetry_multiplicity
 _atom_site_fract_x
 _atom_site_fract_y
 _atom_site_fract_z
 _atom_site_occupancy
  Tb  Tb0  1  0.191078  0.385790  0.248224  1
  Tb  Tb1  1  0.808908  0.614142  0.751764  1
  Tb  Tb2  1  0.614210  0.808922  0.248224  1
  Tb  Tb3  1  0.385858  0.191092  0.751764  1
  Tb  Tb4  1  0.194167  0.805833  0.253169  1
  Dy  Dy5  1  0.805680  0.194320  0.746812  1
  Al  Al6  1  0.329531  0.670469  0.019928  1
  Al  Al7  1  0.670538  0.329462  0.979972  1
  Al  Al8  1  0.666146  0.333854  0.516945  1
  Al  Al9  1  0.333912  0.666088  0.483159  1
  Al  Al10  1  0.162504  0.325769  0.573839  1
  Al  Al11  1  0.837406  0.674196  0.426220  1
  Al  Al12  1  0.674231  0.837496  0.573839  1
  Al  Al13  1  0.848760  0.677275  0.080629  1
  Al  Al14  1  0.325804  0.162594  0.426220  1
  Al  Al15  1  0.151114  0.322667  0.919307  1
  Al  Al16  1  0.162911  0.837089  0.575081  1
  Al  Al17  1  0.322725  0.151240  0.080629  1
  Al  Al18  1  0.837084  0.162916  0.425051  1
  Al  Al19  1  0.677333  0.848886  0.919307  1
  Al  Al20  1  0.836688  0.163312  0.076027  1
  Al  Al21  1  0.163304  0.836696  0.923849  1
  Al  Al22  1  0.561588  0.121643  0.249278  1
  Al  Al23  1  0.438592  0.878498  0.750717  1
  Al  Al24  1  0.878357  0.438412  0.249278  1
  Al  Al25  1  0.121502  0.561408  0.750717  1
  Al  Al26  1  0.563608  0.436392  0.254633  1
  Al  Al27  1  0.436377  0.563623  0.745366  1
  Al  Al28  1  0.999065  0.000935  0.250547  1
  Al  Al29  1  0.000848  0.999152  0.749460  1
  Zn  Zn30  1  0.500009  0.499991  0.000013  1
  Os  Os31  1  0.500127  0.000062  0.999910  1
  Os  Os32  1  0.999938  0.499873  0.999910  1
  Os  Os33  1  0.500147  0.000078  0.500100  1
  Os  Os34  1  0.999922  0.499853  0.500100  1
  Os  Os35  1  0.500031  0.499969  0.500001  1
  Os  Os36  1  0.000005  0.999995  0.999975  1
  Os  Os37  1  0.999991  0.000009  0.500036  1
