# generated using pymatgen
data_Y3Mn4Co4TcP6
_symmetry_space_group_name_H-M   'P 1'
_cell_length_a   3.77320200
_cell_length_b   10.48877100
_cell_length_c   12.48761900
_cell_angle_alpha   90.00000000
_cell_angle_beta   90.00000000
_cell_angle_gamma   90.00000000
_symmetry_Int_Tables_number   1
_chemical_formula_structural   Y3Mn4Co4TcP6
_chemical_formula_sum   'Y6 Mn8 Co8 Tc2 P12'
_cell_volume   494.21315286
_cell_formula_units_Z   2
loop_
 _symmetry_equiv_pos_site_id
 _symmetry_equiv_pos_as_xyz
  1  'x, y, z'
loop_
 _atom_site_type_symbol
 _atom_site_label
 _atom_site_symmetry_multiplicity
 _atom_site_fract_x
 _atom_site_fract_y
 _atom_site_fract_z
 _atom_site_occupancy
  Y  Y0  1  0.000000  0.500000  0.525274  1
  Y  Y1  1  0.500000  0.000000  0.475557  1
  Y  Y2  1  0.500000  0.819822  0.210107  1
  Y  Y3  1  0.500000  0.180178  0.210107  1
  Y  Y4  1  0.000000  0.680397  0.789167  1
  Y  Y5  1  0.000000  0.319603  0.789167  1
  Mn  Mn6  1  0.000000  0.500000  0.987390  1
  Mn  Mn7  1  0.500000  0.000000  0.012105  1
  Mn  Mn8  1  0.500000  0.330483  0.994137  1
  Mn  Mn9  1  0.500000  0.669517  0.994137  1
  Mn  Mn10  1  0.000000  0.170307  0.005199  1
  Mn  Mn11  1  0.000000  0.829693  0.005199  1
  Mn  Mn12  1  0.500000  0.297427  0.432342  1
  Mn  Mn13  1  0.500000  0.702573  0.432342  1
  Co  Co14  1  0.500000  0.500000  0.696967  1
  Co  Co15  1  0.000000  0.000000  0.302879  1
  Co  Co16  1  0.000000  0.201316  0.569731  1
  Co  Co17  1  0.000000  0.798684  0.569731  1
  Co  Co18  1  0.500000  0.880169  0.704384  1
  Co  Co19  1  0.500000  0.119831  0.704384  1
  Co  Co20  1  0.000000  0.620004  0.295573  1
  Co  Co21  1  0.000000  0.379996  0.295573  1
  Tc  Tc22  1  0.500000  0.500000  0.159430  1
  Tc  Tc23  1  0.000000  0.000000  0.839665  1
  P  P24  1  0.500000  0.500000  0.875302  1
  P  P25  1  0.000000  0.000000  0.123883  1
  P  P26  1  0.500000  0.500000  0.349623  1
  P  P27  1  0.000000  0.000000  0.651073  1
  P  P28  1  0.500000  0.308446  0.612874  1
  P  P29  1  0.500000  0.691554  0.612874  1
  P  P30  1  0.000000  0.190817  0.386718  1
  P  P31  1  0.000000  0.809183  0.386718  1
  P  P32  1  0.500000  0.847916  0.884385  1
  P  P33  1  0.500000  0.152084  0.884385  1
  P  P34  1  0.000000  0.651099  0.115812  1
  P  P35  1  0.000000  0.348901  0.115812  1
