# generated using pymatgen
data_TmLu11(Zn3C)4
_symmetry_space_group_name_H-M   'P 1'
_cell_length_a   8.97070839
_cell_length_b   8.97070845
_cell_length_c   8.96935400
_cell_angle_alpha   60.00500184
_cell_angle_beta   60.00500158
_cell_angle_gamma   60.04755402
_symmetry_Int_Tables_number   1
_chemical_formula_structural   TmLu11(Zn3C)4
_chemical_formula_sum   'Tm1 Lu11 Zn12 C4'
_cell_volume   510.60885142
_cell_formula_units_Z   1
loop_
 _symmetry_equiv_pos_site_id
 _symmetry_equiv_pos_as_xyz
  1  'x, y, z'
loop_
 _atom_site_type_symbol
 _atom_site_label
 _atom_site_symmetry_multiplicity
 _atom_site_fract_x
 _atom_site_fract_y
 _atom_site_fract_z
 _atom_site_occupancy
  Tm  Tm0  1  0.446332  0.446332  0.053668  1
  Lu  Lu1  1  0.053878  0.446034  0.054054  1
  Lu  Lu2  1  0.446034  0.053878  0.054054  1
  Lu  Lu3  1  0.054024  0.054024  0.445976  1
  Lu  Lu4  1  0.446034  0.053878  0.446035  1
  Lu  Lu5  1  0.053878  0.446034  0.446035  1
  Lu  Lu6  1  0.803911  0.803911  0.196089  1
  Lu  Lu7  1  0.195825  0.804225  0.196011  1
  Lu  Lu8  1  0.804225  0.195825  0.196011  1
  Lu  Lu9  1  0.195955  0.195955  0.804045  1
  Lu  Lu10  1  0.804225  0.195825  0.803939  1
  Lu  Lu11  1  0.195825  0.804225  0.803939  1
  Zn  Zn12  1  0.827865  0.827865  0.516348  1
  Zn  Zn13  1  0.828006  0.516400  0.827798  1
  Zn  Zn14  1  0.516400  0.828006  0.827798  1
  Zn  Zn15  1  0.827865  0.827865  0.827922  1
  Zn  Zn16  1  0.422123  0.422123  0.733493  1
  Zn  Zn17  1  0.422094  0.733654  0.422126  1
  Zn  Zn18  1  0.733654  0.422094  0.422126  1
  Zn  Zn19  1  0.422123  0.422123  0.422261  1
  Zn  Zn20  1  0.625083  0.625083  0.125021  1
  Zn  Zn21  1  0.625029  0.124974  0.624998  1
  Zn  Zn22  1  0.124974  0.625029  0.624998  1
  Zn  Zn23  1  0.625083  0.625083  0.624813  1
  C  C24  1  0.124995  0.124995  0.625028  1
  C  C25  1  0.124046  0.625521  0.125216  1
  C  C26  1  0.625521  0.124046  0.125216  1
  C  C27  1  0.124995  0.124995  0.124982  1
