# generated using pymatgen
data_Na20V3ZnAs12
_symmetry_space_group_name_H-M   'P 1'
_cell_length_a   7.52161038
_cell_length_b   8.29435222
_cell_length_c   15.80263366
_cell_angle_alpha   59.14294163
_cell_angle_beta   89.76320804
_cell_angle_gamma   90.22431024
_symmetry_Int_Tables_number   1
_chemical_formula_structural   Na20V3ZnAs12
_chemical_formula_sum   'Na20 V3 Zn1 As12'
_cell_volume   846.29761340
_cell_formula_units_Z   1
loop_
 _symmetry_equiv_pos_site_id
 _symmetry_equiv_pos_as_xyz
  1  'x, y, z'
loop_
 _atom_site_type_symbol
 _atom_site_label
 _atom_site_symmetry_multiplicity
 _atom_site_fract_x
 _atom_site_fract_y
 _atom_site_fract_z
 _atom_site_occupancy
  Na  Na0  1  0.509351  0.553782  0.759945  1
  Na  Na1  1  0.014080  0.445050  0.747612  1
  Na  Na2  1  0.477834  0.447834  0.237868  1
  Na  Na3  1  0.993819  0.559521  0.246260  1
  Na  Na4  1  0.975076  0.267640  0.577234  1
  Na  Na5  1  0.468103  0.726707  0.929289  1
  Na  Na6  1  0.034661  0.751505  0.414310  1
  Na  Na7  1  0.506484  0.260789  0.078360  1
  Na  Na8  1  0.490736  0.087689  0.590852  1
  Na  Na9  1  0.992293  0.897980  0.919528  1
  Na  Na10  1  0.505813  0.918209  0.403852  1
  Na  Na11  1  0.026453  0.090735  0.089100  1
  Na  Na12  1  0.338466  0.155212  0.919065  1
  Na  Na13  1  0.837698  0.843543  0.580836  1
  Na  Na14  1  0.657713  0.848034  0.079009  1
  Na  Na15  1  0.162800  0.157350  0.418441  1
  Na  Na16  1  0.154022  0.840464  0.740019  1
  Na  Na17  1  0.656761  0.159691  0.762861  1
  Na  Na18  1  0.848124  0.168489  0.254151  1
  Na  Na19  1  0.346506  0.832212  0.239943  1
  V  V20  1  0.640430  0.509067  0.420255  1
  V  V21  1  0.865292  0.513563  0.920012  1
  V  V22  1  0.365697  0.489275  0.581989  1
  Zn  Zn23  1  0.142155  0.482645  0.085277  1
  As  As24  1  0.246780  0.759957  0.580131  1
  As  As25  1  0.741351  0.243272  0.921134  1
  As  As26  1  0.757239  0.239347  0.420948  1
  As  As27  1  0.258572  0.780243  0.078040  1
  As  As28  1  0.268922  0.199912  0.721286  1
  As  As29  1  0.769037  0.806791  0.776041  1
  As  As30  1  0.733210  0.793883  0.280101  1
  As  As31  1  0.234150  0.168393  0.236095  1
  As  As32  1  0.183678  0.482561  0.921040  1
  As  As33  1  0.689603  0.519125  0.571290  1
  As  As34  1  0.792192  0.519891  0.065265  1
  As  As35  1  0.314897  0.479638  0.432557  1
