# generated using pymatgen
data_YbTm2Lu(Ga2Ag)4
_symmetry_space_group_name_H-M   'P 1'
_cell_length_a   4.33063100
_cell_length_b   6.92655257
_cell_length_c   10.23745250
_cell_angle_alpha   90.35738716
_cell_angle_beta   90.00000000
_cell_angle_gamma   90.00000000
_symmetry_Int_Tables_number   1
_chemical_formula_structural   YbTm2Lu(Ga2Ag)4
_chemical_formula_sum   'Yb1 Tm2 Lu1 Ga8 Ag4'
_cell_volume   307.08016565
_cell_formula_units_Z   1
loop_
 _symmetry_equiv_pos_site_id
 _symmetry_equiv_pos_as_xyz
  1  'x, y, z'
loop_
 _atom_site_type_symbol
 _atom_site_label
 _atom_site_symmetry_multiplicity
 _atom_site_fract_x
 _atom_site_fract_y
 _atom_site_fract_z
 _atom_site_occupancy
  Yb  Yb0  1  0.250000  0.274981  0.672510  1
  Tm  Tm1  1  0.250000  0.777407  0.826764  1
  Tm  Tm2  1  0.750000  0.225104  0.173473  1
  Lu  Lu3  1  0.750000  0.723545  0.327961  1
  Ga  Ga4  1  0.250000  0.704545  0.535722  1
  Ga  Ga5  1  0.750000  0.300038  0.463641  1
  Ga  Ga6  1  0.750000  0.794248  0.038187  1
  Ga  Ga7  1  0.250000  0.198291  0.965073  1
  Ga  Ga8  1  0.250000  0.927886  0.156348  1
  Ga  Ga9  1  0.750000  0.068637  0.847883  1
  Ga  Ga10  1  0.750000  0.571297  0.652024  1
  Ga  Ga11  1  0.250000  0.431686  0.343677  1
  Ag  Ag12  1  0.250000  0.544036  0.096329  1
  Ag  Ag13  1  0.750000  0.454710  0.901743  1
  Ag  Ag14  1  0.750000  0.957758  0.596507  1
  Ag  Ag15  1  0.250000  0.045828  0.402159  1
