# generated using pymatgen
data_Ba3YTlO6
_symmetry_space_group_name_H-M   'P 1'
_cell_length_a   7.45618493
_cell_length_b   7.45618515
_cell_length_c   7.45618500
_cell_angle_alpha   92.67782613
_cell_angle_beta   92.67782622
_cell_angle_gamma   92.67782185
_symmetry_Int_Tables_number   1
_chemical_formula_structural   Ba3YTlO6
_chemical_formula_sum   'Ba6 Y2 Tl2 O12'
_cell_volume   413.12249020
_cell_formula_units_Z   2
loop_
 _symmetry_equiv_pos_site_id
 _symmetry_equiv_pos_as_xyz
  1  'x, y, z'
loop_
 _atom_site_type_symbol
 _atom_site_label
 _atom_site_symmetry_multiplicity
 _atom_site_fract_x
 _atom_site_fract_y
 _atom_site_fract_z
 _atom_site_occupancy
  Ba  Ba0  1  0.250000  0.889552  0.610448  1
  Ba  Ba1  1  0.889552  0.610448  0.250000  1
  Ba  Ba2  1  0.750000  0.110448  0.389552  1
  Ba  Ba3  1  0.389552  0.750000  0.110448  1
  Ba  Ba4  1  0.110448  0.389552  0.750000  1
  Ba  Ba5  1  0.610448  0.250000  0.889552  1
  Y  Y6  1  0.750000  0.750000  0.750000  1
  Y  Y7  1  0.250000  0.250000  0.250000  1
  Tl  Tl8  1  0.500000  0.500000  0.500000  1
  Tl  Tl9  1  0.000000  0.000000  0.000000  1
  O  O10  1  0.603862  0.797486  0.470583  1
  O  O11  1  0.470583  0.603862  0.797486  1
  O  O12  1  0.797486  0.470583  0.603862  1
  O  O13  1  0.896138  0.029417  0.702514  1
  O  O14  1  0.702514  0.896138  0.029417  1
  O  O15  1  0.029417  0.702514  0.896138  1
  O  O16  1  0.396138  0.202514  0.529417  1
  O  O17  1  0.529417  0.396138  0.202514  1
  O  O18  1  0.202514  0.529417  0.396138  1
  O  O19  1  0.103862  0.970583  0.297486  1
  O  O20  1  0.970583  0.297486  0.103862  1
  O  O21  1  0.297486  0.103862  0.970583  1
