# generated using pymatgen
data_YbDy3PtRh3O14
_symmetry_space_group_name_H-M   'P 1'
_cell_length_a   7.24853969
_cell_length_b   7.21879403
_cell_length_c   7.24853900
_cell_angle_alpha   59.86360599
_cell_angle_beta   60.00000771
_cell_angle_gamma   59.86360606
_symmetry_Int_Tables_number   1
_chemical_formula_structural   YbDy3PtRh3O14
_chemical_formula_sum   'Yb1 Dy3 Pt1 Rh3 O14'
_cell_volume   267.64076141
_cell_formula_units_Z   1
loop_
 _symmetry_equiv_pos_site_id
 _symmetry_equiv_pos_as_xyz
  1  'x, y, z'
loop_
 _atom_site_type_symbol
 _atom_site_label
 _atom_site_symmetry_multiplicity
 _atom_site_fract_x
 _atom_site_fract_y
 _atom_site_fract_z
 _atom_site_occupancy
  Yb  Yb0  1  0.125000  0.625000  0.125000  1
  Dy  Dy1  1  0.125000  0.125000  0.625000  1
  Dy  Dy2  1  0.625000  0.125000  0.125000  1
  Dy  Dy3  1  0.125000  0.125000  0.125000  1
  Pt  Pt4  1  0.625000  0.125000  0.625000  1
  Rh  Rh5  1  0.625000  0.625000  0.625000  1
  Rh  Rh6  1  0.125000  0.625000  0.625000  1
  Rh  Rh7  1  0.625000  0.625000  0.125000  1
  O  O8  1  0.293678  0.710310  0.702334  1
  O  O9  1  0.536509  0.964425  0.962557  1
  O  O10  1  0.713491  0.285575  0.713491  1
  O  O11  1  0.287443  0.285575  0.713491  1
  O  O12  1  0.702334  0.710310  0.293678  1
  O  O13  1  0.998286  0.005144  0.998286  1
  O  O14  1  0.293678  0.710310  0.293678  1
  O  O15  1  0.956322  0.539690  0.956322  1
  O  O16  1  0.962557  0.964425  0.536509  1
  O  O17  1  0.547666  0.539690  0.956322  1
  O  O18  1  0.251714  0.244856  0.251714  1
  O  O19  1  0.536509  0.964425  0.536509  1
  O  O20  1  0.713491  0.285575  0.287443  1
  O  O21  1  0.956322  0.539690  0.547666  1
