# generated using pymatgen
data_Hf6Ti2Al14SiRh7
_symmetry_space_group_name_H-M   'P 1'
_cell_length_a   8.77424735
_cell_length_b   8.77350565
_cell_length_c   8.77428433
_cell_angle_alpha   120.18500699
_cell_angle_beta   119.75046311
_cell_angle_gamma   90.05841058
_symmetry_Int_Tables_number   1
_chemical_formula_structural   Hf6Ti2Al14SiRh7
_chemical_formula_sum   'Hf6 Ti2 Al14 Si1 Rh7'
_cell_volume   477.83226755
_cell_formula_units_Z   1
loop_
 _symmetry_equiv_pos_site_id
 _symmetry_equiv_pos_as_xyz
  1  'x, y, z'
loop_
 _atom_site_type_symbol
 _atom_site_label
 _atom_site_symmetry_multiplicity
 _atom_site_fract_x
 _atom_site_fract_y
 _atom_site_fract_z
 _atom_site_occupancy
  Hf  Hf0  1  0.798914  0.295944  0.087773  1
  Hf  Hf1  1  0.208166  0.295925  0.497014  1
  Hf  Hf2  1  0.202106  0.702195  0.500077  1
  Hf  Hf3  1  0.208162  0.711214  0.912195  1
  Hf  Hf4  1  0.799022  0.711208  0.503045  1
  Hf  Hf5  1  0.790644  0.290627  0.499967  1
  Ti  Ti6  1  0.380221  0.123197  0.742973  1
  Ti  Ti7  1  0.380236  0.637339  0.257102  1
  Al  Al8  1  0.163416  0.336235  0.172822  1
  Al  Al9  1  0.163500  0.990545  0.827043  1
  Al  Al10  1  0.159113  0.338231  0.820591  1
  Al  Al11  1  0.517631  0.338228  0.179112  1
  Al  Al12  1  0.836426  0.662604  0.826176  1
  Al  Al13  1  0.836397  0.010202  0.173803  1
  Al  Al14  1  0.835688  0.663293  0.172432  1
  Al  Al15  1  0.490852  0.663283  0.827594  1
  Al  Al16  1  0.380418  0.120176  0.260255  1
  Al  Al17  1  0.859920  0.120187  0.739760  1
  Al  Al18  1  0.619661  0.878265  0.258601  1
  Al  Al19  1  0.619555  0.360922  0.741389  1
  Al  Al20  1  0.618191  0.878493  0.739909  1
  Al  Al21  1  0.138592  0.878503  0.260303  1
  Si  Si22  1  0.996045  0.496055  0.500023  1
  Rh  Rh23  1  0.001751  0.000692  0.501979  1
  Rh  Rh24  1  0.498714  0.000688  0.998940  1
  Rh  Rh25  1  0.498032  0.497892  0.999859  1
  Rh  Rh26  1  0.498715  0.499703  0.498069  1
  Rh  Rh27  1  0.001667  0.499737  0.001022  1
  Rh  Rh28  1  0.000788  0.000829  0.000029  1
  Rh  Rh29  1  0.497448  0.997583  0.500142  1
