# generated using pymatgen
data_DyEr5Zn23P
_symmetry_space_group_name_H-M   'P 1'
_cell_length_a   9.02265113
_cell_length_b   9.02059193
_cell_length_c   9.02060924
_cell_angle_alpha   60.01490892
_cell_angle_beta   59.99219327
_cell_angle_gamma   59.99226222
_symmetry_Int_Tables_number   1
_chemical_formula_structural   DyEr5Zn23P
_chemical_formula_sum   'Dy1 Er5 Zn23 P1'
_cell_volume   519.14412395
_cell_formula_units_Z   1
loop_
 _symmetry_equiv_pos_site_id
 _symmetry_equiv_pos_as_xyz
  1  'x, y, z'
loop_
 _atom_site_type_symbol
 _atom_site_label
 _atom_site_symmetry_multiplicity
 _atom_site_fract_x
 _atom_site_fract_y
 _atom_site_fract_z
 _atom_site_occupancy
  Dy  Dy0  1  0.711930  0.288069  0.288073  1
  Er  Er1  1  0.711257  0.288742  0.711456  1
  Er  Er2  1  0.711264  0.711457  0.288741  1
  Er  Er3  1  0.288366  0.711635  0.711630  1
  Er  Er4  1  0.288547  0.711451  0.288743  1
  Er  Er5  1  0.288535  0.288745  0.711458  1
  Zn  Zn6  1  0.624682  0.124589  0.124596  1
  Zn  Zn7  1  0.124981  0.625118  0.124938  1
  Zn  Zn8  1  0.124976  0.124945  0.625113  1
  Zn  Zn9  1  0.126139  0.124590  0.124585  1
  Zn  Zn10  1  0.374876  0.875028  0.875031  1
  Zn  Zn11  1  0.875414  0.375317  0.873871  1
  Zn  Zn12  1  0.875403  0.873864  0.375322  1
  Zn  Zn13  1  0.875052  0.875031  0.875027  1
  Zn  Zn14  1  0.499848  0.000155  0.000146  1
  Zn  Zn15  1  0.499646  0.999755  0.500354  1
  Zn  Zn16  1  0.499645  0.500354  0.999753  1
  Zn  Zn17  1  0.999844  0.500156  0.500155  1
  Zn  Zn18  1  0.000247  0.500354  0.999745  1
  Zn  Zn19  1  0.000252  0.999743  0.500359  1
  Zn  Zn20  1  0.000024  0.999972  0.999981  1
  Zn  Zn21  1  0.011256  0.329793  0.329790  1
  Zn  Zn22  1  0.329730  0.010673  0.329866  1
  Zn  Zn23  1  0.329727  0.329869  0.010675  1
  Zn  Zn24  1  0.329165  0.329784  0.329785  1
  Zn  Zn25  1  0.989336  0.670260  0.670266  1
  Zn  Zn26  1  0.670216  0.988740  0.670827  1
  Zn  Zn27  1  0.670219  0.670827  0.988743  1
  Zn  Zn28  1  0.670137  0.670274  0.670257  1
  P  P29  1  0.499289  0.500709  0.500712  1
