# generated using pymatgen
data_HfNb9Al5
_symmetry_space_group_name_H-M   'P 1'
_cell_length_a   10.04513000
_cell_length_b   10.04932500
_cell_length_c   5.22963100
_cell_angle_alpha   90.00000000
_cell_angle_beta   90.00000000
_cell_angle_gamma   90.00000000
_symmetry_Int_Tables_number   1
_chemical_formula_structural   HfNb9Al5
_chemical_formula_sum   'Hf2 Nb18 Al10'
_cell_volume   527.91438931
_cell_formula_units_Z   2
loop_
 _symmetry_equiv_pos_site_id
 _symmetry_equiv_pos_as_xyz
  1  'x, y, z'
loop_
 _atom_site_type_symbol
 _atom_site_label
 _atom_site_symmetry_multiplicity
 _atom_site_fract_x
 _atom_site_fract_y
 _atom_site_fract_z
 _atom_site_occupancy
  Hf  Hf0  1  0.396951  0.396979  0.000000  1
  Hf  Hf1  1  0.896951  0.103021  0.500000  1
  Nb  Nb2  1  0.105524  0.894664  0.500000  1
  Nb  Nb3  1  0.605524  0.605336  0.000000  1
  Nb  Nb4  1  0.125189  0.466794  0.000000  1
  Nb  Nb5  1  0.964416  0.375560  0.500000  1
  Nb  Nb6  1  0.034350  0.628893  0.500000  1
  Nb  Nb7  1  0.872079  0.536526  0.000000  1
  Nb  Nb8  1  0.372079  0.963474  0.500000  1
  Nb  Nb9  1  0.625189  0.033206  0.500000  1
  Nb  Nb10  1  0.464416  0.124440  0.000000  1
  Nb  Nb11  1  0.534350  0.871107  0.000000  1
  Nb  Nb12  1  0.181473  0.181209  0.252038  1
  Nb  Nb13  1  0.681473  0.318791  0.752038  1
  Nb  Nb14  1  0.318566  0.681521  0.752411  1
  Nb  Nb15  1  0.818566  0.818479  0.252411  1
  Nb  Nb16  1  0.318566  0.681521  0.247589  1
  Nb  Nb17  1  0.681473  0.318791  0.247962  1
  Nb  Nb18  1  0.181473  0.181209  0.747962  1
  Nb  Nb19  1  0.818566  0.818479  0.747589  1
  Al  Al20  1  0.002061  0.997685  0.000000  1
  Al  Al21  1  0.502061  0.502315  0.500000  1
  Al  Al22  1  0.262192  0.932624  0.000000  1
  Al  Al23  1  0.433719  0.236058  0.500000  1
  Al  Al24  1  0.567082  0.761766  0.500000  1
  Al  Al25  1  0.736360  0.065865  0.000000  1
  Al  Al26  1  0.236360  0.434135  0.500000  1
  Al  Al27  1  0.762192  0.567376  0.500000  1
  Al  Al28  1  0.933719  0.263942  0.000000  1
  Al  Al29  1  0.067082  0.738234  0.000000  1
