# generated using pymatgen
data_Tb13Dy7(Bi2Rh)4
_symmetry_space_group_name_H-M   'P 1'
_cell_length_a   8.05232702
_cell_length_b   9.03052702
_cell_length_c   12.50250103
_cell_angle_alpha   90.00431583
_cell_angle_beta   89.99397919
_cell_angle_gamma   90.00616461
_symmetry_Int_Tables_number   1
_chemical_formula_structural   Tb13Dy7(Bi2Rh)4
_chemical_formula_sum   'Tb13 Dy7 Bi8 Rh4'
_cell_volume   909.14131301
_cell_formula_units_Z   1
loop_
 _symmetry_equiv_pos_site_id
 _symmetry_equiv_pos_as_xyz
  1  'x, y, z'
loop_
 _atom_site_type_symbol
 _atom_site_label
 _atom_site_symmetry_multiplicity
 _atom_site_fract_x
 _atom_site_fract_y
 _atom_site_fract_z
 _atom_site_occupancy
  Tb  Tb0  1  0.841378  0.749990  0.793849  1
  Tb  Tb1  1  0.158640  0.249996  0.206158  1
  Tb  Tb2  1  0.341315  0.250015  0.706175  1
  Tb  Tb3  1  0.658650  0.749992  0.293821  1
  Tb  Tb4  1  0.374919  0.749988  0.693964  1
  Tb  Tb5  1  0.625023  0.250021  0.306027  1
  Tb  Tb6  1  0.874976  0.249996  0.806074  1
  Tb  Tb7  1  0.125033  0.750001  0.193938  1
  Tb  Tb8  1  0.954029  0.749978  0.501260  1
  Tb  Tb9  1  0.046041  0.250018  0.498729  1
  Tb  Tb10  1  0.453974  0.249997  0.998737  1
  Tb  Tb11  1  0.546016  0.750006  0.001267  1
  Tb  Tb12  1  0.678061  0.040754  0.565996  1
  Dy  Dy13  1  0.322094  0.959226  0.434002  1
  Dy  Dy14  1  0.177830  0.959245  0.934031  1
  Dy  Dy15  1  0.322177  0.540779  0.434032  1
  Dy  Dy16  1  0.822181  0.040767  0.065964  1
  Dy  Dy17  1  0.677843  0.459252  0.565963  1
  Dy  Dy18  1  0.822176  0.459226  0.065967  1
  Dy  Dy19  1  0.177830  0.540766  0.934034  1
  Bi  Bi20  1  0.569337  0.491627  0.826313  1
  Bi  Bi21  1  0.430662  0.508365  0.173678  1
  Bi  Bi22  1  0.069336  0.508369  0.673682  1
  Bi  Bi23  1  0.430666  0.991629  0.173685  1
  Bi  Bi24  1  0.930664  0.491623  0.326319  1
  Bi  Bi25  1  0.569315  0.008362  0.826346  1
  Bi  Bi26  1  0.930649  0.008368  0.326313  1
  Bi  Bi27  1  0.069403  0.991618  0.673709  1
  Rh  Rh28  1  0.570149  0.749915  0.510160  1
  Rh  Rh29  1  0.429702  0.250101  0.489774  1
  Rh  Rh30  1  0.070130  0.250005  0.989827  1
  Rh  Rh31  1  0.929799  0.750006  0.010202  1
