# generated using pymatgen
data_CrTcCl9
_symmetry_space_group_name_H-M   'P 1'
_cell_length_a   7.43904450
_cell_length_b   9.68041465
_cell_length_c   10.07565630
_cell_angle_alpha   102.35335873
_cell_angle_beta   96.92156576
_cell_angle_gamma   96.27647911
_symmetry_Int_Tables_number   1
_chemical_formula_structural   CrTcCl9
_chemical_formula_sum   'Cr2 Tc2 Cl18'
_cell_volume   696.75090072
_cell_formula_units_Z   2
loop_
 _symmetry_equiv_pos_site_id
 _symmetry_equiv_pos_as_xyz
  1  'x, y, z'
loop_
 _atom_site_type_symbol
 _atom_site_label
 _atom_site_symmetry_multiplicity
 _atom_site_fract_x
 _atom_site_fract_y
 _atom_site_fract_z
 _atom_site_occupancy
  Cr  Cr0  1  0.053087  0.190755  0.780526  1
  Cr  Cr1  1  0.946913  0.809245  0.219474  1
  Tc  Tc2  1  0.610605  0.628237  0.665658  1
  Tc  Tc3  1  0.389395  0.371763  0.334342  1
  Cl  Cl4  1  0.388923  0.571272  0.246980  1
  Cl  Cl5  1  0.611077  0.428728  0.753020  1
  Cl  Cl6  1  0.423957  0.198273  0.454167  1
  Cl  Cl7  1  0.576043  0.801727  0.545833  1
  Cl  Cl8  1  0.093128  0.288818  0.248232  1
  Cl  Cl9  1  0.906872  0.711182  0.751768  1
  Cl  Cl10  1  0.507648  0.250126  0.153423  1
  Cl  Cl11  1  0.492352  0.749874  0.846577  1
  Cl  Cl12  1  0.297120  0.516640  0.545006  1
  Cl  Cl13  1  0.702880  0.483360  0.454994  1
  Cl  Cl14  1  0.834652  0.602112  0.107807  1
  Cl  Cl15  1  0.165348  0.397888  0.892193  1
  Cl  Cl16  1  0.947755  0.197925  0.579250  1
  Cl  Cl17  1  0.052245  0.802075  0.420750  1
  Cl  Cl18  1  0.258528  0.056554  0.772853  1
  Cl  Cl19  1  0.741472  0.943446  0.227147  1
  Cl  Cl20  1  0.841223  0.109032  0.875740  1
  Cl  Cl21  1  0.158777  0.890968  0.124260  1
