# generated using pymatgen
data_Th6Zn5AgC2
_symmetry_space_group_name_H-M   'P 1'
_cell_length_a   9.50159818
_cell_length_b   9.51023784
_cell_length_c   9.50159793
_cell_angle_alpha   59.96991448
_cell_angle_beta   59.70576039
_cell_angle_gamma   59.96991802
_symmetry_Int_Tables_number   1
_chemical_formula_structural   Th6Zn5AgC2
_chemical_formula_sum   'Th12 Zn10 Ag2 C4'
_cell_volume   605.47730862
_cell_formula_units_Z   2
loop_
 _symmetry_equiv_pos_site_id
 _symmetry_equiv_pos_as_xyz
  1  'x, y, z'
loop_
 _atom_site_type_symbol
 _atom_site_label
 _atom_site_symmetry_multiplicity
 _atom_site_fract_x
 _atom_site_fract_y
 _atom_site_fract_z
 _atom_site_occupancy
  Th  Th0  1  0.444097  0.442160  0.056655  1
  Th  Th1  1  0.056326  0.443674  0.056326  1
  Th  Th2  1  0.444097  0.057088  0.056655  1
  Th  Th3  1  0.056655  0.057088  0.444097  1
  Th  Th4  1  0.444768  0.055232  0.444768  1
  Th  Th5  1  0.056655  0.442160  0.444097  1
  Th  Th6  1  0.805903  0.807840  0.193345  1
  Th  Th7  1  0.193674  0.806326  0.193674  1
  Th  Th8  1  0.805903  0.192912  0.193345  1
  Th  Th9  1  0.193345  0.192912  0.805903  1
  Th  Th10  1  0.805232  0.194768  0.805232  1
  Th  Th11  1  0.193345  0.807840  0.805903  1
  Zn  Zn12  1  0.823318  0.826978  0.522726  1
  Zn  Zn13  1  0.824249  0.522697  0.824249  1
  Zn  Zn14  1  0.522726  0.826978  0.823318  1
  Zn  Zn15  1  0.824249  0.828806  0.824249  1
  Zn  Zn16  1  0.426682  0.423022  0.727274  1
  Zn  Zn17  1  0.425751  0.727303  0.425751  1
  Zn  Zn18  1  0.727274  0.423022  0.426682  1
  Zn  Zn19  1  0.425751  0.421194  0.425751  1
  Zn  Zn20  1  0.625000  0.125000  0.625000  1
  Zn  Zn21  1  0.625000  0.625000  0.625000  1
  Ag  Ag22  1  0.625000  0.625000  0.125000  1
  Ag  Ag23  1  0.125000  0.625000  0.625000  1
  C  C24  1  0.125000  0.125000  0.625000  1
  C  C25  1  0.125000  0.625000  0.125000  1
  C  C26  1  0.625000  0.125000  0.125000  1
  C  C27  1  0.125000  0.125000  0.125000  1
