# generated using pymatgen
data_Pr2Be6AsP5
_symmetry_space_group_name_H-M   'P 1'
_cell_length_a   3.75737700
_cell_length_b   10.70123200
_cell_length_c   11.50917800
_cell_angle_alpha   90.00000000
_cell_angle_beta   90.00000000
_cell_angle_gamma   90.00000000
_symmetry_Int_Tables_number   1
_chemical_formula_structural   Pr2Be6AsP5
_chemical_formula_sum   'Pr4 Be12 As2 P10'
_cell_volume   462.76750856
_cell_formula_units_Z   2
loop_
 _symmetry_equiv_pos_site_id
 _symmetry_equiv_pos_as_xyz
  1  'x, y, z'
loop_
 _atom_site_type_symbol
 _atom_site_label
 _atom_site_symmetry_multiplicity
 _atom_site_fract_x
 _atom_site_fract_y
 _atom_site_fract_z
 _atom_site_occupancy
  Pr  Pr0  1  0.750000  0.942171  0.335633  1
  Pr  Pr1  1  0.250000  0.442171  0.164367  1
  Pr  Pr2  1  0.750000  0.564822  0.837245  1
  Pr  Pr3  1  0.250000  0.064822  0.662755  1
  Be  Be4  1  0.750000  0.241710  0.449480  1
  Be  Be5  1  0.250000  0.741710  0.050520  1
  Be  Be6  1  0.750000  0.250519  0.956260  1
  Be  Be7  1  0.250000  0.750519  0.543740  1
  Be  Be8  1  0.750000  0.645510  0.289002  1
  Be  Be9  1  0.250000  0.145510  0.210998  1
  Be  Be10  1  0.750000  0.857460  0.798559  1
  Be  Be11  1  0.250000  0.357460  0.701441  1
  Be  Be12  1  0.750000  0.038854  0.064808  1
  Be  Be13  1  0.250000  0.538854  0.435192  1
  Be  Be14  1  0.750000  0.462105  0.564433  1
  Be  Be15  1  0.250000  0.962105  0.935567  1
  As  As16  1  0.750000  0.855354  0.596970  1
  As  As17  1  0.250000  0.355354  0.903030  1
  P  P18  1  0.750000  0.442317  0.373600  1
  P  P19  1  0.250000  0.942317  0.126400  1
  P  P20  1  0.750000  0.057476  0.873226  1
  P  P21  1  0.250000  0.557476  0.626774  1
  P  P22  1  0.750000  0.224623  0.144476  1
  P  P23  1  0.250000  0.724623  0.355524  1
  P  P24  1  0.750000  0.274967  0.638015  1
  P  P25  1  0.250000  0.774967  0.861985  1
  P  P26  1  0.750000  0.642112  0.096840  1
  P  P27  1  0.250000  0.142112  0.403160  1
