# generated using pymatgen
data_LiLa8Al4Zn3Rh8
_symmetry_space_group_name_H-M   'P 1'
_cell_length_a   4.09228800
_cell_length_b   7.47865969
_cell_length_c   16.57334876
_cell_angle_alpha   89.33019063
_cell_angle_beta   90.00000000
_cell_angle_gamma   90.00000000
_symmetry_Int_Tables_number   1
_chemical_formula_structural   LiLa8Al4Zn3Rh8
_chemical_formula_sum   'Li1 La8 Al4 Zn3 Rh8'
_cell_volume   507.18985040
_cell_formula_units_Z   1
loop_
 _symmetry_equiv_pos_site_id
 _symmetry_equiv_pos_as_xyz
  1  'x, y, z'
loop_
 _atom_site_type_symbol
 _atom_site_label
 _atom_site_symmetry_multiplicity
 _atom_site_fract_x
 _atom_site_fract_y
 _atom_site_fract_z
 _atom_site_occupancy
  Li  Li0  1  0.750000  0.007395  0.560827  1
  La  La1  1  0.750000  0.329287  0.440965  1
  La  La2  1  0.250000  0.047499  0.716485  1
  La  La3  1  0.250000  0.544216  0.781751  1
  La  La4  1  0.250000  0.668524  0.561070  1
  La  La5  1  0.750000  0.828434  0.058413  1
  La  La6  1  0.250000  0.172407  0.937826  1
  La  La7  1  0.750000  0.455559  0.220999  1
  La  La8  1  0.750000  0.950218  0.281821  1
  Al  Al9  1  0.250000  0.132343  0.149239  1
  Al  Al10  1  0.250000  0.997845  0.441287  1
  Al  Al11  1  0.750000  0.868924  0.850384  1
  Al  Al12  1  0.250000  0.496691  0.061288  1
  Zn  Zn13  1  0.750000  0.367891  0.647966  1
  Zn  Zn14  1  0.750000  0.501660  0.938227  1
  Zn  Zn15  1  0.250000  0.629126  0.351726  1
  Rh  Rh16  1  0.750000  0.234822  0.816911  1
  Rh  Rh17  1  0.250000  0.238264  0.313300  1
  Rh  Rh18  1  0.250000  0.742453  0.930647  1
  Rh  Rh19  1  0.250000  0.245050  0.560839  1
  Rh  Rh20  1  0.250000  0.752602  0.178129  1
  Rh  Rh21  1  0.750000  0.772864  0.435403  1
  Rh  Rh22  1  0.750000  0.270194  0.071250  1
  Rh  Rh23  1  0.750000  0.745730  0.693243  1
