# generated using pymatgen
data_Tb2Np(Si3Pd10)2
_symmetry_space_group_name_H-M   'P 1'
_cell_length_a   8.75127744
_cell_length_b   8.75127694
_cell_length_c   8.75127800
_cell_angle_alpha   60.00000354
_cell_angle_beta   60.00000546
_cell_angle_gamma   60.00000390
_symmetry_Int_Tables_number   1
_chemical_formula_structural   Tb2Np(Si3Pd10)2
_chemical_formula_sum   'Tb2 Np1 Si6 Pd20'
_cell_volume   473.91385406
_cell_formula_units_Z   1
loop_
 _symmetry_equiv_pos_site_id
 _symmetry_equiv_pos_as_xyz
  1  'x, y, z'
loop_
 _atom_site_type_symbol
 _atom_site_label
 _atom_site_symmetry_multiplicity
 _atom_site_fract_x
 _atom_site_fract_y
 _atom_site_fract_z
 _atom_site_occupancy
  Tb  Tb0  1  0.250000  0.249988  0.249979  1
  Tb  Tb1  1  0.999984  0.999999  0.000045  1
  Np  Np2  1  0.750018  0.749897  0.749957  1
  Si  Si3  1  0.733142  0.266872  0.266831  1
  Si  Si4  1  0.266838  0.733140  0.733168  1
  Si  Si5  1  0.266867  0.733135  0.266820  1
  Si  Si6  1  0.733155  0.266822  0.733154  1
  Si  Si7  1  0.266850  0.266832  0.733140  1
  Si  Si8  1  0.733187  0.733177  0.266799  1
  Pd  Pd9  1  0.384118  0.384110  0.384075  1
  Pd  Pd10  1  0.616113  0.616108  0.616018  1
  Pd  Pd11  1  0.384154  0.384130  0.847584  1
  Pd  Pd12  1  0.384090  0.847654  0.384129  1
  Pd  Pd13  1  0.616128  0.616133  0.151641  1
  Pd  Pd14  1  0.616118  0.151606  0.616113  1
  Pd  Pd15  1  0.847668  0.384086  0.384124  1
  Pd  Pd16  1  0.151715  0.616080  0.616072  1
  Pd  Pd17  1  0.346386  0.999346  0.999336  1
  Pd  Pd18  1  0.654916  0.999359  0.999378  1
  Pd  Pd19  1  0.999212  0.346517  0.655071  1
  Pd  Pd20  1  0.999242  0.655071  0.346438  1
  Pd  Pd21  1  0.999237  0.346489  0.999268  1
  Pd  Pd22  1  0.655101  0.999232  0.346492  1
  Pd  Pd23  1  0.999308  0.654989  0.999285  1
  Pd  Pd24  1  0.346482  0.999209  0.655072  1
  Pd  Pd25  1  0.999177  0.999161  0.346531  1
  Pd  Pd26  1  0.999196  0.999215  0.655100  1
  Pd  Pd27  1  0.655088  0.346555  0.999165  1
  Pd  Pd28  1  0.346505  0.655084  0.999212  1
