# generated using pymatgen
data_Tb4TmZr3(Ni4P3)4
_symmetry_space_group_name_H-M   'P 1'
_cell_length_a   12.32761399
_cell_length_b   12.32761409
_cell_length_c   3.81099000
_cell_angle_alpha   90.00000000
_cell_angle_beta   90.00000000
_cell_angle_gamma   119.88701558
_symmetry_Int_Tables_number   1
_chemical_formula_structural   Tb4TmZr3(Ni4P3)4
_chemical_formula_sum   'Tb4 Tm1 Zr3 Ni16 P12'
_cell_volume   502.13422145
_cell_formula_units_Z   1
loop_
 _symmetry_equiv_pos_site_id
 _symmetry_equiv_pos_as_xyz
  1  'x, y, z'
loop_
 _atom_site_type_symbol
 _atom_site_label
 _atom_site_symmetry_multiplicity
 _atom_site_fract_x
 _atom_site_fract_y
 _atom_site_fract_z
 _atom_site_occupancy
  Tb  Tb0  1  0.815692  0.000308  0.500000  1
  Tb  Tb1  1  0.000308  0.815692  0.500000  1
  Tb  Tb2  1  0.333362  0.666884  0.000000  1
  Tb  Tb3  1  0.666884  0.333362  0.000000  1
  Tm  Tm4  1  0.184914  0.184914  0.500000  1
  Zr  Zr5  1  0.561149  0.561149  0.000000  1
  Zr  Zr6  1  0.437793  0.000056  0.000000  1
  Zr  Zr7  1  0.000056  0.437793  0.000000  1
  Ni  Ni8  1  0.727116  0.727116  0.500000  1
  Ni  Ni9  1  0.272616  0.000745  0.500000  1
  Ni  Ni10  1  0.000745  0.272616  0.500000  1
  Ni  Ni11  1  0.185080  0.375576  0.000000  1
  Ni  Ni12  1  0.623416  0.808621  0.000000  1
  Ni  Ni13  1  0.190631  0.813707  0.000000  1
  Ni  Ni14  1  0.808621  0.623416  0.000000  1
  Ni  Ni15  1  0.813707  0.190631  0.000000  1
  Ni  Ni16  1  0.375576  0.185080  0.000000  1
  Ni  Ni17  1  0.360531  0.484413  0.500000  1
  Ni  Ni18  1  0.515372  0.876741  0.500000  1
  Ni  Ni19  1  0.124339  0.639008  0.500000  1
  Ni  Ni20  1  0.876741  0.515372  0.500000  1
  Ni  Ni21  1  0.639008  0.124339  0.500000  1
  Ni  Ni22  1  0.484413  0.360531  0.500000  1
  Ni  Ni23  1  0.001063  0.001063  0.000000  1
  P  P24  1  0.822325  0.822325  0.000000  1
  P  P25  1  0.178283  0.001251  0.000000  1
  P  P26  1  0.001251  0.178283  0.000000  1
  P  P27  1  0.170891  0.475529  0.500000  1
  P  P28  1  0.524797  0.695805  0.500000  1
  P  P29  1  0.304380  0.829573  0.500000  1
  P  P30  1  0.695805  0.524797  0.500000  1
  P  P31  1  0.829573  0.304380  0.500000  1
  P  P32  1  0.475529  0.170891  0.500000  1
  P  P33  1  0.355144  0.355144  0.000000  1
  P  P34  1  0.643047  0.999841  0.000000  1
  P  P35  1  0.999841  0.643047  0.000000  1
