# generated using pymatgen
data_Hf6Sn6Ir2Rh3Au
_symmetry_space_group_name_H-M   'P 1'
_cell_length_a   7.36716900
_cell_length_b   7.36716918
_cell_length_c   7.41873300
_cell_angle_alpha   90.00000000
_cell_angle_beta   90.00000000
_cell_angle_gamma   119.99999472
_symmetry_Int_Tables_number   1
_chemical_formula_structural   Hf6Sn6Ir2Rh3Au
_chemical_formula_sum   'Hf6 Sn6 Ir2 Rh3 Au1'
_cell_volume   348.70780757
_cell_formula_units_Z   1
loop_
 _symmetry_equiv_pos_site_id
 _symmetry_equiv_pos_as_xyz
  1  'x, y, z'
loop_
 _atom_site_type_symbol
 _atom_site_label
 _atom_site_symmetry_multiplicity
 _atom_site_fract_x
 _atom_site_fract_y
 _atom_site_fract_z
 _atom_site_occupancy
  Hf  Hf0  1  0.016548  0.405909  0.758475  1
  Hf  Hf1  1  0.594091  0.610639  0.758475  1
  Hf  Hf2  1  0.389361  0.983452  0.758475  1
  Hf  Hf3  1  0.961674  0.379860  0.246157  1
  Hf  Hf4  1  0.620140  0.581813  0.246157  1
  Hf  Hf5  1  0.418187  0.038326  0.246157  1
  Sn  Sn6  1  0.264908  0.264209  0.506657  1
  Sn  Sn7  1  0.999300  0.735092  0.506657  1
  Sn  Sn8  1  0.000637  0.732605  0.004715  1
  Sn  Sn9  1  0.735791  0.000700  0.506657  1
  Sn  Sn10  1  0.731968  0.999363  0.004715  1
  Sn  Sn11  1  0.267395  0.268032  0.004715  1
  Ir  Ir12  1  0.666667  0.333333  0.527438  1
  Ir  Ir13  1  0.333333  0.666667  0.025786  1
  Rh  Rh14  1  0.000000  0.000000  0.757436  1
  Rh  Rh15  1  0.000000  0.000000  0.255249  1
  Rh  Rh16  1  0.666667  0.333333  0.946837  1
  Au  Au17  1  0.333333  0.666667  0.439239  1
