# generated using pymatgen
data_Dy(Zn5Rh)2
_symmetry_space_group_name_H-M   'P 1'
_cell_length_a   6.77646143
_cell_length_b   6.85533533
_cell_length_c   6.77646295
_cell_angle_alpha   98.22914071
_cell_angle_beta   97.72352002
_cell_angle_gamma   135.43995718
_symmetry_Int_Tables_number   1
_chemical_formula_structural   Dy(Zn5Rh)2
_chemical_formula_sum   'Dy1 Zn10 Rh2'
_cell_volume   205.55293540
_cell_formula_units_Z   1
loop_
 _symmetry_equiv_pos_site_id
 _symmetry_equiv_pos_as_xyz
  1  'x, y, z'
loop_
 _atom_site_type_symbol
 _atom_site_label
 _atom_site_symmetry_multiplicity
 _atom_site_fract_x
 _atom_site_fract_y
 _atom_site_fract_z
 _atom_site_occupancy
  Dy  Dy0  1  0.000000  0.000000  0.000000  1
  Zn  Zn1  1  0.500000  0.500000  0.500000  1
  Zn  Zn2  1  0.000000  0.500000  0.000000  1
  Zn  Zn3  1  0.967613  0.319452  0.351839  1
  Zn  Zn4  1  0.032387  0.680548  0.648161  1
  Zn  Zn5  1  0.650626  0.000000  0.650626  1
  Zn  Zn6  1  0.349374  0.000000  0.349374  1
  Zn  Zn7  1  0.501087  0.283047  0.781960  1
  Zn  Zn8  1  0.498913  0.716953  0.218040  1
  Zn  Zn9  1  0.719458  0.500000  0.219458  1
  Zn  Zn10  1  0.280542  0.500000  0.780542  1
  Rh  Rh11  1  0.000000  0.000000  0.500000  1
  Rh  Rh12  1  0.500000  0.000000  0.000000  1
