# generated using pymatgen
data_Nd4Fe3CoI2
_symmetry_space_group_name_H-M   'P 1'
_cell_length_a   4.01740900
_cell_length_b   4.01740853
_cell_length_c   17.93911000
_cell_angle_alpha   90.00000000
_cell_angle_beta   90.00000000
_cell_angle_gamma   119.99999562
_symmetry_Int_Tables_number   1
_chemical_formula_structural   Nd4Fe3CoI2
_chemical_formula_sum   'Nd4 Fe3 Co1 I2'
_cell_volume   250.73998154
_cell_formula_units_Z   1
loop_
 _symmetry_equiv_pos_site_id
 _symmetry_equiv_pos_as_xyz
  1  'x, y, z'
loop_
 _atom_site_type_symbol
 _atom_site_label
 _atom_site_symmetry_multiplicity
 _atom_site_fract_x
 _atom_site_fract_y
 _atom_site_fract_z
 _atom_site_occupancy
  Nd  Nd0  1  0.000000  0.000000  0.106578  1
  Nd  Nd1  1  0.000000  0.000000  0.893600  1
  Nd  Nd2  1  0.000000  0.000000  0.606629  1
  Nd  Nd3  1  0.000000  0.000000  0.393342  1
  Fe  Fe4  1  0.333333  0.666667  0.502307  1
  Fe  Fe5  1  0.666667  0.333333  0.497545  1
  Fe  Fe6  1  0.666667  0.333333  0.000812  1
  Co  Co7  1  0.333333  0.666667  0.999371  1
  I  I8  1  0.333333  0.666667  0.249344  1
  I  I9  1  0.666667  0.333333  0.750472  1
