# generated using pymatgen
data_TbHo2Mg3Ag2Ru
_symmetry_space_group_name_H-M   'P 1'
_cell_length_a   7.58607564
_cell_length_b   7.58425063
_cell_length_c   4.10899600
_cell_angle_alpha   90.00000000
_cell_angle_beta   90.00000000
_cell_angle_gamma   119.91232744
_symmetry_Int_Tables_number   1
_chemical_formula_structural   TbHo2Mg3Ag2Ru
_chemical_formula_sum   'Tb1 Ho2 Mg3 Ag2 Ru1'
_cell_volume   204.91756841
_cell_formula_units_Z   1
loop_
 _symmetry_equiv_pos_site_id
 _symmetry_equiv_pos_as_xyz
  1  'x, y, z'
loop_
 _atom_site_type_symbol
 _atom_site_label
 _atom_site_symmetry_multiplicity
 _atom_site_fract_x
 _atom_site_fract_y
 _atom_site_fract_z
 _atom_site_occupancy
  Tb  Tb0  1  0.568791  0.964828  0.000000  1
  Ho  Ho1  1  0.036448  0.604627  0.000000  1
  Ho  Ho2  1  0.394457  0.430841  0.000000  1
  Mg  Mg3  1  0.251265  0.000214  0.500000  1
  Mg  Mg4  1  0.000126  0.251983  0.500000  1
  Mg  Mg5  1  0.748113  0.747171  0.500000  1
  Ag  Ag6  1  0.666740  0.334730  0.500000  1
  Ag  Ag7  1  0.001339  0.000278  0.000000  1
  Ru  Ru8  1  0.332722  0.665328  0.500000  1
