# generated using pymatgen
data_Pr19SmSi15Br
_symmetry_space_group_name_H-M   'P 1'
_cell_length_a   7.96676179
_cell_length_b   7.90775840
_cell_length_c   15.36663647
_cell_angle_alpha   89.66804755
_cell_angle_beta   89.16998871
_cell_angle_gamma   90.20137994
_symmetry_Int_Tables_number   1
_chemical_formula_structural   Pr19SmSi15Br
_chemical_formula_sum   'Pr19 Sm1 Si15 Br1'
_cell_volume   967.96213297
_cell_formula_units_Z   1
loop_
 _symmetry_equiv_pos_site_id
 _symmetry_equiv_pos_as_xyz
  1  'x, y, z'
loop_
 _atom_site_type_symbol
 _atom_site_label
 _atom_site_symmetry_multiplicity
 _atom_site_fract_x
 _atom_site_fract_y
 _atom_site_fract_z
 _atom_site_occupancy
  Pr  Pr0  1  0.187319  0.808504  0.249827  1
  Pr  Pr1  1  0.796270  0.189366  0.752722  1
  Pr  Pr2  1  0.687703  0.688995  0.496868  1
  Pr  Pr3  1  0.382108  0.005706  0.442685  1
  Pr  Pr4  1  0.497244  0.869213  0.698941  1
  Pr  Pr5  1  0.510381  0.121344  0.196739  1
  Pr  Pr6  1  0.876147  0.486130  0.300690  1
  Pr  Pr7  1  0.121802  0.518047  0.804521  1
  Pr  Pr8  1  0.630883  0.986208  0.952093  1
  Pr  Pr9  1  0.996883  0.383614  0.545374  1
  Pr  Pr10  1  0.991754  0.622382  0.053246  1
  Pr  Pr11  1  0.139330  0.988023  0.874922  1
  Pr  Pr12  1  0.517619  0.629362  0.126015  1
  Pr  Pr13  1  0.482537  0.371406  0.630293  1
  Pr  Pr14  1  0.633691  0.521210  0.876628  1
  Pr  Pr15  1  0.369025  0.477767  0.374876  1
  Pr  Pr16  1  0.870809  0.019472  0.376330  1
  Pr  Pr17  1  0.982979  0.128045  0.124413  1
  Pr  Pr18  1  0.012675  0.862203  0.621118  1
  Sm  Sm19  1  0.311039  0.310519  0.999593  1
  Si  Si20  1  0.330977  0.696018  0.951173  1
  Si  Si21  1  0.662230  0.304498  0.453398  1
  Si  Si22  1  0.699572  0.334911  0.050234  1
  Si  Si23  1  0.304682  0.667663  0.549766  1
  Si  Si24  1  0.803564  0.832201  0.202290  1
  Si  Si25  1  0.167521  0.195104  0.297181  1
  Si  Si26  1  0.842123  0.804798  0.797403  1
  Si  Si27  1  0.287786  0.923590  0.058302  1
  Si  Si28  1  0.576295  0.786212  0.308449  1
  Si  Si29  1  0.450181  0.210543  0.826325  1
  Si  Si30  1  0.790637  0.576683  0.688821  1
  Si  Si31  1  0.212029  0.422368  0.189721  1
  Si  Si32  1  0.704727  0.075507  0.560503  1
  Si  Si33  1  0.928496  0.290977  0.940855  1
  Si  Si34  1  0.077425  0.711185  0.440448  1
  Br  Br35  1  0.163556  0.180224  0.687236  1
