# generated using pymatgen
data_Ac5Ag6
_symmetry_space_group_name_H-M   'P 1'
_cell_length_a   17.96808998
_cell_length_b   17.96809004
_cell_length_c   4.55490900
_cell_angle_alpha   90.00000000
_cell_angle_beta   90.00000000
_cell_angle_gamma   166.78451403
_symmetry_Int_Tables_number   1
_chemical_formula_structural   Ac5Ag6
_chemical_formula_sum   'Ac5 Ag6'
_cell_volume   336.19121430
_cell_formula_units_Z   1
loop_
 _symmetry_equiv_pos_site_id
 _symmetry_equiv_pos_as_xyz
  1  'x, y, z'
loop_
 _atom_site_type_symbol
 _atom_site_label
 _atom_site_symmetry_multiplicity
 _atom_site_fract_x
 _atom_site_fract_y
 _atom_site_fract_z
 _atom_site_occupancy
  Ac  Ac0  1  0.000000  0.000000  0.000000  1
  Ac  Ac1  1  0.619724  0.380274  0.000000  1
  Ac  Ac2  1  0.380274  0.619724  0.000000  1
  Ac  Ac3  1  0.807913  0.192085  0.500001  1
  Ac  Ac4  1  0.192085  0.807913  0.500001  1
  Ag  Ag5  1  0.722845  0.277153  0.000000  1
  Ag  Ag6  1  0.277153  0.722845  0.000000  1
  Ag  Ag7  1  0.908667  0.091332  0.500001  1
  Ag  Ag8  1  0.539123  0.460875  0.500001  1
  Ag  Ag9  1  0.460875  0.539123  0.500001  1
  Ag  Ag10  1  0.091332  0.908667  0.500001  1
