# generated using pymatgen
data_Na3Cr3GeO8
_symmetry_space_group_name_H-M   'P 1'
_cell_length_a   6.49682744
_cell_length_b   6.49682361
_cell_length_c   6.49678687
_cell_angle_alpha   55.04942486
_cell_angle_beta   55.04943946
_cell_angle_gamma   55.04952568
_symmetry_Int_Tables_number   1
_chemical_formula_structural   Na3Cr3GeO8
_chemical_formula_sum   'Na3 Cr3 Ge1 O8'
_cell_volume   171.57358465
_cell_formula_units_Z   1
loop_
 _symmetry_equiv_pos_site_id
 _symmetry_equiv_pos_as_xyz
  1  'x, y, z'
loop_
 _atom_site_type_symbol
 _atom_site_label
 _atom_site_symmetry_multiplicity
 _atom_site_fract_x
 _atom_site_fract_y
 _atom_site_fract_z
 _atom_site_occupancy
  Na  Na0  1  0.000000  0.500000  0.000000  1
  Na  Na1  1  0.000000  0.000000  0.500000  1
  Na  Na2  1  0.500000  0.000000  0.000000  1
  Cr  Cr3  1  0.500000  0.000000  0.500000  1
  Cr  Cr4  1  0.500000  0.500000  0.000000  1
  Cr  Cr5  1  0.000000  0.500000  0.500000  1
  Ge  Ge6  1  0.000000  0.000000  0.000000  1
  O  O7  1  0.268792  0.268790  0.268788  1
  O  O8  1  0.778234  0.255580  0.778233  1
  O  O9  1  0.778239  0.778237  0.255577  1
  O  O10  1  0.731208  0.731210  0.731212  1
  O  O11  1  0.255574  0.778236  0.778235  1
  O  O12  1  0.221766  0.744420  0.221767  1
  O  O13  1  0.221761  0.221763  0.744423  1
  O  O14  1  0.744426  0.221764  0.221765  1
