# generated using pymatgen
data_Pm4GeIr3
_symmetry_space_group_name_H-M   'P 1'
_cell_length_a   7.50766500
_cell_length_b   5.78161223
_cell_length_c   4.36755400
_cell_angle_alpha   90.00000000
_cell_angle_beta   90.00000000
_cell_angle_gamma   91.02560107
_symmetry_Int_Tables_number   1
_chemical_formula_structural   Pm4GeIr3
_chemical_formula_sum   'Pm4 Ge1 Ir3'
_cell_volume   189.54945873
_cell_formula_units_Z   1
loop_
 _symmetry_equiv_pos_site_id
 _symmetry_equiv_pos_as_xyz
  1  'x, y, z'
loop_
 _atom_site_type_symbol
 _atom_site_label
 _atom_site_symmetry_multiplicity
 _atom_site_fract_x
 _atom_site_fract_y
 _atom_site_fract_z
 _atom_site_occupancy
  Pm  Pm0  1  0.110691  0.496581  0.000000  1
  Pm  Pm1  1  0.577684  0.752124  0.000000  1
  Pm  Pm2  1  0.242447  0.008452  0.499999  1
  Pm  Pm3  1  0.732222  0.246967  0.499999  1
  Ge  Ge4  1  0.878798  0.759571  0.499999  1
  Ir  Ir5  1  0.467312  0.229862  0.000000  1
  Ir  Ir6  1  0.949992  0.984765  0.000000  1
  Ir  Ir7  1  0.374187  0.521680  0.499999  1
