# generated using pymatgen
data_Dy2Ho3(In2Au)2
_symmetry_space_group_name_H-M   'P 1'
_cell_length_a   3.66051200
_cell_length_b   8.20689800
_cell_length_c   18.42540600
_cell_angle_alpha   90.00125729
_cell_angle_beta   90.00000000
_cell_angle_gamma   90.00000000
_symmetry_Int_Tables_number   1
_chemical_formula_structural   Dy2Ho3(In2Au)2
_chemical_formula_sum   'Dy4 Ho6 In8 Au4'
_cell_volume   553.52588743
_cell_formula_units_Z   2
loop_
 _symmetry_equiv_pos_site_id
 _symmetry_equiv_pos_as_xyz
  1  'x, y, z'
loop_
 _atom_site_type_symbol
 _atom_site_label
 _atom_site_symmetry_multiplicity
 _atom_site_fract_x
 _atom_site_fract_y
 _atom_site_fract_z
 _atom_site_occupancy
  Dy  Dy0  1  0.000000  0.500000  0.500000  1
  Dy  Dy1  1  0.000000  0.000000  0.000000  1
  Dy  Dy2  1  0.000000  0.736445  0.281994  1
  Dy  Dy3  1  0.000000  0.263555  0.718006  1
  Ho  Ho4  1  0.000000  0.763537  0.782043  1
  Ho  Ho5  1  0.000000  0.236463  0.217957  1
  Ho  Ho6  1  0.000000  0.618865  0.079660  1
  Ho  Ho7  1  0.000000  0.381135  0.920340  1
  Ho  Ho8  1  0.000000  0.880902  0.579699  1
  Ho  Ho9  1  0.000000  0.119098  0.420301  1
  In  In10  1  0.500000  0.711762  0.932968  1
  In  In11  1  0.500000  0.288238  0.067032  1
  In  In12  1  0.500000  0.788458  0.433083  1
  In  In13  1  0.500000  0.211542  0.566917  1
  In  In14  1  0.500000  0.581613  0.646780  1
  In  In15  1  0.500000  0.418387  0.353220  1
  In  In16  1  0.500000  0.919208  0.146572  1
  In  In17  1  0.500000  0.080792  0.853428  1
  Au  Au18  1  0.500000  0.525470  0.196004  1
  Au  Au19  1  0.500000  0.474530  0.803996  1
  Au  Au20  1  0.500000  0.972507  0.696284  1
  Au  Au21  1  0.500000  0.027493  0.303716  1
