# generated using pymatgen
data_YbThCo5B4
_symmetry_space_group_name_H-M   'P 1'
_cell_length_a   7.11850204
_cell_length_b   5.97057453
_cell_length_c   5.29586710
_cell_angle_alpha   78.11779637
_cell_angle_beta   55.16179475
_cell_angle_gamma   46.72043428
_symmetry_Int_Tables_number   1
_chemical_formula_structural   YbThCo5B4
_chemical_formula_sum   'Yb1 Th1 Co5 B4'
_cell_volume   127.83218613
_cell_formula_units_Z   1
loop_
 _symmetry_equiv_pos_site_id
 _symmetry_equiv_pos_as_xyz
  1  'x, y, z'
loop_
 _atom_site_type_symbol
 _atom_site_label
 _atom_site_symmetry_multiplicity
 _atom_site_fract_x
 _atom_site_fract_y
 _atom_site_fract_z
 _atom_site_occupancy
  Yb  Yb0  1  0.147398  0.147397  0.852603  1
  Th  Th1  1  0.859607  0.859605  0.140394  1
  Co  Co2  1  0.501436  0.501438  0.998563  1
  Co  Co3  1  0.247361  0.247363  0.252638  1
  Co  Co4  1  0.001437  0.001437  0.498564  1
  Co  Co5  1  0.499873  0.499871  0.500128  1
  Co  Co6  1  0.747362  0.747363  0.752638  1
  B  B7  1  0.467120  0.787995  0.212004  1
  B  B8  1  0.207564  0.532847  0.467152  1
  B  B9  1  0.787997  0.467118  0.532881  1
  B  B10  1  0.532848  0.207563  0.792437  1
