# generated using pymatgen
data_TbLuCo3P7Ru9
_symmetry_space_group_name_H-M   'P 1'
_cell_length_a   9.31352900
_cell_length_b   9.31352863
_cell_length_c   3.81640900
_cell_angle_alpha   90.00000000
_cell_angle_beta   90.00000000
_cell_angle_gamma   120.00000486
_symmetry_Int_Tables_number   1
_chemical_formula_structural   TbLuCo3P7Ru9
_chemical_formula_sum   'Tb1 Lu1 Co3 P7 Ru9'
_cell_volume   286.69099178
_cell_formula_units_Z   1
loop_
 _symmetry_equiv_pos_site_id
 _symmetry_equiv_pos_as_xyz
  1  'x, y, z'
loop_
 _atom_site_type_symbol
 _atom_site_label
 _atom_site_symmetry_multiplicity
 _atom_site_fract_x
 _atom_site_fract_y
 _atom_site_fract_z
 _atom_site_occupancy
  Tb  Tb0  1  0.333333  0.666667  0.000000  1
  Lu  Lu1  1  0.000000  0.000000  0.500000  1
  Co  Co2  1  0.936345  0.445036  0.000000  1
  Co  Co3  1  0.508690  0.063655  0.000000  1
  Co  Co4  1  0.554964  0.491310  0.000000  1
  P  P5  1  0.967717  0.222424  0.000000  1
  P  P6  1  0.254707  0.032283  0.000000  1
  P  P7  1  0.777576  0.745293  0.000000  1
  P  P8  1  0.067274  0.618562  0.500000  1
  P  P9  1  0.551287  0.932726  0.500000  1
  P  P10  1  0.381438  0.448713  0.500000  1
  P  P11  1  0.666667  0.333333  0.000000  1
  Ru  Ru12  1  0.730235  0.969557  0.000000  1
  Ru  Ru13  1  0.239322  0.269765  0.000000  1
  Ru  Ru14  1  0.030443  0.760678  0.000000  1
  Ru  Ru15  1  0.101696  0.385199  0.500000  1
  Ru  Ru16  1  0.283503  0.898304  0.500000  1
  Ru  Ru17  1  0.614801  0.716497  0.500000  1
  Ru  Ru18  1  0.752275  0.212680  0.500000  1
  Ru  Ru19  1  0.460404  0.247725  0.500000  1
  Ru  Ru20  1  0.787320  0.539596  0.500000  1
