# generated using pymatgen
data_AcEr3(MoN3)4
_symmetry_space_group_name_H-M   'P 1'
_cell_length_a   7.25473958
_cell_length_b   7.25473902
_cell_length_c   6.13741584
_cell_angle_alpha   76.71631612
_cell_angle_beta   76.71631893
_cell_angle_gamma   83.79467199
_symmetry_Int_Tables_number   1
_chemical_formula_structural   AcEr3(MoN3)4
_chemical_formula_sum   'Ac1 Er3 Mo4 N12'
_cell_volume   305.44403039
_cell_formula_units_Z   1
loop_
 _symmetry_equiv_pos_site_id
 _symmetry_equiv_pos_as_xyz
  1  'x, y, z'
loop_
 _atom_site_type_symbol
 _atom_site_label
 _atom_site_symmetry_multiplicity
 _atom_site_fract_x
 _atom_site_fract_y
 _atom_site_fract_z
 _atom_site_occupancy
  Ac  Ac0  1  0.685557  0.314443  0.750000  1
  Er  Er1  1  0.302354  0.697646  0.250000  1
  Er  Er2  1  0.920493  0.079507  0.250000  1
  Er  Er3  1  0.092600  0.907400  0.750000  1
  Mo  Mo4  1  0.615992  0.804992  0.741380  1
  Mo  Mo5  1  0.378285  0.197377  0.266399  1
  Mo  Mo6  1  0.802623  0.621715  0.233601  1
  Mo  Mo7  1  0.195008  0.384008  0.758620  1
  N  N8  1  0.380661  0.894538  0.852308  1
  N  N9  1  0.010610  0.207764  0.858052  1
  N  N10  1  0.657089  0.622005  0.005214  1
  N  N11  1  0.105462  0.619339  0.647692  1
  N  N12  1  0.887232  0.383875  0.326131  1
  N  N13  1  0.220700  0.993222  0.356398  1
  N  N14  1  0.329653  0.377452  0.000347  1
  N  N15  1  0.792236  0.989390  0.641948  1
  N  N16  1  0.616125  0.112768  0.173869  1
  N  N17  1  0.377995  0.342911  0.494786  1
  N  N18  1  0.006778  0.779300  0.143602  1
  N  N19  1  0.622548  0.670347  0.499653  1
