# generated using pymatgen
data_DyEr(PaAl5)3
_symmetry_space_group_name_H-M   'P 1'
_cell_length_a   12.59790783
_cell_length_b   12.59790810
_cell_length_c   12.59790716
_cell_angle_alpha   28.08161565
_cell_angle_beta   28.08161448
_cell_angle_gamma   28.08161787
_symmetry_Int_Tables_number   1
_chemical_formula_structural   DyEr(PaAl5)3
_chemical_formula_sum   'Dy1 Er1 Pa3 Al15'
_cell_volume   391.35038910
_cell_formula_units_Z   1
loop_
 _symmetry_equiv_pos_site_id
 _symmetry_equiv_pos_as_xyz
  1  'x, y, z'
loop_
 _atom_site_type_symbol
 _atom_site_label
 _atom_site_symmetry_multiplicity
 _atom_site_fract_x
 _atom_site_fract_y
 _atom_site_fract_z
 _atom_site_occupancy
  Dy  Dy0  1  0.999718  0.999718  0.999718  1
  Er  Er1  1  0.599490  0.599490  0.599490  1
  Pa  Pa2  1  0.130825  0.130825  0.130825  1
  Pa  Pa3  1  0.869165  0.869165  0.869165  1
  Pa  Pa4  1  0.400876  0.400876  0.400876  1
  Al  Al5  1  0.132307  0.635381  0.635381  1
  Al  Al6  1  0.635381  0.635381  0.132307  1
  Al  Al7  1  0.635381  0.132307  0.635381  1
  Al  Al8  1  0.364562  0.871912  0.364562  1
  Al  Al9  1  0.364562  0.364562  0.871912  1
  Al  Al10  1  0.871912  0.364562  0.364562  1
  Al  Al11  1  0.429744  0.883276  0.883276  1
  Al  Al12  1  0.883276  0.883276  0.429744  1
  Al  Al13  1  0.883276  0.429744  0.883276  1
  Al  Al14  1  0.116474  0.568219  0.116474  1
  Al  Al15  1  0.116474  0.116474  0.568219  1
  Al  Al16  1  0.568219  0.116474  0.116474  1
  Al  Al17  1  0.498008  0.498008  0.002338  1
  Al  Al18  1  0.498008  0.002338  0.498008  1
  Al  Al19  1  0.002338  0.498008  0.498008  1
