# generated using pymatgen
data_Dy5P12Ir9Os10
_symmetry_space_group_name_H-M   'P 1'
_cell_length_a   12.61237095
_cell_length_b   12.57067624
_cell_length_c   4.00222200
_cell_angle_alpha   90.00000000
_cell_angle_beta   90.00000000
_cell_angle_gamma   119.78543425
_symmetry_Int_Tables_number   1
_chemical_formula_structural   Dy5P12Ir9Os10
_chemical_formula_sum   'Dy5 P12 Ir9 Os10'
_cell_volume   550.70893135
_cell_formula_units_Z   1
loop_
 _symmetry_equiv_pos_site_id
 _symmetry_equiv_pos_as_xyz
  1  'x, y, z'
loop_
 _atom_site_type_symbol
 _atom_site_label
 _atom_site_symmetry_multiplicity
 _atom_site_fract_x
 _atom_site_fract_y
 _atom_site_fract_z
 _atom_site_occupancy
  Dy  Dy0  1  0.667139  0.332443  0.000000  1
  Dy  Dy1  1  0.333597  0.667042  0.000000  1
  Dy  Dy2  1  0.812985  0.000369  0.500000  1
  Dy  Dy3  1  0.184350  0.186772  0.500000  1
  Dy  Dy4  1  0.000100  0.814641  0.500000  1
  P  P5  1  0.633717  0.997139  0.000000  1
  P  P6  1  0.363040  0.369389  0.000000  1
  P  P7  1  0.006823  0.637693  0.000000  1
  P  P8  1  0.690867  0.517947  0.500000  1
  P  P9  1  0.826356  0.304733  0.500000  1
  P  P10  1  0.312169  0.828039  0.500000  1
  P  P11  1  0.516001  0.687380  0.500000  1
  P  P12  1  0.180534  0.002384  0.000000  1
  P  P13  1  0.820138  0.819468  0.000000  1
  P  P14  1  0.995845  0.180184  0.000000  1
  P  P15  1  0.480863  0.170443  0.500000  1
  P  P16  1  0.172727  0.484937  0.500000  1
  Ir  Ir17  1  0.625535  0.804774  0.000000  1
  Ir  Ir18  1  0.180221  0.375204  0.000000  1
  Ir  Ir19  1  0.374769  0.185065  0.000000  1
  Ir  Ir20  1  0.195115  0.821919  0.000000  1
  Ir  Ir21  1  0.810466  0.625088  0.000000  1
  Ir  Ir22  1  0.868339  0.503454  0.500000  1
  Ir  Ir23  1  0.494790  0.362201  0.500000  1
  Ir  Ir24  1  0.634645  0.128220  0.500000  1
  Ir  Ir25  1  0.999403  0.000336  0.000000  1
  Os  Os26  1  0.127932  0.639671  0.500000  1
  Os  Os27  1  0.361981  0.488863  0.500000  1
  Os  Os28  1  0.509397  0.869958  0.500000  1
  Os  Os29  1  0.711382  0.709656  0.500000  1
  Os  Os30  1  0.001026  0.290570  0.500000  1
  Os  Os31  1  0.452716  0.001302  0.000000  1
  Os  Os32  1  0.550252  0.545504  0.000000  1
  Os  Os33  1  0.999022  0.451756  0.000000  1
  Os  Os34  1  0.816241  0.193848  0.000000  1
  Os  Os35  1  0.289516  0.001608  0.500000  1
