# generated using pymatgen
data_Er7Lu3InPb5
_symmetry_space_group_name_H-M   'P 1'
_cell_length_a   6.56210503
_cell_length_b   8.92072821
_cell_length_c   8.94553970
_cell_angle_alpha   120.01604198
_cell_angle_beta   89.98679822
_cell_angle_gamma   89.98713379
_symmetry_Int_Tables_number   1
_chemical_formula_structural   Er7Lu3InPb5
_chemical_formula_sum   'Er7 Lu3 In1 Pb5'
_cell_volume   453.43014883
_cell_formula_units_Z   1
loop_
 _symmetry_equiv_pos_site_id
 _symmetry_equiv_pos_as_xyz
  1  'x, y, z'
loop_
 _atom_site_type_symbol
 _atom_site_label
 _atom_site_symmetry_multiplicity
 _atom_site_fract_x
 _atom_site_fract_y
 _atom_site_fract_z
 _atom_site_occupancy
  Er  Er0  1  0.750326  0.236310  0.000702  1
  Er  Er1  1  0.750189  0.761178  0.767356  1
  Er  Er2  1  0.750122  0.993944  0.232829  1
  Er  Er3  1  0.249842  0.765261  0.999255  1
  Er  Er4  1  0.249837  0.237369  0.235613  1
  Er  Er5  1  0.249867  0.000857  0.764095  1
  Er  Er6  1  0.501907  0.337092  0.670690  1
  Lu  Lu7  1  0.502005  0.666306  0.329177  1
  Lu  Lu8  1  0.997939  0.665953  0.328908  1
  Lu  Lu9  1  0.997961  0.337254  0.671327  1
  In  In10  1  0.750636  0.600772  0.000291  1
  Pb  Pb11  1  0.751120  0.393875  0.394378  1
  Pb  Pb12  1  0.750897  0.998068  0.605138  1
  Pb  Pb13  1  0.249552  0.398444  0.000904  1
  Pb  Pb14  1  0.248907  0.605659  0.602314  1
  Pb  Pb15  1  0.248893  0.001658  0.397022  1
