# generated using pymatgen
data_Rb2CaAs2O7
_symmetry_space_group_name_H-M   'P 1'
_cell_length_a   6.08400654
_cell_length_b   7.59614137
_cell_length_c   9.61382759
_cell_angle_alpha   73.69951740
_cell_angle_beta   89.17896119
_cell_angle_gamma   88.95422779
_symmetry_Int_Tables_number   1
_chemical_formula_structural   Rb2CaAs2O7
_chemical_formula_sum   'Rb4 Ca2 As4 O14'
_cell_volume   426.35246510
_cell_formula_units_Z   2
loop_
 _symmetry_equiv_pos_site_id
 _symmetry_equiv_pos_as_xyz
  1  'x, y, z'
loop_
 _atom_site_type_symbol
 _atom_site_label
 _atom_site_symmetry_multiplicity
 _atom_site_fract_x
 _atom_site_fract_y
 _atom_site_fract_z
 _atom_site_occupancy
  Rb  Rb0  1  0.237125  0.821851  0.531098  1
  Rb  Rb1  1  0.740232  0.268815  0.018994  1
  Rb  Rb2  1  0.762875  0.178149  0.468902  1
  Rb  Rb3  1  0.259768  0.731185  0.981006  1
  Ca  Ca4  1  0.237582  0.224616  0.731841  1
  Ca  Ca5  1  0.762418  0.775384  0.268159  1
  As  As6  1  0.244327  0.107191  0.169780  1
  As  As7  1  0.755673  0.892809  0.830220  1
  As  As8  1  0.284135  0.435133  0.325297  1
  As  As9  1  0.715865  0.564867  0.674703  1
  O  O10  1  0.524893  0.995743  0.744306  1
  O  O11  1  0.755904  0.868730  0.011351  1
  O  O12  1  0.089117  0.603368  0.295150  1
  O  O13  1  0.749430  0.652606  0.832375  1
  O  O14  1  0.995808  0.973268  0.744697  1
  O  O15  1  0.455884  0.481901  0.700796  1
  O  O16  1  0.748240  0.743446  0.523365  1
  O  O17  1  0.544116  0.518099  0.299204  1
  O  O18  1  0.910883  0.396632  0.704850  1
  O  O19  1  0.004192  0.026732  0.255303  1
  O  O20  1  0.250570  0.347394  0.167625  1
  O  O21  1  0.244096  0.131270  0.988649  1
  O  O22  1  0.475107  0.004257  0.255694  1
  O  O23  1  0.251760  0.256554  0.476635  1
