# generated using pymatgen
data_Ce3Y4ZnPd4
_symmetry_space_group_name_H-M   'P 1'
_cell_length_a   4.38892200
_cell_length_b   7.29462585
_cell_length_c   8.97530696
_cell_angle_alpha   91.47972065
_cell_angle_beta   90.00000000
_cell_angle_gamma   90.00000000
_symmetry_Int_Tables_number   1
_chemical_formula_structural   Ce3Y4ZnPd4
_chemical_formula_sum   'Ce3 Y4 Zn1 Pd4'
_cell_volume   287.25351049
_cell_formula_units_Z   1
loop_
 _symmetry_equiv_pos_site_id
 _symmetry_equiv_pos_as_xyz
  1  'x, y, z'
loop_
 _atom_site_type_symbol
 _atom_site_label
 _atom_site_symmetry_multiplicity
 _atom_site_fract_x
 _atom_site_fract_y
 _atom_site_fract_z
 _atom_site_occupancy
  Ce  Ce0  1  0.250000  0.597670  0.556932  1
  Ce  Ce1  1  0.250000  0.137900  0.943638  1
  Ce  Ce2  1  0.750000  0.396326  0.449514  1
  Y  Y3  1  0.250000  0.026450  0.318932  1
  Y  Y4  1  0.250000  0.561136  0.162383  1
  Y  Y5  1  0.750000  0.948298  0.671514  1
  Y  Y6  1  0.750000  0.495027  0.846041  1
  Zn  Zn7  1  0.750000  0.862998  0.059328  1
  Pd  Pd8  1  0.250000  0.204258  0.629016  1
  Pd  Pd9  1  0.250000  0.755235  0.878568  1
  Pd  Pd10  1  0.750000  0.773293  0.346380  1
  Pd  Pd11  1  0.750000  0.241409  0.137755  1
