# generated using pymatgen
data_YEr3Lu4(ReB6)4
_symmetry_space_group_name_H-M   'P 1'
_cell_length_a   3.63850600
_cell_length_b   9.09508400
_cell_length_c   11.46936000
_cell_angle_alpha   89.99705220
_cell_angle_beta   90.00000000
_cell_angle_gamma   90.00000000
_symmetry_Int_Tables_number   1
_chemical_formula_structural   YEr3Lu4(ReB6)4
_chemical_formula_sum   'Y1 Er3 Lu4 Re4 B24'
_cell_volume   379.54999861
_cell_formula_units_Z   1
loop_
 _symmetry_equiv_pos_site_id
 _symmetry_equiv_pos_as_xyz
  1  'x, y, z'
loop_
 _atom_site_type_symbol
 _atom_site_label
 _atom_site_symmetry_multiplicity
 _atom_site_fract_x
 _atom_site_fract_y
 _atom_site_fract_z
 _atom_site_occupancy
  Y  Y0  1  0.000000  0.322772  0.413971  1
  Er  Er1  1  0.000000  0.676975  0.586095  1
  Er  Er2  1  0.000000  0.823080  0.086017  1
  Er  Er3  1  0.000000  0.176887  0.913946  1
  Lu  Lu4  1  0.000000  0.943436  0.370340  1
  Lu  Lu5  1  0.000000  0.056343  0.629751  1
  Lu  Lu6  1  0.000000  0.443541  0.129459  1
  Lu  Lu7  1  0.000000  0.556591  0.870513  1
  Re  Re8  1  0.000000  0.640001  0.320022  1
  Re  Re9  1  0.000000  0.360462  0.680196  1
  Re  Re10  1  0.000000  0.139231  0.179387  1
  Re  Re11  1  0.000000  0.860454  0.820286  1
  B  B12  1  0.500000  0.554028  0.433026  1
  B  B13  1  0.500000  0.446776  0.567387  1
  B  B14  1  0.500000  0.053402  0.066852  1
  B  B15  1  0.500000  0.946515  0.933056  1
  B  B16  1  0.500000  0.751004  0.418931  1
  B  B17  1  0.500000  0.249018  0.581698  1
  B  B18  1  0.500000  0.250840  0.080933  1
  B  B19  1  0.500000  0.749164  0.918914  1
  B  B20  1  0.500000  0.793430  0.265136  1
  B  B21  1  0.500000  0.206582  0.734994  1
  B  B22  1  0.500000  0.293180  0.234332  1
  B  B23  1  0.500000  0.706651  0.765229  1
  B  B24  1  0.500000  0.630574  0.184416  1
  B  B25  1  0.500000  0.369609  0.815567  1
  B  B26  1  0.500000  0.129986  0.315078  1
  B  B27  1  0.500000  0.869531  0.684560  1
  B  B28  1  0.500000  0.981388  0.212341  1
  B  B29  1  0.500000  0.018473  0.787605  1
  B  B30  1  0.500000  0.482029  0.287214  1
  B  B31  1  0.500000  0.518621  0.712607  1
  B  B32  1  0.500000  0.598617  0.027375  1
  B  B33  1  0.500000  0.401449  0.972576  1
  B  B34  1  0.500000  0.097953  0.472766  1
  B  B35  1  0.500000  0.901408  0.527423  1
