# generated using pymatgen
data_LiLu4B16Mo2Rh
_symmetry_space_group_name_H-M   'P 1'
_cell_length_a   3.55657100
_cell_length_b   5.93184775
_cell_length_c   11.43857545
_cell_angle_alpha   90.10144784
_cell_angle_beta   90.00000000
_cell_angle_gamma   90.00000000
_symmetry_Int_Tables_number   1
_chemical_formula_structural   LiLu4B16Mo2Rh
_chemical_formula_sum   'Li1 Lu4 B16 Mo2 Rh1'
_cell_volume   241.31967895
_cell_formula_units_Z   1
loop_
 _symmetry_equiv_pos_site_id
 _symmetry_equiv_pos_as_xyz
  1  'x, y, z'
loop_
 _atom_site_type_symbol
 _atom_site_label
 _atom_site_symmetry_multiplicity
 _atom_site_fract_x
 _atom_site_fract_y
 _atom_site_fract_z
 _atom_site_occupancy
  Li  Li0  1  0.500000  0.137212  0.913092  1
  Lu  Lu1  1  0.500000  0.373800  0.145025  1
  Lu  Lu2  1  0.500000  0.625831  0.854006  1
  Lu  Lu3  1  0.500000  0.127269  0.652636  1
  Lu  Lu4  1  0.500000  0.870920  0.349037  1
  B  B5  1  0.000000  0.115013  0.048067  1
  B  B6  1  0.000000  0.884381  0.952508  1
  B  B7  1  0.000000  0.383493  0.548265  1
  B  B8  1  0.000000  0.615102  0.451722  1
  B  B9  1  0.000000  0.130472  0.468151  1
  B  B10  1  0.000000  0.868119  0.532411  1
  B  B11  1  0.000000  0.364118  0.968209  1
  B  B12  1  0.000000  0.633838  0.029787  1
  B  B13  1  0.000000  0.020364  0.191293  1
  B  B14  1  0.000000  0.983626  0.808759  1
  B  B15  1  0.000000  0.473167  0.697684  1
  B  B16  1  0.000000  0.524839  0.303223  1
  B  B17  1  0.000000  0.206647  0.310982  1
  B  B18  1  0.000000  0.794233  0.690191  1
  B  B19  1  0.000000  0.285324  0.817718  1
  B  B20  1  0.000000  0.712115  0.182868  1
  Mo  Mo21  1  0.500000  0.369776  0.412931  1
  Mo  Mo22  1  0.500000  0.629223  0.585741  1
  Rh  Rh23  1  0.500000  0.871120  0.085696  1
