# generated using pymatgen
data_MnNb12Al9(NiC2)2
_symmetry_space_group_name_H-M   'P 1'
_cell_length_a   8.29960220
_cell_length_b   8.33600725
_cell_length_c   8.30011068
_cell_angle_alpha   60.00918186
_cell_angle_beta   59.93193953
_cell_angle_gamma   60.01235258
_symmetry_Int_Tables_number   1
_chemical_formula_structural   MnNb12Al9(NiC2)2
_chemical_formula_sum   'Mn1 Nb12 Al9 Ni2 C4'
_cell_volume   405.91112088
_cell_formula_units_Z   1
loop_
 _symmetry_equiv_pos_site_id
 _symmetry_equiv_pos_as_xyz
  1  'x, y, z'
loop_
 _atom_site_type_symbol
 _atom_site_label
 _atom_site_symmetry_multiplicity
 _atom_site_fract_x
 _atom_site_fract_y
 _atom_site_fract_z
 _atom_site_occupancy
  Mn  Mn0  1  0.125000  0.625000  0.125000  1
  Nb  Nb1  1  0.684359  0.315365  0.684385  1
  Nb  Nb2  1  0.938448  0.567659  0.556937  1
  Nb  Nb3  1  0.558732  0.936761  0.938468  1
  Nb  Nb4  1  0.940931  0.560478  0.940940  1
  Nb  Nb5  1  0.556944  0.567632  0.938461  1
  Nb  Nb6  1  0.938464  0.936760  0.558717  1
  Nb  Nb7  1  0.693056  0.682368  0.311539  1
  Nb  Nb8  1  0.311552  0.682341  0.693063  1
  Nb  Nb9  1  0.691268  0.313239  0.311532  1
  Nb  Nb10  1  0.311536  0.313240  0.691283  1
  Nb  Nb11  1  0.565641  0.934635  0.565615  1
  Nb  Nb12  1  0.309069  0.689522  0.309060  1
  Al  Al13  1  0.125000  0.125000  0.125000  1
  Al  Al14  1  0.335425  0.331474  0.335436  1
  Al  Al15  1  0.247895  0.913888  0.907776  1
  Al  Al16  1  0.907792  0.254540  0.907774  1
  Al  Al17  1  0.907787  0.913878  0.247900  1
  Al  Al18  1  0.342208  0.995460  0.342226  1
  Al  Al19  1  0.342213  0.336122  0.002100  1
  Al  Al20  1  0.002105  0.336112  0.342224  1
  Al  Al21  1  0.914575  0.918526  0.914564  1
  Ni  Ni22  1  0.625000  0.125000  0.125000  1
  Ni  Ni23  1  0.125000  0.125000  0.625000  1
  C  C24  1  0.625000  0.625000  0.625000  1
  C  C25  1  0.125000  0.625000  0.625000  1
  C  C26  1  0.625000  0.125000  0.625000  1
  C  C27  1  0.625000  0.625000  0.125000  1
