# generated using pymatgen
data_Tb2Pr2Tm2CoBr10
_symmetry_space_group_name_H-M   'P 1'
_cell_length_a   7.40049625
_cell_length_b   9.19090119
_cell_length_c   9.29206800
_cell_angle_alpha   106.98956076
_cell_angle_beta   95.75245599
_cell_angle_gamma   106.34475233
_symmetry_Int_Tables_number   1
_chemical_formula_structural   Tb2Pr2Tm2CoBr10
_chemical_formula_sum   'Tb2 Pr2 Tm2 Co1 Br10'
_cell_volume   568.43071984
_cell_formula_units_Z   1
loop_
 _symmetry_equiv_pos_site_id
 _symmetry_equiv_pos_as_xyz
  1  'x, y, z'
loop_
 _atom_site_type_symbol
 _atom_site_label
 _atom_site_symmetry_multiplicity
 _atom_site_fract_x
 _atom_site_fract_y
 _atom_site_fract_z
 _atom_site_occupancy
  Tb  Tb0  1  0.355333  0.135373  0.673076  1
  Tb  Tb1  1  0.644667  0.864627  0.326924  1
  Pr  Pr2  1  0.873188  0.950357  0.737629  1
  Pr  Pr3  1  0.126812  0.049643  0.262371  1
  Tm  Tm4  1  0.029021  0.707451  0.410739  1
  Tm  Tm5  1  0.970979  0.292549  0.589261  1
  Co  Co6  1  0.000000  0.000000  0.500000  1
  Br  Br7  1  0.443114  0.819285  0.582772  1
  Br  Br8  1  0.556886  0.180715  0.417228  1
  Br  Br9  1  0.917167  0.618436  0.666293  1
  Br  Br10  1  0.082833  0.381564  0.333707  1
  Br  Br11  1  0.258410  0.081393  0.949448  1
  Br  Br12  1  0.741590  0.918607  0.050552  1
  Br  Br13  1  0.340077  0.452523  0.767758  1
  Br  Br14  1  0.659923  0.547477  0.232242  1
  Br  Br15  1  0.781124  0.262831  0.836943  1
  Br  Br16  1  0.218876  0.737169  0.163057  1
