# generated using pymatgen
data_YHfReB6
_symmetry_space_group_name_H-M   'P 1'
_cell_length_a   3.59911500
_cell_length_b   9.01074700
_cell_length_c   11.40012700
_cell_angle_alpha   90.00000000
_cell_angle_beta   90.00000000
_cell_angle_gamma   90.00000000
_symmetry_Int_Tables_number   1
_chemical_formula_structural   YHfReB6
_chemical_formula_sum   'Y4 Hf4 Re4 B24'
_cell_volume   369.71426615
_cell_formula_units_Z   4
loop_
 _symmetry_equiv_pos_site_id
 _symmetry_equiv_pos_as_xyz
  1  'x, y, z'
loop_
 _atom_site_type_symbol
 _atom_site_label
 _atom_site_symmetry_multiplicity
 _atom_site_fract_x
 _atom_site_fract_y
 _atom_site_fract_z
 _atom_site_occupancy
  Y  Y0  1  0.000000  0.322071  0.414087  1
  Y  Y1  1  0.000000  0.677929  0.585913  1
  Y  Y2  1  0.000000  0.822071  0.085913  1
  Y  Y3  1  0.000000  0.177929  0.914087  1
  Hf  Hf4  1  0.000000  0.945044  0.372549  1
  Hf  Hf5  1  0.000000  0.054956  0.627451  1
  Hf  Hf6  1  0.000000  0.445044  0.127451  1
  Hf  Hf7  1  0.000000  0.554956  0.872549  1
  Re  Re8  1  0.000000  0.640686  0.317861  1
  Re  Re9  1  0.000000  0.359314  0.682139  1
  Re  Re10  1  0.000000  0.140686  0.182139  1
  Re  Re11  1  0.000000  0.859314  0.817861  1
  B  B12  1  0.500000  0.554682  0.433139  1
  B  B13  1  0.500000  0.445318  0.566861  1
  B  B14  1  0.500000  0.054682  0.066861  1
  B  B15  1  0.500000  0.945318  0.933139  1
  B  B16  1  0.500000  0.752870  0.418001  1
  B  B17  1  0.500000  0.247130  0.581999  1
  B  B18  1  0.500000  0.252870  0.081999  1
  B  B19  1  0.500000  0.747130  0.918001  1
  B  B20  1  0.500000  0.794919  0.264496  1
  B  B21  1  0.500000  0.205081  0.735504  1
  B  B22  1  0.500000  0.294919  0.235504  1
  B  B23  1  0.500000  0.705081  0.764496  1
  B  B24  1  0.500000  0.629807  0.183218  1
  B  B25  1  0.500000  0.370193  0.816782  1
  B  B26  1  0.500000  0.129807  0.316782  1
  B  B27  1  0.500000  0.870193  0.683218  1
  B  B28  1  0.500000  0.981984  0.213737  1
  B  B29  1  0.500000  0.018016  0.786263  1
  B  B30  1  0.500000  0.481984  0.286263  1
  B  B31  1  0.500000  0.518016  0.713737  1
  B  B32  1  0.500000  0.599386  0.026621  1
  B  B33  1  0.500000  0.400614  0.973379  1
  B  B34  1  0.500000  0.099386  0.473379  1
  B  B35  1  0.500000  0.900614  0.526621  1
