# generated using pymatgen
data_Y4Lu5ScCd3Fe
_symmetry_space_group_name_H-M   'P 1'
_cell_length_a   9.41359766
_cell_length_b   9.41359835
_cell_length_c   9.57729458
_cell_angle_alpha   89.99344612
_cell_angle_beta   90.00655653
_cell_angle_gamma   120.00864118
_symmetry_Int_Tables_number   1
_chemical_formula_structural   Y4Lu5ScCd3Fe
_chemical_formula_sum   'Y8 Lu10 Sc2 Cd6 Fe2'
_cell_volume   734.93164502
_cell_formula_units_Z   2
loop_
 _symmetry_equiv_pos_site_id
 _symmetry_equiv_pos_as_xyz
  1  'x, y, z'
loop_
 _atom_site_type_symbol
 _atom_site_label
 _atom_site_symmetry_multiplicity
 _atom_site_fract_x
 _atom_site_fract_y
 _atom_site_fract_z
 _atom_site_occupancy
  Y  Y0  1  0.209506  0.420416  0.062438  1
  Y  Y1  1  0.579584  0.790494  0.062438  1
  Y  Y2  1  0.541098  0.458902  0.252025  1
  Y  Y3  1  0.539307  0.079906  0.251036  1
  Y  Y4  1  0.920094  0.460693  0.251036  1
  Y  Y5  1  0.461248  0.538752  0.747635  1
  Y  Y6  1  0.460012  0.921092  0.748582  1
  Y  Y7  1  0.078908  0.539988  0.748582  1
  Lu  Lu8  1  0.211414  0.788586  0.437694  1
  Lu  Lu9  1  0.211113  0.422605  0.438885  1
  Lu  Lu10  1  0.577395  0.788887  0.438885  1
  Lu  Lu11  1  0.788376  0.211624  0.562526  1
  Lu  Lu12  1  0.788797  0.576754  0.562636  1
  Lu  Lu13  1  0.423246  0.211203  0.562636  1
  Lu  Lu14  1  0.788086  0.211914  0.936392  1
  Lu  Lu15  1  0.788649  0.575865  0.936955  1
  Lu  Lu16  1  0.424135  0.211351  0.936955  1
  Lu  Lu17  1  0.209784  0.790216  0.062505  1
  Sc  Sc18  1  0.999960  0.000040  0.499528  1
  Sc  Sc19  1  0.001040  0.998960  0.999578  1
  Cd  Cd20  1  0.889387  0.110613  0.250144  1
  Cd  Cd21  1  0.889631  0.779325  0.250186  1
  Cd  Cd22  1  0.220675  0.110369  0.250186  1
  Cd  Cd23  1  0.110498  0.889502  0.749519  1
  Cd  Cd24  1  0.110448  0.220932  0.749520  1
  Cd  Cd25  1  0.779068  0.889552  0.749520  1
  Fe  Fe26  1  0.331971  0.668029  0.252133  1
  Fe  Fe27  1  0.666571  0.333429  0.749845  1
