# generated using pymatgen
data_La2Yb3Ge4
_symmetry_space_group_name_H-M   'P 1'
_cell_length_a   7.68028500
_cell_length_b   15.54467000
_cell_length_c   8.04871200
_cell_angle_alpha   90.00000000
_cell_angle_beta   90.00000000
_cell_angle_gamma   90.00000000
_symmetry_Int_Tables_number   1
_chemical_formula_structural   La2Yb3Ge4
_chemical_formula_sum   'La8 Yb12 Ge16'
_cell_volume   960.91557034
_cell_formula_units_Z   4
loop_
 _symmetry_equiv_pos_site_id
 _symmetry_equiv_pos_as_xyz
  1  'x, y, z'
loop_
 _atom_site_type_symbol
 _atom_site_label
 _atom_site_symmetry_multiplicity
 _atom_site_fract_x
 _atom_site_fract_y
 _atom_site_fract_z
 _atom_site_occupancy
  La  La0  1  0.319860  0.621848  0.173357  1
  La  La1  1  0.319860  0.878152  0.173357  1
  La  La2  1  0.022276  0.100046  0.181110  1
  La  La3  1  0.022276  0.399954  0.181110  1
  La  La4  1  0.522275  0.100046  0.318890  1
  La  La5  1  0.522275  0.399954  0.318890  1
  La  La6  1  0.819859  0.621848  0.326644  1
  La  La7  1  0.819859  0.878152  0.326644  1
  Yb  Yb8  1  0.353305  0.250000  0.997279  1
  Yb  Yb9  1  0.853306  0.250000  0.502719  1
  Yb  Yb10  1  0.151463  0.750000  0.524109  1
  Yb  Yb11  1  0.179964  0.122452  0.678566  1
  Yb  Yb12  1  0.179964  0.377548  0.678566  1
  Yb  Yb13  1  0.475634  0.596182  0.689398  1
  Yb  Yb14  1  0.475634  0.903819  0.689398  1
  Yb  Yb15  1  0.975634  0.596182  0.810601  1
  Yb  Yb16  1  0.975634  0.903819  0.810601  1
  Yb  Yb17  1  0.679965  0.122452  0.821434  1
  Yb  Yb18  1  0.679965  0.377548  0.821434  1
  Yb  Yb19  1  0.651462  0.750000  0.975891  1
  Ge  Ge20  1  0.650553  0.537036  0.030231  1
  Ge  Ge21  1  0.650553  0.962964  0.030231  1
  Ge  Ge22  1  0.020378  0.750000  0.093707  1
  Ge  Ge23  1  0.735571  0.250000  0.128713  1
  Ge  Ge24  1  0.235570  0.250000  0.371286  1
  Ge  Ge25  1  0.520379  0.750000  0.406294  1
  Ge  Ge26  1  0.150553  0.537036  0.469769  1
  Ge  Ge27  1  0.150553  0.962964  0.469769  1
  Ge  Ge28  1  0.852127  0.042826  0.528919  1
  Ge  Ge29  1  0.852127  0.457174  0.528919  1
  Ge  Ge30  1  0.473526  0.250000  0.601919  1
  Ge  Ge31  1  0.764929  0.750000  0.624920  1
  Ge  Ge32  1  0.264930  0.750000  0.875081  1
  Ge  Ge33  1  0.973525  0.250000  0.898082  1
  Ge  Ge34  1  0.352128  0.042826  0.971080  1
  Ge  Ge35  1  0.352128  0.457174  0.971080  1
