# generated using pymatgen
data_TbDy3(Tm4Sb3)4
_symmetry_space_group_name_H-M   'P 1'
_cell_length_a   7.99899855
_cell_length_b   9.20536400
_cell_length_c   11.63827800
_cell_angle_alpha   90.00000000
_cell_angle_beta   89.97884805
_cell_angle_gamma   90.00000000
_symmetry_Int_Tables_number   1
_chemical_formula_structural   TbDy3(Tm4Sb3)4
_chemical_formula_sum   'Tb1 Dy3 Tm16 Sb12'
_cell_volume   856.96933373
_cell_formula_units_Z   1
loop_
 _symmetry_equiv_pos_site_id
 _symmetry_equiv_pos_as_xyz
  1  'x, y, z'
loop_
 _atom_site_type_symbol
 _atom_site_label
 _atom_site_symmetry_multiplicity
 _atom_site_fract_x
 _atom_site_fract_y
 _atom_site_fract_z
 _atom_site_occupancy
  Tb  Tb0  1  0.314960  0.250000  0.219525  1
  Dy  Dy1  1  0.814823  0.250000  0.280652  1
  Dy  Dy2  1  0.685220  0.750000  0.780708  1
  Dy  Dy3  1  0.185271  0.750000  0.719312  1
  Tm  Tm4  1  0.352150  0.750000  0.215740  1
  Tm  Tm5  1  0.852138  0.750000  0.284387  1
  Tm  Tm6  1  0.647885  0.250000  0.784126  1
  Tm  Tm7  1  0.147743  0.250000  0.715790  1
  Tm  Tm8  1  0.692195  0.561730  0.060251  1
  Tm  Tm9  1  0.192399  0.938312  0.439836  1
  Tm  Tm10  1  0.307753  0.061770  0.939656  1
  Tm  Tm11  1  0.807583  0.438298  0.560273  1
  Tm  Tm12  1  0.307753  0.438230  0.939656  1
  Tm  Tm13  1  0.807583  0.061702  0.560273  1
  Tm  Tm14  1  0.692195  0.938270  0.060251  1
  Tm  Tm15  1  0.192399  0.561688  0.439836  1
  Tm  Tm16  1  0.474268  0.250000  0.488861  1
  Tm  Tm17  1  0.974308  0.250000  0.011003  1
  Tm  Tm18  1  0.525815  0.750000  0.511282  1
  Tm  Tm19  1  0.025675  0.750000  0.988731  1
  Sb  Sb20  1  0.408240  0.750000  0.960132  1
  Sb  Sb21  1  0.908388  0.750000  0.539922  1
  Sb  Sb22  1  0.592154  0.250000  0.039490  1
  Sb  Sb23  1  0.091419  0.250000  0.460323  1
  Sb  Sb24  1  0.565942  0.994217  0.327208  1
  Sb  Sb25  1  0.065168  0.505787  0.172857  1
  Sb  Sb26  1  0.434338  0.494474  0.672952  1
  Sb  Sb27  1  0.934395  0.005480  0.826975  1
  Sb  Sb28  1  0.434338  0.005526  0.672952  1
  Sb  Sb29  1  0.934395  0.494520  0.826975  1
  Sb  Sb30  1  0.565942  0.505783  0.327208  1
  Sb  Sb31  1  0.065168  0.994213  0.172857  1
