# generated using pymatgen
data_Np(SI)2
_symmetry_space_group_name_H-M   'P 1'
_cell_length_a   7.51191328
_cell_length_b   7.51191362
_cell_length_c   8.36663440
_cell_angle_alpha   79.11337575
_cell_angle_beta   79.11336885
_cell_angle_gamma   117.76022728
_symmetry_Int_Tables_number   1
_chemical_formula_structural   Np(SI)2
_chemical_formula_sum   'Np2 S4 I4'
_cell_volume   388.88619377
_cell_formula_units_Z   2
loop_
 _symmetry_equiv_pos_site_id
 _symmetry_equiv_pos_as_xyz
  1  'x, y, z'
loop_
 _atom_site_type_symbol
 _atom_site_label
 _atom_site_symmetry_multiplicity
 _atom_site_fract_x
 _atom_site_fract_y
 _atom_site_fract_z
 _atom_site_occupancy
  Np  Np0  1  0.855739  0.144261  0.000000  1
  Np  Np1  1  0.144261  0.855739  0.000000  1
  S  S2  1  0.890418  0.890418  0.261755  1
  S  S3  1  0.109582  0.109582  0.738245  1
  S  S4  1  0.721050  0.721050  0.122608  1
  S  S5  1  0.278950  0.278950  0.877392  1
  I  I6  1  0.421471  0.038878  0.232462  1
  I  I7  1  0.578529  0.961122  0.767538  1
  I  I8  1  0.961122  0.578529  0.767538  1
  I  I9  1  0.038878  0.421471  0.232462  1
