# generated using pymatgen
data_Li2Tm3CdSn3
_symmetry_space_group_name_H-M   'P 1'
_cell_length_a   7.25796496
_cell_length_b   7.33858411
_cell_length_c   4.59602700
_cell_angle_alpha   90.00000000
_cell_angle_beta   90.00000000
_cell_angle_gamma   120.36811131
_symmetry_Int_Tables_number   1
_chemical_formula_structural   Li2Tm3CdSn3
_chemical_formula_sum   'Li2 Tm3 Cd1 Sn3'
_cell_volume   211.21143296
_cell_formula_units_Z   1
loop_
 _symmetry_equiv_pos_site_id
 _symmetry_equiv_pos_as_xyz
  1  'x, y, z'
loop_
 _atom_site_type_symbol
 _atom_site_label
 _atom_site_symmetry_multiplicity
 _atom_site_fract_x
 _atom_site_fract_y
 _atom_site_fract_z
 _atom_site_occupancy
  Li  Li0  1  0.234828  0.232897  0.500000  1
  Li  Li1  1  0.765172  0.998069  0.500000  1
  Tm  Tm2  1  0.000000  0.440333  0.000000  1
  Tm  Tm3  1  0.565305  0.563472  0.000000  1
  Tm  Tm4  1  0.434695  0.998168  0.000000  1
  Cd  Cd5  1  0.000000  0.766105  0.500000  1
  Sn  Sn6  1  0.342653  0.663889  0.500000  1
  Sn  Sn7  1  0.000000  0.015830  0.000000  1
  Sn  Sn8  1  0.657347  0.321235  0.500000  1
