# generated using pymatgen
data_Tb9Ho3InCo4Ru
_symmetry_space_group_name_H-M   'P 1'
_cell_length_a   8.33593227
_cell_length_b   8.33234615
_cell_length_c   8.33257578
_cell_angle_alpha   111.02092409
_cell_angle_beta   110.52244830
_cell_angle_gamma   106.88740261
_symmetry_Int_Tables_number   1
_chemical_formula_structural   Tb9Ho3InCo4Ru
_chemical_formula_sum   'Tb9 Ho3 In1 Co4 Ru1'
_cell_volume   444.92496797
_cell_formula_units_Z   1
loop_
 _symmetry_equiv_pos_site_id
 _symmetry_equiv_pos_as_xyz
  1  'x, y, z'
loop_
 _atom_site_type_symbol
 _atom_site_label
 _atom_site_symmetry_multiplicity
 _atom_site_fract_x
 _atom_site_fract_y
 _atom_site_fract_z
 _atom_site_occupancy
  Tb  Tb0  1  0.314103  0.620978  0.305960  1
  Tb  Tb1  1  0.686097  0.379820  0.694716  1
  Tb  Tb2  1  0.314113  0.008191  0.693140  1
  Tb  Tb3  1  0.686093  0.991387  0.306309  1
  Tb  Tb4  1  0.183934  0.287418  0.471621  1
  Tb  Tb5  1  0.816524  0.713495  0.529686  1
  Tb  Tb6  1  0.183922  0.712323  0.896531  1
  Tb  Tb7  1  0.816532  0.286857  0.103038  1
  Tb  Tb8  1  0.406549  0.214335  0.192216  1
  Ho  Ho9  1  0.593009  0.785750  0.807287  1
  Ho  Ho10  1  0.021428  0.214375  0.807085  1
  Ho  Ho11  1  0.977975  0.785597  0.192384  1
  In  In12  1  0.499606  0.500059  0.999187  1
  Co  Co13  1  0.111452  0.611367  0.500096  1
  Co  Co14  1  0.889692  0.388847  0.500869  1
  Co  Co15  1  0.377855  0.999729  0.378168  1
  Co  Co16  1  0.622721  0.000114  0.622619  1
  Ru  Ru17  1  0.998392  0.999355  0.999088  1
