# generated using pymatgen
data_Th8Mn3AlSi12
_symmetry_space_group_name_H-M   'P 1'
_cell_length_a   8.26475200
_cell_length_b   8.26475184
_cell_length_c   8.45936900
_cell_angle_alpha   90.00000000
_cell_angle_beta   90.00000000
_cell_angle_gamma   120.00000065
_symmetry_Int_Tables_number   1
_chemical_formula_structural   Th8Mn3AlSi12
_chemical_formula_sum   'Th8 Mn3 Al1 Si12'
_cell_volume   500.41260674
_cell_formula_units_Z   1
loop_
 _symmetry_equiv_pos_site_id
 _symmetry_equiv_pos_as_xyz
  1  'x, y, z'
loop_
 _atom_site_type_symbol
 _atom_site_label
 _atom_site_symmetry_multiplicity
 _atom_site_fract_x
 _atom_site_fract_y
 _atom_site_fract_z
 _atom_site_occupancy
  Th  Th0  1  0.000000  0.000000  0.748677  1
  Th  Th1  1  0.000000  0.000000  0.251295  1
  Th  Th2  1  0.494896  0.505104  0.744596  1
  Th  Th3  1  0.494896  0.989794  0.744596  1
  Th  Th4  1  0.010206  0.505104  0.744596  1
  Th  Th5  1  0.495180  0.504820  0.255342  1
  Th  Th6  1  0.009641  0.504820  0.255342  1
  Th  Th7  1  0.495180  0.990359  0.255342  1
  Mn  Mn8  1  0.666667  0.333333  0.500476  1
  Mn  Mn9  1  0.333333  0.666667  0.499975  1
  Mn  Mn10  1  0.333333  0.666667  0.000830  1
  Al  Al11  1  0.666667  0.333333  0.999355  1
  Si  Si12  1  0.836400  0.163600  0.999968  1
  Si  Si13  1  0.836400  0.672802  0.999968  1
  Si  Si14  1  0.327198  0.163600  0.999968  1
  Si  Si15  1  0.831677  0.168323  0.500122  1
  Si  Si16  1  0.831677  0.663353  0.500122  1
  Si  Si17  1  0.336647  0.168323  0.500122  1
  Si  Si18  1  0.170558  0.829442  0.499751  1
  Si  Si19  1  0.658884  0.829442  0.499751  1
  Si  Si20  1  0.170558  0.341116  0.499751  1
  Si  Si21  1  0.171015  0.828985  0.000019  1
  Si  Si22  1  0.657970  0.828985  0.000019  1
  Si  Si23  1  0.171015  0.342030  0.000019  1
