# generated using pymatgen
data_Pr3Sn3Rh2Au
_symmetry_space_group_name_H-M   'P 1'
_cell_length_a   7.67549900
_cell_length_b   7.67549915
_cell_length_c   4.17027800
_cell_angle_alpha   90.00000000
_cell_angle_beta   90.00000000
_cell_angle_gamma   120.00000368
_symmetry_Int_Tables_number   1
_chemical_formula_structural   Pr3Sn3Rh2Au
_chemical_formula_sum   'Pr3 Sn3 Rh2 Au1'
_cell_volume   212.76925341
_cell_formula_units_Z   1
loop_
 _symmetry_equiv_pos_site_id
 _symmetry_equiv_pos_as_xyz
  1  'x, y, z'
loop_
 _atom_site_type_symbol
 _atom_site_label
 _atom_site_symmetry_multiplicity
 _atom_site_fract_x
 _atom_site_fract_y
 _atom_site_fract_z
 _atom_site_occupancy
  Pr  Pr0  1  0.594109  0.011899  0.500000  1
  Pr  Pr1  1  0.417791  0.405891  0.500000  1
  Pr  Pr2  1  0.988101  0.582209  0.500000  1
  Sn  Sn3  1  0.249824  0.007745  0.000000  1
  Sn  Sn4  1  0.757921  0.750176  0.000000  1
  Sn  Sn5  1  0.992255  0.242079  0.000000  1
  Rh  Rh6  1  0.000000  0.000000  0.500000  1
  Rh  Rh7  1  0.666667  0.333333  0.000000  1
  Au  Au8  1  0.333333  0.666667  0.000000  1
