# generated using pymatgen
data_UNb(ZnRu2)2
_symmetry_space_group_name_H-M   'P 1'
_cell_length_a   4.48248800
_cell_length_b   6.31956700
_cell_length_c   13.35680901
_cell_angle_alpha   90.00000000
_cell_angle_beta   90.00465991
_cell_angle_gamma   90.00000000
_symmetry_Int_Tables_number   1
_chemical_formula_structural   UNb(ZnRu2)2
_chemical_formula_sum   'U3 Nb3 Zn6 Ru12'
_cell_volume   378.36344682
_cell_formula_units_Z   3
loop_
 _symmetry_equiv_pos_site_id
 _symmetry_equiv_pos_as_xyz
  1  'x, y, z'
loop_
 _atom_site_type_symbol
 _atom_site_label
 _atom_site_symmetry_multiplicity
 _atom_site_fract_x
 _atom_site_fract_y
 _atom_site_fract_z
 _atom_site_occupancy
  U  U0  1  0.000043  0.000000  0.991894  1
  U  U1  1  0.499824  0.500000  0.166634  1
  U  U2  1  0.999861  0.000000  0.341416  1
  Nb  Nb3  1  0.500016  0.500000  0.507404  1
  Nb  Nb4  1  0.000141  0.000000  0.666683  1
  Nb  Nb5  1  0.500164  0.500000  0.825947  1
  Zn  Zn6  1  0.999997  0.500000  0.995366  1
  Zn  Zn7  1  0.499841  0.000000  0.166667  1
  Zn  Zn8  1  0.999820  0.500000  0.337999  1
  Zn  Zn9  1  0.499984  0.000000  0.506292  1
  Zn  Zn10  1  0.000158  0.500000  0.666664  1
  Zn  Zn11  1  0.500141  0.000000  0.827064  1
  Ru  Ru12  1  0.500044  0.256105  0.998149  1
  Ru  Ru13  1  0.500044  0.743897  0.998149  1
  Ru  Ru14  1  0.999777  0.242859  0.166649  1
  Ru  Ru15  1  0.999777  0.757141  0.166649  1
  Ru  Ru16  1  0.499801  0.255960  0.335179  1
  Ru  Ru17  1  0.499801  0.744040  0.335179  1
  Ru  Ru18  1  0.999998  0.249598  0.500785  1
  Ru  Ru19  1  0.999998  0.750402  0.500785  1
  Ru  Ru20  1  0.500184  0.249643  0.666693  1
  Ru  Ru21  1  0.500184  0.750357  0.666693  1
  Ru  Ru22  1  0.000196  0.249602  0.832529  1
  Ru  Ru23  1  0.000196  0.750398  0.832529  1
