# generated using pymatgen
data_Pu2PO2
_symmetry_space_group_name_H-M   'P 1'
_cell_length_a   3.83765100
_cell_length_b   3.83765103
_cell_length_c   6.62789500
_cell_angle_alpha   90.00000000
_cell_angle_beta   90.00000000
_cell_angle_gamma   120.00000838
_symmetry_Int_Tables_number   1
_chemical_formula_structural   Pu2PO2
_chemical_formula_sum   'Pu2 P1 O2'
_cell_volume   84.53511967
_cell_formula_units_Z   1
loop_
 _symmetry_equiv_pos_site_id
 _symmetry_equiv_pos_as_xyz
  1  'x, y, z'
loop_
 _atom_site_type_symbol
 _atom_site_label
 _atom_site_symmetry_multiplicity
 _atom_site_fract_x
 _atom_site_fract_y
 _atom_site_fract_z
 _atom_site_occupancy
  Pu  Pu0  1  0.666667  0.333333  0.726610  1
  Pu  Pu1  1  0.333333  0.666667  0.273390  1
  P  P2  1  0.000000  0.000000  0.000000  1
  O  O3  1  0.333333  0.666667  0.627688  1
  O  O4  1  0.666667  0.333333  0.372312  1
