# generated using pymatgen
data_Nd11In9Ir3Pt
_symmetry_space_group_name_H-M   'P 1'
_cell_length_a   13.45734619
_cell_length_b   13.43065092
_cell_length_c   3.84745100
_cell_angle_alpha   90.00000000
_cell_angle_beta   90.00000000
_cell_angle_gamma   111.56686123
_symmetry_Int_Tables_number   1
_chemical_formula_structural   Nd11In9Ir3Pt
_chemical_formula_sum   'Nd11 In9 Ir3 Pt1'
_cell_volume   646.70692319
_cell_formula_units_Z   1
loop_
 _symmetry_equiv_pos_site_id
 _symmetry_equiv_pos_as_xyz
  1  'x, y, z'
loop_
 _atom_site_type_symbol
 _atom_site_label
 _atom_site_symmetry_multiplicity
 _atom_site_fract_x
 _atom_site_fract_y
 _atom_site_fract_z
 _atom_site_occupancy
  Nd  Nd0  1  0.078982  0.419101  0.000000  1
  Nd  Nd1  1  0.920907  0.580780  0.000000  1
  Nd  Nd2  1  0.419449  0.079602  0.000000  1
  Nd  Nd3  1  0.582354  0.924513  0.000000  1
  Nd  Nd4  1  0.625425  0.373613  0.000000  1
  Nd  Nd5  1  0.368973  0.623517  0.000000  1
  Nd  Nd6  1  0.840371  0.158962  0.000000  1
  Nd  Nd7  1  0.158913  0.840099  0.000000  1
  Nd  Nd8  1  0.999633  0.999842  0.000000  1
  Nd  Nd9  1  0.313553  0.312922  0.000000  1
  Nd  Nd10  1  0.690106  0.684892  0.000000  1
  In  In11  1  0.837952  0.364940  0.500000  1
  In  In12  1  0.162183  0.634812  0.500000  1
  In  In13  1  0.365645  0.839941  0.500000  1
  In  In14  1  0.634382  0.161738  0.500000  1
  In  In15  1  0.078529  0.219395  0.500000  1
  In  In16  1  0.922019  0.780416  0.500000  1
  In  In17  1  0.219137  0.077700  0.500000  1
  In  In18  1  0.781726  0.923844  0.500000  1
  In  In19  1  0.499110  0.500971  0.500000  1
  Ir  Ir20  1  0.245308  0.451903  0.500000  1
  Ir  Ir21  1  0.754430  0.548774  0.500000  1
  Ir  Ir22  1  0.452737  0.245785  0.500000  1
  Pt  Pt23  1  0.548179  0.751936  0.500000  1
