# generated using pymatgen
data_HoTa5(Be2Co5)2
_symmetry_space_group_name_H-M   'P 1'
_cell_length_a   8.71227339
_cell_length_b   8.71227339
_cell_length_c   3.24293900
_cell_angle_alpha   90.00000000
_cell_angle_beta   90.00000000
_cell_angle_gamma   90.03411859
_symmetry_Int_Tables_number   1
_chemical_formula_structural   HoTa5(Be2Co5)2
_chemical_formula_sum   'Ho1 Ta5 Be4 Co10'
_cell_volume   246.15104983
_cell_formula_units_Z   1
loop_
 _symmetry_equiv_pos_site_id
 _symmetry_equiv_pos_as_xyz
  1  'x, y, z'
loop_
 _atom_site_type_symbol
 _atom_site_label
 _atom_site_symmetry_multiplicity
 _atom_site_fract_x
 _atom_site_fract_y
 _atom_site_fract_z
 _atom_site_occupancy
  Ho  Ho0  1  0.824135  0.324135  0.000000  1
  Ta  Ta1  1  0.496763  0.502005  0.000000  1
  Ta  Ta2  1  0.002005  0.996763  0.000000  1
  Ta  Ta3  1  0.175662  0.675662  0.000000  1
  Ta  Ta4  1  0.324717  0.174562  0.000000  1
  Ta  Ta5  1  0.674562  0.824717  0.000000  1
  Be  Be6  1  0.611688  0.111688  0.000000  1
  Be  Be7  1  0.381272  0.881272  0.000000  1
  Be  Be8  1  0.126228  0.384804  0.000000  1
  Be  Be9  1  0.884804  0.626228  0.000000  1
  Co  Co10  1  0.495295  0.995295  0.500000  1
  Co  Co11  1  0.011787  0.511787  0.500000  1
  Co  Co12  1  0.713465  0.586358  0.500000  1
  Co  Co13  1  0.286786  0.433465  0.500000  1
  Co  Co14  1  0.215588  0.926417  0.500000  1
  Co  Co15  1  0.777461  0.051542  0.500000  1
  Co  Co16  1  0.426417  0.715588  0.500000  1
  Co  Co17  1  0.551542  0.277461  0.500000  1
  Co  Co18  1  0.086358  0.213465  0.500000  1
  Co  Co19  1  0.933465  0.786786  0.500000  1
