# generated using pymatgen
data_Tb8Dy4Co4SnOs
_symmetry_space_group_name_H-M   'P 1'
_cell_length_a   8.32884311
_cell_length_b   8.32884200
_cell_length_c   8.32884224
_cell_angle_alpha   106.44888933
_cell_angle_beta   110.50755274
_cell_angle_gamma   111.50049561
_symmetry_Int_Tables_number   1
_chemical_formula_structural   Tb8Dy4Co4SnOs
_chemical_formula_sum   'Tb8 Dy4 Co4 Sn1 Os1'
_cell_volume   443.80923156
_cell_formula_units_Z   1
loop_
 _symmetry_equiv_pos_site_id
 _symmetry_equiv_pos_as_xyz
  1  'x, y, z'
loop_
 _atom_site_type_symbol
 _atom_site_label
 _atom_site_symmetry_multiplicity
 _atom_site_fract_x
 _atom_site_fract_y
 _atom_site_fract_z
 _atom_site_occupancy
  Tb  Tb0  1  0.468479  0.285264  0.183213  1
  Tb  Tb1  1  0.102051  0.285264  0.816787  1
  Tb  Tb2  1  0.897949  0.714736  0.183213  1
  Tb  Tb3  1  0.531521  0.714736  0.816787  1
  Tb  Tb4  1  0.305773  0.619356  0.313583  1
  Tb  Tb5  1  0.305773  0.992192  0.686417  1
  Tb  Tb6  1  0.694227  0.380644  0.686417  1
  Tb  Tb7  1  0.694227  0.007808  0.313583  1
  Dy  Dy8  1  0.193932  0.214846  0.408779  1
  Dy  Dy9  1  0.806068  0.785154  0.591221  1
  Dy  Dy10  1  0.193932  0.785154  0.979085  1
  Dy  Dy11  1  0.806068  0.214846  0.020915  1
  Co  Co12  1  0.500000  0.611334  0.111334  1
  Co  Co13  1  0.500000  0.388666  0.888666  1
  Co  Co14  1  0.378514  0.000000  0.378514  1
  Co  Co15  1  0.621486  0.000000  0.621486  1
  Sn  Sn16  1  0.000000  0.500000  0.500000  1
  Os  Os17  1  0.000000  0.000000  0.000000  1
