# generated using pymatgen
data_Dy12Co2Ni3Pb
_symmetry_space_group_name_H-M   'P 1'
_cell_length_a   8.31454806
_cell_length_b   8.31454732
_cell_length_c   8.31454847
_cell_angle_alpha   111.15255755
_cell_angle_beta   109.34800191
_cell_angle_gamma   107.92926792
_symmetry_Int_Tables_number   1
_chemical_formula_structural   Dy12Co2Ni3Pb
_chemical_formula_sum   'Dy12 Co2 Ni3 Pb1'
_cell_volume   442.12791844
_cell_formula_units_Z   1
loop_
 _symmetry_equiv_pos_site_id
 _symmetry_equiv_pos_as_xyz
  1  'x, y, z'
loop_
 _atom_site_type_symbol
 _atom_site_label
 _atom_site_symmetry_multiplicity
 _atom_site_fract_x
 _atom_site_fract_y
 _atom_site_fract_z
 _atom_site_occupancy
  Dy  Dy0  1  0.816559  0.706978  0.523538  1
  Dy  Dy1  1  0.183441  0.293022  0.476462  1
  Dy  Dy2  1  0.183441  0.706978  0.890418  1
  Dy  Dy3  1  0.816559  0.293022  0.109582  1
  Dy  Dy4  1  0.684125  0.376060  0.691935  1
  Dy  Dy5  1  0.315875  0.623940  0.308065  1
  Dy  Dy6  1  0.684125  0.992188  0.308065  1
  Dy  Dy7  1  0.315875  0.007812  0.691935  1
  Dy  Dy8  1  0.597382  0.790565  0.806817  1
  Dy  Dy9  1  0.402618  0.209435  0.193183  1
  Dy  Dy10  1  0.983748  0.790565  0.193183  1
  Dy  Dy11  1  0.016252  0.209435  0.806817  1
  Co  Co12  1  0.114123  0.614123  0.500000  1
  Co  Co13  1  0.885877  0.385877  0.500000  1
  Ni  Ni14  1  0.631848  0.000000  0.631848  1
  Ni  Ni15  1  0.368152  0.000000  0.368152  1
  Ni  Ni16  1  0.000000  0.000000  0.000000  1
  Pb  Pb17  1  0.500000  0.500000  0.000000  1
