# generated using pymatgen
data_La18Ho2Ir11Ru
_symmetry_space_group_name_H-M   'P 1'
_cell_length_a   11.40325255
_cell_length_b   11.39771655
_cell_length_c   6.58876600
_cell_angle_alpha   90.00000000
_cell_angle_beta   90.00000000
_cell_angle_gamma   90.05973083
_symmetry_Int_Tables_number   1
_chemical_formula_structural   La18Ho2Ir11Ru
_chemical_formula_sum   'La18 Ho2 Ir11 Ru1'
_cell_volume   856.34830587
_cell_formula_units_Z   1
loop_
 _symmetry_equiv_pos_site_id
 _symmetry_equiv_pos_as_xyz
  1  'x, y, z'
loop_
 _atom_site_type_symbol
 _atom_site_label
 _atom_site_symmetry_multiplicity
 _atom_site_fract_x
 _atom_site_fract_y
 _atom_site_fract_z
 _atom_site_occupancy
  La  La0  1  0.292619  0.088730  0.381962  1
  La  La1  1  0.292885  0.911112  0.885556  1
  La  La2  1  0.707115  0.088888  0.885556  1
  La  La3  1  0.707381  0.911270  0.381962  1
  La  La4  1  0.588245  0.788805  0.886542  1
  La  La5  1  0.587931  0.211439  0.383304  1
  La  La6  1  0.412069  0.788561  0.383304  1
  La  La7  1  0.411755  0.211195  0.886542  1
  La  La8  1  0.212952  0.410563  0.616564  1
  La  La9  1  0.212774  0.588965  0.115876  1
  La  La10  1  0.787226  0.411035  0.115876  1
  La  La11  1  0.787048  0.589437  0.616564  1
  La  La12  1  0.910153  0.708660  0.117243  1
  La  La13  1  0.909659  0.291221  0.617733  1
  La  La14  1  0.090341  0.708779  0.617733  1
  La  La15  1  0.089847  0.291340  0.117243  1
  La  La16  1  0.000000  0.000000  0.498512  1
  La  La17  1  0.000000  0.000000  0.998166  1
  Ho  Ho18  1  0.500000  0.500000  0.998213  1
  Ho  Ho19  1  0.500000  0.500000  0.498341  1
  Ir  Ir20  1  0.845595  0.155583  0.249499  1
  Ir  Ir21  1  0.845539  0.844901  0.749449  1
  Ir  Ir22  1  0.154461  0.155099  0.749449  1
  Ir  Ir23  1  0.154405  0.844417  0.249499  1
  Ir  Ir24  1  0.647354  0.353264  0.749301  1
  Ir  Ir25  1  0.648007  0.646492  0.249486  1
  Ir  Ir26  1  0.351993  0.353508  0.249486  1
  Ir  Ir27  1  0.352646  0.646736  0.749301  1
  Ir  Ir28  1  0.500000  0.000000  0.617038  1
  Ir  Ir29  1  0.000000  0.500000  0.883940  1
  Ir  Ir30  1  0.000000  0.500000  0.384458  1
  Ru  Ru31  1  0.500000  0.000000  0.116311  1
