# generated using pymatgen
data_Zn3BiP6N13
_symmetry_space_group_name_H-M   'P 1'
_cell_length_a   7.10552072
_cell_length_b   7.23047952
_cell_length_c   7.10552065
_cell_angle_alpha   109.82785391
_cell_angle_beta   109.11223438
_cell_angle_gamma   109.82786862
_symmetry_Int_Tables_number   1
_chemical_formula_structural   Zn3BiP6N13
_chemical_formula_sum   'Zn3 Bi1 P6 N13'
_cell_volume   279.77349675
_cell_formula_units_Z   1
loop_
 _symmetry_equiv_pos_site_id
 _symmetry_equiv_pos_as_xyz
  1  'x, y, z'
loop_
 _atom_site_type_symbol
 _atom_site_label
 _atom_site_symmetry_multiplicity
 _atom_site_fract_x
 _atom_site_fract_y
 _atom_site_fract_z
 _atom_site_occupancy
  Zn  Zn0  1  0.708945  0.016722  0.000000  1
  Zn  Zn1  1  0.000000  0.016722  0.708945  1
  Zn  Zn2  1  0.291055  0.307777  0.291055  1
  Bi  Bi3  1  0.000000  0.728102  0.000000  1
  P  P4  1  0.493266  0.238304  0.745623  1
  P  P5  1  0.506734  0.745038  0.252358  1
  P  P6  1  0.747642  0.492680  0.254377  1
  P  P7  1  0.252358  0.745038  0.506734  1
  P  P8  1  0.745623  0.238304  0.493266  1
  P  P9  1  0.254377  0.492680  0.747642  1
  N  N10  1  0.000000  0.726042  0.450315  1
  N  N11  1  0.285813  0.547482  0.551327  1
  N  N12  1  0.720174  0.437128  0.000000  1
  N  N13  1  0.279826  0.716956  0.279826  1
  N  N14  1  0.448673  0.996155  0.734487  1
  N  N15  1  0.714187  0.261668  0.265513  1
  N  N16  1  0.549685  0.275727  0.549685  1
  N  N17  1  0.734487  0.996155  0.448673  1
  N  N18  1  0.265513  0.261668  0.714187  1
  N  N19  1  0.450315  0.726042  0.000000  1
  N  N20  1  0.551327  0.547482  0.285813  1
  N  N21  1  0.000000  0.437128  0.720174  1
  N  N22  1  0.000000  0.049002  0.000000  1
