# generated using pymatgen
data_Dy5Mn2Si12Ir17
_symmetry_space_group_name_H-M   'P 1'
_cell_length_a   12.89371100
_cell_length_b   12.84212096
_cell_length_c   3.97797400
_cell_angle_alpha   90.00000000
_cell_angle_beta   90.00000000
_cell_angle_gamma   120.13298143
_symmetry_Int_Tables_number   1
_chemical_formula_structural   Dy5Mn2Si12Ir17
_chemical_formula_sum   'Dy5 Mn2 Si12 Ir17'
_cell_volume   569.67051300
_cell_formula_units_Z   1
loop_
 _symmetry_equiv_pos_site_id
 _symmetry_equiv_pos_as_xyz
  1  'x, y, z'
loop_
 _atom_site_type_symbol
 _atom_site_label
 _atom_site_symmetry_multiplicity
 _atom_site_fract_x
 _atom_site_fract_y
 _atom_site_fract_z
 _atom_site_occupancy
  Dy  Dy0  1  0.333453  0.667033  0.500000  1
  Dy  Dy1  1  0.666420  0.332967  0.500000  1
  Dy  Dy2  1  0.001853  0.815099  0.000000  1
  Dy  Dy3  1  0.186754  0.184901  0.000000  1
  Dy  Dy4  1  0.814705  0.000000  0.000000  1
  Mn  Mn5  1  0.999904  0.441940  0.500000  1
  Mn  Mn6  1  0.557964  0.558060  0.500000  1
  Si  Si7  1  0.000201  0.632340  0.500000  1
  Si  Si8  1  0.367860  0.367660  0.500000  1
  Si  Si9  1  0.628580  0.000000  0.500000  1
  Si  Si10  1  0.518273  0.689463  0.000000  1
  Si  Si11  1  0.311047  0.830314  0.000000  1
  Si  Si12  1  0.172410  0.480640  0.000000  1
  Si  Si13  1  0.480732  0.169686  0.000000  1
  Si  Si14  1  0.691771  0.519360  0.000000  1
  Si  Si15  1  0.828809  0.310537  0.000000  1
  Si  Si16  1  0.998943  0.182532  0.500000  1
  Si  Si17  1  0.816412  0.817468  0.500000  1
  Si  Si18  1  0.180867  0.000000  0.500000  1
  Ir  Ir19  1  0.511548  0.874733  0.000000  1
  Ir  Ir20  1  0.127010  0.636137  0.000000  1
  Ir  Ir21  1  0.364371  0.487133  0.000000  1
  Ir  Ir22  1  0.490874  0.363863  0.000000  1
  Ir  Ir23  1  0.877240  0.512867  0.000000  1
  Ir  Ir24  1  0.636816  0.125267  0.000000  1
  Ir  Ir25  1  0.444845  0.000000  0.500000  1
  Ir  Ir26  1  0.998745  0.282457  0.000000  1
  Ir  Ir27  1  0.716289  0.717543  0.000000  1
  Ir  Ir28  1  0.282656  0.000000  0.000000  1
  Ir  Ir29  1  0.622243  0.806207  0.500000  1
  Ir  Ir30  1  0.193082  0.817716  0.500000  1
  Ir  Ir31  1  0.181734  0.376259  0.500000  1
  Ir  Ir32  1  0.375366  0.182284  0.500000  1
  Ir  Ir33  1  0.805474  0.623741  0.500000  1
  Ir  Ir34  1  0.816036  0.193793  0.500000  1
  Ir  Ir35  1  0.998713  0.000000  0.500000  1
