# generated using pymatgen
data_LiSc6BBr12
_symmetry_space_group_name_H-M   'P 1'
_cell_length_a   8.64420385
_cell_length_b   8.64420317
_cell_length_c   8.64420447
_cell_angle_alpha   107.27700503
_cell_angle_beta   107.27700348
_cell_angle_gamma   107.27700686
_symmetry_Int_Tables_number   1
_chemical_formula_structural   LiSc6BBr12
_chemical_formula_sum   'Li1 Sc6 B1 Br12'
_cell_volume   533.80681067
_cell_formula_units_Z   1
loop_
 _symmetry_equiv_pos_site_id
 _symmetry_equiv_pos_as_xyz
  1  'x, y, z'
loop_
 _atom_site_type_symbol
 _atom_site_label
 _atom_site_symmetry_multiplicity
 _atom_site_fract_x
 _atom_site_fract_y
 _atom_site_fract_z
 _atom_site_occupancy
  Li  Li0  1  0.497091  0.497091  0.497091  1
  Sc  Sc1  1  0.902767  0.971573  0.700981  1
  Sc  Sc2  1  0.971573  0.700981  0.902767  1
  Sc  Sc3  1  0.700981  0.902767  0.971573  1
  Sc  Sc4  1  0.033433  0.304771  0.102624  1
  Sc  Sc5  1  0.304771  0.102624  0.033433  1
  Sc  Sc6  1  0.102624  0.033433  0.304771  1
  B  B7  1  0.003017  0.003017  0.003017  1
  Br  Br8  1  0.224487  0.077444  0.690895  1
  Br  Br9  1  0.077444  0.690895  0.224487  1
  Br  Br10  1  0.690895  0.224487  0.077444  1
  Br  Br11  1  0.553559  0.850575  0.627018  1
  Br  Br12  1  0.850575  0.627018  0.553559  1
  Br  Br13  1  0.627018  0.553559  0.850575  1
  Br  Br14  1  0.926725  0.313914  0.780707  1
  Br  Br15  1  0.313914  0.780707  0.926725  1
  Br  Br16  1  0.780707  0.926725  0.313914  1
  Br  Br17  1  0.377671  0.451837  0.153111  1
  Br  Br18  1  0.451837  0.153111  0.377671  1
  Br  Br19  1  0.153111  0.377671  0.451837  1
