# generated using pymatgen
data_BaAc2(FeH6)2
_symmetry_space_group_name_H-M   'P 1'
_cell_length_a   5.10628100
_cell_length_b   5.10628206
_cell_length_c   8.61881200
_cell_angle_alpha   90.00000000
_cell_angle_beta   90.00000000
_cell_angle_gamma   119.99999961
_symmetry_Int_Tables_number   1
_chemical_formula_structural   BaAc2(FeH6)2
_chemical_formula_sum   'Ba1 Ac2 Fe2 H12'
_cell_volume   194.62003760
_cell_formula_units_Z   1
loop_
 _symmetry_equiv_pos_site_id
 _symmetry_equiv_pos_as_xyz
  1  'x, y, z'
loop_
 _atom_site_type_symbol
 _atom_site_label
 _atom_site_symmetry_multiplicity
 _atom_site_fract_x
 _atom_site_fract_y
 _atom_site_fract_z
 _atom_site_occupancy
  Ba  Ba0  1  0.000000  0.000000  0.000000  1
  Ac  Ac1  1  0.666667  0.333333  0.356628  1
  Ac  Ac2  1  0.333333  0.666667  0.643372  1
  Fe  Fe3  1  0.666667  0.333333  0.737319  1
  Fe  Fe4  1  0.333333  0.666667  0.262681  1
  H  H5  1  0.183437  0.816563  0.370185  1
  H  H6  1  0.633126  0.816563  0.370185  1
  H  H7  1  0.183437  0.366874  0.370185  1
  H  H8  1  0.816563  0.183437  0.629815  1
  H  H9  1  0.366874  0.183437  0.629815  1
  H  H10  1  0.816563  0.633126  0.629815  1
  H  H11  1  0.525904  0.051809  0.852926  1
  H  H12  1  0.525904  0.474096  0.852926  1
  H  H13  1  0.948191  0.474096  0.852926  1
  H  H14  1  0.474096  0.948191  0.147074  1
  H  H15  1  0.474096  0.525904  0.147074  1
  H  H16  1  0.051809  0.525904  0.147074  1
