# generated using pymatgen
data_DyCu4(AuO4)3
_symmetry_space_group_name_H-M   'P 1'
_cell_length_a   6.53073699
_cell_length_b   6.53073785
_cell_length_c   6.53073900
_cell_angle_alpha   109.47121490
_cell_angle_beta   109.47121756
_cell_angle_gamma   109.47122982
_symmetry_Int_Tables_number   1
_chemical_formula_structural   DyCu4(AuO4)3
_chemical_formula_sum   'Dy1 Cu4 Au3 O12'
_cell_volume   214.41979673
_cell_formula_units_Z   1
loop_
 _symmetry_equiv_pos_site_id
 _symmetry_equiv_pos_as_xyz
  1  'x, y, z'
loop_
 _atom_site_type_symbol
 _atom_site_label
 _atom_site_symmetry_multiplicity
 _atom_site_fract_x
 _atom_site_fract_y
 _atom_site_fract_z
 _atom_site_occupancy
  Dy  Dy0  1  0.000000  0.000000  0.000000  1
  Cu  Cu1  1  0.000000  0.000000  0.500000  1
  Cu  Cu2  1  0.000000  0.500000  0.000000  1
  Cu  Cu3  1  0.500000  0.000000  0.000000  1
  Cu  Cu4  1  0.500000  0.500000  0.500000  1
  Au  Au5  1  0.000000  0.500000  0.500000  1
  Au  Au6  1  0.500000  0.000000  0.500000  1
  Au  Au7  1  0.500000  0.500000  0.000000  1
  O  O8  1  0.292406  0.119873  0.827467  1
  O  O9  1  0.707594  0.880127  0.172533  1
  O  O10  1  0.707594  0.535060  0.827467  1
  O  O11  1  0.464940  0.172533  0.292406  1
  O  O12  1  0.172533  0.292406  0.464940  1
  O  O13  1  0.827467  0.292406  0.119873  1
  O  O14  1  0.880127  0.172533  0.707594  1
  O  O15  1  0.827467  0.707594  0.535060  1
  O  O16  1  0.292406  0.464940  0.172533  1
  O  O17  1  0.535060  0.827467  0.707594  1
  O  O18  1  0.172533  0.707594  0.880127  1
  O  O19  1  0.119873  0.827467  0.292406  1
