# generated using pymatgen
data_SmTa4(NbSn3)2
_symmetry_space_group_name_H-M   'P 1'
_cell_length_a   5.80709300
_cell_length_b   5.80819749
_cell_length_c   9.62167700
_cell_angle_alpha   90.00000000
_cell_angle_beta   90.00000000
_cell_angle_gamma   120.00629427
_symmetry_Int_Tables_number   1
_chemical_formula_structural   SmTa4(NbSn3)2
_chemical_formula_sum   'Sm1 Ta4 Nb2 Sn6'
_cell_volume   281.03086018
_cell_formula_units_Z   1
loop_
 _symmetry_equiv_pos_site_id
 _symmetry_equiv_pos_as_xyz
  1  'x, y, z'
loop_
 _atom_site_type_symbol
 _atom_site_label
 _atom_site_symmetry_multiplicity
 _atom_site_fract_x
 _atom_site_fract_y
 _atom_site_fract_z
 _atom_site_occupancy
  Sm  Sm0  1  0.000000  0.000000  0.999825  1
  Ta  Ta1  1  0.000000  0.500000  0.750577  1
  Ta  Ta2  1  0.500000  0.500000  0.750408  1
  Ta  Ta3  1  0.500000  0.000000  0.750408  1
  Ta  Ta4  1  0.000000  0.500000  0.249686  1
  Nb  Nb5  1  0.500000  0.500000  0.250036  1
  Nb  Nb6  1  0.500000  0.000000  0.250036  1
  Sn  Sn7  1  0.667147  0.333573  0.499995  1
  Sn  Sn8  1  0.332853  0.666427  0.499995  1
  Sn  Sn9  1  0.666650  0.333324  0.000115  1
  Sn  Sn10  1  0.333350  0.666676  0.000115  1
  Sn  Sn11  1  0.000000  0.000000  0.667278  1
  Sn  Sn12  1  0.000000  0.000000  0.331525  1
