# generated using pymatgen
data_Cs3Tl(GaI4)4
_symmetry_space_group_name_H-M   'P 1'
_cell_length_a   8.23733908
_cell_length_b   9.23584947
_cell_length_c   16.90924700
_cell_angle_alpha   86.57282790
_cell_angle_beta   91.94382803
_cell_angle_gamma   92.94531692
_symmetry_Int_Tables_number   1
_chemical_formula_structural   Cs3Tl(GaI4)4
_chemical_formula_sum   'Cs3 Tl1 Ga4 I16'
_cell_volume   1281.82450178
_cell_formula_units_Z   1
loop_
 _symmetry_equiv_pos_site_id
 _symmetry_equiv_pos_as_xyz
  1  'x, y, z'
loop_
 _atom_site_type_symbol
 _atom_site_label
 _atom_site_symmetry_multiplicity
 _atom_site_fract_x
 _atom_site_fract_y
 _atom_site_fract_z
 _atom_site_occupancy
  Cs  Cs0  1  0.500396  0.250134  0.636817  1
  Cs  Cs1  1  0.013762  0.738206  0.864942  1
  Cs  Cs2  1  0.480578  0.751987  0.348817  1
  Tl  Tl3  1  0.038271  0.207001  0.120501  1
  Ga  Ga4  1  0.329310  0.246952  0.357688  1
  Ga  Ga5  1  0.881657  0.765033  0.143691  1
  Ga  Ga6  1  0.642753  0.749298  0.637623  1
  Ga  Ga7  1  0.136051  0.245452  0.866383  1
  I  I8  1  0.862746  0.131369  0.917323  1
  I  I9  1  0.366592  0.838970  0.582022  1
  I  I10  1  0.167230  0.860223  0.092999  1
  I  I11  1  0.614193  0.165628  0.405358  1
  I  I12  1  0.365983  0.388432  0.220869  1
  I  I13  1  0.917296  0.633200  0.281125  1
  I  I14  1  0.590489  0.602924  0.771482  1
  I  I15  1  0.084595  0.394423  0.734272  1
  I  I16  1  0.691437  0.979351  0.155286  1
  I  I17  1  0.124972  0.028540  0.341796  1
  I  I18  1  0.345192  0.051963  0.844797  1
  I  I19  1  0.848596  0.965116  0.662301  1
  I  I20  1  0.223284  0.419657  0.457802  1
  I  I21  1  0.749922  0.587608  0.045066  1
  I  I22  1  0.763556  0.584166  0.538263  1
  I  I23  1  0.261139  0.414364  0.972776  1
