# generated using pymatgen
data_KY3(SbAu)4
_symmetry_space_group_name_H-M   'P 1'
_cell_length_a   4.63650100
_cell_length_b   4.63650155
_cell_length_c   17.38042200
_cell_angle_alpha   90.00000000
_cell_angle_beta   90.00000000
_cell_angle_gamma   120.00000319
_symmetry_Int_Tables_number   1
_chemical_formula_structural   KY3(SbAu)4
_chemical_formula_sum   'K1 Y3 Sb4 Au4'
_cell_volume   323.57257276
_cell_formula_units_Z   1
loop_
 _symmetry_equiv_pos_site_id
 _symmetry_equiv_pos_as_xyz
  1  'x, y, z'
loop_
 _atom_site_type_symbol
 _atom_site_label
 _atom_site_symmetry_multiplicity
 _atom_site_fract_x
 _atom_site_fract_y
 _atom_site_fract_z
 _atom_site_occupancy
  K  K0  1  0.000000  0.000000  0.250000  1
  Y  Y1  1  0.000000  0.000000  0.515562  1
  Y  Y2  1  0.000000  0.000000  0.984438  1
  Y  Y3  1  0.000000  0.000000  0.750000  1
  Sb  Sb4  1  0.333333  0.666667  0.394355  1
  Sb  Sb5  1  0.666667  0.333333  0.617802  1
  Sb  Sb6  1  0.666667  0.333333  0.882198  1
  Sb  Sb7  1  0.333333  0.666667  0.105645  1
  Au  Au8  1  0.666667  0.333333  0.434970  1
  Au  Au9  1  0.333333  0.666667  0.667227  1
  Au  Au10  1  0.333333  0.666667  0.832773  1
  Au  Au11  1  0.666667  0.333333  0.065030  1
