# generated using pymatgen
data_Hf6Ta4Al3Si3N2
_symmetry_space_group_name_H-M   'P 1'
_cell_length_a   7.85104700
_cell_length_b   7.85104799
_cell_length_c   5.43435700
_cell_angle_alpha   90.00000000
_cell_angle_beta   90.00000000
_cell_angle_gamma   120.00000005
_symmetry_Int_Tables_number   1
_chemical_formula_structural   Hf6Ta4Al3Si3N2
_chemical_formula_sum   'Hf6 Ta4 Al3 Si3 N2'
_cell_volume   290.09083345
_cell_formula_units_Z   1
loop_
 _symmetry_equiv_pos_site_id
 _symmetry_equiv_pos_as_xyz
  1  'x, y, z'
loop_
 _atom_site_type_symbol
 _atom_site_label
 _atom_site_symmetry_multiplicity
 _atom_site_fract_x
 _atom_site_fract_y
 _atom_site_fract_z
 _atom_site_occupancy
  Hf  Hf0  1  0.234771  0.000000  0.250000  1
  Hf  Hf1  1  0.000000  0.234771  0.250000  1
  Hf  Hf2  1  0.765229  0.765229  0.250000  1
  Hf  Hf3  1  0.766428  0.000000  0.750000  1
  Hf  Hf4  1  0.000000  0.766428  0.750000  1
  Hf  Hf5  1  0.233572  0.233572  0.750000  1
  Ta  Ta6  1  0.666667  0.333333  0.000886  1
  Ta  Ta7  1  0.333333  0.666667  0.000886  1
  Ta  Ta8  1  0.666667  0.333333  0.499114  1
  Ta  Ta9  1  0.333333  0.666667  0.499114  1
  Al  Al10  1  0.409940  0.000000  0.750000  1
  Al  Al11  1  0.000000  0.409940  0.750000  1
  Al  Al12  1  0.590060  0.590060  0.750000  1
  Si  Si13  1  0.589281  0.000000  0.250000  1
  Si  Si14  1  0.000000  0.589281  0.250000  1
  Si  Si15  1  0.410719  0.410719  0.250000  1
  N  N16  1  0.000000  0.000000  0.000621  1
  N  N17  1  0.000000  0.000000  0.499379  1
