# generated using pymatgen
data_Pr4MgV3O12
_symmetry_space_group_name_H-M   'P 1'
_cell_length_a   5.50983628
_cell_length_b   5.68423560
_cell_length_c   7.90219033
_cell_angle_alpha   90.09737899
_cell_angle_beta   89.97718944
_cell_angle_gamma   88.97578116
_symmetry_Int_Tables_number   1
_chemical_formula_structural   Pr4MgV3O12
_chemical_formula_sum   'Pr4 Mg1 V3 O12'
_cell_volume   247.45041702
_cell_formula_units_Z   1
loop_
 _symmetry_equiv_pos_site_id
 _symmetry_equiv_pos_as_xyz
  1  'x, y, z'
loop_
 _atom_site_type_symbol
 _atom_site_label
 _atom_site_symmetry_multiplicity
 _atom_site_fract_x
 _atom_site_fract_y
 _atom_site_fract_z
 _atom_site_occupancy
  Pr  Pr0  1  0.017637  0.943586  0.749711  1
  Pr  Pr1  1  0.506051  0.549570  0.250501  1
  Pr  Pr2  1  0.493949  0.450430  0.749499  1
  Pr  Pr3  1  0.982363  0.056414  0.250289  1
  Mg  Mg4  1  0.000000  0.500000  0.500000  1
  V  V5  1  0.500000  0.000000  0.500000  1
  V  V6  1  0.500000  0.000000  0.000000  1
  V  V7  1  0.000000  0.500000  0.000000  1
  O  O8  1  0.699264  0.286554  0.452980  1
  O  O9  1  0.222099  0.194964  0.543944  1
  O  O10  1  0.795723  0.794087  0.048204  1
  O  O11  1  0.300623  0.712043  0.951418  1
  O  O12  1  0.300736  0.713446  0.547020  1
  O  O13  1  0.777901  0.805036  0.456056  1
  O  O14  1  0.204277  0.205913  0.951796  1
  O  O15  1  0.699377  0.287957  0.048582  1
  O  O16  1  0.086058  0.472499  0.246201  1
  O  O17  1  0.592642  0.026253  0.744727  1
  O  O18  1  0.407358  0.973747  0.255273  1
  O  O19  1  0.913942  0.527501  0.753799  1
