# generated using pymatgen
data_Cs3Rb5(CoO4)4
_symmetry_space_group_name_H-M   'P 1'
_cell_length_a   6.20834200
_cell_length_b   8.29135093
_cell_length_c   10.91272063
_cell_angle_alpha   89.90964602
_cell_angle_beta   90.00000000
_cell_angle_gamma   90.00000000
_symmetry_Int_Tables_number   1
_chemical_formula_structural   Cs3Rb5(CoO4)4
_chemical_formula_sum   'Cs3 Rb5 Co4 O16'
_cell_volume   561.73751329
_cell_formula_units_Z   1
loop_
 _symmetry_equiv_pos_site_id
 _symmetry_equiv_pos_as_xyz
  1  'x, y, z'
loop_
 _atom_site_type_symbol
 _atom_site_label
 _atom_site_symmetry_multiplicity
 _atom_site_fract_x
 _atom_site_fract_y
 _atom_site_fract_z
 _atom_site_occupancy
  Cs  Cs0  1  0.750000  0.338044  0.588584  1
  Cs  Cs1  1  0.750000  0.839220  0.911315  1
  Cs  Cs2  1  0.250000  0.659795  0.409474  1
  Rb  Rb3  1  0.250000  0.167165  0.087881  1
  Rb  Rb4  1  0.750000  0.508391  0.193857  1
  Rb  Rb5  1  0.750000  0.007285  0.305171  1
  Rb  Rb6  1  0.250000  0.491544  0.806850  1
  Rb  Rb7  1  0.250000  0.993350  0.692660  1
  Co  Co8  1  0.750000  0.270152  0.922326  1
  Co  Co9  1  0.750000  0.771264  0.581767  1
  Co  Co10  1  0.250000  0.731017  0.081028  1
  Co  Co11  1  0.250000  0.226553  0.414848  1
  O  O12  1  0.750000  0.469502  0.921892  1
  O  O13  1  0.750000  0.970801  0.581741  1
  O  O14  1  0.250000  0.531401  0.085747  1
  O  O15  1  0.250000  0.027565  0.417863  1
  O  O16  1  0.750000  0.203180  0.066568  1
  O  O17  1  0.750000  0.704405  0.437814  1
  O  O18  1  0.250000  0.799901  0.937618  1
  O  O19  1  0.250000  0.296145  0.558597  1
  O  O20  1  0.968478  0.200660  0.851740  1
  O  O21  1  0.532132  0.702135  0.653170  1
  O  O22  1  0.470300  0.799058  0.150557  1
  O  O23  1  0.032334  0.294807  0.342733  1
  O  O24  1  0.029700  0.799058  0.150557  1
  O  O25  1  0.467666  0.294807  0.342733  1
  O  O26  1  0.531522  0.200660  0.851740  1
  O  O27  1  0.967868  0.702135  0.653170  1
