# generated using pymatgen
data_SmCo3P3Pd2
_symmetry_space_group_name_H-M   'P 1'
_cell_length_a   3.79675200
_cell_length_b   10.52250500
_cell_length_c   12.46149600
_cell_angle_alpha   90.00000000
_cell_angle_beta   90.00000000
_cell_angle_gamma   90.00000000
_symmetry_Int_Tables_number   1
_chemical_formula_structural   SmCo3P3Pd2
_chemical_formula_sum   'Sm4 Co12 P12 Pd8'
_cell_volume   497.85348733
_cell_formula_units_Z   4
loop_
 _symmetry_equiv_pos_site_id
 _symmetry_equiv_pos_as_xyz
  1  'x, y, z'
loop_
 _atom_site_type_symbol
 _atom_site_label
 _atom_site_symmetry_multiplicity
 _atom_site_fract_x
 _atom_site_fract_y
 _atom_site_fract_z
 _atom_site_occupancy
  Sm  Sm0  1  0.250000  0.582907  0.712793  1
  Sm  Sm1  1  0.250000  0.917093  0.212793  1
  Sm  Sm2  1  0.750000  0.417093  0.287207  1
  Sm  Sm3  1  0.750000  0.082907  0.787207  1
  Co  Co4  1  0.250000  0.220605  0.177541  1
  Co  Co5  1  0.250000  0.279395  0.677541  1
  Co  Co6  1  0.750000  0.779395  0.822459  1
  Co  Co7  1  0.750000  0.720605  0.322459  1
  Co  Co8  1  0.250000  0.881045  0.694212  1
  Co  Co9  1  0.250000  0.618955  0.194212  1
  Co  Co10  1  0.750000  0.118955  0.305788  1
  Co  Co11  1  0.750000  0.381045  0.805788  1
  Co  Co12  1  0.250000  0.463426  0.934184  1
  Co  Co13  1  0.250000  0.036574  0.434184  1
  Co  Co14  1  0.750000  0.536574  0.065816  1
  Co  Co15  1  0.750000  0.963426  0.565816  1
  P  P16  1  0.250000  0.424375  0.110472  1
  P  P17  1  0.250000  0.075625  0.610472  1
  P  P18  1  0.750000  0.575625  0.889528  1
  P  P19  1  0.750000  0.924375  0.389528  1
  P  P20  1  0.250000  0.279406  0.855030  1
  P  P21  1  0.250000  0.220594  0.355030  1
  P  P22  1  0.750000  0.720594  0.144970  1
  P  P23  1  0.750000  0.779406  0.644970  1
  P  P24  1  0.250000  0.609078  0.371763  1
  P  P25  1  0.250000  0.890922  0.871763  1
  P  P26  1  0.750000  0.390922  0.628237  1
  P  P27  1  0.750000  0.109078  0.128237  1
  Pd  Pd28  1  0.250000  0.711163  0.986060  1
  Pd  Pd29  1  0.250000  0.788837  0.486060  1
  Pd  Pd30  1  0.750000  0.288837  0.013940  1
  Pd  Pd31  1  0.750000  0.211163  0.513940  1
  Pd  Pd32  1  0.250000  0.407155  0.475014  1
  Pd  Pd33  1  0.250000  0.092845  0.975014  1
  Pd  Pd34  1  0.750000  0.592845  0.524986  1
  Pd  Pd35  1  0.750000  0.907155  0.024986  1
