# generated using pymatgen
data_PrNdCr3O12
_symmetry_space_group_name_H-M   'P 1'
_cell_length_a   5.21721574
_cell_length_b   7.04117711
_cell_length_c   14.59772562
_cell_angle_alpha   83.90441889
_cell_angle_beta   79.78075731
_cell_angle_gamma   68.85246549
_symmetry_Int_Tables_number   1
_chemical_formula_structural   PrNdCr3O12
_chemical_formula_sum   'Pr2 Nd2 Cr6 O24'
_cell_volume   491.68406811
_cell_formula_units_Z   2
loop_
 _symmetry_equiv_pos_site_id
 _symmetry_equiv_pos_as_xyz
  1  'x, y, z'
loop_
 _atom_site_type_symbol
 _atom_site_label
 _atom_site_symmetry_multiplicity
 _atom_site_fract_x
 _atom_site_fract_y
 _atom_site_fract_z
 _atom_site_occupancy
  Pr  Pr0  1  0.642710  0.866736  0.873452  1
  Pr  Pr1  1  0.619009  0.205732  0.549959  1
  Nd  Nd2  1  0.357098  0.133302  0.127354  1
  Nd  Nd3  1  0.381423  0.794071  0.449296  1
  Cr  Cr4  1  0.912304  0.271247  0.953335  1
  Cr  Cr5  1  0.844635  0.983164  0.299106  1
  Cr  Cr6  1  0.869701  0.622416  0.619007  1
  Cr  Cr7  1  0.157094  0.015617  0.700257  1
  Cr  Cr8  1  0.086441  0.728568  0.048671  1
  Cr  Cr9  1  0.129881  0.378775  0.379622  1
  O  O10  1  0.847950  0.183183  0.683157  1
  O  O11  1  0.744719  0.855062  0.035634  1
  O  O12  1  0.830393  0.561686  0.371908  1
  O  O13  1  0.865168  0.506004  0.909717  1
  O  O14  1  0.899934  0.182802  0.243840  1
  O  O15  1  0.942140  0.820976  0.556173  1
  O  O16  1  0.334276  0.097916  0.760755  1
  O  O17  1  0.185876  0.855502  0.115654  1
  O  O18  1  0.328771  0.456404  0.437969  1
  O  O19  1  0.704478  0.689597  0.723113  1
  O  O20  1  0.723542  0.272592  0.057514  1
  O  O21  1  0.647455  0.025481  0.408062  1
  O  O22  1  0.271687  0.726898  0.943766  1
  O  O23  1  0.296021  0.312381  0.275527  1
  O  O24  1  0.351098  0.972557  0.590837  1
  O  O25  1  0.103701  0.815934  0.756246  1
  O  O26  1  0.133689  0.493543  0.092155  1
  O  O27  1  0.061702  0.178315  0.442169  1
  O  O28  1  0.253795  0.146118  0.967106  1
  O  O29  1  0.153069  0.815690  0.317533  1
  O  O30  1  0.166722  0.438007  0.627402  1
  O  O31  1  0.817190  0.144271  0.885215  1
  O  O32  1  0.667382  0.903017  0.237719  1
  O  O33  1  0.668947  0.546436  0.560770  1
