# generated using pymatgen
data_TmTh3Zn2(HgRh2)2
_symmetry_space_group_name_H-M   'P 1'
_cell_length_a   3.93569800
_cell_length_b   7.36065461
_cell_length_c   8.76880155
_cell_angle_alpha   90.80090409
_cell_angle_beta   90.00000000
_cell_angle_gamma   90.00000000
_symmetry_Int_Tables_number   1
_chemical_formula_structural   TmTh3Zn2(HgRh2)2
_chemical_formula_sum   'Tm1 Th3 Zn2 Hg2 Rh4'
_cell_volume   254.00134472
_cell_formula_units_Z   1
loop_
 _symmetry_equiv_pos_site_id
 _symmetry_equiv_pos_as_xyz
  1  'x, y, z'
loop_
 _atom_site_type_symbol
 _atom_site_label
 _atom_site_symmetry_multiplicity
 _atom_site_fract_x
 _atom_site_fract_y
 _atom_site_fract_z
 _atom_site_occupancy
  Tm  Tm0  1  0.250000  0.057878  0.306436  1
  Th  Th1  1  0.250000  0.556471  0.196622  1
  Th  Th2  1  0.750000  0.448866  0.817583  1
  Th  Th3  1  0.750000  0.944573  0.675631  1
  Zn  Zn4  1  0.250000  0.626495  0.556395  1
  Zn  Zn5  1  0.250000  0.130769  0.944972  1
  Hg  Hg6  1  0.750000  0.356101  0.444446  1
  Hg  Hg7  1  0.750000  0.884466  0.059561  1
  Rh  Rh8  1  0.250000  0.727148  0.849363  1
  Rh  Rh9  1  0.750000  0.282392  0.121131  1
  Rh  Rh10  1  0.750000  0.762437  0.373282  1
  Rh  Rh11  1  0.250000  0.222405  0.654577  1
