# generated using pymatgen
data_SmCoSb12Os2Ru
_symmetry_space_group_name_H-M   'P 1'
_cell_length_a   8.13578462
_cell_length_b   8.07689699
_cell_length_c   8.07674636
_cell_angle_alpha   109.29178764
_cell_angle_beta   109.61757536
_cell_angle_gamma   109.60434833
_symmetry_Int_Tables_number   1
_chemical_formula_structural   SmCoSb12Os2Ru
_chemical_formula_sum   'Sm1 Co1 Sb12 Os2 Ru1'
_cell_volume   408.05412102
_cell_formula_units_Z   1
loop_
 _symmetry_equiv_pos_site_id
 _symmetry_equiv_pos_as_xyz
  1  'x, y, z'
loop_
 _atom_site_type_symbol
 _atom_site_label
 _atom_site_symmetry_multiplicity
 _atom_site_fract_x
 _atom_site_fract_y
 _atom_site_fract_z
 _atom_site_occupancy
  Sm  Sm0  1  0.000000  0.000000  0.000000  1
  Co  Co1  1  0.500000  0.000000  0.000000  1
  Sb  Sb2  1  0.341188  0.177900  0.846427  1
  Sb  Sb3  1  0.658812  0.822100  0.153573  1
  Sb  Sb4  1  0.661322  0.504436  0.842684  1
  Sb  Sb5  1  0.338678  0.495564  0.157316  1
  Sb  Sb6  1  0.182360  0.843970  0.339574  1
  Sb  Sb7  1  0.817640  0.156030  0.660426  1
  Sb  Sb8  1  0.505350  0.845442  0.668329  1
  Sb  Sb9  1  0.494650  0.154558  0.331671  1
  Sb  Sb10  1  0.836636  0.331388  0.177917  1
  Sb  Sb11  1  0.163364  0.668612  0.822083  1
  Sb  Sb12  1  0.841656  0.660210  0.504626  1
  Sb  Sb13  1  0.158344  0.339790  0.495374  1
  Os  Os14  1  0.000000  0.000000  0.500000  1
  Os  Os15  1  0.000000  0.500000  0.000000  1
  Ru  Ru16  1  0.500000  0.500000  0.500000  1
