# generated using pymatgen
data_Tb13Tm3(LuPb4)4
_symmetry_space_group_name_H-M   'P 1'
_cell_length_a   8.17513770
_cell_length_b   8.26114834
_cell_length_c   15.62741101
_cell_angle_alpha   89.99938354
_cell_angle_beta   90.08213298
_cell_angle_gamma   90.18088058
_symmetry_Int_Tables_number   1
_chemical_formula_structural   Tb13Tm3(LuPb4)4
_chemical_formula_sum   'Tb13 Tm3 Lu4 Pb16'
_cell_volume   1055.40688040
_cell_formula_units_Z   1
loop_
 _symmetry_equiv_pos_site_id
 _symmetry_equiv_pos_as_xyz
  1  'x, y, z'
loop_
 _atom_site_type_symbol
 _atom_site_label
 _atom_site_symmetry_multiplicity
 _atom_site_fract_x
 _atom_site_fract_y
 _atom_site_fract_z
 _atom_site_occupancy
  Tb  Tb0  1  0.125856  0.342047  0.120284  1
  Tb  Tb1  1  0.623653  0.159116  0.121710  1
  Tb  Tb2  1  0.123428  0.341801  0.379282  1
  Tb  Tb3  1  0.376044  0.841922  0.621304  1
  Tb  Tb4  1  0.876646  0.657978  0.878982  1
  Tb  Tb5  1  0.534865  0.323524  0.900676  1
  Tb  Tb6  1  0.035694  0.176650  0.599160  1
  Tb  Tb7  1  0.465227  0.677590  0.401502  1
  Tb  Tb8  1  0.964075  0.823881  0.099249  1
  Tb  Tb9  1  0.466924  0.677829  0.098326  1
  Tb  Tb10  1  0.967499  0.823073  0.402252  1
  Tb  Tb11  1  0.533030  0.323328  0.598601  1
  Tb  Tb12  1  0.034389  0.174889  0.899721  1
  Tm  Tm13  1  0.373625  0.843823  0.876594  1
  Tm  Tm14  1  0.872633  0.656262  0.622022  1
  Tm  Tm15  1  0.626984  0.156239  0.379024  1
  Lu  Lu16  1  0.206889  0.505810  0.750136  1
  Lu  Lu17  1  0.706978  0.995119  0.749463  1
  Lu  Lu18  1  0.792202  0.494896  0.251398  1
  Lu  Lu19  1  0.293472  0.004684  0.249900  1
  Pb  Pb20  1  0.282936  0.031665  0.041901  1
  Pb  Pb21  1  0.781053  0.464918  0.457648  1
  Pb  Pb22  1  0.719416  0.963980  0.543045  1
  Pb  Pb23  1  0.219981  0.536550  0.955388  1
  Pb  Pb24  1  0.713310  0.965523  0.955531  1
  Pb  Pb25  1  0.212806  0.535050  0.544764  1
  Pb  Pb26  1  0.287517  0.035482  0.455751  1
  Pb  Pb27  1  0.782966  0.466939  0.044585  1
  Pb  Pb28  1  0.569866  0.626247  0.750378  1
  Pb  Pb29  1  0.068908  0.873523  0.748882  1
  Pb  Pb30  1  0.430871  0.373921  0.251812  1
  Pb  Pb31  1  0.929608  0.124616  0.250458  1
  Pb  Pb32  1  0.346746  0.156082  0.749981  1
  Pb  Pb33  1  0.846730  0.344211  0.749361  1
  Pb  Pb34  1  0.653913  0.845022  0.250829  1
  Pb  Pb35  1  0.153261  0.655808  0.250101  1
