# generated using pymatgen
data_Li6ZrSc11Ir6
_symmetry_space_group_name_H-M   'P 1'
_cell_length_a   4.65862200
_cell_length_b   6.57184000
_cell_length_c   13.79217501
_cell_angle_alpha   89.99991486
_cell_angle_beta   89.99621564
_cell_angle_gamma   89.99980571
_symmetry_Int_Tables_number   1
_chemical_formula_structural   Li6ZrSc11Ir6
_chemical_formula_sum   'Li6 Zr1 Sc11 Ir6'
_cell_volume   422.25734552
_cell_formula_units_Z   1
loop_
 _symmetry_equiv_pos_site_id
 _symmetry_equiv_pos_as_xyz
  1  'x, y, z'
loop_
 _atom_site_type_symbol
 _atom_site_label
 _atom_site_symmetry_multiplicity
 _atom_site_fract_x
 _atom_site_fract_y
 _atom_site_fract_z
 _atom_site_occupancy
  Li  Li0  1  0.000000  0.998053  0.000002  1
  Li  Li1  1  0.499346  0.501311  0.167192  1
  Li  Li2  1  0.999357  0.999672  0.333195  1
  Li  Li3  1  0.500000  0.500138  0.500001  1
  Li  Li4  1  0.000645  0.999672  0.666807  1
  Li  Li5  1  0.500653  0.501310  0.832811  1
  Zr  Zr6  1  0.500000  0.249298  0.999998  1
  Sc  Sc7  1  0.499999  0.749738  0.000054  1
  Sc  Sc8  1  0.999570  0.251225  0.168484  1
  Sc  Sc9  1  0.999571  0.749240  0.167408  1
  Sc  Sc10  1  0.499562  0.249706  0.333959  1
  Sc  Sc11  1  0.499562  0.750836  0.333615  1
  Sc  Sc12  1  0.999999  0.251021  0.499961  1
  Sc  Sc13  1  0.000000  0.748264  0.499966  1
  Sc  Sc14  1  0.500438  0.249696  0.666002  1
  Sc  Sc15  1  0.500439  0.750851  0.666341  1
  Sc  Sc16  1  0.000431  0.251233  0.831558  1
  Sc  Sc17  1  0.000427  0.749230  0.832645  1
  Ir  Ir18  1  0.000000  0.492387  0.000001  1
  Ir  Ir19  1  0.499551  0.003437  0.164267  1
  Ir  Ir20  1  0.999511  0.500319  0.333462  1
  Ir  Ir21  1  0.499999  0.999613  0.500001  1
  Ir  Ir22  1  0.000489  0.500320  0.666540  1
  Ir  Ir23  1  0.500450  0.003436  0.835733  1
