# generated using pymatgen
data_Tb2Dy2BCl6
_symmetry_space_group_name_H-M   'P 1'
_cell_length_a   3.87403000
_cell_length_b   12.68305600
_cell_length_c   13.15383100
_cell_angle_alpha   90.00000000
_cell_angle_beta   90.00000000
_cell_angle_gamma   90.00000000
_symmetry_Int_Tables_number   1
_chemical_formula_structural   Tb2Dy2BCl6
_chemical_formula_sum   'Tb4 Dy4 B2 Cl12'
_cell_volume   646.30742800
_cell_formula_units_Z   2
loop_
 _symmetry_equiv_pos_site_id
 _symmetry_equiv_pos_as_xyz
  1  'x, y, z'
loop_
 _atom_site_type_symbol
 _atom_site_label
 _atom_site_symmetry_multiplicity
 _atom_site_fract_x
 _atom_site_fract_y
 _atom_site_fract_z
 _atom_site_occupancy
  Tb  Tb0  1  0.500000  0.126624  0.851041  1
  Tb  Tb1  1  0.500000  0.873376  0.148959  1
  Tb  Tb2  1  0.500000  0.626624  0.648959  1
  Tb  Tb3  1  0.500000  0.373376  0.351041  1
  Dy  Dy4  1  0.000000  0.106522  0.084397  1
  Dy  Dy5  1  0.000000  0.893478  0.915603  1
  Dy  Dy6  1  0.000000  0.606522  0.415603  1
  Dy  Dy7  1  0.000000  0.393478  0.584397  1
  B  B8  1  0.500000  0.000000  0.000000  1
  B  B9  1  0.500000  0.500000  0.500000  1
  Cl  Cl10  1  0.500000  0.267935  0.682252  1
  Cl  Cl11  1  0.500000  0.732065  0.317748  1
  Cl  Cl12  1  0.500000  0.767935  0.817748  1
  Cl  Cl13  1  0.500000  0.232065  0.182252  1
  Cl  Cl14  1  0.000000  0.256687  0.929871  1
  Cl  Cl15  1  0.000000  0.743313  0.070129  1
  Cl  Cl16  1  0.000000  0.478731  0.243427  1
  Cl  Cl17  1  0.000000  0.521269  0.756573  1
  Cl  Cl18  1  0.000000  0.978731  0.256573  1
  Cl  Cl19  1  0.000000  0.021269  0.743427  1
  Cl  Cl20  1  0.000000  0.243313  0.429871  1
  Cl  Cl21  1  0.000000  0.756687  0.570129  1
