# generated using pymatgen
data_Y6TcPt
_symmetry_space_group_name_H-M   'P 1'
_cell_length_a   6.47092600
_cell_length_b   7.29985400
_cell_length_c   9.31119400
_cell_angle_alpha   90.00000000
_cell_angle_beta   90.00000000
_cell_angle_gamma   90.00000000
_symmetry_Int_Tables_number   1
_chemical_formula_structural   Y6TcPt
_chemical_formula_sum   'Y12 Tc2 Pt2'
_cell_volume   439.83114882
_cell_formula_units_Z   2
loop_
 _symmetry_equiv_pos_site_id
 _symmetry_equiv_pos_as_xyz
  1  'x, y, z'
loop_
 _atom_site_type_symbol
 _atom_site_label
 _atom_site_symmetry_multiplicity
 _atom_site_fract_x
 _atom_site_fract_y
 _atom_site_fract_z
 _atom_site_occupancy
  Y  Y0  1  0.125145  0.038749  0.250000  1
  Y  Y1  1  0.625145  0.461251  0.750000  1
  Y  Y2  1  0.371512  0.534415  0.250000  1
  Y  Y3  1  0.871512  0.965585  0.750000  1
  Y  Y4  1  0.674397  0.181106  0.058791  1
  Y  Y5  1  0.174397  0.318894  0.941209  1
  Y  Y6  1  0.825954  0.674656  0.435586  1
  Y  Y7  1  0.325954  0.825344  0.564414  1
  Y  Y8  1  0.325954  0.825344  0.935586  1
  Y  Y9  1  0.825954  0.674656  0.064414  1
  Y  Y10  1  0.174397  0.318894  0.558791  1
  Y  Y11  1  0.674397  0.181106  0.441209  1
  Tc  Tc12  1  0.960888  0.389209  0.250000  1
  Tc  Tc13  1  0.460888  0.110791  0.750000  1
  Pt  Pt14  1  0.541754  0.888979  0.250000  1
  Pt  Pt15  1  0.041754  0.611021  0.750000  1
