# generated using pymatgen
data_V2TcB4W
_symmetry_space_group_name_H-M   'P 1'
_cell_length_a   3.01698200
_cell_length_b   3.09481500
_cell_length_c   8.30232800
_cell_angle_alpha   90.00000000
_cell_angle_beta   90.00000000
_cell_angle_gamma   90.00000000
_symmetry_Int_Tables_number   1
_chemical_formula_structural   V2TcB4W
_chemical_formula_sum   'V2 Tc1 B4 W1'
_cell_volume   77.51884607
_cell_formula_units_Z   1
loop_
 _symmetry_equiv_pos_site_id
 _symmetry_equiv_pos_as_xyz
  1  'x, y, z'
loop_
 _atom_site_type_symbol
 _atom_site_label
 _atom_site_symmetry_multiplicity
 _atom_site_fract_x
 _atom_site_fract_y
 _atom_site_fract_z
 _atom_site_occupancy
  V  V0  1  0.500000  0.500000  0.359594  1
  V  V1  1  0.500000  0.000000  0.857804  1
  Tc  Tc2  1  0.000000  0.500000  0.648319  1
  B  B3  1  0.000000  0.000000  0.436469  1
  B  B4  1  0.000000  0.500000  0.934359  1
  B  B5  1  0.500000  0.500000  0.056060  1
  B  B6  1  0.500000  0.000000  0.558193  1
  W  W7  1  0.000000  0.000000  0.149201  1
