# generated using pymatgen
data_Y2B(PtRh2)2
_symmetry_space_group_name_H-M   'P 1'
_cell_length_a   5.87705928
_cell_length_b   5.87705876
_cell_length_c   5.85339800
_cell_angle_alpha   60.13308833
_cell_angle_beta   60.13309122
_cell_angle_gamma   59.91486589
_symmetry_Int_Tables_number   1
_chemical_formula_structural   Y2B(PtRh2)2
_chemical_formula_sum   'Y2 B1 Pt2 Rh4'
_cell_volume   143.15369634
_cell_formula_units_Z   1
loop_
 _symmetry_equiv_pos_site_id
 _symmetry_equiv_pos_as_xyz
  1  'x, y, z'
loop_
 _atom_site_type_symbol
 _atom_site_label
 _atom_site_symmetry_multiplicity
 _atom_site_fract_x
 _atom_site_fract_y
 _atom_site_fract_z
 _atom_site_occupancy
  Y  Y0  1  0.249982  0.249982  0.250571  1
  Y  Y1  1  0.750018  0.750018  0.750535  1
  B  B2  1  0.000000  0.000000  0.993667  1
  Pt  Pt3  1  0.742121  0.257880  0.258226  1
  Pt  Pt4  1  0.257880  0.742121  0.258226  1
  Rh  Rh5  1  0.744402  0.744402  0.256835  1
  Rh  Rh6  1  0.257908  0.742093  0.743152  1
  Rh  Rh7  1  0.255598  0.255598  0.745639  1
  Rh  Rh8  1  0.742093  0.257908  0.743152  1
