# generated using pymatgen
data_TcP4PtO14
_symmetry_space_group_name_H-M   'P 1'
_cell_length_a   4.86457066
_cell_length_b   7.01568447
_cell_length_c   8.12600817
_cell_angle_alpha   91.46637324
_cell_angle_beta   92.68339328
_cell_angle_gamma   106.07002007
_symmetry_Int_Tables_number   1
_chemical_formula_structural   TcP4PtO14
_chemical_formula_sum   'Tc1 P4 Pt1 O14'
_cell_volume   265.98302328
_cell_formula_units_Z   1
loop_
 _symmetry_equiv_pos_site_id
 _symmetry_equiv_pos_as_xyz
  1  'x, y, z'
loop_
 _atom_site_type_symbol
 _atom_site_label
 _atom_site_symmetry_multiplicity
 _atom_site_fract_x
 _atom_site_fract_y
 _atom_site_fract_z
 _atom_site_occupancy
  Tc  Tc0  1  0.500000  0.500000  0.500000  1
  P  P1  1  0.526021  0.136402  0.767498  1
  P  P2  1  0.115747  0.748201  0.695200  1
  P  P3  1  0.884253  0.251799  0.304800  1
  P  P4  1  0.473979  0.863598  0.232502  1
  Pt  Pt5  1  0.000000  0.000000  0.000000  1
  O  O6  1  0.378425  0.169343  0.925222  1
  O  O7  1  0.039230  0.754373  0.877463  1
  O  O8  1  0.802343  0.072955  0.797811  1
  O  O9  1  0.294769  0.601511  0.678583  1
  O  O10  1  0.604608  0.319212  0.663270  1
  O  O11  1  0.307453  0.966373  0.650870  1
  O  O12  1  0.862730  0.710900  0.568162  1
  O  O13  1  0.137270  0.289100  0.431838  1
  O  O14  1  0.692547  0.033627  0.349130  1
  O  O15  1  0.395392  0.680788  0.336730  1
  O  O16  1  0.705231  0.398489  0.321417  1
  O  O17  1  0.197657  0.927045  0.202189  1
  O  O18  1  0.960770  0.245627  0.122537  1
  O  O19  1  0.621575  0.830657  0.074778  1
