# generated using pymatgen
data_Tm9PaTc4
_symmetry_space_group_name_H-M   'P 1'
_cell_length_a   6.24332340
_cell_length_b   7.31619611
_cell_length_c   8.37946896
_cell_angle_alpha   96.92797730
_cell_angle_beta   111.73378884
_cell_angle_gamma   88.55368540
_symmetry_Int_Tables_number   1
_chemical_formula_structural   Tm9PaTc4
_chemical_formula_sum   'Tm9 Pa1 Tc4'
_cell_volume   352.86968766
_cell_formula_units_Z   1
loop_
 _symmetry_equiv_pos_site_id
 _symmetry_equiv_pos_as_xyz
  1  'x, y, z'
loop_
 _atom_site_type_symbol
 _atom_site_label
 _atom_site_symmetry_multiplicity
 _atom_site_fract_x
 _atom_site_fract_y
 _atom_site_fract_z
 _atom_site_occupancy
  Tm  Tm0  1  0.978999  0.420903  0.190555  1
  Tm  Tm1  1  0.209010  0.916314  0.182585  1
  Tm  Tm2  1  0.028105  0.582794  0.820409  1
  Tm  Tm3  1  0.203192  0.180309  0.561919  1
  Tm  Tm4  1  0.639437  0.314800  0.431327  1
  Tm  Tm5  1  0.787103  0.816417  0.430644  1
  Tm  Tm6  1  0.362047  0.684771  0.560633  1
  Tm  Tm7  1  0.418981  0.249603  0.003752  1
  Tm  Tm8  1  0.584424  0.753399  0.997150  1
  Pa  Pa9  1  0.805074  0.098430  0.818007  1
  Tc  Tc10  1  0.622138  0.394153  0.783431  1
  Tc  Tc11  1  0.823553  0.075426  0.214539  1
  Tc  Tc12  1  0.405391  0.576795  0.218285  1
  Tc  Tc13  1  0.132545  0.935888  0.786764  1
