# generated using pymatgen
data_Ba4Sr4Si3Ge
_symmetry_space_group_name_H-M   'P 1'
_cell_length_a   5.23810900
_cell_length_b   8.61902725
_cell_length_c   9.73599625
_cell_angle_alpha   89.97307269
_cell_angle_beta   90.00000000
_cell_angle_gamma   90.00000000
_symmetry_Int_Tables_number   1
_chemical_formula_structural   Ba4Sr4Si3Ge
_chemical_formula_sum   'Ba4 Sr4 Si3 Ge1'
_cell_volume   439.55490980
_cell_formula_units_Z   1
loop_
 _symmetry_equiv_pos_site_id
 _symmetry_equiv_pos_as_xyz
  1  'x, y, z'
loop_
 _atom_site_type_symbol
 _atom_site_label
 _atom_site_symmetry_multiplicity
 _atom_site_fract_x
 _atom_site_fract_y
 _atom_site_fract_z
 _atom_site_occupancy
  Ba  Ba0  1  0.250000  0.523351  0.176740  1
  Ba  Ba1  1  0.250000  0.024095  0.324222  1
  Ba  Ba2  1  0.750000  0.976735  0.675037  1
  Ba  Ba3  1  0.750000  0.474724  0.823602  1
  Sr  Sr4  1  0.750000  0.352879  0.424284  1
  Sr  Sr5  1  0.250000  0.148419  0.924470  1
  Sr  Sr6  1  0.750000  0.853438  0.076937  1
  Sr  Sr7  1  0.250000  0.646743  0.574748  1
  Si  Si8  1  0.250000  0.266415  0.606258  1
  Si  Si9  1  0.750000  0.233629  0.106394  1
  Si  Si10  1  0.750000  0.733541  0.393784  1
  Ge  Ge11  1  0.250000  0.766029  0.893525  1
