# generated using pymatgen
data_NdSm4Th5Sn3Bi3C2
_symmetry_space_group_name_H-M   'P 1'
_cell_length_a   9.28835800
_cell_length_b   9.28835731
_cell_length_c   6.59385300
_cell_angle_alpha   90.00000000
_cell_angle_beta   90.00000000
_cell_angle_gamma   119.69469430
_symmetry_Int_Tables_number   1
_chemical_formula_structural   NdSm4Th5Sn3Bi3C2
_chemical_formula_sum   'Nd1 Sm4 Th5 Sn3 Bi3 C2'
_cell_volume   494.16916088
_cell_formula_units_Z   1
loop_
 _symmetry_equiv_pos_site_id
 _symmetry_equiv_pos_as_xyz
  1  'x, y, z'
loop_
 _atom_site_type_symbol
 _atom_site_label
 _atom_site_symmetry_multiplicity
 _atom_site_fract_x
 _atom_site_fract_y
 _atom_site_fract_z
 _atom_site_occupancy
  Nd  Nd0  1  0.772177  0.772177  0.250000  1
  Sm  Sm1  1  0.666941  0.332535  0.504991  1
  Sm  Sm2  1  0.332535  0.666941  0.504991  1
  Sm  Sm3  1  0.332535  0.666941  0.995009  1
  Sm  Sm4  1  0.666941  0.332535  0.995009  1
  Th  Th5  1  0.217028  0.998433  0.250000  1
  Th  Th6  1  0.998433  0.217028  0.250000  1
  Th  Th7  1  0.220537  0.220537  0.750000  1
  Th  Th8  1  0.781472  0.000441  0.750000  1
  Th  Th9  1  0.000441  0.781472  0.750000  1
  Sn  Sn10  1  0.597146  0.597146  0.750000  1
  Sn  Sn11  1  0.403778  0.999889  0.750000  1
  Sn  Sn12  1  0.999889  0.403778  0.750000  1
  Bi  Bi13  1  0.403807  0.403807  0.250000  1
  Bi  Bi14  1  0.595336  0.998666  0.250000  1
  Bi  Bi15  1  0.998666  0.595336  0.250000  1
  C  C16  1  0.006170  0.006170  0.502386  1
  C  C17  1  0.006170  0.006170  0.997614  1
