# generated using pymatgen
data_Pa3Al5Ga4
_symmetry_space_group_name_H-M   'P 1'
_cell_length_a   7.82990479
_cell_length_b   7.83764509
_cell_length_c   7.83764454
_cell_angle_alpha   46.82744597
_cell_angle_beta   46.98352654
_cell_angle_gamma   46.98354101
_symmetry_Int_Tables_number   1
_chemical_formula_structural   Pa3Al5Ga4
_chemical_formula_sum   'Pa3 Al5 Ga4'
_cell_volume   234.60782684
_cell_formula_units_Z   1
loop_
 _symmetry_equiv_pos_site_id
 _symmetry_equiv_pos_as_xyz
  1  'x, y, z'
loop_
 _atom_site_type_symbol
 _atom_site_label
 _atom_site_symmetry_multiplicity
 _atom_site_fract_x
 _atom_site_fract_y
 _atom_site_fract_z
 _atom_site_occupancy
  Pa  Pa0  1  0.787142  0.784905  0.784905  1
  Pa  Pa1  1  0.213450  0.217625  0.217625  1
  Pa  Pa2  1  0.997931  0.998082  0.998082  1
  Al  Al3  1  0.499640  0.502125  0.999617  1
  Al  Al4  1  0.499640  0.999617  0.502125  1
  Al  Al5  1  0.999562  0.501822  0.501822  1
  Al  Al6  1  0.299992  0.293796  0.734169  1
  Al  Al7  1  0.299992  0.734169  0.293796  1
  Ga  Ga8  1  0.699751  0.705389  0.266744  1
  Ga  Ga9  1  0.264405  0.702498  0.702498  1
  Ga  Ga10  1  0.699751  0.266744  0.705389  1
  Ga  Ga11  1  0.738743  0.293229  0.293229  1
