# generated using pymatgen
data_Tb4Sc4Pt3Rh
_symmetry_space_group_name_H-M   'P 1'
_cell_length_a   4.56061400
_cell_length_b   7.01129618
_cell_length_c   8.48275453
_cell_angle_alpha   89.94282546
_cell_angle_beta   90.00000000
_cell_angle_gamma   90.00000000
_symmetry_Int_Tables_number   1
_chemical_formula_structural   Tb4Sc4Pt3Rh
_chemical_formula_sum   'Tb4 Sc4 Pt3 Rh1'
_cell_volume   271.24285882
_cell_formula_units_Z   1
loop_
 _symmetry_equiv_pos_site_id
 _symmetry_equiv_pos_as_xyz
  1  'x, y, z'
loop_
 _atom_site_type_symbol
 _atom_site_label
 _atom_site_symmetry_multiplicity
 _atom_site_fract_x
 _atom_site_fract_y
 _atom_site_fract_z
 _atom_site_occupancy
  Tb  Tb0  1  0.250000  0.018043  0.674374  1
  Tb  Tb1  1  0.250000  0.518208  0.822809  1
  Tb  Tb2  1  0.750000  0.983259  0.324133  1
  Tb  Tb3  1  0.750000  0.483112  0.175803  1
  Sc  Sc4  1  0.250000  0.140724  0.071510  1
  Sc  Sc5  1  0.250000  0.636910  0.425869  1
  Sc  Sc6  1  0.750000  0.861065  0.927237  1
  Sc  Sc7  1  0.750000  0.359847  0.571956  1
  Pt  Pt8  1  0.250000  0.754842  0.098869  1
  Pt  Pt9  1  0.750000  0.744204  0.598362  1
  Pt  Pt10  1  0.750000  0.246248  0.900793  1
  Rh  Rh11  1  0.250000  0.253537  0.408282  1
