# generated using pymatgen
data_HfZr2Co8P6Ru
_symmetry_space_group_name_H-M   'P 1'
_cell_length_a   11.91572321
_cell_length_b   11.92590629
_cell_length_c   3.64380200
_cell_angle_alpha   90.00000000
_cell_angle_beta   90.00000000
_cell_angle_gamma   120.00343190
_symmetry_Int_Tables_number   1
_chemical_formula_structural   HfZr2Co8P6Ru
_chemical_formula_sum   'Hf2 Zr4 Co16 P12 Ru2'
_cell_volume   448.41711562
_cell_formula_units_Z   2
loop_
 _symmetry_equiv_pos_site_id
 _symmetry_equiv_pos_as_xyz
  1  'x, y, z'
loop_
 _atom_site_type_symbol
 _atom_site_label
 _atom_site_symmetry_multiplicity
 _atom_site_fract_x
 _atom_site_fract_y
 _atom_site_fract_z
 _atom_site_occupancy
  Hf  Hf0  1  0.000379  0.557202  0.000000  1
  Hf  Hf1  1  0.178923  0.997838  0.500000  1
  Zr  Zr2  1  0.819897  0.818041  0.500000  1
  Zr  Zr3  1  0.999823  0.175729  0.500000  1
  Zr  Zr4  1  0.333753  0.667002  0.000000  1
  Zr  Zr5  1  0.666511  0.333432  0.000000  1
  Co  Co6  1  0.623684  0.820531  0.000000  1
  Co  Co7  1  0.375155  0.195618  0.000000  1
  Co  Co8  1  0.000833  0.722142  0.500000  1
  Co  Co9  1  0.282406  0.280534  0.500000  1
  Co  Co10  1  0.872501  0.352163  0.500000  1
  Co  Co11  1  0.717356  0.998948  0.500000  1
  Co  Co12  1  0.817081  0.626968  0.000000  1
  Co  Co13  1  0.183457  0.811429  0.000000  1
  Co  Co14  1  0.358455  0.875582  0.500000  1
  Co  Co15  1  0.127725  0.479673  0.500000  1
  Co  Co16  1  0.641523  0.516845  0.500000  1
  Co  Co17  1  0.000850  0.001011  0.000000  1
  Co  Co18  1  0.515015  0.644940  0.500000  1
  Co  Co19  1  0.484690  0.130105  0.500000  1
  Co  Co20  1  0.196321  0.371461  0.000000  1
  Co  Co21  1  0.803559  0.175639  0.000000  1
  P  P22  1  0.999923  0.346599  0.000000  1
  P  P23  1  0.825493  0.516836  0.500000  1
  P  P24  1  0.685277  0.165308  0.500000  1
  P  P25  1  0.178412  0.175122  0.000000  1
  P  P26  1  0.639604  0.643806  0.000000  1
  P  P27  1  0.821722  0.997489  0.000000  1
  P  P28  1  0.518643  0.834180  0.500000  1
  P  P29  1  0.175049  0.691407  0.500000  1
  P  P30  1  0.359460  0.004265  0.000000  1
  P  P31  1  0.481553  0.315636  0.500000  1
  P  P32  1  0.000702  0.825031  0.000000  1
  P  P33  1  0.314691  0.479575  0.500000  1
  Ru  Ru34  1  0.448921  0.450164  0.000000  1
  Ru  Ru35  1  0.550652  0.001746  0.000000  1
