# generated using pymatgen
data_Sm2Ga5Rh3
_symmetry_space_group_name_H-M   'P 1'
_cell_length_a   8.64286352
_cell_length_b   8.64286339
_cell_length_c   5.73856221
_cell_angle_alpha   70.59524601
_cell_angle_beta   70.59524271
_cell_angle_gamma   95.73228812
_symmetry_Int_Tables_number   1
_chemical_formula_structural   Sm2Ga5Rh3
_chemical_formula_sum   'Sm4 Ga10 Rh6'
_cell_volume   370.54336339
_cell_formula_units_Z   2
loop_
 _symmetry_equiv_pos_site_id
 _symmetry_equiv_pos_as_xyz
  1  'x, y, z'
loop_
 _atom_site_type_symbol
 _atom_site_label
 _atom_site_symmetry_multiplicity
 _atom_site_fract_x
 _atom_site_fract_y
 _atom_site_fract_z
 _atom_site_occupancy
  Sm  Sm0  1  0.864779  0.591176  0.773058  1
  Sm  Sm1  1  0.408824  0.135221  0.726942  1
  Sm  Sm2  1  0.135221  0.408824  0.226942  1
  Sm  Sm3  1  0.591176  0.864779  0.273058  1
  Ga  Ga4  1  0.081461  0.263025  0.827026  1
  Ga  Ga5  1  0.736975  0.918539  0.672974  1
  Ga  Ga6  1  0.918539  0.736975  0.172974  1
  Ga  Ga7  1  0.263025  0.081461  0.327026  1
  Ga  Ga8  1  0.205559  0.794441  0.750000  1
  Ga  Ga9  1  0.794441  0.205559  0.250000  1
  Ga  Ga10  1  0.500745  0.499255  0.750000  1
  Ga  Ga11  1  0.499255  0.500745  0.250000  1
  Ga  Ga12  1  0.792890  0.207110  0.750000  1
  Ga  Ga13  1  0.207110  0.792890  0.250000  1
  Rh  Rh14  1  0.260063  0.555393  0.594853  1
  Rh  Rh15  1  0.444607  0.739937  0.905147  1
  Rh  Rh16  1  0.739937  0.444607  0.405147  1
  Rh  Rh17  1  0.555393  0.260063  0.094853  1
  Rh  Rh18  1  0.999303  0.000697  0.750000  1
  Rh  Rh19  1  0.000697  0.999303  0.250000  1
