# generated using pymatgen
data_Ce8Al8Os2Ru5Rh
_symmetry_space_group_name_H-M   'P 1'
_cell_length_a   4.15448400
_cell_length_b   7.17675128
_cell_length_c   15.77235249
_cell_angle_alpha   89.94648201
_cell_angle_beta   90.00000000
_cell_angle_gamma   90.00000000
_symmetry_Int_Tables_number   1
_chemical_formula_structural   Ce8Al8Os2Ru5Rh
_chemical_formula_sum   'Ce8 Al8 Os2 Ru5 Rh1'
_cell_volume   470.26349927
_cell_formula_units_Z   1
loop_
 _symmetry_equiv_pos_site_id
 _symmetry_equiv_pos_as_xyz
  1  'x, y, z'
loop_
 _atom_site_type_symbol
 _atom_site_label
 _atom_site_symmetry_multiplicity
 _atom_site_fract_x
 _atom_site_fract_y
 _atom_site_fract_z
 _atom_site_occupancy
  Ce  Ce0  1  0.250000  0.165644  0.562671  1
  Ce  Ce1  1  0.750000  0.840982  0.441720  1
  Ce  Ce2  1  0.250000  0.664261  0.938114  1
  Ce  Ce3  1  0.750000  0.336083  0.061055  1
  Ce  Ce4  1  0.250000  0.036555  0.781548  1
  Ce  Ce5  1  0.750000  0.964806  0.217182  1
  Ce  Ce6  1  0.250000  0.535365  0.719049  1
  Ce  Ce7  1  0.750000  0.460941  0.279966  1
  Al  Al8  1  0.250000  0.139528  0.349094  1
  Al  Al9  1  0.750000  0.860551  0.650937  1
  Al  Al10  1  0.250000  0.639702  0.149658  1
  Al  Al11  1  0.750000  0.359973  0.849241  1
  Al  Al12  1  0.250000  0.998104  0.062097  1
  Al  Al13  1  0.750000  0.002770  0.937313  1
  Al  Al14  1  0.250000  0.498667  0.437398  1
  Al  Al15  1  0.750000  0.501045  0.562439  1
  Os  Os16  1  0.750000  0.263830  0.432935  1
  Os  Os17  1  0.250000  0.732679  0.567917  1
  Ru  Ru18  1  0.750000  0.769061  0.067899  1
  Ru  Ru19  1  0.250000  0.235150  0.933542  1
  Ru  Ru20  1  0.750000  0.736918  0.819790  1
  Ru  Ru21  1  0.250000  0.264429  0.179773  1
  Ru  Ru22  1  0.750000  0.234498  0.683431  1
  Rh  Rh23  1  0.250000  0.758458  0.315234  1
