# generated using pymatgen
data_Dy5Co12Si3P9Ru7
_symmetry_space_group_name_H-M   'P 1'
_cell_length_a   12.24034114
_cell_length_b   12.22192899
_cell_length_c   3.73682400
_cell_angle_alpha   90.00000000
_cell_angle_beta   90.00000000
_cell_angle_gamma   119.89360956
_symmetry_Int_Tables_number   1
_chemical_formula_structural   Dy5Co12Si3P9Ru7
_chemical_formula_sum   'Dy5 Co12 Si3 P9 Ru7'
_cell_volume   484.65326789
_cell_formula_units_Z   1
loop_
 _symmetry_equiv_pos_site_id
 _symmetry_equiv_pos_as_xyz
  1  'x, y, z'
loop_
 _atom_site_type_symbol
 _atom_site_label
 _atom_site_symmetry_multiplicity
 _atom_site_fract_x
 _atom_site_fract_y
 _atom_site_fract_z
 _atom_site_occupancy
  Dy  Dy0  1  0.664802  0.332974  0.000000  1
  Dy  Dy1  1  0.337933  0.667292  0.000000  1
  Dy  Dy2  1  0.181836  0.180828  0.500000  1
  Dy  Dy3  1  0.820003  0.002500  0.500000  1
  Dy  Dy4  1  0.998757  0.818033  0.500000  1
  Co  Co5  1  0.830335  0.196599  0.000000  1
  Co  Co6  1  0.798884  0.631572  0.000000  1
  Co  Co7  1  0.370615  0.168187  0.000000  1
  Co  Co8  1  0.194179  0.824253  0.000000  1
  Co  Co9  1  0.624982  0.800882  0.000000  1
  Co  Co10  1  0.177094  0.376041  0.000000  1
  Co  Co11  1  0.516255  0.868032  0.500000  1
  Co  Co12  1  0.356284  0.486299  0.500000  1
  Co  Co13  1  0.717442  0.721675  0.500000  1
  Co  Co14  1  0.278823  0.996664  0.500000  1
  Co  Co15  1  0.007720  0.282283  0.500000  1
  Co  Co16  1  0.000128  0.998993  0.000000  1
  Si  Si17  1  0.360966  0.365344  0.000000  1
  Si  Si18  1  0.634850  0.995765  0.000000  1
  Si  Si19  1  0.842010  0.316836  0.500000  1
  P  P20  1  0.000662  0.636171  0.000000  1
  P  P21  1  0.682368  0.525948  0.500000  1
  P  P22  1  0.473963  0.159379  0.500000  1
  P  P23  1  0.320315  0.839718  0.500000  1
  P  P24  1  0.521437  0.686149  0.500000  1
  P  P25  1  0.168100  0.477074  0.500000  1
  P  P26  1  0.818726  0.822395  0.000000  1
  P  P27  1  0.178829  0.998363  0.000000  1
  P  P28  1  0.003251  0.181350  0.000000  1
  Ru  Ru29  1  0.553472  0.559783  0.000000  1
  Ru  Ru30  1  0.436826  0.988451  0.000000  1
  Ru  Ru31  1  0.000014  0.443418  0.000000  1
  Ru  Ru32  1  0.642580  0.123419  0.500000  1
  Ru  Ru33  1  0.873699  0.526637  0.500000  1
  Ru  Ru34  1  0.479291  0.353763  0.500000  1
  Ru  Ru35  1  0.132568  0.646934  0.500000  1
