# generated using pymatgen
data_Ho12ErTmRh6
_symmetry_space_group_name_H-M   'P 1'
_cell_length_a   9.72888900
_cell_length_b   9.72889009
_cell_length_c   6.15128100
_cell_angle_alpha   90.00000000
_cell_angle_beta   90.00000000
_cell_angle_gamma   119.99999968
_symmetry_Int_Tables_number   1
_chemical_formula_structural   Ho12ErTmRh6
_chemical_formula_sum   'Ho12 Er1 Tm1 Rh6'
_cell_volume   504.22310856
_cell_formula_units_Z   1
loop_
 _symmetry_equiv_pos_site_id
 _symmetry_equiv_pos_as_xyz
  1  'x, y, z'
loop_
 _atom_site_type_symbol
 _atom_site_label
 _atom_site_symmetry_multiplicity
 _atom_site_fract_x
 _atom_site_fract_y
 _atom_site_fract_z
 _atom_site_occupancy
  Ho  Ho0  1  0.752495  0.876247  0.990642  1
  Ho  Ho1  1  0.876101  0.123899  0.490505  1
  Ho  Ho2  1  0.541178  0.458822  0.797783  1
  Ho  Ho3  1  0.081805  0.540902  0.297843  1
  Ho  Ho4  1  0.459098  0.918195  0.297843  1
  Ho  Ho5  1  0.541178  0.082356  0.797783  1
  Ho  Ho6  1  0.917644  0.458822  0.797783  1
  Ho  Ho7  1  0.459098  0.540902  0.297843  1
  Ho  Ho8  1  0.123753  0.247505  0.990642  1
  Ho  Ho9  1  0.876101  0.752201  0.490505  1
  Ho  Ho10  1  0.247799  0.123899  0.490505  1
  Ho  Ho11  1  0.123753  0.876247  0.990642  1
  Er  Er12  1  0.333333  0.666667  0.786156  1
  Tm  Tm13  1  0.666667  0.333333  0.285445  1
  Rh  Rh14  1  0.189979  0.810021  0.563463  1
  Rh  Rh15  1  0.380458  0.190229  0.063898  1
  Rh  Rh16  1  0.809771  0.619542  0.063898  1
  Rh  Rh17  1  0.189979  0.379959  0.563463  1
  Rh  Rh18  1  0.620041  0.810021  0.563463  1
  Rh  Rh19  1  0.809771  0.190229  0.063898  1
