# generated using pymatgen
data_Sc6Co2B4Ir7Rh
_symmetry_space_group_name_H-M   'P 1'
_cell_length_a   3.07225500
_cell_length_b   9.43709320
_cell_length_c   9.41613421
_cell_angle_alpha   90.12038274
_cell_angle_beta   90.00000000
_cell_angle_gamma   90.00000000
_symmetry_Int_Tables_number   1
_chemical_formula_structural   Sc6Co2B4Ir7Rh
_chemical_formula_sum   'Sc6 Co2 B4 Ir7 Rh1'
_cell_volume   273.00285253
_cell_formula_units_Z   1
loop_
 _symmetry_equiv_pos_site_id
 _symmetry_equiv_pos_as_xyz
  1  'x, y, z'
loop_
 _atom_site_type_symbol
 _atom_site_label
 _atom_site_symmetry_multiplicity
 _atom_site_fract_x
 _atom_site_fract_y
 _atom_site_fract_z
 _atom_site_occupancy
  Sc  Sc0  1  0.000000  0.175769  0.676208  1
  Sc  Sc1  1  0.000000  0.823501  0.324457  1
  Sc  Sc2  1  0.000000  0.325005  0.175524  1
  Sc  Sc3  1  0.000000  0.676077  0.824114  1
  Sc  Sc4  1  0.000000  0.000763  0.002553  1
  Sc  Sc5  1  0.000000  0.499704  0.499902  1
  Co  Co6  1  0.500000  0.000151  0.499310  1
  Co  Co7  1  0.500000  0.499396  0.999867  1
  B  B8  1  0.000000  0.610138  0.109609  1
  B  B9  1  0.000000  0.389555  0.889646  1
  B  B10  1  0.000000  0.890021  0.610645  1
  B  B11  1  0.000000  0.110428  0.391140  1
  Ir  Ir12  1  0.500000  0.936184  0.772006  1
  Ir  Ir13  1  0.500000  0.771212  0.063974  1
  Ir  Ir14  1  0.500000  0.436077  0.728065  1
  Ir  Ir15  1  0.500000  0.228349  0.935049  1
  Ir  Ir16  1  0.500000  0.564452  0.271401  1
  Ir  Ir17  1  0.500000  0.728895  0.563808  1
  Ir  Ir18  1  0.500000  0.270520  0.434131  1
  Rh  Rh19  1  0.500000  0.063804  0.228591  1
