# generated using pymatgen
data_Dy3Al3ZnGePt
_symmetry_space_group_name_H-M   'P 1'
_cell_length_a   7.00538900
_cell_length_b   7.00538889
_cell_length_c   4.23491400
_cell_angle_alpha   90.00000000
_cell_angle_beta   90.00000000
_cell_angle_gamma   119.99999579
_symmetry_Int_Tables_number   1
_chemical_formula_structural   Dy3Al3ZnGePt
_chemical_formula_sum   'Dy3 Al3 Zn1 Ge1 Pt1'
_cell_volume   179.98642503
_cell_formula_units_Z   1
loop_
 _symmetry_equiv_pos_site_id
 _symmetry_equiv_pos_as_xyz
  1  'x, y, z'
loop_
 _atom_site_type_symbol
 _atom_site_label
 _atom_site_symmetry_multiplicity
 _atom_site_fract_x
 _atom_site_fract_y
 _atom_site_fract_z
 _atom_site_occupancy
  Dy  Dy0  1  0.418092  0.000966  0.000000  1
  Dy  Dy1  1  0.999034  0.417126  0.000000  1
  Dy  Dy2  1  0.582874  0.581908  0.000000  1
  Al  Al3  1  0.769337  0.007930  0.500000  1
  Al  Al4  1  0.238592  0.230663  0.500000  1
  Al  Al5  1  0.992070  0.761408  0.500000  1
  Zn  Zn6  1  0.666666  0.333333  0.500000  1
  Ge  Ge7  1  0.333333  0.666666  0.500000  1
  Pt  Pt8  1  0.000000  0.000000  0.000000  1
