# generated using pymatgen
data_Th4Ga23Cu3
_symmetry_space_group_name_H-M   'P 1'
_cell_length_a   6.14122000
_cell_length_b   6.14122000
_cell_length_c   15.33685600
_cell_angle_alpha   90.00000000
_cell_angle_beta   90.00000000
_cell_angle_gamma   90.00000000
_symmetry_Int_Tables_number   1
_chemical_formula_structural   Th4Ga23Cu3
_chemical_formula_sum   'Th4 Ga23 Cu3'
_cell_volume   578.42312993
_cell_formula_units_Z   1
loop_
 _symmetry_equiv_pos_site_id
 _symmetry_equiv_pos_as_xyz
  1  'x, y, z'
loop_
 _atom_site_type_symbol
 _atom_site_label
 _atom_site_symmetry_multiplicity
 _atom_site_fract_x
 _atom_site_fract_y
 _atom_site_fract_z
 _atom_site_occupancy
  Th  Th0  1  0.750000  0.250000  0.246622  1
  Th  Th1  1  0.250000  0.750000  0.246622  1
  Th  Th2  1  0.250000  0.750000  0.753510  1
  Th  Th3  1  0.750000  0.250000  0.753510  1
  Ga  Ga4  1  0.750000  0.750000  0.177042  1
  Ga  Ga5  1  0.750000  0.750000  0.819618  1
  Ga  Ga6  1  0.250000  0.250000  0.819054  1
  Ga  Ga7  1  0.250000  0.250000  0.332814  1
  Ga  Ga8  1  0.750000  0.750000  0.338719  1
  Ga  Ga9  1  0.750000  0.750000  0.659207  1
  Ga  Ga10  1  0.250000  0.250000  0.659126  1
  Ga  Ga11  1  0.500987  0.000724  0.916015  1
  Ga  Ga12  1  0.000724  0.999013  0.916015  1
  Ga  Ga13  1  0.499276  0.500987  0.916015  1
  Ga  Ga14  1  0.999013  0.499276  0.916015  1
  Ga  Ga15  1  0.488393  0.009853  0.089059  1
  Ga  Ga16  1  0.009853  0.011607  0.089059  1
  Ga  Ga17  1  0.490147  0.488393  0.089059  1
  Ga  Ga18  1  0.011607  0.490147  0.089059  1
  Ga  Ga19  1  0.567901  0.074865  0.427784  1
  Ga  Ga20  1  0.074865  0.932099  0.427784  1
  Ga  Ga21  1  0.425135  0.567901  0.427784  1
  Ga  Ga22  1  0.932099  0.425135  0.427784  1
  Ga  Ga23  1  0.417551  0.916914  0.570586  1
  Ga  Ga24  1  0.916914  0.082449  0.570586  1
  Ga  Ga25  1  0.583086  0.417551  0.570586  1
  Ga  Ga26  1  0.082449  0.583086  0.570586  1
  Cu  Cu27  1  0.250000  0.250000  0.179153  1
  Cu  Cu28  1  0.750000  0.250000  0.000614  1
  Cu  Cu29  1  0.250000  0.750000  0.000614  1
