# generated using pymatgen
data_Ca2Pr(HgPd)3
_symmetry_space_group_name_H-M   'P 1'
_cell_length_a   7.73494824
_cell_length_b   7.73827225
_cell_length_c   4.04827200
_cell_angle_alpha   90.00000000
_cell_angle_beta   90.00000000
_cell_angle_gamma   120.01420516
_symmetry_Int_Tables_number   1
_chemical_formula_structural   Ca2Pr(HgPd)3
_chemical_formula_sum   'Ca2 Pr1 Hg3 Pd3'
_cell_volume   209.81645755
_cell_formula_units_Z   1
loop_
 _symmetry_equiv_pos_site_id
 _symmetry_equiv_pos_as_xyz
  1  'x, y, z'
loop_
 _atom_site_type_symbol
 _atom_site_label
 _atom_site_symmetry_multiplicity
 _atom_site_fract_x
 _atom_site_fract_y
 _atom_site_fract_z
 _atom_site_occupancy
  Ca  Ca0  1  0.397155  0.396942  0.500000  1
  Ca  Ca1  1  0.602845  0.999787  0.500000  1
  Pr  Pr2  1  0.000000  0.602327  0.500000  1
  Hg  Hg3  1  0.729469  0.736890  0.000000  1
  Hg  Hg4  1  0.270531  0.007421  0.000000  1
  Hg  Hg5  1  0.000000  0.257966  0.000000  1
  Pd  Pd6  1  0.672412  0.337504  0.000000  1
  Pd  Pd7  1  0.327588  0.665094  0.000000  1
  Pd  Pd8  1  0.000000  0.996069  0.500000  1
