# generated using pymatgen
data_KRb3AlGaS5
_symmetry_space_group_name_H-M   'P 1'
_cell_length_a   7.85276329
_cell_length_b   8.41399197
_cell_length_c   10.72100035
_cell_angle_alpha   76.82236993
_cell_angle_beta   84.84792267
_cell_angle_gamma   81.72785000
_symmetry_Int_Tables_number   1
_chemical_formula_structural   KRb3AlGaS5
_chemical_formula_sum   'K2 Rb6 Al2 Ga2 S10'
_cell_volume   681.34551823
_cell_formula_units_Z   2
loop_
 _symmetry_equiv_pos_site_id
 _symmetry_equiv_pos_as_xyz
  1  'x, y, z'
loop_
 _atom_site_type_symbol
 _atom_site_label
 _atom_site_symmetry_multiplicity
 _atom_site_fract_x
 _atom_site_fract_y
 _atom_site_fract_z
 _atom_site_occupancy
  K  K0  1  0.432424  0.333663  0.086301  1
  K  K1  1  0.567576  0.666337  0.913699  1
  Rb  Rb2  1  0.185750  0.088264  0.871999  1
  Rb  Rb3  1  0.055440  0.603094  0.763135  1
  Rb  Rb4  1  0.814250  0.911736  0.128001  1
  Rb  Rb5  1  0.944560  0.396906  0.236865  1
  Rb  Rb6  1  0.573393  0.710684  0.505331  1
  Rb  Rb7  1  0.426607  0.289316  0.494669  1
  Al  Al8  1  0.901446  0.083443  0.599291  1
  Al  Al9  1  0.098554  0.916557  0.400709  1
  Ga  Ga10  1  0.292448  0.727906  0.206440  1
  Ga  Ga11  1  0.707552  0.272094  0.793560  1
  S  S12  1  0.880696  0.350554  0.604615  1
  S  S13  1  0.183219  0.964345  0.585908  1
  S  S14  1  0.436919  0.402113  0.771750  1
  S  S15  1  0.175304  0.691832  0.032318  1
  S  S16  1  0.824696  0.308168  0.967682  1
  S  S17  1  0.563081  0.597887  0.228250  1
  S  S18  1  0.119304  0.649446  0.395385  1
  S  S19  1  0.260765  0.014579  0.221281  1
  S  S20  1  0.739235  0.985421  0.778719  1
  S  S21  1  0.816781  0.035655  0.414092  1
