# generated using pymatgen
data_Tm4Ga3P3Ir7
_symmetry_space_group_name_H-M   'P 1'
_cell_length_a   7.08316361
_cell_length_b   7.08316376
_cell_length_c   7.10484600
_cell_angle_alpha   109.53324149
_cell_angle_beta   109.53324191
_cell_angle_gamma   109.40913184
_symmetry_Int_Tables_number   1
_chemical_formula_structural   Tm4Ga3P3Ir7
_chemical_formula_sum   'Tm4 Ga3 P3 Ir7'
_cell_volume   274.19171257
_cell_formula_units_Z   1
loop_
 _symmetry_equiv_pos_site_id
 _symmetry_equiv_pos_as_xyz
  1  'x, y, z'
loop_
 _atom_site_type_symbol
 _atom_site_label
 _atom_site_symmetry_multiplicity
 _atom_site_fract_x
 _atom_site_fract_y
 _atom_site_fract_z
 _atom_site_occupancy
  Tm  Tm0  1  0.000000  0.000000  0.458983  1
  Tm  Tm1  1  0.000000  0.518726  0.999582  1
  Tm  Tm2  1  0.518726  0.000000  0.999582  1
  Tm  Tm3  1  0.481274  0.481274  0.480856  1
  Ga  Ga4  1  0.286543  0.286543  0.981901  1
  Ga  Ga5  1  0.713457  0.000000  0.695358  1
  Ga  Ga6  1  0.000000  0.713457  0.695358  1
  P  P7  1  0.658525  0.658525  0.992615  1
  P  P8  1  0.341475  0.000000  0.334090  1
  P  P9  1  0.000000  0.341475  0.334090  1
  Ir  Ir10  1  0.753211  0.254299  0.499744  1
  Ir  Ir11  1  0.745701  0.498912  0.245445  1
  Ir  Ir12  1  0.501088  0.246789  0.746533  1
  Ir  Ir13  1  0.246789  0.501088  0.746533  1
  Ir  Ir14  1  0.254299  0.753211  0.499744  1
  Ir  Ir15  1  0.498912  0.745701  0.245445  1
  Ir  Ir16  1  0.000000  0.000000  0.044141  1
