# generated using pymatgen
data_Zr10CuSiPb6
_symmetry_space_group_name_H-M   'P 1'
_cell_length_a   8.81712000
_cell_length_b   8.81712045
_cell_length_c   5.93571700
_cell_angle_alpha   90.00000000
_cell_angle_beta   90.00000000
_cell_angle_gamma   119.99999083
_symmetry_Int_Tables_number   1
_chemical_formula_structural   Zr10CuSiPb6
_chemical_formula_sum   'Zr10 Cu1 Si1 Pb6'
_cell_volume   399.62935636
_cell_formula_units_Z   1
loop_
 _symmetry_equiv_pos_site_id
 _symmetry_equiv_pos_as_xyz
  1  'x, y, z'
loop_
 _atom_site_type_symbol
 _atom_site_label
 _atom_site_symmetry_multiplicity
 _atom_site_fract_x
 _atom_site_fract_y
 _atom_site_fract_z
 _atom_site_occupancy
  Zr  Zr0  1  0.666667  0.333333  0.500000  1
  Zr  Zr1  1  0.333333  0.666667  0.500000  1
  Zr  Zr2  1  0.333333  0.666667  0.000000  1
  Zr  Zr3  1  0.666667  0.333333  0.000000  1
  Zr  Zr4  1  0.743370  0.743370  0.254137  1
  Zr  Zr5  1  0.256630  0.000000  0.254137  1
  Zr  Zr6  1  0.000000  0.256630  0.254137  1
  Zr  Zr7  1  0.256630  0.256630  0.745863  1
  Zr  Zr8  1  0.743370  0.000000  0.745863  1
  Zr  Zr9  1  0.000000  0.743370  0.745863  1
  Cu  Cu10  1  0.000000  0.000000  0.000000  1
  Si  Si11  1  0.000000  0.000000  0.500000  1
  Pb  Pb12  1  0.390021  0.390021  0.247295  1
  Pb  Pb13  1  0.609979  0.000000  0.247295  1
  Pb  Pb14  1  0.000000  0.609979  0.247295  1
  Pb  Pb15  1  0.609979  0.609979  0.752705  1
  Pb  Pb16  1  0.390021  0.000000  0.752705  1
  Pb  Pb17  1  0.000000  0.390021  0.752705  1
