# generated using pymatgen
data_SrHfBr6
_symmetry_space_group_name_H-M   'P 1'
_cell_length_a   7.47598200
_cell_length_b   7.47598171
_cell_length_c   6.93799600
_cell_angle_alpha   90.00000000
_cell_angle_beta   90.00000000
_cell_angle_gamma   120.00000127
_symmetry_Int_Tables_number   1
_chemical_formula_structural   SrHfBr6
_chemical_formula_sum   'Sr1 Hf1 Br6'
_cell_volume   335.81581786
_cell_formula_units_Z   1
loop_
 _symmetry_equiv_pos_site_id
 _symmetry_equiv_pos_as_xyz
  1  'x, y, z'
loop_
 _atom_site_type_symbol
 _atom_site_label
 _atom_site_symmetry_multiplicity
 _atom_site_fract_x
 _atom_site_fract_y
 _atom_site_fract_z
 _atom_site_occupancy
  Sr  Sr0  1  0.666667  0.333333  0.000000  1
  Hf  Hf1  1  0.333333  0.666667  0.000000  1
  Br  Br2  1  0.613525  0.658430  0.223555  1
  Br  Br3  1  0.341570  0.386475  0.776445  1
  Br  Br4  1  0.044904  0.386475  0.223555  1
  Br  Br5  1  0.341570  0.955096  0.223555  1
  Br  Br6  1  0.613525  0.955096  0.776445  1
  Br  Br7  1  0.044904  0.658430  0.776445  1
