# generated using pymatgen
data_Ho6PtRh17
_symmetry_space_group_name_H-M   'P 1'
_cell_length_a   5.26984200
_cell_length_b   5.26984283
_cell_length_c   17.56616100
_cell_angle_alpha   90.00000000
_cell_angle_beta   90.00000000
_cell_angle_gamma   119.99999481
_symmetry_Int_Tables_number   1
_chemical_formula_structural   Ho6PtRh17
_chemical_formula_sum   'Ho6 Pt1 Rh17'
_cell_volume   422.47670783
_cell_formula_units_Z   1
loop_
 _symmetry_equiv_pos_site_id
 _symmetry_equiv_pos_as_xyz
  1  'x, y, z'
loop_
 _atom_site_type_symbol
 _atom_site_label
 _atom_site_symmetry_multiplicity
 _atom_site_fract_x
 _atom_site_fract_y
 _atom_site_fract_z
 _atom_site_occupancy
  Ho  Ho0  1  0.333333  0.666667  0.750800  1
  Ho  Ho1  1  0.666667  0.333333  0.249200  1
  Ho  Ho2  1  0.333333  0.666667  0.958304  1
  Ho  Ho3  1  0.666667  0.333333  0.041696  1
  Ho  Ho4  1  0.666667  0.333333  0.456684  1
  Ho  Ho5  1  0.333333  0.666667  0.543316  1
  Pt  Pt6  1  0.000000  0.000000  0.500000  1
  Rh  Rh7  1  0.167790  0.832210  0.373490  1
  Rh  Rh8  1  0.167790  0.335581  0.373490  1
  Rh  Rh9  1  0.664419  0.832210  0.373490  1
  Rh  Rh10  1  0.832210  0.167790  0.626510  1
  Rh  Rh11  1  0.832210  0.664419  0.626510  1
  Rh  Rh12  1  0.335581  0.167790  0.626510  1
  Rh  Rh13  1  0.832570  0.167430  0.874987  1
  Rh  Rh14  1  0.832570  0.665141  0.874987  1
  Rh  Rh15  1  0.334859  0.167430  0.874987  1
  Rh  Rh16  1  0.167430  0.832570  0.125013  1
  Rh  Rh17  1  0.167430  0.334859  0.125013  1
  Rh  Rh18  1  0.665141  0.832570  0.125013  1
  Rh  Rh19  1  0.333333  0.666667  0.249987  1
  Rh  Rh20  1  0.666667  0.333333  0.750013  1
  Rh  Rh21  1  0.000000  0.000000  0.249311  1
  Rh  Rh22  1  0.000000  0.000000  0.750689  1
  Rh  Rh23  1  0.000000  0.000000  0.000000  1
