# generated using pymatgen
data_DyY4Mn(Co3P2)6
_symmetry_space_group_name_H-M   'P 1'
_cell_length_a   12.02421316
_cell_length_b   12.01986400
_cell_length_c   3.67922200
_cell_angle_alpha   90.00000000
_cell_angle_beta   90.00000000
_cell_angle_gamma   119.85213034
_symmetry_Int_Tables_number   1
_chemical_formula_structural   DyY4Mn(Co3P2)6
_chemical_formula_sum   'Dy1 Y4 Mn1 Co18 P12'
_cell_volume   461.19865498
_cell_formula_units_Z   1
loop_
 _symmetry_equiv_pos_site_id
 _symmetry_equiv_pos_as_xyz
  1  'x, y, z'
loop_
 _atom_site_type_symbol
 _atom_site_label
 _atom_site_symmetry_multiplicity
 _atom_site_fract_x
 _atom_site_fract_y
 _atom_site_fract_z
 _atom_site_occupancy
  Dy  Dy0  1  0.999312  0.812117  0.500000  1
  Y  Y1  1  0.666042  0.333420  0.000000  1
  Y  Y2  1  0.333433  0.666462  0.000000  1
  Y  Y3  1  0.186830  0.186535  0.500000  1
  Y  Y4  1  0.812084  0.999323  0.500000  1
  Mn  Mn5  1  0.557482  0.557453  0.000000  1
  Co  Co6  1  0.447765  0.000064  0.000000  1
  Co  Co7  1  0.000076  0.447862  0.000000  1
  Co  Co8  1  0.822359  0.200948  0.000000  1
  Co  Co9  1  0.801784  0.622431  0.000000  1
  Co  Co10  1  0.377214  0.176587  0.000000  1
  Co  Co11  1  0.200786  0.822316  0.000000  1
  Co  Co12  1  0.622288  0.801664  0.000000  1
  Co  Co13  1  0.176595  0.377202  0.000000  1
  Co  Co14  1  0.641574  0.125036  0.500000  1
  Co  Co15  1  0.875197  0.516005  0.500000  1
  Co  Co16  1  0.482669  0.356692  0.500000  1
  Co  Co17  1  0.125010  0.641619  0.500000  1
  Co  Co18  1  0.515867  0.875159  0.500000  1
  Co  Co19  1  0.356909  0.482659  0.500000  1
  Co  Co20  1  0.716425  0.716277  0.500000  1
  Co  Co21  1  0.284989  0.999425  0.500000  1
  Co  Co22  1  0.999331  0.285008  0.500000  1
  Co  Co23  1  0.000731  0.000496  0.000000  1
  P  P24  1  0.365657  0.365613  0.000000  1
  P  P25  1  0.632114  0.000830  0.000000  1
  P  P26  1  0.000867  0.632301  0.000000  1
  P  P27  1  0.833956  0.313964  0.500000  1
  P  P28  1  0.686228  0.520314  0.500000  1
  P  P29  1  0.479234  0.165027  0.500000  1
  P  P30  1  0.313967  0.833939  0.500000  1
  P  P31  1  0.520317  0.686258  0.500000  1
  P  P32  1  0.164984  0.479389  0.500000  1
  P  P33  1  0.819663  0.819442  0.000000  1
  P  P34  1  0.180812  0.999314  0.000000  1
  P  P35  1  0.999451  0.180850  0.000000  1
