# generated using pymatgen
data_Sm7ErNp4O24
_symmetry_space_group_name_H-M   'P 1'
_cell_length_a   5.62985958
_cell_length_b   7.95210451
_cell_length_c   12.00208249
_cell_angle_alpha   74.14197023
_cell_angle_beta   89.80973211
_cell_angle_gamma   89.76510483
_symmetry_Int_Tables_number   1
_chemical_formula_structural   Sm7ErNp4O24
_chemical_formula_sum   'Sm7 Er1 Np4 O24'
_cell_volume   516.86869474
_cell_formula_units_Z   1
loop_
 _symmetry_equiv_pos_site_id
 _symmetry_equiv_pos_as_xyz
  1  'x, y, z'
loop_
 _atom_site_type_symbol
 _atom_site_label
 _atom_site_symmetry_multiplicity
 _atom_site_fract_x
 _atom_site_fract_y
 _atom_site_fract_z
 _atom_site_occupancy
  Sm  Sm0  1  0.744242  0.998199  0.747376  1
  Sm  Sm1  1  0.255942  0.999362  0.252215  1
  Sm  Sm2  1  0.810990  0.794965  0.078547  1
  Sm  Sm3  1  0.694388  0.500864  0.747708  1
  Sm  Sm4  1  0.304244  0.501193  0.250796  1
  Sm  Sm5  1  0.187665  0.205316  0.921717  1
  Sm  Sm6  1  0.815693  0.205456  0.421589  1
  Er  Er7  1  0.185760  0.790771  0.580286  1
  Np  Np8  1  0.252734  0.722195  0.883924  1
  Np  Np9  1  0.744717  0.722030  0.388786  1
  Np  Np10  1  0.255038  0.278122  0.613942  1
  Np  Np11  1  0.745738  0.278450  0.113947  1
  O  O12  1  0.044420  0.940932  0.895226  1
  O  O13  1  0.545402  0.846870  0.928786  1
  O  O14  1  0.954083  0.939170  0.398770  1
  O  O15  1  0.442816  0.798312  0.724457  1
  O  O16  1  0.448799  0.845723  0.437093  1
  O  O17  1  0.968203  0.713678  0.764406  1
  O  O18  1  0.551461  0.798337  0.231190  1
  O  O19  1  0.876497  0.630478  0.553423  1
  O  O20  1  0.384664  0.485990  0.883434  1
  O  O21  1  0.030058  0.713249  0.268859  1
  O  O22  1  0.377402  0.518136  0.616142  1
  O  O23  1  0.869133  0.371968  0.947804  1
  O  O24  1  0.130734  0.630049  0.050932  1
  O  O25  1  0.615889  0.486613  0.386139  1
  O  O26  1  0.966617  0.285226  0.730244  1
  O  O27  1  0.615249  0.514928  0.116454  1
  O  O28  1  0.132073  0.371520  0.448170  1
  O  O29  1  0.448038  0.202741  0.770668  1
  O  O30  1  0.032630  0.287594  0.232118  1
  O  O31  1  0.549939  0.156426  0.568873  1
  O  O32  1  0.553248  0.201972  0.271445  1
  O  O33  1  0.053313  0.053427  0.601894  1
  O  O34  1  0.456527  0.150262  0.068987  1
  O  O35  1  0.955656  0.059475  0.103651  1
