# generated using pymatgen
data_Ho3ErTh6(Ge5Rh2)4
_symmetry_space_group_name_H-M   'P 1'
_cell_length_a   13.12612600
_cell_length_b   13.12612600
_cell_length_c   4.38280900
_cell_angle_alpha   90.00000000
_cell_angle_beta   90.00000000
_cell_angle_gamma   89.99756432
_symmetry_Int_Tables_number   1
_chemical_formula_structural   Ho3ErTh6(Ge5Rh2)4
_chemical_formula_sum   'Ho3 Er1 Th6 Ge20 Rh8'
_cell_volume   755.13688173
_cell_formula_units_Z   1
loop_
 _symmetry_equiv_pos_site_id
 _symmetry_equiv_pos_as_xyz
  1  'x, y, z'
loop_
 _atom_site_type_symbol
 _atom_site_label
 _atom_site_symmetry_multiplicity
 _atom_site_fract_x
 _atom_site_fract_y
 _atom_site_fract_z
 _atom_site_occupancy
  Ho  Ho0  1  0.825086  0.674921  0.500000  1
  Ho  Ho1  1  0.174921  0.325086  0.500000  1
  Ho  Ho2  1  0.674915  0.174915  0.500000  1
  Er  Er3  1  0.325115  0.825115  0.500000  1
  Th  Th4  1  0.499996  0.500002  0.000000  1
  Th  Th5  1  0.000002  0.999996  0.000000  1
  Th  Th6  1  0.887579  0.387579  0.500000  1
  Th  Th7  1  0.387562  0.112393  0.500000  1
  Th  Th8  1  0.612393  0.887562  0.500000  1
  Th  Th9  1  0.112451  0.612451  0.500000  1
  Ge  Ge10  1  0.433000  0.933000  0.000000  1
  Ge  Ge11  1  0.933098  0.566907  0.000000  1
  Ge  Ge12  1  0.066907  0.433098  0.000000  1
  Ge  Ge13  1  0.566899  0.066899  0.000000  1
  Ge  Ge14  1  0.337492  0.300583  0.000000  1
  Ge  Ge15  1  0.662502  0.699421  0.000000  1
  Ge  Ge16  1  0.699413  0.337493  0.000000  1
  Ge  Ge17  1  0.300624  0.662603  0.000000  1
  Ge  Ge18  1  0.800583  0.837492  0.000000  1
  Ge  Ge19  1  0.837493  0.199413  0.000000  1
  Ge  Ge20  1  0.162603  0.800624  0.000000  1
  Ge  Ge21  1  0.199421  0.162502  0.000000  1
  Ge  Ge22  1  0.337827  0.497054  0.500000  1
  Ge  Ge23  1  0.662177  0.502934  0.500000  1
  Ge  Ge24  1  0.502935  0.337829  0.500000  1
  Ge  Ge25  1  0.497009  0.662215  0.500000  1
  Ge  Ge26  1  0.997054  0.837827  0.500000  1
  Ge  Ge27  1  0.837829  0.002935  0.500000  1
  Ge  Ge28  1  0.002934  0.162177  0.500000  1
  Ge  Ge29  1  0.162215  0.997009  0.500000  1
  Rh  Rh30  1  0.255777  0.477437  0.000000  1
  Rh  Rh31  1  0.744224  0.522578  0.000000  1
  Rh  Rh32  1  0.522581  0.255770  0.000000  1
  Rh  Rh33  1  0.477313  0.744285  0.000000  1
  Rh  Rh34  1  0.977437  0.755777  0.000000  1
  Rh  Rh35  1  0.755770  0.022581  0.000000  1
  Rh  Rh36  1  0.244285  0.977313  0.000000  1
  Rh  Rh37  1  0.022578  0.244224  0.000000  1
