# generated using pymatgen
data_Y5GeBi2
_symmetry_space_group_name_H-M   'P 1'
_cell_length_a   12.20566300
_cell_length_b   9.21921200
_cell_length_c   8.12089600
_cell_angle_alpha   90.00000000
_cell_angle_beta   90.00000000
_cell_angle_gamma   90.00000000
_symmetry_Int_Tables_number   1
_chemical_formula_structural   Y5GeBi2
_chemical_formula_sum   'Y20 Ge4 Bi8'
_cell_volume   913.81677359
_cell_formula_units_Z   4
loop_
 _symmetry_equiv_pos_site_id
 _symmetry_equiv_pos_as_xyz
  1  'x, y, z'
loop_
 _atom_site_type_symbol
 _atom_site_label
 _atom_site_symmetry_multiplicity
 _atom_site_fract_x
 _atom_site_fract_y
 _atom_site_fract_z
 _atom_site_occupancy
  Y  Y0  1  0.293148  0.250000  0.364900  1
  Y  Y1  1  0.206852  0.750000  0.864901  1
  Y  Y2  1  0.793147  0.250000  0.135100  1
  Y  Y3  1  0.706852  0.750000  0.635099  1
  Y  Y4  1  0.211889  0.250000  0.842702  1
  Y  Y5  1  0.288111  0.750000  0.342702  1
  Y  Y6  1  0.711889  0.250000  0.657298  1
  Y  Y7  1  0.788111  0.750000  0.157298  1
  Y  Y8  1  0.000868  0.250000  0.538754  1
  Y  Y9  1  0.499132  0.750000  0.038754  1
  Y  Y10  1  0.500867  0.250000  0.961246  1
  Y  Y11  1  0.999132  0.750000  0.461246  1
  Y  Y12  1  0.064036  0.051563  0.182972  1
  Y  Y13  1  0.435964  0.948437  0.682973  1
  Y  Y14  1  0.564036  0.448437  0.317028  1
  Y  Y15  1  0.935964  0.551563  0.817027  1
  Y  Y16  1  0.935964  0.948437  0.817027  1
  Y  Y17  1  0.564036  0.051563  0.317028  1
  Y  Y18  1  0.435964  0.551563  0.682973  1
  Y  Y19  1  0.064036  0.448437  0.182972  1
  Ge  Ge20  1  0.479901  0.250000  0.582360  1
  Ge  Ge21  1  0.020099  0.750000  0.082361  1
  Ge  Ge22  1  0.979901  0.250000  0.917640  1
  Ge  Ge23  1  0.520099  0.750000  0.417639  1
  Bi  Bi24  1  0.327075  0.009768  0.072746  1
  Bi  Bi25  1  0.172925  0.990231  0.572745  1
  Bi  Bi26  1  0.827076  0.490232  0.427254  1
  Bi  Bi27  1  0.672925  0.509769  0.927255  1
  Bi  Bi28  1  0.672925  0.990231  0.927255  1
  Bi  Bi29  1  0.827076  0.009768  0.427254  1
  Bi  Bi30  1  0.172925  0.509769  0.572745  1
  Bi  Bi31  1  0.327075  0.490232  0.072746  1
