# generated using pymatgen
data_CaPa2Zn11
_symmetry_space_group_name_H-M   'P 1'
_cell_length_a   4.40360731
_cell_length_b   8.14764874
_cell_length_c   8.14764793
_cell_angle_alpha   66.82232003
_cell_angle_beta   74.32156412
_cell_angle_gamma   74.32157635
_symmetry_Int_Tables_number   1
_chemical_formula_structural   CaPa2Zn11
_chemical_formula_sum   'Ca1 Pa2 Zn11'
_cell_volume   254.26316249
_cell_formula_units_Z   1
loop_
 _symmetry_equiv_pos_site_id
 _symmetry_equiv_pos_as_xyz
  1  'x, y, z'
loop_
 _atom_site_type_symbol
 _atom_site_label
 _atom_site_symmetry_multiplicity
 _atom_site_fract_x
 _atom_site_fract_y
 _atom_site_fract_z
 _atom_site_occupancy
  Ca  Ca0  1  0.000000  0.000000  0.000000  1
  Pa  Pa1  1  0.704413  0.295587  0.295587  1
  Pa  Pa2  1  0.295587  0.704413  0.704413  1
  Zn  Zn3  1  0.659194  0.700274  0.981340  1
  Zn  Zn4  1  0.340806  0.299726  0.018660  1
  Zn  Zn5  1  0.659194  0.981340  0.700274  1
  Zn  Zn6  1  0.340806  0.018660  0.299726  1
  Zn  Zn7  1  0.500000  0.680381  0.319619  1
  Zn  Zn8  1  0.500000  0.319619  0.680381  1
  Zn  Zn9  1  0.859569  0.422520  0.858342  1
  Zn  Zn10  1  0.140431  0.577480  0.141658  1
  Zn  Zn11  1  0.859569  0.858342  0.422520  1
  Zn  Zn12  1  0.140431  0.141658  0.577480  1
  Zn  Zn13  1  0.000000  0.500000  0.500000  1
