# generated using pymatgen
data_ZnAsPPd6
_symmetry_space_group_name_H-M   'P 1'
_cell_length_a   6.74534900
_cell_length_b   6.74534824
_cell_length_c   3.45077200
_cell_angle_alpha   90.00000000
_cell_angle_beta   90.00000000
_cell_angle_gamma   119.99999883
_symmetry_Int_Tables_number   1
_chemical_formula_structural   ZnAsPPd6
_chemical_formula_sum   'Zn1 As1 P1 Pd6'
_cell_volume   135.97394648
_cell_formula_units_Z   1
loop_
 _symmetry_equiv_pos_site_id
 _symmetry_equiv_pos_as_xyz
  1  'x, y, z'
loop_
 _atom_site_type_symbol
 _atom_site_label
 _atom_site_symmetry_multiplicity
 _atom_site_fract_x
 _atom_site_fract_y
 _atom_site_fract_z
 _atom_site_occupancy
  Zn  Zn0  1  0.333333  0.666667  0.000000  1
  As  As1  1  0.666667  0.333333  0.000000  1
  P  P2  1  0.000000  0.000000  0.500000  1
  Pd  Pd3  1  0.992739  0.743140  0.000000  1
  Pd  Pd4  1  0.256860  0.249599  0.000000  1
  Pd  Pd5  1  0.750401  0.007261  0.000000  1
  Pd  Pd6  1  0.000052  0.392890  0.500000  1
  Pd  Pd7  1  0.607110  0.607163  0.500000  1
  Pd  Pd8  1  0.392837  0.999948  0.500000  1
