# generated using pymatgen
data_Lu12Mg2Fe3
_symmetry_space_group_name_H-M   'P 1'
_cell_length_a   8.21132526
_cell_length_b   8.21132639
_cell_length_c   8.21132565
_cell_angle_alpha   107.76115771
_cell_angle_beta   107.76115805
_cell_angle_gamma   112.94830429
_symmetry_Int_Tables_number   1
_chemical_formula_structural   Lu12Mg2Fe3
_chemical_formula_sum   'Lu12 Mg2 Fe3'
_cell_volume   425.01955170
_cell_formula_units_Z   1
loop_
 _symmetry_equiv_pos_site_id
 _symmetry_equiv_pos_as_xyz
  1  'x, y, z'
loop_
 _atom_site_type_symbol
 _atom_site_label
 _atom_site_symmetry_multiplicity
 _atom_site_fract_x
 _atom_site_fract_y
 _atom_site_fract_z
 _atom_site_occupancy
  Lu  Lu0  1  0.308568  0.308568  0.617137  1
  Lu  Lu1  1  0.691432  0.691432  0.382863  1
  Lu  Lu2  1  0.691432  0.308568  0.000000  1
  Lu  Lu3  1  0.308568  0.691432  0.000000  1
  Lu  Lu4  1  0.191786  0.425201  0.233415  1
  Lu  Lu5  1  0.808214  0.574799  0.766585  1
  Lu  Lu6  1  0.191786  0.958371  0.766585  1
  Lu  Lu7  1  0.958371  0.191786  0.766585  1
  Lu  Lu8  1  0.808214  0.041629  0.233415  1
  Lu  Lu9  1  0.041629  0.808214  0.233415  1
  Lu  Lu10  1  0.425201  0.191786  0.233415  1
  Lu  Lu11  1  0.574799  0.808214  0.766585  1
  Mg  Mg12  1  0.000000  0.500000  0.500000  1
  Mg  Mg13  1  0.500000  0.000000  0.500000  1
  Fe  Fe14  1  0.382162  0.382162  0.000000  1
  Fe  Fe15  1  0.617838  0.617838  0.000000  1
  Fe  Fe16  1  0.000000  0.000000  0.000000  1
