# generated using pymatgen
data_Rb2NbV5Te6
_symmetry_space_group_name_H-M   'P 1'
_cell_length_a   9.94764281
_cell_length_b   4.56304400
_cell_length_c   10.10480224
_cell_angle_alpha   90.00000000
_cell_angle_beta   119.77600862
_cell_angle_gamma   90.00000000
_symmetry_Int_Tables_number   1
_chemical_formula_structural   Rb2NbV5Te6
_chemical_formula_sum   'Rb2 Nb1 V5 Te6'
_cell_volume   398.11552239
_cell_formula_units_Z   1
loop_
 _symmetry_equiv_pos_site_id
 _symmetry_equiv_pos_as_xyz
  1  'x, y, z'
loop_
 _atom_site_type_symbol
 _atom_site_label
 _atom_site_symmetry_multiplicity
 _atom_site_fract_x
 _atom_site_fract_y
 _atom_site_fract_z
 _atom_site_occupancy
  Rb  Rb0  1  0.161622  0.750000  0.324687  1
  Rb  Rb1  1  0.841604  0.250001  0.673184  1
  Nb  Nb2  1  0.363919  0.250001  0.975702  1
  V  V3  1  0.622144  0.750000  0.022658  1
  V  V4  1  0.478777  0.750000  0.156135  1
  V  V5  1  0.649819  0.250001  0.185755  1
  V  V6  1  0.353293  0.750000  0.813946  1
  V  V7  1  0.524314  0.250001  0.845156  1
  Te  Te8  1  0.827455  0.250001  0.053481  1
  Te  Te9  1  0.449247  0.250001  0.298216  1
  Te  Te10  1  0.793452  0.750000  0.345330  1
  Te  Te11  1  0.208525  0.250001  0.643967  1
  Te  Te12  1  0.562088  0.750000  0.716216  1
  Te  Te13  1  0.163741  0.750000  0.945568  1
