# generated using pymatgen
data_Ba4U4N11
_symmetry_space_group_name_H-M   'P 1'
_cell_length_a   6.16902852
_cell_length_b   6.16783619
_cell_length_c   8.70067992
_cell_angle_alpha   90.01359803
_cell_angle_beta   90.01345058
_cell_angle_gamma   89.87394709
_symmetry_Int_Tables_number   1
_chemical_formula_structural   Ba4U4N11
_chemical_formula_sum   'Ba4 U4 N11'
_cell_volume   331.05620046
_cell_formula_units_Z   1
loop_
 _symmetry_equiv_pos_site_id
 _symmetry_equiv_pos_as_xyz
  1  'x, y, z'
loop_
 _atom_site_type_symbol
 _atom_site_label
 _atom_site_symmetry_multiplicity
 _atom_site_fract_x
 _atom_site_fract_y
 _atom_site_fract_z
 _atom_site_occupancy
  Ba  Ba0  1  0.009599  0.989576  0.256613  1
  Ba  Ba1  1  0.492531  0.506360  0.257838  1
  Ba  Ba2  1  0.492844  0.506552  0.738405  1
  Ba  Ba3  1  0.009560  0.989944  0.739938  1
  U  U4  1  0.505413  0.002145  0.498017  1
  U  U5  1  0.997879  0.494612  0.498015  1
  U  U6  1  0.496263  0.992368  0.997731  1
  U  U7  1  0.008355  0.504475  0.997794  1
  N  N8  1  0.759174  0.758385  0.998633  1
  N  N9  1  0.993825  0.489012  0.232232  1
  N  N10  1  0.510506  0.008984  0.234392  1
  N  N11  1  0.730308  0.765507  0.496981  1
  N  N12  1  0.771222  0.265093  0.495116  1
  N  N13  1  0.229068  0.726934  0.500250  1
  N  N14  1  0.271880  0.230315  0.498921  1
  N  N15  1  0.516746  0.012477  0.761525  1
  N  N16  1  0.986350  0.485828  0.763854  1
  N  N17  1  0.260506  0.740948  0.994836  1
  N  N18  1  0.244541  0.239303  0.996979  1
