# generated using pymatgen
data_Rb2TaNb(CuTe2)4
_symmetry_space_group_name_H-M   'P 1'
_cell_length_a   6.05746713
_cell_length_b   8.32928500
_cell_length_c   10.80811278
_cell_angle_alpha   90.00000000
_cell_angle_beta   106.36518525
_cell_angle_gamma   90.00000000
_symmetry_Int_Tables_number   1
_chemical_formula_structural   Rb2TaNb(CuTe2)4
_chemical_formula_sum   'Rb2 Ta1 Nb1 Cu4 Te8'
_cell_volume   523.22321806
_cell_formula_units_Z   1
loop_
 _symmetry_equiv_pos_site_id
 _symmetry_equiv_pos_as_xyz
  1  'x, y, z'
loop_
 _atom_site_type_symbol
 _atom_site_label
 _atom_site_symmetry_multiplicity
 _atom_site_fract_x
 _atom_site_fract_y
 _atom_site_fract_z
 _atom_site_occupancy
  Rb  Rb0  1  0.821455  0.750000  0.126960  1
  Rb  Rb1  1  0.194489  0.250000  0.872841  1
  Ta  Ta2  1  0.146074  0.250000  0.291589  1
  Nb  Nb3  1  0.355000  0.750000  0.709263  1
  Cu  Cu4  1  0.259681  0.500300  0.499644  1
  Cu  Cu5  1  0.259681  0.999700  0.499644  1
  Cu  Cu6  1  0.855702  0.750000  0.709548  1
  Cu  Cu7  1  0.645890  0.250000  0.291143  1
  Te  Te8  1  0.993821  0.750000  0.499396  1
  Te  Te9  1  0.994629  0.250000  0.500805  1
  Te  Te10  1  0.207444  0.750000  0.916808  1
  Te  Te11  1  0.791999  0.250000  0.083843  1
  Te  Te12  1  0.607978  0.491176  0.709620  1
  Te  Te13  1  0.397089  0.508874  0.289638  1
  Te  Te14  1  0.607978  0.008824  0.709620  1
  Te  Te15  1  0.397089  0.991126  0.289638  1
