# generated using pymatgen
data_Nd2Co2Te
_symmetry_space_group_name_H-M   'P 1'
_cell_length_a   4.05324700
_cell_length_b   4.05324550
_cell_length_c   16.50957500
_cell_angle_alpha   90.00000000
_cell_angle_beta   90.00000000
_cell_angle_gamma   119.99998778
_symmetry_Int_Tables_number   1
_chemical_formula_structural   Nd2Co2Te
_chemical_formula_sum   'Nd4 Co4 Te2'
_cell_volume   234.89434286
_cell_formula_units_Z   2
loop_
 _symmetry_equiv_pos_site_id
 _symmetry_equiv_pos_as_xyz
  1  'x, y, z'
loop_
 _atom_site_type_symbol
 _atom_site_label
 _atom_site_symmetry_multiplicity
 _atom_site_fract_x
 _atom_site_fract_y
 _atom_site_fract_z
 _atom_site_occupancy
  Nd  Nd0  1  0.000000  0.000000  0.115417  1
  Nd  Nd1  1  0.000000  0.000000  0.884583  1
  Nd  Nd2  1  0.000000  0.000000  0.615417  1
  Nd  Nd3  1  0.000000  0.000000  0.384583  1
  Co  Co4  1  0.333333  0.666667  0.501144  1
  Co  Co5  1  0.666667  0.333333  0.498856  1
  Co  Co6  1  0.666667  0.333333  0.001144  1
  Co  Co7  1  0.333333  0.666667  0.998856  1
  Te  Te8  1  0.333333  0.666667  0.250000  1
  Te  Te9  1  0.666667  0.333333  0.750000  1
