# generated using pymatgen
data_Ce6BiSb6AsPt6
_symmetry_space_group_name_H-M   'P 1'
_cell_length_a   8.52589721
_cell_length_b   8.48524933
_cell_length_c   8.53013647
_cell_angle_alpha   109.32140080
_cell_angle_beta   109.46878480
_cell_angle_gamma   109.22557234
_symmetry_Int_Tables_number   1
_chemical_formula_structural   Ce6BiSb6AsPt6
_chemical_formula_sum   'Ce6 Bi1 Sb6 As1 Pt6'
_cell_volume   477.36633568
_cell_formula_units_Z   1
loop_
 _symmetry_equiv_pos_site_id
 _symmetry_equiv_pos_as_xyz
  1  'x, y, z'
loop_
 _atom_site_type_symbol
 _atom_site_label
 _atom_site_symmetry_multiplicity
 _atom_site_fract_x
 _atom_site_fract_y
 _atom_site_fract_z
 _atom_site_occupancy
  Ce  Ce0  1  0.616983  0.368712  0.247888  1
  Ce  Ce1  1  0.878210  0.126125  0.755811  1
  Ce  Ce2  1  0.372584  0.249082  0.619714  1
  Ce  Ce3  1  0.127155  0.754436  0.880738  1
  Ce  Ce4  1  0.249364  0.616715  0.368568  1
  Ce  Ce5  1  0.752773  0.877352  0.124118  1
  Bi  Bi6  1  0.001290  0.823852  0.499706  1
  Sb  Sb7  1  0.330169  0.501983  0.998175  1
  Sb  Sb8  1  0.000861  0.330452  0.501238  1
  Sb  Sb9  1  0.671422  0.671433  0.670732  1
  Sb  Sb10  1  0.503531  0.003493  0.332568  1
  Sb  Sb11  1  0.829447  0.500922  0.001921  1
  Sb  Sb12  1  0.499165  0.001368  0.828592  1
  As  As13  1  0.162962  0.165918  0.165318  1
  Pt  Pt14  1  0.126991  0.880139  0.240861  1
  Pt  Pt15  1  0.374590  0.625239  0.747986  1
  Pt  Pt16  1  0.878748  0.248037  0.125461  1
  Pt  Pt17  1  0.616383  0.747068  0.373103  1
  Pt  Pt18  1  0.255247  0.131511  0.890132  1
  Pt  Pt19  1  0.752124  0.376166  0.627370  1
