# generated using pymatgen
data_Ti6GaPO2
_symmetry_space_group_name_H-M   'P 1'
_cell_length_a   5.45547128
_cell_length_b   5.45547129
_cell_length_c   7.93887900
_cell_angle_alpha   90.00000000
_cell_angle_beta   90.00000000
_cell_angle_gamma   145.94999102
_symmetry_Int_Tables_number   1
_chemical_formula_structural   Ti6GaPO2
_chemical_formula_sum   'Ti6 Ga1 P1 O2'
_cell_volume   132.29603715
_cell_formula_units_Z   1
loop_
 _symmetry_equiv_pos_site_id
 _symmetry_equiv_pos_as_xyz
  1  'x, y, z'
loop_
 _atom_site_type_symbol
 _atom_site_label
 _atom_site_symmetry_multiplicity
 _atom_site_fract_x
 _atom_site_fract_y
 _atom_site_fract_z
 _atom_site_occupancy
  Ti  Ti0  1  0.954284  0.045716  0.250000  1
  Ti  Ti1  1  0.064717  0.935283  0.750000  1
  Ti  Ti2  1  0.631199  0.368801  0.459431  1
  Ti  Ti3  1  0.361143  0.638857  0.563151  1
  Ti  Ti4  1  0.631199  0.368801  0.040569  1
  Ti  Ti5  1  0.361143  0.638857  0.936849  1
  Ga  Ga6  1  0.255171  0.744829  0.250000  1
  P  P7  1  0.742650  0.257350  0.750000  1
  O  O8  1  0.999247  0.000753  0.503822  1
  O  O9  1  0.999247  0.000753  0.996178  1
