# generated using pymatgen
data_Ba4IrW3O16
_symmetry_space_group_name_H-M   'P 1'
_cell_length_a   5.21918511
_cell_length_b   5.98618132
_cell_length_c   13.55128100
_cell_angle_alpha   90.00000000
_cell_angle_beta   90.00000000
_cell_angle_gamma   89.81683931
_symmetry_Int_Tables_number   1
_chemical_formula_structural   Ba4IrW3O16
_chemical_formula_sum   'Ba4 Ir1 W3 O16'
_cell_volume   423.38035153
_cell_formula_units_Z   1
loop_
 _symmetry_equiv_pos_site_id
 _symmetry_equiv_pos_as_xyz
  1  'x, y, z'
loop_
 _atom_site_type_symbol
 _atom_site_label
 _atom_site_symmetry_multiplicity
 _atom_site_fract_x
 _atom_site_fract_y
 _atom_site_fract_z
 _atom_site_occupancy
  Ba  Ba0  1  0.250000  0.000000  0.155455  1
  Ba  Ba1  1  0.750000  0.000000  0.844562  1
  Ba  Ba2  1  0.250000  0.500000  0.658098  1
  Ba  Ba3  1  0.750000  0.500000  0.343327  1
  Ir  Ir4  1  0.250000  0.500000  0.933314  1
  W  W5  1  0.250000  0.000000  0.427175  1
  W  W6  1  0.750000  0.000000  0.571890  1
  W  W7  1  0.750000  0.500000  0.070672  1
  O  O8  1  0.359172  0.204268  0.334859  1
  O  O9  1  0.862090  0.202868  0.664218  1
  O  O10  1  0.942428  0.175875  0.457880  1
  O  O11  1  0.443022  0.177095  0.541075  1
  O  O12  1  0.438218  0.325529  0.042190  1
  O  O13  1  0.936939  0.324466  0.956899  1
  O  O14  1  0.851536  0.290960  0.162895  1
  O  O15  1  0.369056  0.299768  0.837738  1
  O  O16  1  0.648464  0.709040  0.162895  1
  O  O17  1  0.130944  0.700232  0.837738  1
  O  O18  1  0.061782  0.674471  0.042190  1
  O  O19  1  0.563061  0.675534  0.956899  1
  O  O20  1  0.557572  0.824125  0.457880  1
  O  O21  1  0.056978  0.822905  0.541075  1
  O  O22  1  0.140828  0.795732  0.334859  1
  O  O23  1  0.637910  0.797132  0.664218  1
