# generated using pymatgen
data_TbY5Er2(Sc3Si4)4
_symmetry_space_group_name_H-M   'P 1'
_cell_length_a   7.09776228
_cell_length_b   7.39203546
_cell_length_c   13.99971672
_cell_angle_alpha   89.99573997
_cell_angle_beta   90.01019262
_cell_angle_gamma   90.00021853
_symmetry_Int_Tables_number   1
_chemical_formula_structural   TbY5Er2(Sc3Si4)4
_chemical_formula_sum   'Tb1 Y5 Er2 Sc12 Si16'
_cell_volume   734.52187005
_cell_formula_units_Z   1
loop_
 _symmetry_equiv_pos_site_id
 _symmetry_equiv_pos_as_xyz
  1  'x, y, z'
loop_
 _atom_site_type_symbol
 _atom_site_label
 _atom_site_symmetry_multiplicity
 _atom_site_fract_x
 _atom_site_fract_y
 _atom_site_fract_z
 _atom_site_occupancy
  Tb  Tb0  1  0.488666  0.675293  0.596165  1
  Y  Y1  1  0.010889  0.175697  0.096716  1
  Y  Y2  1  0.989192  0.824498  0.903914  1
  Y  Y3  1  0.489189  0.675363  0.903436  1
  Y  Y4  1  0.988986  0.824859  0.596151  1
  Y  Y5  1  0.510788  0.324521  0.096690  1
  Er  Er6  1  0.011130  0.176382  0.402581  1
  Er  Er7  1  0.511446  0.323637  0.402618  1
  Sc  Sc8  1  0.161768  0.501620  0.750059  1
  Sc  Sc9  1  0.838378  0.497727  0.250346  1
  Sc  Sc10  1  0.338470  0.002441  0.250249  1
  Sc  Sc11  1  0.661276  0.997889  0.750049  1
  Sc  Sc12  1  0.332195  0.176884  0.625170  1
  Sc  Sc13  1  0.668248  0.823710  0.374409  1
  Sc  Sc14  1  0.167746  0.676934  0.374161  1
  Sc  Sc15  1  0.667855  0.823146  0.125799  1
  Sc  Sc16  1  0.832478  0.322626  0.625503  1
  Sc  Sc17  1  0.332236  0.176738  0.874729  1
  Sc  Sc18  1  0.832437  0.323011  0.874735  1
  Sc  Sc19  1  0.167772  0.676765  0.125944  1
  Si  Si20  1  0.034736  0.116159  0.750217  1
  Si  Si21  1  0.965608  0.884587  0.250176  1
  Si  Si22  1  0.465711  0.615784  0.250386  1
  Si  Si23  1  0.534802  0.383174  0.749959  1
  Si  Si24  1  0.286220  0.873722  0.750070  1
  Si  Si25  1  0.713637  0.127498  0.250794  1
  Si  Si26  1  0.213722  0.372934  0.250861  1
  Si  Si27  1  0.786395  0.625929  0.750259  1
  Si  Si28  1  0.157835  0.463187  0.538640  1
  Si  Si29  1  0.840808  0.533958  0.460004  1
  Si  Si30  1  0.340664  0.966485  0.459851  1
  Si  Si31  1  0.841795  0.535742  0.039581  1
  Si  Si32  1  0.658469  0.037207  0.538547  1
  Si  Si33  1  0.158569  0.464155  0.960926  1
  Si  Si34  1  0.658074  0.035742  0.960760  1
  Si  Si35  1  0.341810  0.963998  0.039544  1
