# generated using pymatgen
data_LiLa5Pr11Cd3Ir4
_symmetry_space_group_name_H-M   'P 1'
_cell_length_a   10.04794292
_cell_length_b   10.08137912
_cell_length_c   10.08137969
_cell_angle_alpha   60.02231918
_cell_angle_beta   60.27847134
_cell_angle_gamma   60.27847136
_symmetry_Int_Tables_number   1
_chemical_formula_structural   LiLa5Pr11Cd3Ir4
_chemical_formula_sum   'Li1 La5 Pr11 Cd3 Ir4'
_cell_volume   725.25563459
_cell_formula_units_Z   1
loop_
 _symmetry_equiv_pos_site_id
 _symmetry_equiv_pos_as_xyz
  1  'x, y, z'
loop_
 _atom_site_type_symbol
 _atom_site_label
 _atom_site_symmetry_multiplicity
 _atom_site_fract_x
 _atom_site_fract_y
 _atom_site_fract_z
 _atom_site_occupancy
  Li  Li0  1  0.570926  0.571101  0.571101  1
  La  La1  1  0.346492  0.348542  0.348542  1
  La  La2  1  0.346972  0.346560  0.960192  1
  La  La3  1  0.346972  0.960192  0.346560  1
  La  La4  1  0.958951  0.347632  0.347632  1
  La  La5  1  0.811982  0.189129  0.189129  1
  Pr  Pr6  1  0.187055  0.812187  0.812187  1
  Pr  Pr7  1  0.192309  0.808850  0.191056  1
  Pr  Pr8  1  0.811695  0.187388  0.810243  1
  Pr  Pr9  1  0.192309  0.191056  0.808850  1
  Pr  Pr10  1  0.811695  0.810243  0.187388  1
  Pr  Pr11  1  0.937296  0.562903  0.562903  1
  Pr  Pr12  1  0.561772  0.937285  0.937285  1
  Pr  Pr13  1  0.562298  0.937394  0.562826  1
  Pr  Pr14  1  0.938681  0.561991  0.937521  1
  Pr  Pr15  1  0.562298  0.562826  0.937394  1
  Pr  Pr16  1  0.938681  0.937521  0.561991  1
  Cd  Cd17  1  0.580855  0.582871  0.257656  1
  Cd  Cd18  1  0.580855  0.257656  0.582871  1
  Cd  Cd19  1  0.257448  0.581625  0.581625  1
  Ir  Ir20  1  0.138066  0.143758  0.143758  1
  Ir  Ir21  1  0.143795  0.142572  0.574257  1
  Ir  Ir22  1  0.143795  0.574257  0.142572  1
  Ir  Ir23  1  0.576800  0.144458  0.144458  1
