# generated using pymatgen
data_Tm12Th4ZnCo4Hg3
_symmetry_space_group_name_H-M   'P 1'
_cell_length_a   9.42713746
_cell_length_b   9.42952951
_cell_length_c   9.42953000
_cell_angle_alpha   60.00000530
_cell_angle_beta   59.99161125
_cell_angle_gamma   59.99160640
_symmetry_Int_Tables_number   1
_chemical_formula_structural   Tm12Th4ZnCo4Hg3
_chemical_formula_sum   'Tm12 Th4 Zn1 Co4 Hg3'
_cell_volume   592.63846433
_cell_formula_units_Z   1
loop_
 _symmetry_equiv_pos_site_id
 _symmetry_equiv_pos_as_xyz
  1  'x, y, z'
loop_
 _atom_site_type_symbol
 _atom_site_label
 _atom_site_symmetry_multiplicity
 _atom_site_fract_x
 _atom_site_fract_y
 _atom_site_fract_z
 _atom_site_occupancy
  Tm  Tm0  1  0.812500  0.186936  0.186936  1
  Tm  Tm1  1  0.185635  0.813300  0.813300  1
  Tm  Tm2  1  0.185635  0.813300  0.187764  1
  Tm  Tm3  1  0.812500  0.186936  0.813629  1
  Tm  Tm4  1  0.185635  0.187764  0.813300  1
  Tm  Tm5  1  0.812500  0.813629  0.186936  1
  Tm  Tm6  1  0.938070  0.565290  0.565290  1
  Tm  Tm7  1  0.564457  0.935415  0.935415  1
  Tm  Tm8  1  0.564457  0.935415  0.564712  1
  Tm  Tm9  1  0.938070  0.565290  0.931349  1
  Tm  Tm10  1  0.564457  0.564712  0.935415  1
  Tm  Tm11  1  0.938070  0.931349  0.565290  1
  Th  Th12  1  0.347072  0.349131  0.349131  1
  Th  Th13  1  0.347072  0.349131  0.954666  1
  Th  Th14  1  0.347072  0.954666  0.349131  1
  Th  Th15  1  0.955682  0.348106  0.348106  1
  Zn  Zn16  1  0.247777  0.584074  0.584074  1
  Co  Co17  1  0.143706  0.143420  0.143420  1
  Co  Co18  1  0.143706  0.143420  0.569454  1
  Co  Co19  1  0.143706  0.569454  0.143420  1
  Co  Co20  1  0.567313  0.144229  0.144229  1
  Hg  Hg21  1  0.584969  0.587099  0.587099  1
  Hg  Hg22  1  0.584969  0.587099  0.240832  1
  Hg  Hg23  1  0.584969  0.240832  0.587099  1
