# generated using pymatgen
data_Ca6LaPr(Si3Pd)4
_symmetry_space_group_name_H-M   'P 1'
_cell_length_a   8.26919200
_cell_length_b   8.26919220
_cell_length_c   8.53300800
_cell_angle_alpha   90.00000000
_cell_angle_beta   90.00000000
_cell_angle_gamma   120.00000718
_symmetry_Int_Tables_number   1
_chemical_formula_structural   Ca6LaPr(Si3Pd)4
_chemical_formula_sum   'Ca6 La1 Pr1 Si12 Pd4'
_cell_volume   505.31118970
_cell_formula_units_Z   1
loop_
 _symmetry_equiv_pos_site_id
 _symmetry_equiv_pos_as_xyz
  1  'x, y, z'
loop_
 _atom_site_type_symbol
 _atom_site_label
 _atom_site_symmetry_multiplicity
 _atom_site_fract_x
 _atom_site_fract_y
 _atom_site_fract_z
 _atom_site_occupancy
  Ca  Ca0  1  0.499084  0.500916  0.750000  1
  Ca  Ca1  1  0.500874  0.499126  0.250000  1
  Ca  Ca2  1  0.001832  0.500916  0.750000  1
  Ca  Ca3  1  0.998252  0.499126  0.250000  1
  Ca  Ca4  1  0.499084  0.998168  0.750000  1
  Ca  Ca5  1  0.500874  0.001748  0.250000  1
  La  La6  1  0.000000  0.000000  0.750000  1
  Pr  Pr7  1  0.000000  0.000000  0.250000  1
  Si  Si8  1  0.834008  0.165992  0.999953  1
  Si  Si9  1  0.165977  0.834023  0.001042  1
  Si  Si10  1  0.331985  0.165992  0.999953  1
  Si  Si11  1  0.165977  0.834023  0.498958  1
  Si  Si12  1  0.668045  0.834023  0.001042  1
  Si  Si13  1  0.834008  0.165992  0.500047  1
  Si  Si14  1  0.834008  0.668015  0.999953  1
  Si  Si15  1  0.668045  0.834023  0.498958  1
  Si  Si16  1  0.165977  0.331955  0.001042  1
  Si  Si17  1  0.331985  0.165992  0.500047  1
  Si  Si18  1  0.165977  0.331955  0.498958  1
  Si  Si19  1  0.834008  0.668015  0.500047  1
  Pd  Pd20  1  0.666667  0.333333  0.996715  1
  Pd  Pd21  1  0.333333  0.666667  0.001038  1
  Pd  Pd22  1  0.333333  0.666667  0.498962  1
  Pd  Pd23  1  0.666667  0.333333  0.503285  1
