# generated using pymatgen
data_Nb20Al3Pt7
_symmetry_space_group_name_H-M   'P 1'
_cell_length_a   9.98487171
_cell_length_b   9.97651123
_cell_length_c   5.20751300
_cell_angle_alpha   90.00000000
_cell_angle_beta   90.00000000
_cell_angle_gamma   90.36622660
_symmetry_Int_Tables_number   1
_chemical_formula_structural   Nb20Al3Pt7
_chemical_formula_sum   'Nb20 Al3 Pt7'
_cell_volume   518.73156540
_cell_formula_units_Z   1
loop_
 _symmetry_equiv_pos_site_id
 _symmetry_equiv_pos_as_xyz
  1  'x, y, z'
loop_
 _atom_site_type_symbol
 _atom_site_label
 _atom_site_symmetry_multiplicity
 _atom_site_fract_x
 _atom_site_fract_y
 _atom_site_fract_z
 _atom_site_occupancy
  Nb  Nb0  1  0.399041  0.394446  0.000000  1
  Nb  Nb1  1  0.896285  0.104179  0.500000  1
  Nb  Nb2  1  0.104620  0.900746  0.500000  1
  Nb  Nb3  1  0.601422  0.600419  0.000000  1
  Nb  Nb4  1  0.131998  0.470209  0.000000  1
  Nb  Nb5  1  0.963985  0.370608  0.500000  1
  Nb  Nb6  1  0.035450  0.625968  0.500000  1
  Nb  Nb7  1  0.872530  0.543047  0.000000  1
  Nb  Nb8  1  0.373560  0.962796  0.500000  1
  Nb  Nb9  1  0.627391  0.033841  0.500000  1
  Nb  Nb10  1  0.459425  0.124224  0.000000  1
  Nb  Nb11  1  0.535738  0.872386  0.000000  1
  Nb  Nb12  1  0.183074  0.182869  0.253444  1
  Nb  Nb13  1  0.682922  0.316964  0.754243  1
  Nb  Nb14  1  0.316995  0.682939  0.751324  1
  Nb  Nb15  1  0.820373  0.812511  0.251720  1
  Nb  Nb16  1  0.316995  0.682939  0.248676  1
  Nb  Nb17  1  0.682922  0.316964  0.245757  1
  Nb  Nb18  1  0.183074  0.182869  0.746556  1
  Nb  Nb19  1  0.820373  0.812511  0.748280  1
  Al  Al20  1  0.993569  0.006125  0.000000  1
  Al  Al21  1  0.498616  0.499623  0.500000  1
  Al  Al22  1  0.067401  0.745897  0.000000  1
  Pt  Pt23  1  0.253130  0.933891  0.000000  1
  Pt  Pt24  1  0.439680  0.238275  0.500000  1
  Pt  Pt25  1  0.565801  0.759677  0.500000  1
  Pt  Pt26  1  0.736080  0.064263  0.000000  1
  Pt  Pt27  1  0.240714  0.433767  0.500000  1
  Pt  Pt28  1  0.757841  0.558938  0.500000  1
  Pt  Pt29  1  0.938994  0.266111  0.000000  1
