# generated using pymatgen
data_Th2AlGaI2
_symmetry_space_group_name_H-M   'P 1'
_cell_length_a   4.24701500
_cell_length_b   4.24701435
_cell_length_c   12.71582400
_cell_angle_alpha   90.00000000
_cell_angle_beta   90.00000000
_cell_angle_gamma   119.99998167
_symmetry_Int_Tables_number   1
_chemical_formula_structural   Th2AlGaI2
_chemical_formula_sum   'Th2 Al1 Ga1 I2'
_cell_volume   198.62904008
_cell_formula_units_Z   1
loop_
 _symmetry_equiv_pos_site_id
 _symmetry_equiv_pos_as_xyz
  1  'x, y, z'
loop_
 _atom_site_type_symbol
 _atom_site_label
 _atom_site_symmetry_multiplicity
 _atom_site_fract_x
 _atom_site_fract_y
 _atom_site_fract_z
 _atom_site_occupancy
  Th  Th0  1  0.000000  0.000000  0.838010  1
  Th  Th1  1  0.000000  0.000000  0.161701  1
  Al  Al2  1  0.333333  0.666667  0.997752  1
  Ga  Ga3  1  0.666667  0.333333  0.002967  1
  I  I4  1  0.666667  0.333333  0.666356  1
  I  I5  1  0.333333  0.666667  0.333213  1
