# generated using pymatgen
data_Ho10In8Ir3Au
_symmetry_space_group_name_H-M   'P 1'
_cell_length_a   3.62942800
_cell_length_b   8.12995839
_cell_length_c   18.25968154
_cell_angle_alpha   89.92363435
_cell_angle_beta   90.00000000
_cell_angle_gamma   90.00000000
_symmetry_Int_Tables_number   1
_chemical_formula_structural   Ho10In8Ir3Au
_chemical_formula_sum   'Ho10 In8 Ir3 Au1'
_cell_volume   538.78974556
_cell_formula_units_Z   1
loop_
 _symmetry_equiv_pos_site_id
 _symmetry_equiv_pos_as_xyz
  1  'x, y, z'
loop_
 _atom_site_type_symbol
 _atom_site_label
 _atom_site_symmetry_multiplicity
 _atom_site_fract_x
 _atom_site_fract_y
 _atom_site_fract_z
 _atom_site_occupancy
  Ho  Ho0  1  0.000000  0.499252  0.501179  1
  Ho  Ho1  1  0.000000  0.000141  0.999322  1
  Ho  Ho2  1  0.000000  0.721897  0.277027  1
  Ho  Ho3  1  0.000000  0.258764  0.722521  1
  Ho  Ho4  1  0.000000  0.758795  0.777135  1
  Ho  Ho5  1  0.000000  0.258226  0.218497  1
  Ho  Ho6  1  0.000000  0.613943  0.086696  1
  Ho  Ho7  1  0.000000  0.385772  0.910132  1
  Ho  Ho8  1  0.000000  0.886668  0.589871  1
  Ho  Ho9  1  0.000000  0.118158  0.418506  1
  In  In10  1  0.500000  0.707975  0.931756  1
  In  In11  1  0.500000  0.291658  0.066906  1
  In  In12  1  0.500000  0.789487  0.434315  1
  In  In13  1  0.500000  0.207927  0.568585  1
  In  In14  1  0.500000  0.573370  0.649095  1
  In  In15  1  0.500000  0.423320  0.351867  1
  In  In16  1  0.500000  0.921266  0.148017  1
  In  In17  1  0.500000  0.072798  0.850632  1
  Ir  Ir18  1  0.500000  0.520093  0.195447  1
  Ir  Ir19  1  0.500000  0.484902  0.803762  1
  Ir  Ir20  1  0.500000  0.985430  0.696210  1
  Au  Au21  1  0.500000  0.020158  0.302522  1
