# generated using pymatgen
data_NdYHo8(In2Pt)4
_symmetry_space_group_name_H-M   'P 1'
_cell_length_a   3.62670100
_cell_length_b   8.16174385
_cell_length_c   18.30554924
_cell_angle_alpha   89.72328518
_cell_angle_beta   90.00000000
_cell_angle_gamma   90.00000000
_symmetry_Int_Tables_number   1
_chemical_formula_structural   NdYHo8(In2Pt)4
_chemical_formula_sum   'Nd1 Y1 Ho8 In8 Pt4'
_cell_volume   541.84168359
_cell_formula_units_Z   1
loop_
 _symmetry_equiv_pos_site_id
 _symmetry_equiv_pos_as_xyz
  1  'x, y, z'
loop_
 _atom_site_type_symbol
 _atom_site_label
 _atom_site_symmetry_multiplicity
 _atom_site_fract_x
 _atom_site_fract_y
 _atom_site_fract_z
 _atom_site_occupancy
  Nd  Nd0  1  0.000000  0.000000  0.000000  1
  Y  Y1  1  0.000000  0.500000  0.500000  1
  Ho  Ho2  1  0.000000  0.116596  0.414725  1
  Ho  Ho3  1  0.000000  0.883404  0.585275  1
  Ho  Ho4  1  0.000000  0.379811  0.913760  1
  Ho  Ho5  1  0.000000  0.620189  0.086240  1
  Ho  Ho6  1  0.000000  0.242839  0.220776  1
  Ho  Ho7  1  0.000000  0.757161  0.779224  1
  Ho  Ho8  1  0.000000  0.258478  0.718818  1
  Ho  Ho9  1  0.000000  0.741522  0.281182  1
  In  In10  1  0.500000  0.421995  0.351185  1
  In  In11  1  0.500000  0.578005  0.648815  1
  In  In12  1  0.500000  0.077904  0.847898  1
  In  In13  1  0.500000  0.922096  0.152102  1
  In  In14  1  0.500000  0.299491  0.067925  1
  In  In15  1  0.500000  0.700509  0.932075  1
  In  In16  1  0.500000  0.205879  0.566448  1
  In  In17  1  0.500000  0.794121  0.433552  1
  Pt  Pt18  1  0.500000  0.024301  0.304466  1
  Pt  Pt19  1  0.500000  0.975699  0.695534  1
  Pt  Pt20  1  0.500000  0.474430  0.802745  1
  Pt  Pt21  1  0.500000  0.525570  0.197255  1
