# generated using pymatgen
data_LaHo3P7Ir8
_symmetry_space_group_name_H-M   'P 1'
_cell_length_a   3.95150900
_cell_length_b   12.76335792
_cell_length_c   13.15956003
_cell_angle_alpha   80.88393100
_cell_angle_beta   90.00000000
_cell_angle_gamma   90.00000000
_symmetry_Int_Tables_number   1
_chemical_formula_structural   LaHo3P7Ir8
_chemical_formula_sum   'La2 Ho6 P14 Ir16'
_cell_volume   655.31326915
_cell_formula_units_Z   2
loop_
 _symmetry_equiv_pos_site_id
 _symmetry_equiv_pos_as_xyz
  1  'x, y, z'
loop_
 _atom_site_type_symbol
 _atom_site_label
 _atom_site_symmetry_multiplicity
 _atom_site_fract_x
 _atom_site_fract_y
 _atom_site_fract_z
 _atom_site_occupancy
  La  La0  1  0.750000  0.894721  0.212406  1
  La  La1  1  0.250000  0.281176  0.104536  1
  Ho  Ho2  1  0.750000  0.791580  0.560526  1
  Ho  Ho3  1  0.250000  0.207990  0.441090  1
  Ho  Ho4  1  0.750000  0.478730  0.706395  1
  Ho  Ho5  1  0.250000  0.520468  0.295688  1
  Ho  Ho6  1  0.750000  0.721198  0.898130  1
  Ho  Ho7  1  0.250000  0.102234  0.786136  1
  P  P8  1  0.250000  0.906342  0.412719  1
  P  P9  1  0.750000  0.474437  0.129685  1
  P  P10  1  0.250000  0.527686  0.870460  1
  P  P11  1  0.750000  0.092670  0.587954  1
  P  P12  1  0.250000  0.742374  0.077664  1
  P  P13  1  0.750000  0.257350  0.915332  1
  P  P14  1  0.750000  0.159354  0.284549  1
  P  P15  1  0.250000  0.842232  0.716748  1
  P  P16  1  0.250000  0.052137  0.097123  1
  P  P17  1  0.750000  0.947567  0.896685  1
  P  P18  1  0.250000  0.311355  0.689153  1
  P  P19  1  0.750000  0.681823  0.314024  1
  P  P20  1  0.250000  0.607040  0.569130  1
  P  P21  1  0.750000  0.392240  0.435972  1
  Ir  Ir22  1  0.250000  0.990720  0.575615  1
  Ir  Ir23  1  0.750000  0.010271  0.423621  1
  Ir  Ir24  1  0.250000  0.662306  0.731960  1
  Ir  Ir25  1  0.750000  0.341158  0.273412  1
  Ir  Ir26  1  0.250000  0.554267  0.046531  1
  Ir  Ir27  1  0.750000  0.451475  0.949671  1
  Ir  Ir28  1  0.250000  0.064929  0.272651  1
  Ir  Ir29  1  0.750000  0.938470  0.725413  1
  Ir  Ir30  1  0.250000  0.420964  0.525289  1
  Ir  Ir31  1  0.750000  0.576570  0.479618  1
  Ir  Ir32  1  0.250000  0.915366  0.992879  1
  Ir  Ir33  1  0.750000  0.084652  0.996893  1
  Ir  Ir34  1  0.250000  0.726868  0.399445  1
  Ir  Ir35  1  0.750000  0.269659  0.605777  1
  Ir  Ir36  1  0.250000  0.341954  0.856416  1
  Ir  Ir37  1  0.750000  0.657673  0.142704  1
