# generated using pymatgen
data_Rb7(CoO4)2
_symmetry_space_group_name_H-M   'P 1'
_cell_length_a   10.65344300
_cell_length_b   6.52820186
_cell_length_c   21.02570500
_cell_angle_alpha   87.04644455
_cell_angle_beta   90.00000000
_cell_angle_gamma   90.00000000
_symmetry_Int_Tables_number   1
_chemical_formula_structural   Rb7(CoO4)2
_chemical_formula_sum   'Rb28 Co8 O32'
_cell_volume   1460.34961819
_cell_formula_units_Z   4
loop_
 _symmetry_equiv_pos_site_id
 _symmetry_equiv_pos_as_xyz
  1  'x, y, z'
loop_
 _atom_site_type_symbol
 _atom_site_label
 _atom_site_symmetry_multiplicity
 _atom_site_fract_x
 _atom_site_fract_y
 _atom_site_fract_z
 _atom_site_occupancy
  Rb  Rb0  1  0.548775  0.580482  0.864938  1
  Rb  Rb1  1  0.048775  0.419518  0.635062  1
  Rb  Rb2  1  0.451225  0.419518  0.135062  1
  Rb  Rb3  1  0.951225  0.580482  0.364938  1
  Rb  Rb4  1  0.889235  0.793794  0.531248  1
  Rb  Rb5  1  0.389235  0.206206  0.968752  1
  Rb  Rb6  1  0.110765  0.206206  0.468752  1
  Rb  Rb7  1  0.610765  0.793794  0.031248  1
  Rb  Rb8  1  0.840081  0.905874  0.886090  1
  Rb  Rb9  1  0.340081  0.094126  0.613910  1
  Rb  Rb10  1  0.159919  0.094126  0.113910  1
  Rb  Rb11  1  0.659919  0.905874  0.386090  1
  Rb  Rb12  1  0.840571  0.407583  0.803417  1
  Rb  Rb13  1  0.340571  0.592417  0.696583  1
  Rb  Rb14  1  0.159429  0.592417  0.196583  1
  Rb  Rb15  1  0.659429  0.407583  0.303417  1
  Rb  Rb16  1  0.558826  0.713763  0.548601  1
  Rb  Rb17  1  0.058826  0.286237  0.951399  1
  Rb  Rb18  1  0.441174  0.286237  0.451399  1
  Rb  Rb19  1  0.941174  0.713763  0.048601  1
  Rb  Rb20  1  0.999089  0.889057  0.716015  1
  Rb  Rb21  1  0.499089  0.110943  0.783985  1
  Rb  Rb22  1  0.000911  0.110943  0.283985  1
  Rb  Rb23  1  0.500911  0.889057  0.216015  1
  Rb  Rb24  1  0.705578  0.221570  0.635462  1
  Rb  Rb25  1  0.205578  0.778430  0.864538  1
  Rb  Rb26  1  0.294422  0.778430  0.364538  1
  Rb  Rb27  1  0.794422  0.221570  0.135462  1
  Co  Co28  1  0.221294  0.718223  0.526028  1
  Co  Co29  1  0.721294  0.281777  0.973972  1
  Co  Co30  1  0.778706  0.281777  0.473972  1
  Co  Co31  1  0.278706  0.718223  0.026028  1
  Co  Co32  1  0.335013  0.285156  0.293827  1
  Co  Co33  1  0.164987  0.285156  0.793827  1
  Co  Co34  1  0.835013  0.714844  0.206173  1
  Co  Co35  1  0.664987  0.714844  0.706173  1
  O  O36  1  0.730665  0.842847  0.771249  1
  O  O37  1  0.230665  0.157153  0.728751  1
  O  O38  1  0.269335  0.157153  0.228751  1
  O  O39  1  0.769335  0.842847  0.271249  1
  O  O40  1  0.790084  0.658242  0.653574  1
  O  O41  1  0.290084  0.341758  0.846426  1
  O  O42  1  0.209916  0.341758  0.346426  1
  O  O43  1  0.709916  0.658242  0.153574  1
  O  O44  1  0.593019  0.474121  0.732614  1
  O  O45  1  0.093019  0.525879  0.767386  1
  O  O46  1  0.406981  0.525879  0.267386  1
  O  O47  1  0.906981  0.474121  0.232614  1
  O  O48  1  0.541936  0.874597  0.671747  1
  O  O49  1  0.041936  0.125403  0.828253  1
  O  O50  1  0.458064  0.125403  0.328253  1
  O  O51  1  0.958064  0.874597  0.171747  1
  O  O52  1  0.796997  0.512894  0.944317  1
  O  O53  1  0.203003  0.487106  0.055683  1
  O  O54  1  0.703003  0.512894  0.444317  1
  O  O55  1  0.339925  0.888292  0.495158  1
  O  O56  1  0.888511  0.297270  0.536463  1
  O  O57  1  0.388511  0.702730  0.963537  1
  O  O58  1  0.111489  0.702730  0.463537  1
  O  O59  1  0.611489  0.297270  0.036463  1
  O  O60  1  0.137190  0.811740  0.592035  1
  O  O61  1  0.637190  0.188260  0.907965  1
  O  O62  1  0.862810  0.188260  0.407965  1
  O  O63  1  0.362810  0.811740  0.092035  1
  O  O64  1  0.160075  0.888292  0.995158  1
  O  O65  1  0.660075  0.111708  0.504842  1
  O  O66  1  0.839925  0.111708  0.004842  1
  O  O67  1  0.296997  0.487106  0.555683  1
