# generated using pymatgen
data_Nb6Fe5Si12Rh
_symmetry_space_group_name_H-M   'P 1'
_cell_length_a   9.51701480
_cell_length_b   9.49188392
_cell_length_c   9.49701818
_cell_angle_alpha   148.61136917
_cell_angle_beta   132.94147908
_cell_angle_gamma   57.56516274
_symmetry_Int_Tables_number   1
_chemical_formula_structural   Nb6Fe5Si12Rh
_chemical_formula_sum   'Nb6 Fe5 Si12 Rh1'
_cell_volume   324.79593236
_cell_formula_units_Z   1
loop_
 _symmetry_equiv_pos_site_id
 _symmetry_equiv_pos_as_xyz
  1  'x, y, z'
loop_
 _atom_site_type_symbol
 _atom_site_label
 _atom_site_symmetry_multiplicity
 _atom_site_fract_x
 _atom_site_fract_y
 _atom_site_fract_z
 _atom_site_occupancy
  Nb  Nb0  1  0.849445  0.594450  0.257162  1
  Nb  Nb1  1  0.150555  0.405550  0.742838  1
  Nb  Nb2  1  0.665018  0.407374  0.257514  1
  Nb  Nb3  1  0.334982  0.592626  0.742486  1
  Nb  Nb4  1  0.136074  0.139184  0.997692  1
  Nb  Nb5  1  0.863926  0.860816  0.002308  1
  Fe  Fe6  1  0.749975  0.003147  0.749950  1
  Fe  Fe7  1  0.000000  0.000000  0.500000  1
  Fe  Fe8  1  0.500000  0.000000  0.000000  1
  Fe  Fe9  1  0.250025  0.996853  0.250050  1
  Fe  Fe10  1  0.000000  0.500000  0.000000  1
  Si  Si11  1  0.478528  0.121856  0.333512  1
  Si  Si12  1  0.521472  0.878144  0.666488  1
  Si  Si13  1  0.208157  0.858261  0.343549  1
  Si  Si14  1  0.791843  0.141739  0.656451  1
  Si  Si15  1  0.707250  0.718622  0.021998  1
  Si  Si16  1  0.292750  0.281378  0.978002  1
  Si  Si17  1  0.500311  0.739509  0.240416  1
  Si  Si18  1  0.499689  0.260491  0.759584  1
  Si  Si19  1  0.999673  0.259391  0.259657  1
  Si  Si20  1  0.203613  0.718298  0.503384  1
  Si  Si21  1  0.000327  0.740609  0.740343  1
  Si  Si22  1  0.796387  0.281702  0.496616  1
  Rh  Rh23  1  0.500000  0.500000  0.500000  1
