# generated using pymatgen
data_DyHo(OsO4)2
_symmetry_space_group_name_H-M   'P 1'
_cell_length_a   5.36082602
_cell_length_b   7.68967243
_cell_length_c   7.43537169
_cell_angle_alpha   79.76648850
_cell_angle_beta   91.08052486
_cell_angle_gamma   93.76265011
_symmetry_Int_Tables_number   1
_chemical_formula_structural   DyHo(OsO4)2
_chemical_formula_sum   'Dy2 Ho2 Os4 O16'
_cell_volume   300.97405329
_cell_formula_units_Z   2
loop_
 _symmetry_equiv_pos_site_id
 _symmetry_equiv_pos_as_xyz
  1  'x, y, z'
loop_
 _atom_site_type_symbol
 _atom_site_label
 _atom_site_symmetry_multiplicity
 _atom_site_fract_x
 _atom_site_fract_y
 _atom_site_fract_z
 _atom_site_occupancy
  Dy  Dy0  1  0.262594  0.117182  0.611136  1
  Dy  Dy1  1  0.737406  0.882818  0.388864  1
  Ho  Ho2  1  0.195796  0.168766  0.103408  1
  Ho  Ho3  1  0.804204  0.831234  0.896592  1
  Os  Os4  1  0.246310  0.664052  0.205505  1
  Os  Os5  1  0.753690  0.335948  0.794495  1
  Os  Os6  1  0.716418  0.335257  0.299388  1
  Os  Os7  1  0.283582  0.664743  0.700612  1
  O  O8  1  0.057712  0.464552  0.707867  1
  O  O9  1  0.942289  0.535448  0.292133  1
  O  O10  1  0.614576  0.325593  0.550737  1
  O  O11  1  0.385424  0.674407  0.449263  1
  O  O12  1  0.848091  0.321901  0.054551  1
  O  O13  1  0.151909  0.678099  0.945449  1
  O  O14  1  0.407313  0.440772  0.198437  1
  O  O15  1  0.592687  0.559228  0.801563  1
  O  O16  1  0.052246  0.886973  0.177086  1
  O  O17  1  0.947754  0.113027  0.822914  1
  O  O18  1  0.491726  0.109564  0.320727  1
  O  O19  1  0.508274  0.890436  0.679273  1
  O  O20  1  0.449356  0.198110  0.871169  1
  O  O21  1  0.550644  0.801890  0.128831  1
  O  O22  1  0.977878  0.163525  0.381229  1
  O  O23  1  0.022122  0.836475  0.618771  1
