# generated using pymatgen
data_Ir7Rh2
_symmetry_space_group_name_H-M   'P 1'
_cell_length_a   6.11843500
_cell_length_b   6.11843553
_cell_length_c   6.12068100
_cell_angle_alpha   95.71790480
_cell_angle_beta   95.72416384
_cell_angle_gamma   143.18327488
_symmetry_Int_Tables_number   1
_chemical_formula_structural   Ir7Rh2
_chemical_formula_sum   'Ir7 Rh2'
_cell_volume   130.28664784
_cell_formula_units_Z   1
loop_
 _symmetry_equiv_pos_site_id
 _symmetry_equiv_pos_as_xyz
  1  'x, y, z'
loop_
 _atom_site_type_symbol
 _atom_site_label
 _atom_site_symmetry_multiplicity
 _atom_site_fract_x
 _atom_site_fract_y
 _atom_site_fract_z
 _atom_site_occupancy
  Ir  Ir0  1  0.001278  0.002083  0.003361  1
  Ir  Ir1  1  0.668492  0.334676  0.003169  1
  Ir  Ir2  1  0.333127  0.666394  0.999522  1
  Ir  Ir3  1  0.664737  0.665285  0.330022  1
  Ir  Ir4  1  0.331991  0.997982  0.329974  1
  Ir  Ir5  1  0.000298  0.333608  0.333905  1
  Ir  Ir6  1  0.666608  0.999970  0.666578  1
  Rh  Rh7  1  0.001382  0.665222  0.666603  1
  Rh  Rh8  1  0.332087  0.334780  0.666865  1
