# generated using pymatgen
data_Y3CdIr8
_symmetry_space_group_name_H-M   'P 1'
_cell_length_a   5.34622600
_cell_length_b   5.34622591
_cell_length_c   8.69168400
_cell_angle_alpha   90.00000000
_cell_angle_beta   90.00000000
_cell_angle_gamma   119.99998820
_symmetry_Int_Tables_number   1
_chemical_formula_structural   Y3CdIr8
_chemical_formula_sum   'Y3 Cd1 Ir8'
_cell_volume   215.14399637
_cell_formula_units_Z   1
loop_
 _symmetry_equiv_pos_site_id
 _symmetry_equiv_pos_as_xyz
  1  'x, y, z'
loop_
 _atom_site_type_symbol
 _atom_site_label
 _atom_site_symmetry_multiplicity
 _atom_site_fract_x
 _atom_site_fract_y
 _atom_site_fract_z
 _atom_site_occupancy
  Y  Y0  1  0.333333  0.666667  0.081837  1
  Y  Y1  1  0.666667  0.333333  0.556917  1
  Y  Y2  1  0.666667  0.333333  0.929452  1
  Cd  Cd3  1  0.333333  0.666667  0.442950  1
  Ir  Ir4  1  0.000000  0.000000  0.996436  1
  Ir  Ir5  1  0.000000  0.000000  0.497174  1
  Ir  Ir6  1  0.830641  0.661281  0.248689  1
  Ir  Ir7  1  0.170454  0.829546  0.749722  1
  Ir  Ir8  1  0.659092  0.829546  0.749722  1
  Ir  Ir9  1  0.338719  0.169359  0.248689  1
  Ir  Ir10  1  0.830641  0.169359  0.248689  1
  Ir  Ir11  1  0.170454  0.340908  0.749722  1
