# generated using pymatgen
data_K4LaNb5O15
_symmetry_space_group_name_H-M   'P 1'
_cell_length_a   9.08676844
_cell_length_b   9.08676919
_cell_length_c   7.04009875
_cell_angle_alpha   75.09368174
_cell_angle_beta   75.09367982
_cell_angle_gamma   36.92208145
_symmetry_Int_Tables_number   1
_chemical_formula_structural   K4LaNb5O15
_chemical_formula_sum   'K4 La1 Nb5 O15'
_cell_volume   336.11475333
_cell_formula_units_Z   1
loop_
 _symmetry_equiv_pos_site_id
 _symmetry_equiv_pos_as_xyz
  1  'x, y, z'
loop_
 _atom_site_type_symbol
 _atom_site_label
 _atom_site_symmetry_multiplicity
 _atom_site_fract_x
 _atom_site_fract_y
 _atom_site_fract_z
 _atom_site_occupancy
  K  K0  1  0.600271  0.600271  0.598185  1
  K  K1  1  0.200814  0.200814  0.200516  1
  K  K2  1  0.799186  0.799186  0.799484  1
  K  K3  1  0.399729  0.399729  0.401815  1
  La  La4  1  0.000000  0.000000  0.000000  1
  Nb  Nb5  1  0.201445  0.201445  0.696061  1
  Nb  Nb6  1  0.798555  0.798555  0.303939  1
  Nb  Nb7  1  0.398080  0.398080  0.901078  1
  Nb  Nb8  1  0.000000  0.000000  0.500000  1
  Nb  Nb9  1  0.601920  0.601920  0.098922  1
  O  O10  1  0.387164  0.902054  0.903220  1
  O  O11  1  0.000000  0.500000  0.500000  1
  O  O12  1  0.612836  0.097946  0.096780  1
  O  O13  1  0.194030  0.709632  0.709733  1
  O  O14  1  0.805970  0.290368  0.290267  1
  O  O15  1  0.299977  0.299977  0.801000  1
  O  O16  1  0.903473  0.903473  0.387534  1
  O  O17  1  0.500000  0.500000  0.000000  1
  O  O18  1  0.096527  0.096527  0.612466  1
  O  O19  1  0.700023  0.700023  0.199000  1
  O  O20  1  0.500000  0.000000  0.500000  1
  O  O21  1  0.097946  0.612836  0.096780  1
  O  O22  1  0.709632  0.194030  0.709733  1
  O  O23  1  0.290368  0.805970  0.290267  1
  O  O24  1  0.902054  0.387164  0.903220  1
