# generated using pymatgen
data_TbYbTm2Ni13C4
_symmetry_space_group_name_H-M   'P 1'
_cell_length_a   3.84649100
_cell_length_b   8.32845496
_cell_length_c   8.32845706
_cell_angle_alpha   91.05043800
_cell_angle_beta   90.00000000
_cell_angle_gamma   90.00000000
_symmetry_Int_Tables_number   1
_chemical_formula_structural   TbYbTm2Ni13C4
_chemical_formula_sum   'Tb1 Yb1 Tm2 Ni13 C4'
_cell_volume   266.76000759
_cell_formula_units_Z   1
loop_
 _symmetry_equiv_pos_site_id
 _symmetry_equiv_pos_as_xyz
  1  'x, y, z'
loop_
 _atom_site_type_symbol
 _atom_site_label
 _atom_site_symmetry_multiplicity
 _atom_site_fract_x
 _atom_site_fract_y
 _atom_site_fract_z
 _atom_site_occupancy
  Tb  Tb0  1  0.500000  0.349883  0.349883  1
  Yb  Yb1  1  0.500000  0.652479  0.652479  1
  Tm  Tm2  1  0.500000  0.187608  0.812421  1
  Tm  Tm3  1  0.500000  0.812421  0.187608  1
  Ni  Ni4  1  0.500000  0.000609  0.500927  1
  Ni  Ni5  1  0.500000  0.500927  0.000609  1
  Ni  Ni6  1  0.000000  0.000573  0.000573  1
  Ni  Ni7  1  0.000000  0.783223  0.427812  1
  Ni  Ni8  1  0.000000  0.214414  0.571035  1
  Ni  Ni9  1  0.000000  0.571035  0.214414  1
  Ni  Ni10  1  0.000000  0.427812  0.783223  1
  Ni  Ni11  1  0.000000  0.928005  0.711130  1
  Ni  Ni12  1  0.000000  0.072453  0.290955  1
  Ni  Ni13  1  0.000000  0.290955  0.072453  1
  Ni  Ni14  1  0.000000  0.711130  0.928005  1
  Ni  Ni15  1  0.500000  0.875819  0.875819  1
  Ni  Ni16  1  0.500000  0.122704  0.122704  1
  C  C17  1  0.000000  0.556332  0.443060  1
  C  C18  1  0.000000  0.443060  0.556332  1
  C  C19  1  0.000000  0.997766  0.500792  1
  C  C20  1  0.000000  0.500792  0.997766  1
