# generated using pymatgen
data_Ac3Mg3Hg2Ru
_symmetry_space_group_name_H-M   'P 1'
_cell_length_a   8.22088100
_cell_length_b   8.22088317
_cell_length_c   4.27841800
_cell_angle_alpha   90.00000000
_cell_angle_beta   90.00000000
_cell_angle_gamma   119.99999531
_symmetry_Int_Tables_number   1
_chemical_formula_structural   Ac3Mg3Hg2Ru
_chemical_formula_sum   'Ac3 Mg3 Hg2 Ru1'
_cell_volume   250.40944334
_cell_formula_units_Z   1
loop_
 _symmetry_equiv_pos_site_id
 _symmetry_equiv_pos_as_xyz
  1  'x, y, z'
loop_
 _atom_site_type_symbol
 _atom_site_label
 _atom_site_symmetry_multiplicity
 _atom_site_fract_x
 _atom_site_fract_y
 _atom_site_fract_z
 _atom_site_occupancy
  Ac  Ac0  1  0.600160  0.032208  0.000000  1
  Ac  Ac1  1  0.967792  0.567952  0.000000  1
  Ac  Ac2  1  0.432048  0.399840  0.000000  1
  Mg  Mg3  1  0.246285  0.999789  0.500000  1
  Mg  Mg4  1  0.000211  0.246496  0.500000  1
  Mg  Mg5  1  0.753504  0.753715  0.500000  1
  Hg  Hg6  1  0.333333  0.666667  0.500000  1
  Hg  Hg7  1  0.000000  0.000000  0.000000  1
  Ru  Ru8  1  0.666667  0.333333  0.500000  1
