# generated using pymatgen
data_Sr4Sc2AlFeO10
_symmetry_space_group_name_H-M   'P 1'
_cell_length_a   5.74736896
_cell_length_b   5.96687751
_cell_length_c   8.65912427
_cell_angle_alpha   110.16435803
_cell_angle_beta   109.39299826
_cell_angle_gamma   89.97035840
_symmetry_Int_Tables_number   1
_chemical_formula_structural   Sr4Sc2AlFeO10
_chemical_formula_sum   'Sr4 Sc2 Al1 Fe1 O10'
_cell_volume   260.75186794
_cell_formula_units_Z   1
loop_
 _symmetry_equiv_pos_site_id
 _symmetry_equiv_pos_as_xyz
  1  'x, y, z'
loop_
 _atom_site_type_symbol
 _atom_site_label
 _atom_site_symmetry_multiplicity
 _atom_site_fract_x
 _atom_site_fract_y
 _atom_site_fract_z
 _atom_site_occupancy
  Sr  Sr0  1  0.117607  0.635915  0.224429  1
  Sr  Sr1  1  0.892642  0.366682  0.776263  1
  Sr  Sr2  1  0.393179  0.911486  0.775571  1
  Sr  Sr3  1  0.616378  0.090418  0.223737  1
  Sc  Sc4  1  0.497280  0.499636  0.996109  1
  Sc  Sc5  1  0.001171  0.003527  0.003891  1
  Al  Al6  1  0.283077  0.323205  0.500000  1
  Fe  Fe7  1  0.782781  0.672580  0.500000  1
  O  O8  1  0.238529  0.742583  0.975843  1
  O  O9  1  0.262718  0.260007  0.023026  1
  O  O10  1  0.762685  0.266740  0.024157  1
  O  O11  1  0.739692  0.736981  0.976974  1
  O  O12  1  0.623517  0.709194  0.285391  1
  O  O13  1  0.333660  0.288596  0.703712  1
  O  O14  1  0.838127  0.923804  0.714609  1
  O  O15  1  0.129947  0.084882  0.296288  1
  O  O16  1  0.109568  0.577815  0.500000  1
  O  O17  1  0.588439  0.405950  0.500000  1
