# generated using pymatgen
data_Ba3SrPbO6
_symmetry_space_group_name_H-M   'P 1'
_cell_length_a   7.46784576
_cell_length_b   7.46784503
_cell_length_c   7.46784600
_cell_angle_alpha   92.63714398
_cell_angle_beta   92.63713604
_cell_angle_gamma   92.63712690
_symmetry_Int_Tables_number   1
_chemical_formula_structural   Ba3SrPbO6
_chemical_formula_sum   'Ba6 Sr2 Pb2 O12'
_cell_volume   415.10688773
_cell_formula_units_Z   2
loop_
 _symmetry_equiv_pos_site_id
 _symmetry_equiv_pos_as_xyz
  1  'x, y, z'
loop_
 _atom_site_type_symbol
 _atom_site_label
 _atom_site_symmetry_multiplicity
 _atom_site_fract_x
 _atom_site_fract_y
 _atom_site_fract_z
 _atom_site_occupancy
  Ba  Ba0  1  0.893315  0.250000  0.606685  1
  Ba  Ba1  1  0.393315  0.106685  0.750000  1
  Ba  Ba2  1  0.750000  0.393315  0.106685  1
  Ba  Ba3  1  0.250000  0.606685  0.893315  1
  Ba  Ba4  1  0.606685  0.893315  0.250000  1
  Ba  Ba5  1  0.106685  0.750000  0.393315  1
  Sr  Sr6  1  0.750000  0.750000  0.750000  1
  Sr  Sr7  1  0.250000  0.250000  0.250000  1
  Pb  Pb8  1  0.500000  0.500000  0.500000  1
  Pb  Pb9  1  0.000000  0.000000  0.000000  1
  O  O10  1  0.914929  0.713112  0.049370  1
  O  O11  1  0.450630  0.786888  0.585071  1
  O  O12  1  0.049370  0.914929  0.713112  1
  O  O13  1  0.286888  0.950630  0.085071  1
  O  O14  1  0.950630  0.085071  0.286888  1
  O  O15  1  0.713112  0.049370  0.914929  1
  O  O16  1  0.585071  0.450630  0.786888  1
  O  O17  1  0.786888  0.585071  0.450630  1
  O  O18  1  0.414929  0.549370  0.213112  1
  O  O19  1  0.213112  0.414929  0.549370  1
  O  O20  1  0.549370  0.213112  0.414929  1
  O  O21  1  0.085071  0.286888  0.950630  1
