# generated using pymatgen
data_Tb2Ho2ReOs7
_symmetry_space_group_name_H-M   'P 1'
_cell_length_a   5.39863000
_cell_length_b   5.28626333
_cell_length_c   8.94258330
_cell_angle_alpha   89.99640407
_cell_angle_beta   90.00000000
_cell_angle_gamma   120.70566867
_symmetry_Int_Tables_number   1
_chemical_formula_structural   Tb2Ho2ReOs7
_chemical_formula_sum   'Tb2 Ho2 Re1 Os7'
_cell_volume   219.42882503
_cell_formula_units_Z   1
loop_
 _symmetry_equiv_pos_site_id
 _symmetry_equiv_pos_as_xyz
  1  'x, y, z'
loop_
 _atom_site_type_symbol
 _atom_site_label
 _atom_site_symmetry_multiplicity
 _atom_site_fract_x
 _atom_site_fract_y
 _atom_site_fract_z
 _atom_site_occupancy
  Tb  Tb0  1  0.663708  0.327415  0.434556  1
  Tb  Tb1  1  0.328338  0.656679  0.564341  1
  Ho  Ho2  1  0.328145  0.656291  0.935915  1
  Ho  Ho3  1  0.663884  0.327767  0.065017  1
  Re  Re4  1  0.841146  0.682292  0.750907  1
  Os  Os5  1  0.987545  0.975089  0.499837  1
  Os  Os6  1  0.987703  0.975406  0.000190  1
  Os  Os7  1  0.669486  0.838254  0.248943  1
  Os  Os8  1  0.168768  0.838254  0.248943  1
  Os  Os9  1  0.180338  0.360676  0.248812  1
  Os  Os10  1  0.355476  0.180938  0.751271  1
  Os  Os11  1  0.825462  0.180938  0.751271  1
