# generated using pymatgen
data_BiOs4Pb7O22
_symmetry_space_group_name_H-M   'P 1'
_cell_length_a   6.67177682
_cell_length_b   7.64001567
_cell_length_c   10.31520994
_cell_angle_alpha   100.80468245
_cell_angle_beta   91.57822434
_cell_angle_gamma   89.97225412
_symmetry_Int_Tables_number   1
_chemical_formula_structural   BiOs4Pb7O22
_chemical_formula_sum   'Bi1 Os4 Pb7 O22'
_cell_volume   516.26877261
_cell_formula_units_Z   1
loop_
 _symmetry_equiv_pos_site_id
 _symmetry_equiv_pos_as_xyz
  1  'x, y, z'
loop_
 _atom_site_type_symbol
 _atom_site_label
 _atom_site_symmetry_multiplicity
 _atom_site_fract_x
 _atom_site_fract_y
 _atom_site_fract_z
 _atom_site_occupancy
  Bi  Bi0  1  0.603852  0.541725  0.171579  1
  Os  Os1  1  0.935258  0.703820  0.811940  1
  Os  Os2  1  0.065605  0.295578  0.185383  1
  Os  Os3  1  0.934233  0.204417  0.813983  1
  Os  Os4  1  0.066379  0.795574  0.183271  1
  Pb  Pb5  1  0.732508  0.364878  0.477309  1
  Pb  Pb6  1  0.266311  0.633344  0.522780  1
  Pb  Pb7  1  0.741915  0.873735  0.474910  1
  Pb  Pb8  1  0.263296  0.127802  0.525300  1
  Pb  Pb9  1  0.475596  0.956015  0.826534  1
  Pb  Pb10  1  0.529061  0.043098  0.174232  1
  Pb  Pb11  1  0.398171  0.458807  0.830681  1
  O  O12  1  0.217626  0.726752  0.784716  1
  O  O13  1  0.774761  0.282461  0.214910  1
  O  O14  1  0.665713  0.683822  0.856188  1
  O  O15  1  0.343258  0.324683  0.152602  1
  O  O16  1  0.668808  0.248422  0.866020  1
  O  O17  1  0.340643  0.747473  0.143401  1
  O  O18  1  0.877436  0.171270  0.636044  1
  O  O19  1  0.117196  0.830869  0.361232  1
  O  O20  1  0.214612  0.165216  0.781999  1
  O  O21  1  0.776755  0.825126  0.217219  1
  O  O22  1  0.888221  0.647350  0.632817  1
  O  O23  1  0.108539  0.349959  0.364434  1
  O  O24  1  0.996627  0.544915  0.180603  1
  O  O25  1  0.990292  0.455345  0.819235  1
  O  O26  1  0.001414  0.762362  0.000305  1
  O  O27  1  0.009220  0.238619  0.001791  1
  O  O28  1  0.560237  0.599428  0.381385  1
  O  O29  1  0.439208  0.401574  0.608423  1
  O  O30  1  0.108253  0.046602  0.188477  1
  O  O31  1  0.885468  0.953083  0.809438  1
  O  O32  1  0.541484  0.095402  0.395126  1
  O  O33  1  0.462047  0.900474  0.605734  1
