# generated using pymatgen
data_Tb4CrMo5O24
_symmetry_space_group_name_H-M   'P 1'
_cell_length_a   7.44369361
_cell_length_b   7.44369361
_cell_length_c   10.71504599
_cell_angle_alpha   90.22643437
_cell_angle_beta   90.22643437
_cell_angle_gamma   90.31437658
_symmetry_Int_Tables_number   1
_chemical_formula_structural   Tb4CrMo5O24
_chemical_formula_sum   'Tb4 Cr1 Mo5 O24'
_cell_volume   593.68716416
_cell_formula_units_Z   1
loop_
 _symmetry_equiv_pos_site_id
 _symmetry_equiv_pos_as_xyz
  1  'x, y, z'
loop_
 _atom_site_type_symbol
 _atom_site_label
 _atom_site_symmetry_multiplicity
 _atom_site_fract_x
 _atom_site_fract_y
 _atom_site_fract_z
 _atom_site_occupancy
  Tb  Tb0  1  0.186724  0.686724  0.265531  1
  Tb  Tb1  1  0.813296  0.313296  0.260571  1
  Tb  Tb2  1  0.683642  0.809843  0.736445  1
  Tb  Tb3  1  0.309843  0.183642  0.736445  1
  Cr  Cr4  1  0.208060  0.708060  0.643831  1
  Mo  Mo5  1  0.792282  0.292282  0.644131  1
  Mo  Mo6  1  0.707788  0.793361  0.356294  1
  Mo  Mo7  1  0.293361  0.207788  0.356294  1
  Mo  Mo8  1  0.001728  0.997462  0.999770  1
  Mo  Mo9  1  0.497462  0.501728  0.999770  1
  O  O10  1  0.198397  0.698397  0.488866  1
  O  O11  1  0.804288  0.304288  0.478515  1
  O  O12  1  0.698590  0.807385  0.521868  1
  O  O13  1  0.307385  0.198590  0.521868  1
  O  O14  1  0.624032  0.124032  0.690429  1
  O  O15  1  0.365878  0.865878  0.689514  1
  O  O16  1  0.125948  0.374813  0.309665  1
  O  O17  1  0.874813  0.625948  0.309665  1
  O  O18  1  0.774739  0.005693  0.295766  1
  O  O19  1  0.224091  0.993869  0.297956  1
  O  O20  1  0.505693  0.274739  0.295766  1
  O  O21  1  0.493869  0.724091  0.297956  1
  O  O22  1  0.004954  0.224815  0.704367  1
  O  O23  1  0.009698  0.768936  0.698553  1
  O  O24  1  0.724815  0.504954  0.704367  1
  O  O25  1  0.268936  0.509698  0.698553  1
  O  O26  1  0.812960  0.951941  0.899876  1
  O  O27  1  0.193152  0.043013  0.904365  1
  O  O28  1  0.451941  0.312960  0.899876  1
  O  O29  1  0.543013  0.693152  0.904365  1
  O  O30  1  0.955984  0.189206  0.096052  1
  O  O31  1  0.044845  0.808588  0.098329  1
  O  O32  1  0.689206  0.455984  0.096052  1
  O  O33  1  0.308588  0.544845  0.098329  1
