# generated using pymatgen
data_Nd8Mo3RuO24
_symmetry_space_group_name_H-M   'P 1'
_cell_length_a   10.24735602
_cell_length_b   10.20610687
_cell_length_c   5.59151981
_cell_angle_alpha   75.25750716
_cell_angle_beta   75.10008045
_cell_angle_gamma   68.77071098
_symmetry_Int_Tables_number   1
_chemical_formula_structural   Nd8Mo3RuO24
_chemical_formula_sum   'Nd8 Mo3 Ru1 O24'
_cell_volume   518.25806129
_cell_formula_units_Z   1
loop_
 _symmetry_equiv_pos_site_id
 _symmetry_equiv_pos_as_xyz
  1  'x, y, z'
loop_
 _atom_site_type_symbol
 _atom_site_label
 _atom_site_symmetry_multiplicity
 _atom_site_fract_x
 _atom_site_fract_y
 _atom_site_fract_z
 _atom_site_occupancy
  Nd  Nd0  1  0.787659  0.555492  0.618592  1
  Nd  Nd1  1  0.212359  0.441775  0.381354  1
  Nd  Nd2  1  0.609291  0.389480  0.248511  1
  Nd  Nd3  1  0.390026  0.609548  0.750482  1
  Nd  Nd4  1  0.557473  0.787269  0.120565  1
  Nd  Nd5  1  0.130988  0.868317  0.249547  1
  Nd  Nd6  1  0.441612  0.211885  0.877536  1
  Nd  Nd7  1  0.866898  0.133113  0.751318  1
  Mo  Mo8  1  0.703336  0.991923  0.443604  1
  Mo  Mo9  1  0.991755  0.702691  0.940692  1
  Mo  Mo10  1  0.008918  0.297218  0.058295  1
  Ru  Ru11  1  0.297497  0.004095  0.554157  1
  O  O12  1  0.390809  0.422773  0.578580  1
  O  O13  1  0.575306  0.972528  0.742410  1
  O  O14  1  0.824750  0.711572  0.864915  1
  O  O15  1  0.673902  0.113870  0.140886  1
  O  O16  1  0.114074  0.673837  0.638479  1
  O  O17  1  0.329081  0.887589  0.855906  1
  O  O18  1  0.285215  0.175370  0.638560  1
  O  O19  1  0.974051  0.571166  0.235555  1
  O  O20  1  0.575888  0.609488  0.921210  1
  O  O21  1  0.430323  0.028097  0.271726  1
  O  O22  1  0.115765  0.047099  0.515563  1
  O  O23  1  0.186327  0.664427  0.083681  1
  O  O24  1  0.813281  0.336587  0.915080  1
  O  O25  1  0.335092  0.814090  0.412422  1
  O  O26  1  0.886634  0.326867  0.360393  1
  O  O27  1  0.953965  0.885153  0.980885  1
  O  O28  1  0.885464  0.954186  0.481334  1
  O  O29  1  0.663977  0.187016  0.584164  1
  O  O30  1  0.711558  0.824556  0.366147  1
  O  O31  1  0.043874  0.114937  0.021208  1
  O  O32  1  0.175926  0.288396  0.132889  1
  O  O33  1  0.608376  0.576036  0.421508  1
  O  O34  1  0.423219  0.391472  0.076941  1
  O  O35  1  0.025328  0.430083  0.764909  1
