# generated using pymatgen
data_Hf6Ti2Al15Ir6Rh
_symmetry_space_group_name_H-M   'P 1'
_cell_length_a   8.80034491
_cell_length_b   8.79929600
_cell_length_c   8.80029409
_cell_angle_alpha   120.22860074
_cell_angle_beta   119.75569095
_cell_angle_gamma   90.01766429
_symmetry_Int_Tables_number   1
_chemical_formula_structural   Hf6Ti2Al15Ir6Rh
_chemical_formula_sum   'Hf6 Ti2 Al15 Ir6 Rh1'
_cell_volume   481.90181548
_cell_formula_units_Z   1
loop_
 _symmetry_equiv_pos_site_id
 _symmetry_equiv_pos_as_xyz
  1  'x, y, z'
loop_
 _atom_site_type_symbol
 _atom_site_label
 _atom_site_symmetry_multiplicity
 _atom_site_fract_x
 _atom_site_fract_y
 _atom_site_fract_z
 _atom_site_occupancy
  Hf  Hf0  1  0.794833  0.291846  0.078350  1
  Hf  Hf1  1  0.213490  0.291857  0.497016  1
  Hf  Hf2  1  0.205463  0.705491  0.500039  1
  Hf  Hf3  1  0.213490  0.716482  0.921603  1
  Hf  Hf4  1  0.794889  0.716495  0.503000  1
  Hf  Hf5  1  0.784413  0.284373  0.500005  1
  Ti  Ti6  1  0.379567  0.122947  0.743390  1
  Ti  Ti7  1  0.379589  0.636293  0.256720  1
  Al  Al8  1  0.994886  0.494871  0.499982  1
  Al  Al9  1  0.160828  0.338479  0.177637  1
  Al  Al10  1  0.160874  0.983223  0.822348  1
  Al  Al11  1  0.156942  0.341848  0.815002  1
  Al  Al12  1  0.526844  0.341843  0.184904  1
  Al  Al13  1  0.839674  0.658942  0.819266  1
  Al  Al14  1  0.839677  0.020418  0.180744  1
  Al  Al15  1  0.838361  0.660228  0.178145  1
  Al  Al16  1  0.482079  0.660227  0.821865  1
  Al  Al17  1  0.379974  0.121332  0.258636  1
  Al  Al18  1  0.862701  0.121329  0.741369  1
  Al  Al19  1  0.619969  0.876540  0.256561  1
  Al  Al20  1  0.619956  0.363391  0.743434  1
  Al  Al21  1  0.618175  0.877741  0.740485  1
  Al  Al22  1  0.137251  0.877733  0.259557  1
  Ir  Ir23  1  0.001197  0.000764  0.502155  1
  Ir  Ir24  1  0.498588  0.000768  0.999564  1
  Ir  Ir25  1  0.497830  0.497802  0.999975  1
  Ir  Ir26  1  0.498592  0.499002  0.497837  1
  Ir  Ir27  1  0.001150  0.498992  0.000385  1
  Ir  Ir28  1  0.999994  0.999990  0.999992  1
  Rh  Rh29  1  0.498717  0.998748  0.500033  1
