# generated using pymatgen
data_CeMgSi14(IrRh2)2
_symmetry_space_group_name_H-M   'P 1'
_cell_length_a   8.01529435
_cell_length_b   8.00907827
_cell_length_c   8.00865929
_cell_angle_alpha   56.81803102
_cell_angle_beta   56.82096899
_cell_angle_gamma   56.79471160
_symmetry_Int_Tables_number   1
_chemical_formula_structural   CeMgSi14(IrRh2)2
_chemical_formula_sum   'Ce1 Mg1 Si14 Ir2 Rh4'
_cell_volume   336.78154049
_cell_formula_units_Z   1
loop_
 _symmetry_equiv_pos_site_id
 _symmetry_equiv_pos_as_xyz
  1  'x, y, z'
loop_
 _atom_site_type_symbol
 _atom_site_label
 _atom_site_symmetry_multiplicity
 _atom_site_fract_x
 _atom_site_fract_y
 _atom_site_fract_z
 _atom_site_occupancy
  Ce  Ce0  1  0.500303  0.499698  0.500251  1
  Mg  Mg1  1  0.999136  0.999315  0.000505  1
  Si  Si2  1  0.854145  0.061414  0.674105  1
  Si  Si3  1  0.672622  0.853582  0.064176  1
  Si  Si4  1  0.063916  0.674483  0.853340  1
  Si  Si5  1  0.651883  0.829465  0.434917  1
  Si  Si6  1  0.250587  0.249359  0.251771  1
  Si  Si7  1  0.749366  0.749291  0.749515  1
  Si  Si8  1  0.171347  0.568571  0.347010  1
  Si  Si9  1  0.567979  0.347695  0.171033  1
  Si  Si10  1  0.347074  0.171663  0.566711  1
  Si  Si11  1  0.935968  0.325310  0.146183  1
  Si  Si12  1  0.325264  0.146709  0.935381  1
  Si  Si13  1  0.146765  0.937062  0.324728  1
  Si  Si14  1  0.830830  0.432251  0.652663  1
  Si  Si15  1  0.432684  0.652908  0.828809  1
  Ir  Ir16  1  0.571496  0.249321  0.928824  1
  Ir  Ir17  1  0.928359  0.570983  0.250207  1
  Rh  Rh18  1  0.750108  0.071286  0.429110  1
  Rh  Rh19  1  0.429218  0.750573  0.070092  1
  Rh  Rh20  1  0.071061  0.430046  0.749860  1
  Rh  Rh21  1  0.249888  0.929015  0.570811  1
