# generated using pymatgen
data_HfCd3Pd8
_symmetry_space_group_name_H-M   'P 1'
_cell_length_a   4.12052180
_cell_length_b   5.70455668
_cell_length_c   17.07156323
_cell_angle_alpha   89.97524141
_cell_angle_beta   89.99821126
_cell_angle_gamma   90.01536814
_symmetry_Int_Tables_number   1
_chemical_formula_structural   HfCd3Pd8
_chemical_formula_sum   'Hf2 Cd6 Pd16'
_cell_volume   401.27984795
_cell_formula_units_Z   2
loop_
 _symmetry_equiv_pos_site_id
 _symmetry_equiv_pos_as_xyz
  1  'x, y, z'
loop_
 _atom_site_type_symbol
 _atom_site_label
 _atom_site_symmetry_multiplicity
 _atom_site_fract_x
 _atom_site_fract_y
 _atom_site_fract_z
 _atom_site_occupancy
  Hf  Hf0  1  0.524674  0.841803  0.206181  1
  Hf  Hf1  1  0.527282  0.236645  0.706104  1
  Cd  Cd2  1  0.524729  0.335765  0.043237  1
  Cd  Cd3  1  0.525949  0.335559  0.369059  1
  Cd  Cd4  1  0.026744  0.040260  0.456113  1
  Cd  Cd5  1  0.527322  0.744376  0.543230  1
  Cd  Cd6  1  0.526016  0.741957  0.869081  1
  Cd  Cd7  1  0.025333  0.039134  0.956102  1
  Pd  Pd8  1  0.524687  0.828090  0.040769  1
  Pd  Pd9  1  0.024394  0.089584  0.124763  1
  Pd  Pd10  1  0.024432  0.597261  0.125483  1
  Pd  Pd11  1  0.524663  0.343084  0.206133  1
  Pd  Pd12  1  0.025270  0.596662  0.286910  1
  Pd  Pd13  1  0.025169  0.088892  0.287353  1
  Pd  Pd14  1  0.525952  0.827802  0.371538  1
  Pd  Pd15  1  0.026690  0.540133  0.456196  1
  Pd  Pd16  1  0.527363  0.252135  0.540863  1
  Pd  Pd17  1  0.027661  0.990363  0.624894  1
  Pd  Pd18  1  0.027591  0.482633  0.625471  1
  Pd  Pd19  1  0.527431  0.735293  0.706159  1
  Pd  Pd20  1  0.026789  0.480616  0.786866  1
  Pd  Pd21  1  0.026802  0.988179  0.787448  1
  Pd  Pd22  1  0.526118  0.249691  0.871376  1
  Pd  Pd23  1  0.025276  0.539047  0.956211  1
