# generated using pymatgen
data_Hf4GaSi2Ge
_symmetry_space_group_name_H-M   'P 1'
_cell_length_a   3.77989600
_cell_length_b   5.31264152
_cell_length_c   7.10962492
_cell_angle_alpha   89.65871862
_cell_angle_beta   90.00000000
_cell_angle_gamma   90.00000000
_symmetry_Int_Tables_number   1
_chemical_formula_structural   Hf4GaSi2Ge
_chemical_formula_sum   'Hf4 Ga1 Si2 Ge1'
_cell_volume   142.76749790
_cell_formula_units_Z   1
loop_
 _symmetry_equiv_pos_site_id
 _symmetry_equiv_pos_as_xyz
  1  'x, y, z'
loop_
 _atom_site_type_symbol
 _atom_site_label
 _atom_site_symmetry_multiplicity
 _atom_site_fract_x
 _atom_site_fract_y
 _atom_site_fract_z
 _atom_site_occupancy
  Hf  Hf0  1  0.250000  0.372043  0.689517  1
  Hf  Hf1  1  0.750000  0.630456  0.312104  1
  Hf  Hf2  1  0.750000  0.875815  0.831364  1
  Hf  Hf3  1  0.250000  0.119876  0.167671  1
  Ga  Ga4  1  0.750000  0.153993  0.455473  1
  Si  Si5  1  0.750000  0.358399  0.958612  1
  Si  Si6  1  0.250000  0.637142  0.041194  1
  Ge  Ge7  1  0.250000  0.852275  0.544066  1
