# generated using pymatgen
data_Tb3Y5(WO6)4
_symmetry_space_group_name_H-M   'P 1'
_cell_length_a   5.41693200
_cell_length_b   7.72959516
_cell_length_c   11.51442600
_cell_angle_alpha   75.60206505
_cell_angle_beta   90.00000000
_cell_angle_gamma   90.00000000
_symmetry_Int_Tables_number   1
_chemical_formula_structural   Tb3Y5(WO6)4
_chemical_formula_sum   'Tb3 Y5 W4 O24'
_cell_volume   466.97470683
_cell_formula_units_Z   1
loop_
 _symmetry_equiv_pos_site_id
 _symmetry_equiv_pos_as_xyz
  1  'x, y, z'
loop_
 _atom_site_type_symbol
 _atom_site_label
 _atom_site_symmetry_multiplicity
 _atom_site_fract_x
 _atom_site_fract_y
 _atom_site_fract_z
 _atom_site_occupancy
  Tb  Tb0  1  0.261076  0.000000  0.750000  1
  Tb  Tb1  1  0.316288  0.500000  0.750000  1
  Tb  Tb2  1  0.683742  0.500000  0.250000  1
  Y  Y3  1  0.186236  0.794797  0.077732  1
  Y  Y4  1  0.738973  0.000000  0.250000  1
  Y  Y5  1  0.186236  0.205203  0.422268  1
  Y  Y6  1  0.813709  0.205236  0.922318  1
  Y  Y7  1  0.813709  0.794764  0.577682  1
  W  W8  1  0.745469  0.723408  0.885358  1
  W  W9  1  0.254556  0.723444  0.385328  1
  W  W10  1  0.745469  0.276592  0.614642  1
  W  W11  1  0.254556  0.276556  0.114672  1
  O  O12  1  0.849501  0.364427  0.452578  1
  O  O13  1  0.470023  0.848174  0.930755  1
  O  O14  1  0.849501  0.635573  0.047422  1
  O  O15  1  0.018300  0.290762  0.727587  1
  O  O16  1  0.981717  0.290703  0.227597  1
  O  O17  1  0.150578  0.364344  0.952583  1
  O  O18  1  0.638002  0.490988  0.886252  1
  O  O19  1  0.530058  0.151682  0.069375  1
  O  O20  1  0.150578  0.635656  0.547417  1
  O  O21  1  0.018300  0.709238  0.772413  1
  O  O22  1  0.457666  0.210250  0.271880  1
  O  O23  1  0.043068  0.939429  0.395040  1
  O  O24  1  0.470023  0.151826  0.569245  1
  O  O25  1  0.981717  0.709297  0.272403  1
  O  O26  1  0.956509  0.060652  0.604743  1
  O  O27  1  0.542632  0.210475  0.771899  1
  O  O28  1  0.542632  0.789525  0.728101  1
  O  O29  1  0.043068  0.060571  0.104960  1
  O  O30  1  0.638002  0.509012  0.613748  1
  O  O31  1  0.361935  0.508994  0.113791  1
  O  O32  1  0.457666  0.789750  0.228120  1
  O  O33  1  0.361935  0.491006  0.386209  1
  O  O34  1  0.530058  0.848318  0.430625  1
  O  O35  1  0.956509  0.939348  0.895257  1
