# generated using pymatgen
data_CaTb5ErNiI12
_symmetry_space_group_name_H-M   'P 1'
_cell_length_a   9.74360553
_cell_length_b   9.75099556
_cell_length_c   9.74160127
_cell_angle_alpha   106.81587866
_cell_angle_beta   106.74153669
_cell_angle_gamma   106.87691939
_symmetry_Int_Tables_number   1
_chemical_formula_structural   CaTb5ErNiI12
_chemical_formula_sum   'Ca1 Tb5 Er1 Ni1 I12'
_cell_volume   774.73498881
_cell_formula_units_Z   1
loop_
 _symmetry_equiv_pos_site_id
 _symmetry_equiv_pos_as_xyz
  1  'x, y, z'
loop_
 _atom_site_type_symbol
 _atom_site_label
 _atom_site_symmetry_multiplicity
 _atom_site_fract_x
 _atom_site_fract_y
 _atom_site_fract_z
 _atom_site_occupancy
  Ca  Ca0  1  0.499929  0.499943  0.499867  1
  Tb  Tb1  1  0.704482  0.903777  0.974728  1
  Tb  Tb2  1  0.975003  0.704706  0.903138  1
  Tb  Tb3  1  0.096044  0.024809  0.295362  1
  Tb  Tb4  1  0.295202  0.096260  0.024128  1
  Tb  Tb5  1  0.024582  0.295103  0.095297  1
  Er  Er6  1  0.904995  0.974921  0.708232  1
  Ni  Ni7  1  0.999989  0.999959  0.000038  1
  I  I8  1  0.925953  0.319486  0.773763  1
  I  I9  1  0.775835  0.926757  0.323696  1
  I  I10  1  0.322129  0.775239  0.926390  1
  I  I11  1  0.073549  0.678097  0.224633  1
  I  I12  1  0.221390  0.072565  0.677328  1
  I  I13  1  0.677888  0.224756  0.073582  1
  I  I14  1  0.543820  0.851073  0.619219  1
  I  I15  1  0.619356  0.540895  0.849927  1
  I  I16  1  0.850100  0.621864  0.541122  1
  I  I17  1  0.459056  0.150117  0.380567  1
  I  I18  1  0.380691  0.459156  0.150017  1
  I  I19  1  0.150009  0.380517  0.458966  1
