# generated using pymatgen
data_LiTm4Mg3Pt4
_symmetry_space_group_name_H-M   'P 1'
_cell_length_a   4.10358000
_cell_length_b   6.98379242
_cell_length_c   8.60757501
_cell_angle_alpha   90.64580491
_cell_angle_beta   90.00000000
_cell_angle_gamma   90.00000000
_symmetry_Int_Tables_number   1
_chemical_formula_structural   LiTm4Mg3Pt4
_chemical_formula_sum   'Li1 Tm4 Mg3 Pt4'
_cell_volume   246.66495714
_cell_formula_units_Z   1
loop_
 _symmetry_equiv_pos_site_id
 _symmetry_equiv_pos_as_xyz
  1  'x, y, z'
loop_
 _atom_site_type_symbol
 _atom_site_label
 _atom_site_symmetry_multiplicity
 _atom_site_fract_x
 _atom_site_fract_y
 _atom_site_fract_z
 _atom_site_occupancy
  Li  Li0  1  0.750000  0.132617  0.059496  1
  Tm  Tm1  1  0.250000  0.961295  0.321508  1
  Tm  Tm2  1  0.250000  0.451388  0.171224  1
  Tm  Tm3  1  0.750000  0.042795  0.675720  1
  Tm  Tm4  1  0.750000  0.539328  0.828047  1
  Mg  Mg5  1  0.250000  0.365655  0.560438  1
  Mg  Mg6  1  0.250000  0.872439  0.943861  1
  Mg  Mg7  1  0.750000  0.635901  0.439206  1
  Pt  Pt8  1  0.250000  0.255101  0.871528  1
  Pt  Pt9  1  0.250000  0.756010  0.626958  1
  Pt  Pt10  1  0.750000  0.742884  0.127351  1
  Pt  Pt11  1  0.750000  0.244586  0.374665  1
