# generated using pymatgen
data_Y3GaSn3IrRh
_symmetry_space_group_name_H-M   'P 1'
_cell_length_a   7.46178200
_cell_length_b   7.46178220
_cell_length_c   4.09101300
_cell_angle_alpha   90.00000000
_cell_angle_beta   90.00000000
_cell_angle_gamma   119.99999912
_symmetry_Int_Tables_number   1
_chemical_formula_structural   Y3GaSn3IrRh
_chemical_formula_sum   'Y3 Ga1 Sn3 Ir1 Rh1'
_cell_volume   197.26344812
_cell_formula_units_Z   1
loop_
 _symmetry_equiv_pos_site_id
 _symmetry_equiv_pos_as_xyz
  1  'x, y, z'
loop_
 _atom_site_type_symbol
 _atom_site_label
 _atom_site_symmetry_multiplicity
 _atom_site_fract_x
 _atom_site_fract_y
 _atom_site_fract_z
 _atom_site_occupancy
  Y  Y0  1  0.410133  0.011437  0.500000  1
  Y  Y1  1  0.988563  0.398695  0.500000  1
  Y  Y2  1  0.601305  0.589867  0.500000  1
  Ga  Ga3  1  0.333333  0.666667  0.000000  1
  Sn  Sn4  1  0.748670  0.005499  0.000000  1
  Sn  Sn5  1  0.994501  0.743171  0.000000  1
  Sn  Sn6  1  0.256829  0.251330  0.000000  1
  Ir  Ir7  1  0.666667  0.333333  0.000000  1
  Rh  Rh8  1  0.000000  0.000000  0.500000  1
