# generated using pymatgen
data_Nd9DyC4I15
_symmetry_space_group_name_H-M   'P 1'
_cell_length_a   9.75463526
_cell_length_b   10.62951790
_cell_length_c   11.73608889
_cell_angle_alpha   93.84708518
_cell_angle_beta   114.11739498
_cell_angle_gamma   109.50343609
_symmetry_Int_Tables_number   1
_chemical_formula_structural   Nd9DyC4I15
_chemical_formula_sum   'Nd9 Dy1 C4 I15'
_cell_volume   1017.21888010
_cell_formula_units_Z   1
loop_
 _symmetry_equiv_pos_site_id
 _symmetry_equiv_pos_as_xyz
  1  'x, y, z'
loop_
 _atom_site_type_symbol
 _atom_site_label
 _atom_site_symmetry_multiplicity
 _atom_site_fract_x
 _atom_site_fract_y
 _atom_site_fract_z
 _atom_site_occupancy
  Nd  Nd0  1  0.344899  0.745197  0.163511  1
  Nd  Nd1  1  0.776392  0.882850  0.256658  1
  Nd  Nd2  1  0.528984  0.185705  0.103157  1
  Nd  Nd3  1  0.223430  0.115955  0.743658  1
  Nd  Nd4  1  0.402989  0.458634  0.657438  1
  Nd  Nd5  1  0.472716  0.814681  0.897713  1
  Nd  Nd6  1  0.703572  0.567246  0.044236  1
  Nd  Nd7  1  0.296568  0.432569  0.955629  1
  Nd  Nd8  1  0.655184  0.255622  0.833156  1
  Dy  Dy9  1  0.593548  0.544632  0.335535  1
  C  C10  1  0.482920  0.300490  0.938514  1
  C  C11  1  0.518036  0.698661  0.061344  1
  C  C12  1  0.452982  0.363008  0.834302  1
  C  C13  1  0.546471  0.635806  0.165533  1
  I  I14  1  0.206741  0.906358  0.937946  1
  I  I15  1  0.102940  0.186203  0.468067  1
  I  I16  1  0.151320  0.554610  0.703464  1
  I  I17  1  0.404317  0.968443  0.646837  1
  I  I18  1  0.715639  0.734345  0.821971  1
  I  I19  1  0.294469  0.272391  0.185515  1
  I  I20  1  0.841521  0.447908  0.302214  1
  I  I21  1  0.885600  0.801783  0.527900  1
  I  I22  1  0.366991  0.628749  0.412665  1
  I  I23  1  0.054209  0.832210  0.221792  1
  I  I24  1  0.794497  0.096280  0.062777  1
  I  I25  1  0.642011  0.374398  0.583650  1
  I  I26  1  0.946728  0.166216  0.780176  1
  I  I27  1  0.594204  0.030150  0.352815  1
  I  I28  1  0.000118  0.498902  0.001824  1
