# generated using pymatgen
data_Er3Si4(PPd10)2
_symmetry_space_group_name_H-M   'P 1'
_cell_length_a   8.68429902
_cell_length_b   8.68765690
_cell_length_c   8.68429922
_cell_angle_alpha   59.98720199
_cell_angle_beta   59.98817082
_cell_angle_gamma   59.98720592
_symmetry_Int_Tables_number   1
_chemical_formula_structural   Er3Si4(PPd10)2
_chemical_formula_sum   'Er3 Si4 P2 Pd20'
_cell_volume   463.16353516
_cell_formula_units_Z   1
loop_
 _symmetry_equiv_pos_site_id
 _symmetry_equiv_pos_as_xyz
  1  'x, y, z'
loop_
 _atom_site_type_symbol
 _atom_site_label
 _atom_site_symmetry_multiplicity
 _atom_site_fract_x
 _atom_site_fract_y
 _atom_site_fract_z
 _atom_site_occupancy
  Er  Er0  1  0.998246  0.000000  0.001754  1
  Er  Er1  1  0.751573  0.749975  0.748478  1
  Er  Er2  1  0.251522  0.250025  0.248427  1
  Si  Si3  1  0.733503  0.268057  0.266497  1
  Si  Si4  1  0.733503  0.731943  0.266497  1
  Si  Si5  1  0.735309  0.266382  0.731927  1
  Si  Si6  1  0.268073  0.733618  0.264691  1
  P  P7  1  0.266097  0.735482  0.733903  1
  P  P8  1  0.266097  0.264518  0.733903  1
  Pd  Pd9  1  0.344447  0.002463  0.999385  1
  Pd  Pd10  1  0.999086  0.655390  0.346326  1
  Pd  Pd11  1  0.344470  0.000000  0.655530  1
  Pd  Pd12  1  0.001410  0.655076  0.998590  1
  Pd  Pd13  1  0.653674  0.344610  0.000914  1
  Pd  Pd14  1  0.616825  0.616872  0.149429  1
  Pd  Pd15  1  0.382808  0.849203  0.385026  1
  Pd  Pd16  1  0.152160  0.615447  0.616944  1
  Pd  Pd17  1  0.654966  0.000000  0.345034  1
  Pd  Pd18  1  0.000615  0.346295  0.655553  1
  Pd  Pd19  1  0.653674  0.000802  0.000914  1
  Pd  Pd20  1  0.999086  0.999198  0.346326  1
  Pd  Pd21  1  0.614974  0.150797  0.617192  1
  Pd  Pd22  1  0.344447  0.653705  0.999385  1
  Pd  Pd23  1  0.382808  0.382964  0.385026  1
  Pd  Pd24  1  0.614974  0.617036  0.617192  1
  Pd  Pd25  1  0.383056  0.384553  0.847840  1
  Pd  Pd26  1  0.000615  0.997537  0.655553  1
  Pd  Pd27  1  0.850571  0.383128  0.383175  1
  Pd  Pd28  1  0.001410  0.344924  0.998590  1
