# generated using pymatgen
data_TmTh5H8Br15
_symmetry_space_group_name_H-M   'P 1'
_cell_length_a   9.96726422
_cell_length_b   9.96684025
_cell_length_c   9.96844100
_cell_angle_alpha   109.24718081
_cell_angle_beta   109.28709872
_cell_angle_gamma   109.87304309
_symmetry_Int_Tables_number   1
_chemical_formula_structural   TmTh5H8Br15
_chemical_formula_sum   'Tm1 Th5 H8 Br15'
_cell_volume   762.36085963
_cell_formula_units_Z   1
loop_
 _symmetry_equiv_pos_site_id
 _symmetry_equiv_pos_as_xyz
  1  'x, y, z'
loop_
 _atom_site_type_symbol
 _atom_site_label
 _atom_site_symmetry_multiplicity
 _atom_site_fract_x
 _atom_site_fract_y
 _atom_site_fract_z
 _atom_site_occupancy
  Tm  Tm0  1  0.229443  0.229470  0.000009  1
  Th  Th1  1  0.755851  0.755822  0.999968  1
  Th  Th2  1  0.241598  0.003683  0.237872  1
  Th  Th3  1  0.003675  0.241586  0.237849  1
  Th  Th4  1  0.765800  0.003704  0.762120  1
  Th  Th5  1  0.003724  0.765821  0.762154  1
  H  H6  1  0.178170  0.999830  0.000004  1
  H  H7  1  0.820453  0.998736  0.999978  1
  H  H8  1  0.999831  0.178180  0.999993  1
  H  H9  1  0.998739  0.820421  0.000004  1
  H  H10  1  0.998732  0.998725  0.178251  1
  H  H11  1  0.178166  0.178171  0.178329  1
  H  H12  1  0.999844  0.999839  0.821720  1
  H  H13  1  0.820421  0.820413  0.821686  1
  Br  Br14  1  0.745223  0.254314  0.999876  1
  Br  Br15  1  0.497420  0.497387  0.999992  1
  Br  Br16  1  0.254412  0.745308  0.000087  1
  Br  Br17  1  0.745161  0.999956  0.254789  1
  Br  Br18  1  0.000091  0.745171  0.254922  1
  Br  Br19  1  0.504053  0.257105  0.247032  1
  Br  Br20  1  0.257036  0.504024  0.246978  1
  Br  Br21  1  0.745274  0.745346  0.490974  1
  Br  Br22  1  0.499991  0.999995  0.500004  1
  Br  Br23  1  0.999988  0.499996  0.500007  1
  Br  Br24  1  0.254348  0.254242  0.509001  1
  Br  Br25  1  0.257063  0.010185  0.753117  1
  Br  Br26  1  0.010064  0.257076  0.753013  1
  Br  Br27  1  0.745173  0.490334  0.745205  1
  Br  Br28  1  0.490262  0.745166  0.745069  1
