# generated using pymatgen
data_Y3Tm9Co5Pb
_symmetry_space_group_name_H-M   'P 1'
_cell_length_a   8.22129495
_cell_length_b   8.22129528
_cell_length_c   8.19840800
_cell_angle_alpha   110.94794259
_cell_angle_beta   110.62006650
_cell_angle_gamma   106.99489626
_symmetry_Int_Tables_number   1
_chemical_formula_structural   Y3Tm9Co5Pb
_chemical_formula_sum   'Y3 Tm9 Co5 Pb1'
_cell_volume   425.31720987
_cell_formula_units_Z   1
loop_
 _symmetry_equiv_pos_site_id
 _symmetry_equiv_pos_as_xyz
  1  'x, y, z'
loop_
 _atom_site_type_symbol
 _atom_site_label
 _atom_site_symmetry_multiplicity
 _atom_site_fract_x
 _atom_site_fract_y
 _atom_site_fract_z
 _atom_site_occupancy
  Y  Y0  1  0.287551  0.186698  0.474249  1
  Y  Y1  1  0.713349  0.814134  0.527483  1
  Y  Y2  1  0.287753  0.813141  0.100892  1
  Tm  Tm3  1  0.712660  0.185397  0.898059  1
  Tm  Tm4  1  0.621607  0.312519  0.307234  1
  Tm  Tm5  1  0.379178  0.687893  0.691926  1
  Tm  Tm6  1  0.004035  0.312748  0.691926  1
  Tm  Tm7  1  0.994715  0.685627  0.307234  1
  Tm  Tm8  1  0.208563  0.402186  0.191708  1
  Tm  Tm9  1  0.789587  0.595230  0.806826  1
  Tm  Tm10  1  0.211597  0.017239  0.806826  1
  Tm  Tm11  1  0.789520  0.983144  0.191708  1
  Co  Co12  1  0.999170  0.376068  0.375238  1
  Co  Co13  1  0.999827  0.623654  0.623481  1
  Co  Co14  1  0.388806  0.889677  0.503361  1
  Co  Co15  1  0.613684  0.114555  0.503361  1
  Co  Co16  1  0.998489  0.999781  0.998270  1
  Pb  Pb17  1  0.499908  0.500307  0.000215  1
