# generated using pymatgen
data_Th4SnHgAu4
_symmetry_space_group_name_H-M   'P 1'
_cell_length_a   8.11624100
_cell_length_b   8.11624100
_cell_length_c   7.82728600
_cell_angle_alpha   90.00000000
_cell_angle_beta   90.00000000
_cell_angle_gamma   90.00000000
_symmetry_Int_Tables_number   1
_chemical_formula_structural   Th4SnHgAu4
_chemical_formula_sum   'Th8 Sn2 Hg2 Au8'
_cell_volume   515.60969089
_cell_formula_units_Z   2
loop_
 _symmetry_equiv_pos_site_id
 _symmetry_equiv_pos_as_xyz
  1  'x, y, z'
loop_
 _atom_site_type_symbol
 _atom_site_label
 _atom_site_symmetry_multiplicity
 _atom_site_fract_x
 _atom_site_fract_y
 _atom_site_fract_z
 _atom_site_occupancy
  Th  Th0  1  0.839431  0.160569  0.500000  1
  Th  Th1  1  0.160569  0.839431  0.500000  1
  Th  Th2  1  0.339431  0.339431  0.000000  1
  Th  Th3  1  0.660569  0.660569  0.000000  1
  Th  Th4  1  0.687738  0.687738  0.500000  1
  Th  Th5  1  0.312262  0.312262  0.500000  1
  Th  Th6  1  0.187738  0.812262  0.000000  1
  Th  Th7  1  0.812262  0.187738  0.000000  1
  Sn  Sn8  1  0.500000  0.000000  0.750000  1
  Sn  Sn9  1  0.000000  0.500000  0.250000  1
  Hg  Hg10  1  0.500000  0.000000  0.250000  1
  Hg  Hg11  1  0.000000  0.500000  0.750000  1
  Au  Au12  1  0.626050  0.372651  0.277932  1
  Au  Au13  1  0.373950  0.627349  0.277932  1
  Au  Au14  1  0.126050  0.127349  0.777932  1
  Au  Au15  1  0.873950  0.872651  0.777932  1
  Au  Au16  1  0.372651  0.626050  0.722068  1
  Au  Au17  1  0.627349  0.373950  0.722068  1
  Au  Au18  1  0.872651  0.873950  0.222068  1
  Au  Au19  1  0.127349  0.126050  0.222068  1
