# generated using pymatgen
data_K2Cr3(NiO6)2
_symmetry_space_group_name_H-M   'P 1'
_cell_length_a   10.33179000
_cell_length_b   10.33179000
_cell_length_c   10.33179100
_cell_angle_alpha   90.00000000
_cell_angle_beta   90.00000000
_cell_angle_gamma   90.00000000
_symmetry_Int_Tables_number   1
_chemical_formula_structural   K2Cr3(NiO6)2
_chemical_formula_sum   'K8 Cr12 Ni8 O48'
_cell_volume   1102.87616984
_cell_formula_units_Z   4
loop_
 _symmetry_equiv_pos_site_id
 _symmetry_equiv_pos_as_xyz
  1  'x, y, z'
loop_
 _atom_site_type_symbol
 _atom_site_label
 _atom_site_symmetry_multiplicity
 _atom_site_fract_x
 _atom_site_fract_y
 _atom_site_fract_z
 _atom_site_occupancy
  K  K0  1  0.448928  0.551071  0.051072  1
  K  K1  1  0.180135  0.180135  0.180135  1
  K  K2  1  0.819866  0.680135  0.319865  1
  K  K3  1  0.551072  0.051072  0.448929  1
  K  K4  1  0.051072  0.448929  0.551071  1
  K  K5  1  0.319865  0.819865  0.680135  1
  K  K6  1  0.680134  0.319865  0.819865  1
  K  K7  1  0.948929  0.948929  0.948929  1
  Cr  Cr8  1  0.290564  0.878238  0.022834  1
  Cr  Cr9  1  0.522834  0.209437  0.121761  1
  Cr  Cr10  1  0.121761  0.522834  0.209436  1
  Cr  Cr11  1  0.878239  0.022834  0.290564  1
  Cr  Cr12  1  0.477166  0.709437  0.378239  1
  Cr  Cr13  1  0.709437  0.378239  0.477166  1
  Cr  Cr14  1  0.209436  0.121762  0.522834  1
  Cr  Cr15  1  0.977166  0.790563  0.621761  1
  Cr  Cr16  1  0.378239  0.477166  0.709437  1
  Cr  Cr17  1  0.621761  0.977167  0.790563  1
  Cr  Cr18  1  0.022833  0.290564  0.878239  1
  Cr  Cr19  1  0.790563  0.621761  0.977167  1
  Ni  Ni20  1  0.602748  0.897252  0.102747  1
  Ni  Ni21  1  0.835829  0.335829  0.164171  1
  Ni  Ni22  1  0.164172  0.835829  0.335828  1
  Ni  Ni23  1  0.397252  0.397252  0.397252  1
  Ni  Ni24  1  0.897252  0.102747  0.602747  1
  Ni  Ni25  1  0.664171  0.664171  0.664171  1
  Ni  Ni26  1  0.335829  0.164171  0.835828  1
  Ni  Ni27  1  0.102747  0.602747  0.897252  1
  O  O28  1  0.443102  0.828149  0.006295  1
  O  O29  1  0.945755  0.264713  0.017426  1
  O  O30  1  0.693934  0.731212  0.044523  1
  O  O31  1  0.764714  0.482574  0.054245  1
  O  O32  1  0.171850  0.506295  0.056898  1
  O  O33  1  0.677713  0.242047  0.098382  1
  O  O34  1  0.506295  0.056898  0.171850  1
  O  O35  1  0.257953  0.901618  0.177714  1
  O  O36  1  0.768789  0.955476  0.193934  1
  O  O37  1  0.455477  0.306066  0.231211  1
  O  O38  1  0.982575  0.445755  0.235287  1
  O  O39  1  0.098382  0.677712  0.242047  1
  O  O40  1  0.901618  0.177714  0.257953  1
  O  O41  1  0.017426  0.945756  0.264713  1
  O  O42  1  0.544523  0.806065  0.268789  1
  O  O43  1  0.231211  0.455477  0.306066  1
  O  O44  1  0.742047  0.401619  0.322286  1
  O  O45  1  0.493705  0.556898  0.328148  1
  O  O46  1  0.322286  0.742048  0.401619  1
  O  O47  1  0.828148  0.006295  0.443103  1
  O  O48  1  0.235287  0.982575  0.445756  1
  O  O49  1  0.306066  0.231211  0.455478  1
  O  O50  1  0.054244  0.764714  0.482575  1
  O  O51  1  0.556897  0.328148  0.493705  1
  O  O52  1  0.056898  0.171850  0.506295  1
  O  O53  1  0.554245  0.735287  0.517425  1
  O  O54  1  0.806065  0.268789  0.544523  1
  O  O55  1  0.735287  0.517425  0.554246  1
  O  O56  1  0.328149  0.493704  0.556898  1
  O  O57  1  0.822287  0.757953  0.598383  1
  O  O58  1  0.993705  0.943103  0.671850  1
  O  O59  1  0.242047  0.098382  0.677712  1
  O  O60  1  0.731212  0.044523  0.693934  1
  O  O61  1  0.044523  0.693934  0.731212  1
  O  O62  1  0.517425  0.554245  0.735287  1
  O  O63  1  0.401618  0.322287  0.742047  1
  O  O64  1  0.598383  0.822287  0.757953  1
  O  O65  1  0.482575  0.054245  0.764713  1
  O  O66  1  0.955476  0.193934  0.768789  1
  O  O67  1  0.268789  0.544523  0.806065  1
  O  O68  1  0.757953  0.598383  0.822287  1
  O  O69  1  0.006295  0.443102  0.828149  1
  O  O70  1  0.177714  0.257953  0.901618  1
  O  O71  1  0.671851  0.993705  0.943102  1
  O  O72  1  0.264714  0.017426  0.945755  1
  O  O73  1  0.193934  0.768789  0.955476  1
  O  O74  1  0.445755  0.235287  0.982575  1
  O  O75  1  0.943103  0.671850  0.993705  1
