# generated using pymatgen
data_TbY5Mn16(CoP6)2
_symmetry_space_group_name_H-M   'P 1'
_cell_length_a   3.64827000
_cell_length_b   10.85632600
_cell_length_c   12.62993500
_cell_angle_alpha   90.00000000
_cell_angle_beta   90.00000000
_cell_angle_gamma   90.00000000
_symmetry_Int_Tables_number   1
_chemical_formula_structural   TbY5Mn16(CoP6)2
_chemical_formula_sum   'Tb1 Y5 Mn16 Co2 P12'
_cell_volume   500.23141636
_cell_formula_units_Z   1
loop_
 _symmetry_equiv_pos_site_id
 _symmetry_equiv_pos_as_xyz
  1  'x, y, z'
loop_
 _atom_site_type_symbol
 _atom_site_label
 _atom_site_symmetry_multiplicity
 _atom_site_fract_x
 _atom_site_fract_y
 _atom_site_fract_z
 _atom_site_occupancy
  Tb  Tb0  1  0.000000  0.500000  0.532258  1
  Y  Y1  1  0.500000  0.000000  0.468116  1
  Y  Y2  1  0.500000  0.822538  0.206608  1
  Y  Y3  1  0.500000  0.177462  0.206608  1
  Y  Y4  1  0.000000  0.677385  0.793324  1
  Y  Y5  1  0.000000  0.322615  0.793324  1
  Mn  Mn6  1  0.500000  0.500000  0.166636  1
  Mn  Mn7  1  0.000000  0.000000  0.833427  1
  Mn  Mn8  1  0.000000  0.500000  0.992483  1
  Mn  Mn9  1  0.500000  0.000000  0.007478  1
  Mn  Mn10  1  0.500000  0.332633  0.997435  1
  Mn  Mn11  1  0.500000  0.667367  0.997435  1
  Mn  Mn12  1  0.000000  0.167514  0.002680  1
  Mn  Mn13  1  0.000000  0.832486  0.002680  1
  Mn  Mn14  1  0.500000  0.297912  0.432479  1
  Mn  Mn15  1  0.500000  0.702088  0.432479  1
  Mn  Mn16  1  0.000000  0.201977  0.567514  1
  Mn  Mn17  1  0.000000  0.798023  0.567514  1
  Mn  Mn18  1  0.500000  0.881580  0.702239  1
  Mn  Mn19  1  0.500000  0.118420  0.702239  1
  Mn  Mn20  1  0.000000  0.618261  0.297523  1
  Mn  Mn21  1  0.000000  0.381739  0.297523  1
  Co  Co22  1  0.500000  0.500000  0.705735  1
  Co  Co23  1  0.000000  0.000000  0.294286  1
  P  P24  1  0.500000  0.500000  0.881214  1
  P  P25  1  0.000000  0.000000  0.118851  1
  P  P26  1  0.500000  0.500000  0.358911  1
  P  P27  1  0.000000  0.000000  0.640841  1
  P  P28  1  0.500000  0.317403  0.618734  1
  P  P29  1  0.500000  0.682597  0.618734  1
  P  P30  1  0.000000  0.182330  0.381288  1
  P  P31  1  0.000000  0.817670  0.381288  1
  P  P32  1  0.500000  0.845780  0.884987  1
  P  P33  1  0.500000  0.154220  0.884987  1
  P  P34  1  0.000000  0.654127  0.115071  1
  P  P35  1  0.000000  0.345873  0.115071  1
