# generated using pymatgen
data_Tm10FeHg3
_symmetry_space_group_name_H-M   'P 1'
_cell_length_a   9.43255000
_cell_length_b   9.43255093
_cell_length_c   9.45008900
_cell_angle_alpha   90.00000000
_cell_angle_beta   90.00000000
_cell_angle_gamma   119.99999673
_symmetry_Int_Tables_number   1
_chemical_formula_structural   Tm10FeHg3
_chemical_formula_sum   'Tm20 Fe2 Hg6'
_cell_volume   728.15664916
_cell_formula_units_Z   2
loop_
 _symmetry_equiv_pos_site_id
 _symmetry_equiv_pos_as_xyz
  1  'x, y, z'
loop_
 _atom_site_type_symbol
 _atom_site_label
 _atom_site_symmetry_multiplicity
 _atom_site_fract_x
 _atom_site_fract_y
 _atom_site_fract_z
 _atom_site_occupancy
  Tm  Tm0  1  0.000000  0.000000  0.500000  1
  Tm  Tm1  1  0.000000  0.000000  0.000000  1
  Tm  Tm2  1  0.540972  0.459028  0.250000  1
  Tm  Tm3  1  0.540972  0.081945  0.250000  1
  Tm  Tm4  1  0.918055  0.459028  0.250000  1
  Tm  Tm5  1  0.459028  0.540972  0.750000  1
  Tm  Tm6  1  0.459028  0.918055  0.750000  1
  Tm  Tm7  1  0.081945  0.540972  0.750000  1
  Tm  Tm8  1  0.212300  0.787700  0.436814  1
  Tm  Tm9  1  0.212300  0.424602  0.436814  1
  Tm  Tm10  1  0.575398  0.787700  0.436814  1
  Tm  Tm11  1  0.787700  0.212300  0.563186  1
  Tm  Tm12  1  0.787700  0.575398  0.563186  1
  Tm  Tm13  1  0.424602  0.212300  0.563186  1
  Tm  Tm14  1  0.787700  0.212300  0.936814  1
  Tm  Tm15  1  0.787700  0.575398  0.936814  1
  Tm  Tm16  1  0.424602  0.212300  0.936814  1
  Tm  Tm17  1  0.212300  0.787700  0.063186  1
  Tm  Tm18  1  0.212300  0.424602  0.063186  1
  Tm  Tm19  1  0.575398  0.787700  0.063186  1
  Fe  Fe20  1  0.333333  0.666667  0.250000  1
  Fe  Fe21  1  0.666667  0.333333  0.750000  1
  Hg  Hg22  1  0.881832  0.118168  0.250000  1
  Hg  Hg23  1  0.881832  0.763663  0.250000  1
  Hg  Hg24  1  0.236337  0.118168  0.250000  1
  Hg  Hg25  1  0.118168  0.881832  0.750000  1
  Hg  Hg26  1  0.118168  0.236337  0.750000  1
  Hg  Hg27  1  0.763663  0.881832  0.750000  1
