# generated using pymatgen
data_Mg2Zn4B6Ir11
_symmetry_space_group_name_H-M   'P 1'
_cell_length_a   2.90049200
_cell_length_b   8.61904800
_cell_length_c   11.56223000
_cell_angle_alpha   90.00000000
_cell_angle_beta   90.00000000
_cell_angle_gamma   90.00000000
_symmetry_Int_Tables_number   1
_chemical_formula_structural   Mg2Zn4B6Ir11
_chemical_formula_sum   'Mg2 Zn4 B6 Ir11'
_cell_volume   289.04973500
_cell_formula_units_Z   1
loop_
 _symmetry_equiv_pos_site_id
 _symmetry_equiv_pos_as_xyz
  1  'x, y, z'
loop_
 _atom_site_type_symbol
 _atom_site_label
 _atom_site_symmetry_multiplicity
 _atom_site_fract_x
 _atom_site_fract_y
 _atom_site_fract_z
 _atom_site_occupancy
  Mg  Mg0  1  0.500000  0.000000  0.205244  1
  Mg  Mg1  1  0.500000  0.000000  0.794756  1
  Zn  Zn2  1  0.500000  0.000000  0.500000  1
  Zn  Zn3  1  0.500000  0.500000  0.000000  1
  Zn  Zn4  1  0.500000  0.644528  0.500000  1
  Zn  Zn5  1  0.500000  0.355472  0.500000  1
  B  B6  1  0.500000  0.807281  0.000000  1
  B  B7  1  0.500000  0.192719  0.000000  1
  B  B8  1  0.500000  0.686279  0.269663  1
  B  B9  1  0.500000  0.313721  0.269663  1
  B  B10  1  0.500000  0.313721  0.730337  1
  B  B11  1  0.500000  0.686279  0.730337  1
  Ir  Ir12  1  0.000000  0.000000  0.000000  1
  Ir  Ir13  1  0.000000  0.500000  0.316533  1
  Ir  Ir14  1  0.000000  0.500000  0.683467  1
  Ir  Ir15  1  0.000000  0.712804  0.124414  1
  Ir  Ir16  1  0.000000  0.287196  0.124414  1
  Ir  Ir17  1  0.000000  0.287196  0.875586  1
  Ir  Ir18  1  0.000000  0.712804  0.875586  1
  Ir  Ir19  1  0.000000  0.824073  0.360252  1
  Ir  Ir20  1  0.000000  0.175927  0.360252  1
  Ir  Ir21  1  0.000000  0.175927  0.639748  1
  Ir  Ir22  1  0.000000  0.824073  0.639748  1
