# generated using pymatgen
data_Ce7Pa(Pt2Pb)4
_symmetry_space_group_name_H-M   'P 1'
_cell_length_a   7.99973100
_cell_length_b   7.99973060
_cell_length_c   7.38563300
_cell_angle_alpha   90.00000000
_cell_angle_beta   90.00000000
_cell_angle_gamma   90.34330128
_symmetry_Int_Tables_number   1
_chemical_formula_structural   Ce7Pa(Pt2Pb)4
_chemical_formula_sum   'Ce7 Pa1 Pt8 Pb4'
_cell_volume   472.64021681
_cell_formula_units_Z   1
loop_
 _symmetry_equiv_pos_site_id
 _symmetry_equiv_pos_as_xyz
  1  'x, y, z'
loop_
 _atom_site_type_symbol
 _atom_site_label
 _atom_site_symmetry_multiplicity
 _atom_site_fract_x
 _atom_site_fract_y
 _atom_site_fract_z
 _atom_site_occupancy
  Ce  Ce0  1  0.673829  0.674302  0.000000  1
  Ce  Ce1  1  0.330285  0.329526  0.500000  1
  Ce  Ce2  1  0.824050  0.175950  0.500000  1
  Ce  Ce3  1  0.670474  0.669715  0.500000  1
  Ce  Ce4  1  0.325698  0.326171  0.000000  1
  Ce  Ce5  1  0.829439  0.170561  0.000000  1
  Ce  Ce6  1  0.171007  0.828993  0.000000  1
  Pa  Pa7  1  0.171103  0.828897  0.500000  1
  Pt  Pt8  1  0.878256  0.869009  0.740203  1
  Pt  Pt9  1  0.130991  0.121744  0.740203  1
  Pt  Pt10  1  0.624159  0.375841  0.755305  1
  Pt  Pt11  1  0.624159  0.375841  0.244695  1
  Pt  Pt12  1  0.366836  0.633164  0.256057  1
  Pt  Pt13  1  0.130991  0.121744  0.259797  1
  Pt  Pt14  1  0.878256  0.869009  0.259797  1
  Pt  Pt15  1  0.366836  0.633164  0.743943  1
  Pb  Pb16  1  0.502094  0.000280  0.750079  1
  Pb  Pb17  1  0.502094  0.000280  0.249921  1
  Pb  Pb18  1  0.999720  0.497906  0.750079  1
  Pb  Pb19  1  0.999720  0.497906  0.249921  1
