# generated using pymatgen
data_Pm(ZnGa)2
_symmetry_space_group_name_H-M   'P 1'
_cell_length_a   6.14522373
_cell_length_b   6.14522309
_cell_length_c   6.14522403
_cell_angle_alpha   139.79252653
_cell_angle_beta   139.79252018
_cell_angle_gamma   58.16845262
_symmetry_Int_Tables_number   1
_chemical_formula_structural   Pm(ZnGa)2
_chemical_formula_sum   'Pm1 Zn2 Ga2'
_cell_volume   95.84067695
_cell_formula_units_Z   1
loop_
 _symmetry_equiv_pos_site_id
 _symmetry_equiv_pos_as_xyz
  1  'x, y, z'
loop_
 _atom_site_type_symbol
 _atom_site_label
 _atom_site_symmetry_multiplicity
 _atom_site_fract_x
 _atom_site_fract_y
 _atom_site_fract_z
 _atom_site_occupancy
  Pm  Pm0  1  0.000000  0.000000  0.000000  1
  Zn  Zn1  1  0.750000  0.250000  0.500000  1
  Zn  Zn2  1  0.250000  0.750000  0.500000  1
  Ga  Ga3  1  0.384687  0.384687  0.000000  1
  Ga  Ga4  1  0.615312  0.615312  0.000000  1
