# generated using pymatgen
data_YbU2(SnRh)3
_symmetry_space_group_name_H-M   'P 1'
_cell_length_a   7.28772600
_cell_length_b   7.45273388
_cell_length_c   4.00897800
_cell_angle_alpha   90.00000000
_cell_angle_beta   90.00000000
_cell_angle_gamma   119.27026746
_symmetry_Int_Tables_number   1
_chemical_formula_structural   YbU2(SnRh)3
_chemical_formula_sum   'Yb1 U2 Sn3 Rh3'
_cell_volume   189.94099170
_cell_formula_units_Z   1
loop_
 _symmetry_equiv_pos_site_id
 _symmetry_equiv_pos_as_xyz
  1  'x, y, z'
loop_
 _atom_site_type_symbol
 _atom_site_label
 _atom_site_symmetry_multiplicity
 _atom_site_fract_x
 _atom_site_fract_y
 _atom_site_fract_z
 _atom_site_occupancy
  Yb  Yb0  1  0.409386  0.000000  0.000000  1
  U  U1  1  0.001796  0.416403  0.000000  1
  U  U2  1  0.585393  0.583597  0.000000  1
  Sn  Sn3  1  0.254332  0.244021  0.500000  1
  Sn  Sn4  1  0.010311  0.755979  0.500000  1
  Sn  Sn5  1  0.732748  0.000000  0.500000  1
  Rh  Rh6  1  0.688950  0.357494  0.500000  1
  Rh  Rh7  1  0.331456  0.642506  0.500000  1
  Rh  Rh8  1  0.985629  0.000000  0.000000  1
