# generated using pymatgen
data_Sc3Ti2Sn3
_symmetry_space_group_name_H-M   'P 1'
_cell_length_a   8.34542000
_cell_length_b   8.34542110
_cell_length_c   5.72700100
_cell_angle_alpha   90.00000000
_cell_angle_beta   90.00000000
_cell_angle_gamma   119.99999562
_symmetry_Int_Tables_number   1
_chemical_formula_structural   Sc3Ti2Sn3
_chemical_formula_sum   'Sc6 Ti4 Sn6'
_cell_volume   345.42547531
_cell_formula_units_Z   2
loop_
 _symmetry_equiv_pos_site_id
 _symmetry_equiv_pos_as_xyz
  1  'x, y, z'
loop_
 _atom_site_type_symbol
 _atom_site_label
 _atom_site_symmetry_multiplicity
 _atom_site_fract_x
 _atom_site_fract_y
 _atom_site_fract_z
 _atom_site_occupancy
  Sc  Sc0  1  0.238031  0.000000  0.250000  1
  Sc  Sc1  1  0.238031  0.238031  0.750000  1
  Sc  Sc2  1  0.000000  0.761969  0.750000  1
  Sc  Sc3  1  0.000000  0.238031  0.250000  1
  Sc  Sc4  1  0.761969  0.761969  0.250000  1
  Sc  Sc5  1  0.761969  0.000000  0.750000  1
  Ti  Ti6  1  0.333333  0.666667  0.000000  1
  Ti  Ti7  1  0.666667  0.333333  0.500000  1
  Ti  Ti8  1  0.666667  0.333333  0.000000  1
  Ti  Ti9  1  0.333333  0.666667  0.500000  1
  Sn  Sn10  1  0.601448  0.000000  0.250000  1
  Sn  Sn11  1  0.601448  0.601448  0.750000  1
  Sn  Sn12  1  0.000000  0.398552  0.750000  1
  Sn  Sn13  1  0.000000  0.601448  0.250000  1
  Sn  Sn14  1  0.398552  0.398552  0.250000  1
  Sn  Sn15  1  0.398552  0.000000  0.750000  1
