# generated using pymatgen
data_La8Sc12Si15Os
_symmetry_space_group_name_H-M   'P 1'
_cell_length_a   7.30879035
_cell_length_b   7.65832709
_cell_length_c   14.29114400
_cell_angle_alpha   90.00000000
_cell_angle_beta   90.00000000
_cell_angle_gamma   90.00790647
_symmetry_Int_Tables_number   1
_chemical_formula_structural   La8Sc12Si15Os
_chemical_formula_sum   'La8 Sc12 Si15 Os1'
_cell_volume   799.91972675
_cell_formula_units_Z   1
loop_
 _symmetry_equiv_pos_site_id
 _symmetry_equiv_pos_as_xyz
  1  'x, y, z'
loop_
 _atom_site_type_symbol
 _atom_site_label
 _atom_site_symmetry_multiplicity
 _atom_site_fract_x
 _atom_site_fract_y
 _atom_site_fract_z
 _atom_site_occupancy
  La  La0  1  0.011543  0.176595  0.097520  1
  La  La1  1  0.990382  0.829051  0.900166  1
  La  La2  1  0.487590  0.670449  0.903382  1
  La  La3  1  0.990382  0.829051  0.599834  1
  La  La4  1  0.511521  0.329683  0.096279  1
  La  La5  1  0.011543  0.176595  0.402480  1
  La  La6  1  0.511521  0.329683  0.403721  1
  La  La7  1  0.487590  0.670449  0.596618  1
  Sc  Sc8  1  0.148881  0.478844  0.750000  1
  Sc  Sc9  1  0.842875  0.504264  0.250000  1
  Sc  Sc10  1  0.340961  0.999796  0.250000  1
  Sc  Sc11  1  0.665831  0.007742  0.750000  1
  Sc  Sc12  1  0.318198  0.171009  0.627505  1
  Sc  Sc13  1  0.672994  0.828709  0.373174  1
  Sc  Sc14  1  0.173563  0.677363  0.374410  1
  Sc  Sc15  1  0.672994  0.828709  0.126826  1
  Sc  Sc16  1  0.835525  0.316042  0.627752  1
  Sc  Sc17  1  0.318198  0.171009  0.872495  1
  Sc  Sc18  1  0.835525  0.316042  0.872248  1
  Sc  Sc19  1  0.173563  0.677363  0.125590  1
  Si  Si20  1  0.970898  0.872958  0.250000  1
  Si  Si21  1  0.470236  0.626969  0.250000  1
  Si  Si22  1  0.528552  0.377884  0.750000  1
  Si  Si23  1  0.291202  0.884692  0.750000  1
  Si  Si24  1  0.708845  0.119149  0.250000  1
  Si  Si25  1  0.211000  0.384694  0.250000  1
  Si  Si26  1  0.779462  0.610126  0.750000  1
  Si  Si27  1  0.150673  0.467620  0.538226  1
  Si  Si28  1  0.852188  0.540013  0.460965  1
  Si  Si29  1  0.352398  0.964322  0.459369  1
  Si  Si30  1  0.852188  0.540013  0.039035  1
  Si  Si31  1  0.648510  0.034363  0.538762  1
  Si  Si32  1  0.150673  0.467620  0.961774  1
  Si  Si33  1  0.648510  0.034363  0.961238  1
  Si  Si34  1  0.352398  0.964322  0.040631  1
  Os  Os35  1  0.031087  0.122442  0.750000  1
