# generated using pymatgen
data_Ho(OsO3)3
_symmetry_space_group_name_H-M   'P 1'
_cell_length_a   7.37036100
_cell_length_b   5.19138157
_cell_length_c   8.22706269
_cell_angle_alpha   85.46200834
_cell_angle_beta   90.00000000
_cell_angle_gamma   90.00000000
_symmetry_Int_Tables_number   1
_chemical_formula_structural   Ho(OsO3)3
_chemical_formula_sum   'Ho2 Os6 O18'
_cell_volume   313.79997522
_cell_formula_units_Z   2
loop_
 _symmetry_equiv_pos_site_id
 _symmetry_equiv_pos_as_xyz
  1  'x, y, z'
loop_
 _atom_site_type_symbol
 _atom_site_label
 _atom_site_symmetry_multiplicity
 _atom_site_fract_x
 _atom_site_fract_y
 _atom_site_fract_z
 _atom_site_occupancy
  Ho  Ho0  1  0.250000  0.970973  0.427574  1
  Ho  Ho1  1  0.750000  0.029027  0.572426  1
  Os  Os2  1  0.000000  0.000000  0.000000  1
  Os  Os3  1  0.500000  0.000000  0.000000  1
  Os  Os4  1  0.495523  0.538878  0.692590  1
  Os  Os5  1  0.004477  0.538878  0.692590  1
  Os  Os6  1  0.995523  0.461122  0.307410  1
  Os  Os7  1  0.504477  0.461122  0.307410  1
  O  O8  1  0.250000  0.898700  0.983656  1
  O  O9  1  0.933850  0.854028  0.788794  1
  O  O10  1  0.566150  0.854028  0.788794  1
  O  O11  1  0.959234  0.741585  0.470867  1
  O  O12  1  0.540766  0.741585  0.470867  1
  O  O13  1  0.250000  0.669001  0.663084  1
  O  O14  1  0.955193  0.683679  0.121355  1
  O  O15  1  0.544807  0.683679  0.121355  1
  O  O16  1  0.250000  0.585632  0.312445  1
  O  O17  1  0.750000  0.414368  0.687555  1
  O  O18  1  0.044807  0.316321  0.878645  1
  O  O19  1  0.455193  0.316321  0.878645  1
  O  O20  1  0.750000  0.330999  0.336916  1
  O  O21  1  0.040766  0.258415  0.529133  1
  O  O22  1  0.459234  0.258415  0.529133  1
  O  O23  1  0.066150  0.145972  0.211206  1
  O  O24  1  0.433850  0.145972  0.211206  1
  O  O25  1  0.750000  0.101300  0.016344  1
