# generated using pymatgen
data_Tb4AgPt2Au
_symmetry_space_group_name_H-M   'P 1'
_cell_length_a   4.68053500
_cell_length_b   5.66753952
_cell_length_c   7.39209400
_cell_angle_alpha   92.28552662
_cell_angle_beta   90.00000000
_cell_angle_gamma   90.00000000
_symmetry_Int_Tables_number   1
_chemical_formula_structural   Tb4AgPt2Au
_chemical_formula_sum   'Tb4 Ag1 Pt2 Au1'
_cell_volume   195.93495298
_cell_formula_units_Z   1
loop_
 _symmetry_equiv_pos_site_id
 _symmetry_equiv_pos_as_xyz
  1  'x, y, z'
loop_
 _atom_site_type_symbol
 _atom_site_label
 _atom_site_symmetry_multiplicity
 _atom_site_fract_x
 _atom_site_fract_y
 _atom_site_fract_z
 _atom_site_occupancy
  Tb  Tb0  1  0.250000  0.356971  0.704920  1
  Tb  Tb1  1  0.250000  0.151175  0.167423  1
  Tb  Tb2  1  0.750000  0.639361  0.293969  1
  Tb  Tb3  1  0.750000  0.852990  0.833481  1
  Ag  Ag4  1  0.250000  0.849008  0.533779  1
  Pt  Pt5  1  0.250000  0.663957  0.044222  1
  Pt  Pt6  1  0.750000  0.338522  0.955475  1
  Au  Au7  1  0.750000  0.148013  0.466729  1
