# generated using pymatgen
data_Gd5Er(CI5)2
_symmetry_space_group_name_H-M   'P 1'
_cell_length_a   7.80026250
_cell_length_b   9.58032320
_cell_length_c   9.65879200
_cell_angle_alpha   107.29345176
_cell_angle_beta   96.46025161
_cell_angle_gamma   104.70557830
_symmetry_Int_Tables_number   1
_chemical_formula_structural   Gd5Er(CI5)2
_chemical_formula_sum   'Gd5 Er1 C2 I10'
_cell_volume   652.63422500
_cell_formula_units_Z   1
loop_
 _symmetry_equiv_pos_site_id
 _symmetry_equiv_pos_as_xyz
  1  'x, y, z'
loop_
 _atom_site_type_symbol
 _atom_site_label
 _atom_site_symmetry_multiplicity
 _atom_site_fract_x
 _atom_site_fract_y
 _atom_site_fract_z
 _atom_site_occupancy
  Gd  Gd0  1  0.027278  0.739128  0.923420  1
  Gd  Gd1  1  0.103608  0.037767  0.779631  1
  Gd  Gd2  1  0.970808  0.260556  0.076070  1
  Gd  Gd3  1  0.893955  0.960528  0.219770  1
  Gd  Gd4  1  0.373232  0.133163  0.178823  1
  Er  Er5  1  0.632047  0.869342  0.824354  1
  C  C6  1  0.089208  0.030330  0.041866  1
  C  C7  1  0.909443  0.969729  0.959026  1
  I  I8  1  0.203951  0.738135  0.651289  1
  I  I9  1  0.911072  0.632235  0.178420  1
  I  I10  1  0.086641  0.366261  0.820284  1
  I  I11  1  0.740725  0.913849  0.545160  1
  I  I12  1  0.251383  0.083565  0.459053  1
  I  I13  1  0.650291  0.550144  0.726807  1
  I  I14  1  0.458109  0.810645  0.087298  1
  I  I15  1  0.806502  0.264541  0.353909  1
  I  I16  1  0.346884  0.455808  0.269884  1
  I  I17  1  0.544861  0.184276  0.904937  1
