# generated using pymatgen
data_Sc3Pa(Al3Rh)6
_symmetry_space_group_name_H-M   'P 1'
_cell_length_a   7.51335543
_cell_length_b   7.51380414
_cell_length_c   9.31273100
_cell_angle_alpha   90.00000000
_cell_angle_beta   90.00000000
_cell_angle_gamma   119.69265430
_symmetry_Int_Tables_number   1
_chemical_formula_structural   Sc3Pa(Al3Rh)6
_chemical_formula_sum   'Sc3 Pa1 Al18 Rh6'
_cell_volume   456.70755814
_cell_formula_units_Z   1
loop_
 _symmetry_equiv_pos_site_id
 _symmetry_equiv_pos_as_xyz
  1  'x, y, z'
loop_
 _atom_site_type_symbol
 _atom_site_label
 _atom_site_symmetry_multiplicity
 _atom_site_fract_x
 _atom_site_fract_y
 _atom_site_fract_z
 _atom_site_occupancy
  Sc  Sc0  1  0.004485  0.328606  0.750000  1
  Sc  Sc1  1  0.673903  0.994983  0.250000  1
  Sc  Sc2  1  0.329035  0.004495  0.750000  1
  Pa  Pa3  1  0.994225  0.671520  0.250000  1
  Al  Al4  1  0.328787  0.328926  0.563205  1
  Al  Al5  1  0.662872  0.667644  0.451799  1
  Al  Al6  1  0.662872  0.667644  0.048201  1
  Al  Al7  1  0.328787  0.328926  0.936795  1
  Al  Al8  1  0.342307  0.551453  0.250000  1
  Al  Al9  1  0.658590  0.442886  0.750000  1
  Al  Al10  1  0.546894  0.339225  0.250000  1
  Al  Al11  1  0.445358  0.661457  0.750000  1
  Al  Al12  1  0.998294  0.329896  0.072764  1
  Al  Al13  1  0.002890  0.664507  0.913958  1
  Al  Al14  1  0.002890  0.664507  0.586042  1
  Al  Al15  1  0.341187  0.003130  0.426919  1
  Al  Al16  1  0.998294  0.329896  0.427236  1
  Al  Al17  1  0.665125  0.004189  0.579635  1
  Al  Al18  1  0.665125  0.004189  0.920365  1
  Al  Al19  1  0.341187  0.003130  0.073081  1
  Al  Al20  1  0.130123  0.130621  0.250000  1
  Al  Al21  1  0.878921  0.881778  0.750000  1
  Rh  Rh22  1  0.999903  0.997107  0.002055  1
  Rh  Rh23  1  0.999903  0.997107  0.497945  1
  Rh  Rh24  1  0.673902  0.329422  0.001106  1
  Rh  Rh25  1  0.325118  0.671667  0.000718  1
  Rh  Rh26  1  0.325118  0.671667  0.499282  1
  Rh  Rh27  1  0.673902  0.329422  0.498894  1
