# generated using pymatgen
data_Ho5Er2Th(ReB6)4
_symmetry_space_group_name_H-M   'P 1'
_cell_length_a   3.69559200
_cell_length_b   9.17444797
_cell_length_c   11.56829412
_cell_angle_alpha   90.04585280
_cell_angle_beta   90.00000000
_cell_angle_gamma   90.00000000
_symmetry_Int_Tables_number   1
_chemical_formula_structural   Ho5Er2Th(ReB6)4
_chemical_formula_sum   'Ho5 Er2 Th1 Re4 B24'
_cell_volume   392.22307765
_cell_formula_units_Z   1
loop_
 _symmetry_equiv_pos_site_id
 _symmetry_equiv_pos_as_xyz
  1  'x, y, z'
loop_
 _atom_site_type_symbol
 _atom_site_label
 _atom_site_symmetry_multiplicity
 _atom_site_fract_x
 _atom_site_fract_y
 _atom_site_fract_z
 _atom_site_occupancy
  Ho  Ho0  1  0.000000  0.677810  0.587410  1
  Ho  Ho1  1  0.000000  0.823168  0.085026  1
  Ho  Ho2  1  0.000000  0.176052  0.914013  1
  Ho  Ho3  1  0.000000  0.941930  0.369409  1
  Ho  Ho4  1  0.000000  0.055958  0.631431  1
  Er  Er5  1  0.000000  0.443558  0.128093  1
  Er  Er6  1  0.000000  0.557438  0.870781  1
  Th  Th7  1  0.000000  0.322442  0.414107  1
  Re  Re8  1  0.000000  0.639135  0.320188  1
  Re  Re9  1  0.000000  0.361997  0.680745  1
  Re  Re10  1  0.000000  0.138474  0.177950  1
  Re  Re11  1  0.000000  0.861164  0.821076  1
  B  B12  1  0.500000  0.555969  0.432307  1
  B  B13  1  0.500000  0.447164  0.569801  1
  B  B14  1  0.500000  0.052987  0.066123  1
  B  B15  1  0.500000  0.946441  0.932966  1
  B  B16  1  0.500000  0.750260  0.418276  1
  B  B17  1  0.500000  0.250709  0.585272  1
  B  B18  1  0.500000  0.249136  0.079913  1
  B  B19  1  0.500000  0.750488  0.918508  1
  B  B20  1  0.500000  0.792124  0.264823  1
  B  B21  1  0.500000  0.208101  0.736427  1
  B  B22  1  0.500000  0.290734  0.231859  1
  B  B23  1  0.500000  0.707796  0.765787  1
  B  B24  1  0.500000  0.631894  0.184061  1
  B  B25  1  0.500000  0.369901  0.815698  1
  B  B26  1  0.500000  0.129138  0.312083  1
  B  B27  1  0.500000  0.868797  0.686052  1
  B  B28  1  0.500000  0.981826  0.210723  1
  B  B29  1  0.500000  0.017116  0.788724  1
  B  B30  1  0.500000  0.485398  0.285864  1
  B  B31  1  0.500000  0.518421  0.713851  1
  B  B32  1  0.500000  0.600852  0.027519  1
  B  B33  1  0.500000  0.399931  0.971650  1
  B  B34  1  0.500000  0.096818  0.473075  1
  B  B35  1  0.500000  0.898871  0.528409  1
