# generated using pymatgen
data_Th4TcMo2Os5
_symmetry_space_group_name_H-M   'P 1'
_cell_length_a   5.18759672
_cell_length_b   5.32213517
_cell_length_c   9.38564300
_cell_angle_alpha   90.00000000
_cell_angle_beta   90.00000000
_cell_angle_gamma   114.10695850
_symmetry_Int_Tables_number   1
_chemical_formula_structural   Th4TcMo2Os5
_chemical_formula_sum   'Th4 Tc1 Mo2 Os5'
_cell_volume   236.52902036
_cell_formula_units_Z   1
loop_
 _symmetry_equiv_pos_site_id
 _symmetry_equiv_pos_as_xyz
  1  'x, y, z'
loop_
 _atom_site_type_symbol
 _atom_site_label
 _atom_site_symmetry_multiplicity
 _atom_site_fract_x
 _atom_site_fract_y
 _atom_site_fract_z
 _atom_site_occupancy
  Th  Th0  1  0.332891  0.667713  0.433667  1
  Th  Th1  1  0.666454  0.329682  0.564574  1
  Th  Th2  1  0.666454  0.329682  0.935426  1
  Th  Th3  1  0.332891  0.667713  0.066333  1
  Tc  Tc4  1  0.659815  0.835084  0.750000  1
  Mo  Mo5  1  0.835344  0.166299  0.250000  1
  Mo  Mo6  1  0.164129  0.836493  0.750000  1
  Os  Os7  1  0.998765  0.999206  0.499416  1
  Os  Os8  1  0.998765  0.999206  0.000584  1
  Os  Os9  1  0.832768  0.657619  0.250000  1
  Os  Os10  1  0.340381  0.164521  0.250000  1
  Os  Os11  1  0.171343  0.346783  0.750000  1
