# generated using pymatgen
data_LiTi2(TcP)3
_symmetry_space_group_name_H-M   'P 1'
_cell_length_a   3.24725200
_cell_length_b   6.67565845
_cell_length_c   6.67565842
_cell_angle_alpha   58.50149175
_cell_angle_beta   90.00000000
_cell_angle_gamma   90.00000000
_symmetry_Int_Tables_number   1
_chemical_formula_structural   LiTi2(TcP)3
_chemical_formula_sum   'Li1 Ti2 Tc3 P3'
_cell_volume   123.38913610
_cell_formula_units_Z   1
loop_
 _symmetry_equiv_pos_site_id
 _symmetry_equiv_pos_as_xyz
  1  'x, y, z'
loop_
 _atom_site_type_symbol
 _atom_site_label
 _atom_site_symmetry_multiplicity
 _atom_site_fract_x
 _atom_site_fract_y
 _atom_site_fract_z
 _atom_site_occupancy
  Li  Li0  1  0.500000  0.603514  0.396486  1
  Ti  Ti1  1  0.500000  0.399863  0.005671  1
  Ti  Ti2  1  0.500000  0.994329  0.600137  1
  Tc  Tc3  1  0.000000  0.256224  0.743776  1
  Tc  Tc4  1  0.000000  0.742486  0.994378  1
  Tc  Tc5  1  0.000000  0.005622  0.257514  1
  P  P6  1  0.000000  0.337427  0.335794  1
  P  P7  1  0.000000  0.664206  0.662573  1
  P  P8  1  0.500000  0.996229  0.003771  1
