# generated using pymatgen
data_NaFe(Se2O7)2
_symmetry_space_group_name_H-M   'P 1'
_cell_length_a   5.15395774
_cell_length_b   7.64489406
_cell_length_c   8.68561900
_cell_angle_alpha   91.80341231
_cell_angle_beta   93.48715180
_cell_angle_gamma   105.26307634
_symmetry_Int_Tables_number   1
_chemical_formula_structural   NaFe(Se2O7)2
_chemical_formula_sum   'Na1 Fe1 Se4 O14'
_cell_volume   329.14265509
_cell_formula_units_Z   1
loop_
 _symmetry_equiv_pos_site_id
 _symmetry_equiv_pos_as_xyz
  1  'x, y, z'
loop_
 _atom_site_type_symbol
 _atom_site_label
 _atom_site_symmetry_multiplicity
 _atom_site_fract_x
 _atom_site_fract_y
 _atom_site_fract_z
 _atom_site_occupancy
  Na  Na0  1  0.500000  0.000000  0.500000  1
  Fe  Fe1  1  0.000000  0.500000  0.000000  1
  Se  Se2  1  0.532282  0.646366  0.777619  1
  Se  Se3  1  0.467718  0.353634  0.222381  1
  Se  Se4  1  0.131911  0.253053  0.701104  1
  Se  Se5  1  0.868089  0.746947  0.298896  1
  O  O6  1  0.782757  0.550056  0.816404  1
  O  O7  1  0.217243  0.449944  0.183596  1
  O  O8  1  0.353915  0.666268  0.928172  1
  O  O9  1  0.646085  0.333732  0.071828  1
  O  O10  1  0.636396  0.829961  0.686452  1
  O  O11  1  0.363604  0.170039  0.313548  1
  O  O12  1  0.308978  0.486781  0.643374  1
  O  O13  1  0.691022  0.513219  0.356626  1
  O  O14  1  0.892948  0.213637  0.564308  1
  O  O15  1  0.107052  0.786363  0.435692  1
  O  O16  1  0.345598  0.130789  0.708674  1
  O  O17  1  0.654402  0.869211  0.291326  1
  O  O18  1  0.045727  0.284814  0.881760  1
  O  O19  1  0.954273  0.715186  0.118240  1
