# generated using pymatgen
data_Rb3Rh2Cl9
_symmetry_space_group_name_H-M   'P 1'
_cell_length_a   7.13423600
_cell_length_b   7.13423547
_cell_length_c   18.35645100
_cell_angle_alpha   90.00000000
_cell_angle_beta   90.00000000
_cell_angle_gamma   120.00000246
_symmetry_Int_Tables_number   1
_chemical_formula_structural   Rb3Rh2Cl9
_chemical_formula_sum   'Rb6 Rh4 Cl18'
_cell_volume   809.12244999
_cell_formula_units_Z   2
loop_
 _symmetry_equiv_pos_site_id
 _symmetry_equiv_pos_as_xyz
  1  'x, y, z'
loop_
 _atom_site_type_symbol
 _atom_site_label
 _atom_site_symmetry_multiplicity
 _atom_site_fract_x
 _atom_site_fract_y
 _atom_site_fract_z
 _atom_site_occupancy
  Rb  Rb0  1  0.000000  0.000000  0.250000  1
  Rb  Rb1  1  0.000000  0.000000  0.750000  1
  Rb  Rb2  1  0.333333  0.666667  0.065596  1
  Rb  Rb3  1  0.666667  0.333333  0.565596  1
  Rb  Rb4  1  0.666667  0.333333  0.934404  1
  Rb  Rb5  1  0.333333  0.666667  0.434404  1
  Rh  Rh6  1  0.333333  0.666667  0.834843  1
  Rh  Rh7  1  0.666667  0.333333  0.334843  1
  Rh  Rh8  1  0.666667  0.333333  0.165157  1
  Rh  Rh9  1  0.333333  0.666667  0.665157  1
  Cl  Cl10  1  0.516275  0.032549  0.250000  1
  Cl  Cl11  1  0.483725  0.516275  0.750000  1
  Cl  Cl12  1  0.032549  0.516275  0.750000  1
  Cl  Cl13  1  0.967451  0.483725  0.250000  1
  Cl  Cl14  1  0.516275  0.483725  0.250000  1
  Cl  Cl15  1  0.483725  0.967451  0.750000  1
  Cl  Cl16  1  0.822286  0.644571  0.093324  1
  Cl  Cl17  1  0.177714  0.822286  0.593324  1
  Cl  Cl18  1  0.644571  0.822286  0.593324  1
  Cl  Cl19  1  0.355429  0.177714  0.093324  1
  Cl  Cl20  1  0.822286  0.177714  0.093324  1
  Cl  Cl21  1  0.177714  0.355429  0.906676  1
  Cl  Cl22  1  0.177714  0.822286  0.906676  1
  Cl  Cl23  1  0.177714  0.355429  0.593324  1
  Cl  Cl24  1  0.644571  0.822286  0.906676  1
  Cl  Cl25  1  0.355429  0.177714  0.406676  1
  Cl  Cl26  1  0.822286  0.644571  0.406676  1
  Cl  Cl27  1  0.822286  0.177714  0.406676  1
