# generated using pymatgen
data_CaZnInCu3
_symmetry_space_group_name_H-M   'P 1'
_cell_length_a   5.21209776
_cell_length_b   5.21209781
_cell_length_c   5.17604799
_cell_angle_alpha   59.76933741
_cell_angle_beta   59.76933524
_cell_angle_gamma   59.99999932
_symmetry_Int_Tables_number   1
_chemical_formula_structural   CaZnInCu3
_chemical_formula_sum   'Ca1 Zn1 In1 Cu3'
_cell_volume   99.07986681
_cell_formula_units_Z   1
loop_
 _symmetry_equiv_pos_site_id
 _symmetry_equiv_pos_as_xyz
  1  'x, y, z'
loop_
 _atom_site_type_symbol
 _atom_site_label
 _atom_site_symmetry_multiplicity
 _atom_site_fract_x
 _atom_site_fract_y
 _atom_site_fract_z
 _atom_site_occupancy
  Ca  Ca0  1  0.000792  0.000792  0.997624  1
  Zn  Zn1  1  0.624732  0.624732  0.125804  1
  In  In2  1  0.249664  0.249664  0.251008  1
  Cu  Cu3  1  0.126431  0.624190  0.625188  1
  Cu  Cu4  1  0.624190  0.126431  0.625188  1
  Cu  Cu5  1  0.624190  0.624190  0.625188  1
