# generated using pymatgen
data_Pr10Ga3Co2Te
_symmetry_space_group_name_H-M   'P 1'
_cell_length_a   8.13605344
_cell_length_b   8.87943496
_cell_length_c   12.60157900
_cell_angle_alpha   90.10271960
_cell_angle_beta   90.41013465
_cell_angle_gamma   89.91909272
_symmetry_Int_Tables_number   1
_chemical_formula_structural   Pr10Ga3Co2Te
_chemical_formula_sum   'Pr20 Ga6 Co4 Te2'
_cell_volume   910.35721787
_cell_formula_units_Z   2
loop_
 _symmetry_equiv_pos_site_id
 _symmetry_equiv_pos_as_xyz
  1  'x, y, z'
loop_
 _atom_site_type_symbol
 _atom_site_label
 _atom_site_symmetry_multiplicity
 _atom_site_fract_x
 _atom_site_fract_y
 _atom_site_fract_z
 _atom_site_occupancy
  Pr  Pr0  1  0.331175  0.754910  0.708904  1
  Pr  Pr1  1  0.668825  0.245090  0.291096  1
  Pr  Pr2  1  0.841692  0.244485  0.785004  1
  Pr  Pr3  1  0.158308  0.755515  0.214996  1
  Pr  Pr4  1  0.875540  0.760102  0.808622  1
  Pr  Pr5  1  0.124460  0.239898  0.191378  1
  Pr  Pr6  1  0.370243  0.248673  0.690142  1
  Pr  Pr7  1  0.629757  0.751327  0.309858  1
  Pr  Pr8  1  0.681198  0.535330  0.568982  1
  Pr  Pr9  1  0.318802  0.464670  0.431018  1
  Pr  Pr10  1  0.175101  0.468324  0.924269  1
  Pr  Pr11  1  0.320998  0.032297  0.423230  1
  Pr  Pr12  1  0.824899  0.531676  0.075731  1
  Pr  Pr13  1  0.679002  0.967703  0.576770  1
  Pr  Pr14  1  0.824878  0.954933  0.079928  1
  Pr  Pr15  1  0.175122  0.045067  0.920072  1
  Pr  Pr16  1  0.044382  0.750093  0.498832  1
  Pr  Pr17  1  0.955618  0.249907  0.501168  1
  Pr  Pr18  1  0.557447  0.232318  0.001550  1
  Pr  Pr19  1  0.442553  0.767682  0.998450  1
  Ga  Ga20  1  0.068218  0.491127  0.668387  1
  Ga  Ga21  1  0.436178  0.006681  0.175341  1
  Ga  Ga22  1  0.931782  0.508873  0.331613  1
  Ga  Ga23  1  0.563822  0.993319  0.824659  1
  Ga  Ga24  1  0.932998  0.990168  0.333243  1
  Ga  Ga25  1  0.067002  0.009832  0.666757  1
  Co  Co26  1  0.078224  0.750386  0.994955  1
  Co  Co27  1  0.921776  0.249614  0.005045  1
  Co  Co28  1  0.584525  0.253063  0.510470  1
  Co  Co29  1  0.415475  0.746937  0.489530  1
  Te  Te30  1  0.572443  0.510928  0.831022  1
  Te  Te31  1  0.427557  0.489072  0.168978  1
