# generated using pymatgen
data_HoTm4Sc3(Co4P3)4
_symmetry_space_group_name_H-M   'P 1'
_cell_length_a   12.22449800
_cell_length_b   12.22449779
_cell_length_c   3.71021200
_cell_angle_alpha   90.00000000
_cell_angle_beta   90.00000000
_cell_angle_gamma   120.00000597
_symmetry_Int_Tables_number   1
_chemical_formula_structural   HoTm4Sc3(Co4P3)4
_chemical_formula_sum   'Ho1 Tm4 Sc3 Co16 P12'
_cell_volume   480.16598525
_cell_formula_units_Z   1
loop_
 _symmetry_equiv_pos_site_id
 _symmetry_equiv_pos_as_xyz
  1  'x, y, z'
loop_
 _atom_site_type_symbol
 _atom_site_label
 _atom_site_symmetry_multiplicity
 _atom_site_fract_x
 _atom_site_fract_y
 _atom_site_fract_z
 _atom_site_occupancy
  Ho  Ho0  1  0.333333  0.666667  0.000000  1
  Tm  Tm1  1  0.666667  0.333333  0.000000  1
  Tm  Tm2  1  0.815840  0.815830  0.500000  1
  Tm  Tm3  1  0.184170  0.000010  0.500000  1
  Tm  Tm4  1  0.999990  0.184160  0.500000  1
  Sc  Sc5  1  0.440143  0.440009  0.000000  1
  Sc  Sc6  1  0.559991  0.000134  0.000000  1
  Sc  Sc7  1  0.999866  0.559857  0.000000  1
  Co  Co8  1  0.875189  0.355213  0.500000  1
  Co  Co9  1  0.644787  0.519976  0.500000  1
  Co  Co10  1  0.480024  0.124811  0.500000  1
  Co  Co11  1  0.355244  0.875703  0.500000  1
  Co  Co12  1  0.520459  0.644756  0.500000  1
  Co  Co13  1  0.124297  0.479541  0.500000  1
  Co  Co14  1  0.805315  0.179143  0.000000  1
  Co  Co15  1  0.820857  0.626171  0.000000  1
  Co  Co16  1  0.373829  0.194685  0.000000  1
  Co  Co17  1  0.178963  0.805420  0.000000  1
  Co  Co18  1  0.626457  0.821037  0.000000  1
  Co  Co19  1  0.194580  0.373543  0.000000  1
  Co  Co20  1  0.277962  0.277853  0.500000  1
  Co  Co21  1  0.722147  0.000109  0.500000  1
  Co  Co22  1  0.999891  0.722038  0.500000  1
  Co  Co23  1  0.000000  0.000000  0.000000  1
  P  P24  1  0.691997  0.171565  0.500000  1
  P  P25  1  0.828435  0.520432  0.500000  1
  P  P26  1  0.479568  0.308003  0.500000  1
  P  P27  1  0.171065  0.692135  0.500000  1
  P  P28  1  0.521070  0.828935  0.500000  1
  P  P29  1  0.307865  0.478930  0.500000  1
  P  P30  1  0.178501  0.178469  0.000000  1
  P  P31  1  0.821531  0.000032  0.000000  1
  P  P32  1  0.999968  0.821499  0.000000  1
  P  P33  1  0.645991  0.646027  0.000000  1
  P  P34  1  0.353973  0.999964  0.000000  1
  P  P35  1  0.000036  0.354009  0.000000  1
