# generated using pymatgen
data_Mg2Co3(ReB2)2
_symmetry_space_group_name_H-M   'P 1'
_cell_length_a   2.96906100
_cell_length_b   8.18234100
_cell_length_c   9.36079700
_cell_angle_alpha   90.00000000
_cell_angle_beta   90.00000000
_cell_angle_gamma   90.00000000
_symmetry_Int_Tables_number   1
_chemical_formula_structural   Mg2Co3(ReB2)2
_chemical_formula_sum   'Mg4 Co6 Re4 B8'
_cell_volume   227.40998122
_cell_formula_units_Z   2
loop_
 _symmetry_equiv_pos_site_id
 _symmetry_equiv_pos_as_xyz
  1  'x, y, z'
loop_
 _atom_site_type_symbol
 _atom_site_label
 _atom_site_symmetry_multiplicity
 _atom_site_fract_x
 _atom_site_fract_y
 _atom_site_fract_z
 _atom_site_occupancy
  Mg  Mg0  1  0.500000  0.660610  0.818727  1
  Mg  Mg1  1  0.500000  0.339390  0.181273  1
  Mg  Mg2  1  0.500000  0.160610  0.681273  1
  Mg  Mg3  1  0.500000  0.839390  0.318727  1
  Co  Co4  1  0.000000  0.407368  0.743875  1
  Co  Co5  1  0.000000  0.592632  0.256125  1
  Co  Co6  1  0.000000  0.907368  0.756125  1
  Co  Co7  1  0.000000  0.092632  0.243875  1
  Co  Co8  1  0.000000  0.000000  0.500000  1
  Co  Co9  1  0.000000  0.500000  0.000000  1
  Re  Re10  1  0.000000  0.665245  0.547062  1
  Re  Re11  1  0.000000  0.334755  0.452938  1
  Re  Re12  1  0.000000  0.165245  0.952938  1
  Re  Re13  1  0.000000  0.834755  0.047062  1
  B  B14  1  0.500000  0.863367  0.602027  1
  B  B15  1  0.500000  0.136633  0.397973  1
  B  B16  1  0.500000  0.363367  0.897973  1
  B  B17  1  0.500000  0.636633  0.102027  1
  B  B18  1  0.500000  0.964211  0.903508  1
  B  B19  1  0.500000  0.035789  0.096492  1
  B  B20  1  0.500000  0.464211  0.596492  1
  B  B21  1  0.500000  0.535789  0.403508  1
