# generated using pymatgen
data_LiYAlGa3
_symmetry_space_group_name_H-M   'P 1'
_cell_length_a   4.36737300
_cell_length_b   4.36737315
_cell_length_c   6.92069300
_cell_angle_alpha   90.00000000
_cell_angle_beta   90.00000000
_cell_angle_gamma   119.99997617
_symmetry_Int_Tables_number   1
_chemical_formula_structural   LiYAlGa3
_chemical_formula_sum   'Li1 Y1 Al1 Ga3'
_cell_volume   114.31965488
_cell_formula_units_Z   1
loop_
 _symmetry_equiv_pos_site_id
 _symmetry_equiv_pos_as_xyz
  1  'x, y, z'
loop_
 _atom_site_type_symbol
 _atom_site_label
 _atom_site_symmetry_multiplicity
 _atom_site_fract_x
 _atom_site_fract_y
 _atom_site_fract_z
 _atom_site_occupancy
  Li  Li0  1  0.000000  0.000000  0.502854  1
  Y  Y1  1  0.000000  0.000000  0.001449  1
  Al  Al2  1  0.333333  0.666667  0.305705  1
  Ga  Ga3  1  0.666667  0.333333  0.775035  1
  Ga  Ga4  1  0.333333  0.666667  0.691586  1
  Ga  Ga5  1  0.666667  0.333333  0.223372  1
