# generated using pymatgen
data_Ca7La8Ho5Si16
_symmetry_space_group_name_H-M   'P 1'
_cell_length_a   7.55339196
_cell_length_b   7.94735380
_cell_length_c   15.11866831
_cell_angle_alpha   89.96974705
_cell_angle_beta   90.09193290
_cell_angle_gamma   89.90787263
_symmetry_Int_Tables_number   1
_chemical_formula_structural   Ca7La8Ho5Si16
_chemical_formula_sum   'Ca7 La8 Ho5 Si16'
_cell_volume   907.56330202
_cell_formula_units_Z   1
loop_
 _symmetry_equiv_pos_site_id
 _symmetry_equiv_pos_as_xyz
  1  'x, y, z'
loop_
 _atom_site_type_symbol
 _atom_site_label
 _atom_site_symmetry_multiplicity
 _atom_site_fract_x
 _atom_site_fract_y
 _atom_site_fract_z
 _atom_site_occupancy
  Ca  Ca0  1  0.651377  0.992248  0.249608  1
  Ca  Ca1  1  0.149372  0.508482  0.249604  1
  Ca  Ca2  1  0.850297  0.493077  0.749863  1
  Ca  Ca3  1  0.350169  0.006761  0.749673  1
  Ca  Ca4  1  0.680213  0.820265  0.878382  1
  Ca  Ca5  1  0.180290  0.679878  0.620868  1
  Ca  Ca6  1  0.818553  0.321530  0.121920  1
  La  La7  1  0.975784  0.819585  0.098752  1
  La  La8  1  0.475989  0.680322  0.402544  1
  La  La9  1  0.524623  0.318511  0.902175  1
  La  La10  1  0.024691  0.180368  0.596929  1
  La  La11  1  0.025590  0.182643  0.900897  1
  La  La12  1  0.525556  0.317610  0.598861  1
  La  La13  1  0.474881  0.682369  0.099657  1
  La  La14  1  0.974542  0.817672  0.400803  1
  Ho  Ho15  1  0.320842  0.180750  0.377192  1
  Ho  Ho16  1  0.319950  0.179361  0.124447  1
  Ho  Ho17  1  0.819360  0.319662  0.376547  1
  Ho  Ho18  1  0.179726  0.679680  0.876070  1
  Ho  Ho19  1  0.679812  0.819864  0.622885  1
  Si  Si20  1  0.759966  0.614518  0.252643  1
  Si  Si21  1  0.264061  0.890129  0.250883  1
  Si  Si22  1  0.738809  0.115810  0.747399  1
  Si  Si23  1  0.239935  0.384523  0.752207  1
  Si  Si24  1  0.032387  0.105439  0.252681  1
  Si  Si25  1  0.526431  0.391608  0.253104  1
  Si  Si26  1  0.469573  0.604098  0.750455  1
  Si  Si27  1  0.969168  0.896466  0.749171  1
  Si  Si28  1  0.865254  0.528434  0.961239  1
  Si  Si29  1  0.360684  0.974604  0.535306  1
  Si  Si30  1  0.635070  0.028454  0.038652  1
  Si  Si31  1  0.140937  0.464980  0.460746  1
  Si  Si32  1  0.153043  0.468265  0.034396  1
  Si  Si33  1  0.648145  0.033392  0.463799  1
  Si  Si34  1  0.346656  0.967410  0.965974  1
  Si  Si35  1  0.848262  0.531231  0.533667  1
