# generated using pymatgen
data_NaCuBi2Ir2(RhO7)2
_symmetry_space_group_name_H-M   'P 1'
_cell_length_a   6.98967811
_cell_length_b   7.16270945
_cell_length_c   7.16751500
_cell_angle_alpha   60.02217219
_cell_angle_beta   59.14529065
_cell_angle_gamma   59.17766315
_symmetry_Int_Tables_number   1
_chemical_formula_structural   NaCuBi2Ir2(RhO7)2
_chemical_formula_sum   'Na1 Cu1 Bi2 Ir2 Rh2 O14'
_cell_volume   250.51666318
_cell_formula_units_Z   1
loop_
 _symmetry_equiv_pos_site_id
 _symmetry_equiv_pos_as_xyz
  1  'x, y, z'
loop_
 _atom_site_type_symbol
 _atom_site_label
 _atom_site_symmetry_multiplicity
 _atom_site_fract_x
 _atom_site_fract_y
 _atom_site_fract_z
 _atom_site_occupancy
  Na  Na0  1  0.125000  0.125000  0.625000  1
  Cu  Cu1  1  0.625000  0.125000  0.125000  1
  Bi  Bi2  1  0.125000  0.125000  0.125000  1
  Bi  Bi3  1  0.125000  0.625000  0.125000  1
  Ir  Ir4  1  0.625000  0.625000  0.625000  1
  Ir  Ir5  1  0.625000  0.125000  0.625000  1
  Rh  Rh6  1  0.625000  0.625000  0.125000  1
  Rh  Rh7  1  0.125000  0.625000  0.625000  1
  O  O8  1  0.294064  0.238292  0.229352  1
  O  O9  1  0.284030  0.714371  0.287229  1
  O  O10  1  0.964633  0.964404  0.532290  1
  O  O11  1  0.576808  0.943410  0.536373  1
  O  O12  1  0.705629  0.704262  0.295697  1
  O  O13  1  0.964633  0.538674  0.532290  1
  O  O14  1  0.673192  0.306590  0.713627  1
  O  O15  1  0.285367  0.285596  0.717710  1
  O  O16  1  0.705629  0.294412  0.295697  1
  O  O17  1  0.285367  0.711326  0.717710  1
  O  O18  1  0.965970  0.535629  0.962771  1
  O  O19  1  0.544371  0.545738  0.954303  1
  O  O20  1  0.955936  0.011708  0.020648  1
  O  O21  1  0.544371  0.955588  0.954303  1
