# generated using pymatgen
data_NpMoC2
_symmetry_space_group_name_H-M   'P 1'
_cell_length_a   3.22209100
_cell_length_b   5.66060100
_cell_length_c   10.94917800
_cell_angle_alpha   90.00000000
_cell_angle_beta   90.00000000
_cell_angle_gamma   90.00000000
_symmetry_Int_Tables_number   1
_chemical_formula_structural   NpMoC2
_chemical_formula_sum   'Np4 Mo4 C8'
_cell_volume   199.70174589
_cell_formula_units_Z   4
loop_
 _symmetry_equiv_pos_site_id
 _symmetry_equiv_pos_as_xyz
  1  'x, y, z'
loop_
 _atom_site_type_symbol
 _atom_site_label
 _atom_site_symmetry_multiplicity
 _atom_site_fract_x
 _atom_site_fract_y
 _atom_site_fract_z
 _atom_site_occupancy
  Np  Np0  1  0.250000  0.579961  0.858481  1
  Np  Np1  1  0.750000  0.420039  0.141519  1
  Np  Np2  1  0.750000  0.920039  0.358481  1
  Np  Np3  1  0.250000  0.079961  0.641519  1
  Mo  Mo4  1  0.250000  0.919023  0.102237  1
  Mo  Mo5  1  0.750000  0.080977  0.897763  1
  Mo  Mo6  1  0.750000  0.580977  0.602237  1
  Mo  Mo7  1  0.250000  0.419023  0.397763  1
  C  C8  1  0.250000  0.663057  0.244849  1
  C  C9  1  0.750000  0.336943  0.755151  1
  C  C10  1  0.750000  0.836943  0.744849  1
  C  C11  1  0.250000  0.163057  0.255151  1
  C  C12  1  0.250000  0.749616  0.507703  1
  C  C13  1  0.750000  0.250384  0.492297  1
  C  C14  1  0.750000  0.750384  0.007703  1
  C  C15  1  0.250000  0.249616  0.992297  1
