# generated using pymatgen
data_Er5Lu(Zr2Sn3)2
_symmetry_space_group_name_H-M   'P 1'
_cell_length_a   8.77527291
_cell_length_b   8.78529692
_cell_length_c   6.09293700
_cell_angle_alpha   90.00000000
_cell_angle_beta   90.00000000
_cell_angle_gamma   120.03780179
_symmetry_Int_Tables_number   1
_chemical_formula_structural   Er5Lu(Zr2Sn3)2
_chemical_formula_sum   'Er5 Lu1 Zr4 Sn6'
_cell_volume   406.63882284
_cell_formula_units_Z   1
loop_
 _symmetry_equiv_pos_site_id
 _symmetry_equiv_pos_as_xyz
  1  'x, y, z'
loop_
 _atom_site_type_symbol
 _atom_site_label
 _atom_site_symmetry_multiplicity
 _atom_site_fract_x
 _atom_site_fract_y
 _atom_site_fract_z
 _atom_site_occupancy
  Er  Er0  1  0.760149  0.759928  0.750000  1
  Er  Er1  1  0.239851  0.999779  0.750000  1
  Er  Er2  1  0.000000  0.240290  0.750000  1
  Er  Er3  1  0.239964  0.239859  0.250000  1
  Er  Er4  1  0.760036  0.999895  0.250000  1
  Lu  Lu5  1  0.000000  0.759861  0.250000  1
  Zr  Zr6  1  0.666584  0.333320  0.999997  1
  Zr  Zr7  1  0.333416  0.666737  0.999997  1
  Zr  Zr8  1  0.333416  0.666737  0.500003  1
  Zr  Zr9  1  0.666584  0.333320  0.500003  1
  Sn  Sn10  1  0.399234  0.399310  0.750000  1
  Sn  Sn11  1  0.600766  0.000076  0.750000  1
  Sn  Sn12  1  0.000000  0.600778  0.750000  1
  Sn  Sn13  1  0.601265  0.600883  0.250000  1
  Sn  Sn14  1  0.398735  0.999618  0.250000  1
  Sn  Sn15  1  0.000000  0.399610  0.250000  1
