# generated using pymatgen
data_Ti2Mn3InRh6
_symmetry_space_group_name_H-M   'P 1'
_cell_length_a   4.41656005
_cell_length_b   6.16873800
_cell_length_c   13.18102413
_cell_angle_alpha   90.00000000
_cell_angle_beta   89.98363774
_cell_angle_gamma   90.00000000
_symmetry_Int_Tables_number   1
_chemical_formula_structural   Ti2Mn3InRh6
_chemical_formula_sum   'Ti4 Mn6 In2 Rh12'
_cell_volume   359.11173894
_cell_formula_units_Z   2
loop_
 _symmetry_equiv_pos_site_id
 _symmetry_equiv_pos_as_xyz
  1  'x, y, z'
loop_
 _atom_site_type_symbol
 _atom_site_label
 _atom_site_symmetry_multiplicity
 _atom_site_fract_x
 _atom_site_fract_y
 _atom_site_fract_z
 _atom_site_occupancy
  Ti  Ti0  1  0.000145  0.500000  0.336042  1
  Ti  Ti1  1  0.500074  0.000000  0.500057  1
  Ti  Ti2  1  0.999918  0.500000  0.666677  1
  Ti  Ti3  1  0.499903  0.000000  0.830366  1
  Mn  Mn4  1  0.999355  0.000000  0.000958  1
  Mn  Mn5  1  0.499812  0.500000  0.165726  1
  Mn  Mn6  1  0.000617  0.000000  0.336440  1
  Mn  Mn7  1  0.500222  0.500000  0.500982  1
  Mn  Mn8  1  0.999982  0.000000  0.665460  1
  Mn  Mn9  1  0.500187  0.500000  0.830521  1
  In  In10  1  0.999555  0.500000  0.001553  1
  In  In11  1  0.500375  0.000000  0.165174  1
  Rh  Rh12  1  0.499286  0.241385  0.989251  1
  Rh  Rh13  1  0.499286  0.758616  0.989251  1
  Rh  Rh14  1  0.000355  0.258475  0.177562  1
  Rh  Rh15  1  0.000355  0.741525  0.177562  1
  Rh  Rh16  1  0.500214  0.254131  0.340252  1
  Rh  Rh17  1  0.500214  0.745868  0.340252  1
  Rh  Rh18  1  0.000230  0.249668  0.502095  1
  Rh  Rh19  1  0.000230  0.750332  0.502095  1
  Rh  Rh20  1  0.499858  0.250746  0.664466  1
  Rh  Rh21  1  0.499858  0.749253  0.664466  1
  Rh  Rh22  1  0.999980  0.245861  0.826395  1
  Rh  Rh23  1  0.999980  0.754139  0.826395  1
