# generated using pymatgen
data_Na8Li4Sc3Fe(Si2O5)12
_symmetry_space_group_name_H-M   'P 1'
_cell_length_a   11.30659400
_cell_length_b   11.30659437
_cell_length_c   10.21743900
_cell_angle_alpha   90.00000000
_cell_angle_beta   90.00000000
_cell_angle_gamma   101.77021440
_symmetry_Int_Tables_number   1
_chemical_formula_structural   Na8Li4Sc3Fe(Si2O5)12
_chemical_formula_sum   'Na8 Li4 Sc3 Fe1 Si24 O60'
_cell_volume   1278.72344541
_cell_formula_units_Z   1
loop_
 _symmetry_equiv_pos_site_id
 _symmetry_equiv_pos_as_xyz
  1  'x, y, z'
loop_
 _atom_site_type_symbol
 _atom_site_label
 _atom_site_symmetry_multiplicity
 _atom_site_fract_x
 _atom_site_fract_y
 _atom_site_fract_z
 _atom_site_occupancy
  Na  Na0  1  0.082809  0.914182  0.252034  1
  Na  Na1  1  0.415498  0.584356  0.752089  1
  Na  Na2  1  0.915644  0.084502  0.747911  1
  Na  Na3  1  0.585818  0.417191  0.247966  1
  Na  Na4  1  0.527920  0.972080  0.250000  1
  Na  Na5  1  0.971924  0.528076  0.750000  1
  Na  Na6  1  0.472085  0.027915  0.750000  1
  Na  Na7  1  0.026288  0.473712  0.250000  1
  Li  Li8  1  0.748246  0.746904  0.001960  1
  Li  Li9  1  0.247652  0.247764  0.499997  1
  Li  Li10  1  0.252236  0.252348  0.000003  1
  Li  Li11  1  0.753096  0.751754  0.498040  1
  Sc  Sc12  1  0.337046  0.162954  0.250000  1
  Sc  Sc13  1  0.162876  0.337124  0.750000  1
  Sc  Sc14  1  0.663109  0.836891  0.750000  1
  Fe  Fe15  1  0.836168  0.663832  0.250000  1
  Si  Si16  1  0.758130  0.018814  0.015964  1
  Si  Si17  1  0.541385  0.686455  0.190795  1
  Si  Si18  1  0.813545  0.958615  0.309205  1
  Si  Si19  1  0.686910  0.539361  0.808639  1
  Si  Si20  1  0.038526  0.185239  0.310638  1
  Si  Si21  1  0.461776  0.313693  0.809818  1
  Si  Si22  1  0.186307  0.038224  0.690182  1
  Si  Si23  1  0.314761  0.461474  0.189362  1
  Si  Si24  1  0.017180  0.756732  0.986817  1
  Si  Si25  1  0.481186  0.741870  0.484036  1
  Si  Si26  1  0.960639  0.813090  0.691361  1
  Si  Si27  1  0.743268  0.482820  0.513183  1
  Si  Si28  1  0.981079  0.242947  0.017038  1
  Si  Si29  1  0.519606  0.258550  0.515387  1
  Si  Si30  1  0.803822  0.423127  0.042235  1
  Si  Si31  1  0.257053  0.518921  0.482962  1
  Si  Si32  1  0.196329  0.580190  0.959089  1
  Si  Si33  1  0.302780  0.918912  0.458454  1
  Si  Si34  1  0.581088  0.197220  0.041546  1
  Si  Si35  1  0.919810  0.303671  0.540911  1
  Si  Si36  1  0.076873  0.696178  0.457765  1
  Si  Si37  1  0.420498  0.803529  0.959689  1
  Si  Si38  1  0.696471  0.079502  0.540311  1
  Si  Si39  1  0.241450  0.980394  0.984613  1
  O  O40  1  0.912066  0.355587  0.996203  1
  O  O41  1  0.555450  0.445343  0.810430  1
  O  O42  1  0.054657  0.944550  0.689570  1
  O  O43  1  0.446976  0.554955  0.188288  1
  O  O44  1  0.677943  0.324291  0.069513  1
  O  O45  1  0.175709  0.822057  0.430487  1
  O  O46  1  0.323187  0.677078  0.932263  1
  O  O47  1  0.822922  0.176813  0.567737  1
  O  O48  1  0.885011  0.115744  0.987713  1
  O  O49  1  0.615333  0.386442  0.486646  1
  O  O50  1  0.113558  0.884667  0.013354  1
  O  O51  1  0.384256  0.614989  0.512287  1
  O  O52  1  0.661681  0.007307  0.673434  1
  O  O53  1  0.836619  0.498631  0.174152  1
  O  O54  1  0.001369  0.663381  0.325848  1
  O  O55  1  0.492693  0.838319  0.826566  1
  O  O56  1  0.337679  0.991966  0.325983  1
  O  O57  1  0.162066  0.507997  0.825945  1
  O  O58  1  0.992003  0.337934  0.674055  1
  O  O59  1  0.508034  0.162321  0.174017  1
  O  O60  1  0.281861  0.000380  0.585679  1
  O  O61  1  0.218037  0.498576  0.085705  1
  O  O62  1  0.001424  0.281963  0.414295  1
  O  O63  1  0.499620  0.218139  0.914321  1
  O  O64  1  0.252651  0.022578  0.830533  1
  O  O65  1  0.783443  0.501211  0.911980  1
  O  O66  1  0.998789  0.716557  0.588020  1
  O  O67  1  0.503955  0.781754  0.085209  1
  O  O68  1  0.663468  0.670229  0.841906  1
  O  O69  1  0.836303  0.826255  0.337734  1
  O  O70  1  0.673745  0.663697  0.162266  1
  O  O71  1  0.829771  0.836532  0.658094  1
  O  O72  1  0.337259  0.329840  0.158306  1
  O  O73  1  0.163483  0.169830  0.659222  1
  O  O74  1  0.330170  0.336517  0.840778  1
  O  O75  1  0.170160  0.162741  0.341694  1
  O  O76  1  0.647120  0.089234  0.991785  1
  O  O77  1  0.853876  0.411589  0.491018  1
  O  O78  1  0.088411  0.646124  0.008982  1
  O  O79  1  0.410766  0.852880  0.508215  1
  O  O80  1  0.352776  0.910264  0.009685  1
  O  O81  1  0.144413  0.587934  0.503797  1
  O  O82  1  0.945045  0.053024  0.311712  1
  O  O83  1  0.589736  0.147224  0.490315  1
  O  O84  1  0.407316  0.253225  0.420133  1
  O  O85  1  0.092457  0.248340  0.920440  1
  O  O86  1  0.251660  0.407543  0.579560  1
  O  O87  1  0.246775  0.092684  0.079867  1
  O  O88  1  0.592952  0.746116  0.579926  1
  O  O89  1  0.906296  0.750140  0.085056  1
  O  O90  1  0.749860  0.593704  0.414944  1
  O  O91  1  0.753884  0.907048  0.920074  1
  O  O92  1  0.523881  0.753067  0.330225  1
  O  O93  1  0.973642  0.747550  0.832908  1
  O  O94  1  0.752450  0.526358  0.667092  1
  O  O95  1  0.746933  0.976119  0.169775  1
  O  O96  1  0.477422  0.247349  0.669467  1
  O  O97  1  0.023588  0.251746  0.170618  1
  O  O98  1  0.248254  0.476412  0.329382  1
  O  O99  1  0.718246  0.996045  0.414791  1
