# generated using pymatgen
data_YbPr3Al8
_symmetry_space_group_name_H-M   'P 1'
_cell_length_a   9.80843759
_cell_length_b   9.80843714
_cell_length_c   9.80843914
_cell_angle_alpha   33.77720063
_cell_angle_beta   33.77720416
_cell_angle_gamma   33.77720184
_symmetry_Int_Tables_number   1
_chemical_formula_structural   YbPr3Al8
_chemical_formula_sum   'Yb1 Pr3 Al8'
_cell_volume   259.89311970
_cell_formula_units_Z   1
loop_
 _symmetry_equiv_pos_site_id
 _symmetry_equiv_pos_as_xyz
  1  'x, y, z'
loop_
 _atom_site_type_symbol
 _atom_site_label
 _atom_site_symmetry_multiplicity
 _atom_site_fract_x
 _atom_site_fract_y
 _atom_site_fract_z
 _atom_site_occupancy
  Yb  Yb0  1  0.062616  0.062616  0.062616  1
  Pr  Pr1  1  0.562977  0.562977  0.562977  1
  Pr  Pr2  1  0.435237  0.435237  0.435237  1
  Pr  Pr3  1  0.939419  0.939419  0.939419  1
  Al  Al4  1  0.749653  0.749653  0.749653  1
  Al  Al5  1  0.250314  0.250314  0.250314  1
  Al  Al6  1  0.998290  0.499748  0.499748  1
  Al  Al7  1  0.501475  0.000261  0.000261  1
  Al  Al8  1  0.499748  0.998290  0.499748  1
  Al  Al9  1  0.000261  0.501475  0.000261  1
  Al  Al10  1  0.499748  0.499748  0.998290  1
  Al  Al11  1  0.000261  0.000261  0.501475  1
