# generated using pymatgen
data_Sc9PaRe3As
_symmetry_space_group_name_H-M   'P 1'
_cell_length_a   8.86597508
_cell_length_b   8.86611005
_cell_length_c   8.60681200
_cell_angle_alpha   90.00000000
_cell_angle_beta   90.00000000
_cell_angle_gamma   119.99409759
_symmetry_Int_Tables_number   1
_chemical_formula_structural   Sc9PaRe3As
_chemical_formula_sum   'Sc18 Pa2 Re6 As2'
_cell_volume   585.94708706
_cell_formula_units_Z   2
loop_
 _symmetry_equiv_pos_site_id
 _symmetry_equiv_pos_as_xyz
  1  'x, y, z'
loop_
 _atom_site_type_symbol
 _atom_site_label
 _atom_site_symmetry_multiplicity
 _atom_site_fract_x
 _atom_site_fract_y
 _atom_site_fract_z
 _atom_site_occupancy
  Sc  Sc0  1  0.798664  0.597352  0.544053  1
  Sc  Sc1  1  0.798619  0.201375  0.544057  1
  Sc  Sc2  1  0.402661  0.201340  0.544042  1
  Sc  Sc3  1  0.201336  0.402648  0.455947  1
  Sc  Sc4  1  0.201381  0.798625  0.455943  1
  Sc  Sc5  1  0.597339  0.798660  0.455958  1
  Sc  Sc6  1  0.201336  0.402648  0.044053  1
  Sc  Sc7  1  0.201381  0.798625  0.044057  1
  Sc  Sc8  1  0.597339  0.798660  0.044042  1
  Sc  Sc9  1  0.798664  0.597352  0.955947  1
  Sc  Sc10  1  0.798619  0.201375  0.955943  1
  Sc  Sc11  1  0.402661  0.201340  0.955958  1
  Sc  Sc12  1  0.460796  0.921577  0.750000  1
  Sc  Sc13  1  0.460780  0.539225  0.750000  1
  Sc  Sc14  1  0.078418  0.539205  0.750000  1
  Sc  Sc15  1  0.539204  0.078423  0.250000  1
  Sc  Sc16  1  0.539220  0.460775  0.250000  1
  Sc  Sc17  1  0.921582  0.460795  0.250000  1
  Pa  Pa18  1  0.000000  0.000000  0.500000  1
  Pa  Pa19  1  0.000000  0.000000  0.000000  1
  Re  Re20  1  0.111125  0.222261  0.750000  1
  Re  Re21  1  0.111193  0.888750  0.750000  1
  Re  Re22  1  0.777662  0.888795  0.750000  1
  Re  Re23  1  0.888875  0.777739  0.250000  1
  Re  Re24  1  0.888807  0.111250  0.250000  1
  Re  Re25  1  0.222338  0.111205  0.250000  1
  As  As26  1  0.666626  0.333400  0.750000  1
  As  As27  1  0.333374  0.666600  0.250000  1
