# generated using pymatgen
data_TaTi4ZnSn3
_symmetry_space_group_name_H-M   'P 1'
_cell_length_a   8.24789700
_cell_length_b   8.24789696
_cell_length_c   5.58406700
_cell_angle_alpha   90.00000000
_cell_angle_beta   90.00000000
_cell_angle_gamma   120.00000415
_symmetry_Int_Tables_number   1
_chemical_formula_structural   TaTi4ZnSn3
_chemical_formula_sum   'Ta2 Ti8 Zn2 Sn6'
_cell_volume   328.97863159
_cell_formula_units_Z   2
loop_
 _symmetry_equiv_pos_site_id
 _symmetry_equiv_pos_as_xyz
  1  'x, y, z'
loop_
 _atom_site_type_symbol
 _atom_site_label
 _atom_site_symmetry_multiplicity
 _atom_site_fract_x
 _atom_site_fract_y
 _atom_site_fract_z
 _atom_site_occupancy
  Ta  Ta0  1  0.333333  0.666667  0.500000  1
  Ta  Ta1  1  0.666667  0.333333  0.500000  1
  Ti  Ti2  1  0.273056  0.000000  0.740279  1
  Ti  Ti3  1  0.726944  0.000000  0.259721  1
  Ti  Ti4  1  0.000000  0.273056  0.740279  1
  Ti  Ti5  1  0.000000  0.726944  0.259721  1
  Ti  Ti6  1  0.726944  0.726944  0.740279  1
  Ti  Ti7  1  0.273056  0.273056  0.259721  1
  Ti  Ti8  1  0.666667  0.333333  0.000000  1
  Ti  Ti9  1  0.333333  0.666667  0.000000  1
  Zn  Zn10  1  0.000000  0.000000  0.500000  1
  Zn  Zn11  1  0.000000  0.000000  0.000000  1
  Sn  Sn12  1  0.618032  0.000000  0.756351  1
  Sn  Sn13  1  0.381968  0.000000  0.243649  1
  Sn  Sn14  1  0.000000  0.618032  0.756351  1
  Sn  Sn15  1  0.000000  0.381968  0.243649  1
  Sn  Sn16  1  0.381968  0.381968  0.756351  1
  Sn  Sn17  1  0.618032  0.618032  0.243649  1
