# generated using pymatgen
data_HoTh(HgRh)2
_symmetry_space_group_name_H-M   'P 1'
_cell_length_a   3.90307700
_cell_length_b   7.41667921
_cell_length_c   9.15349220
_cell_angle_alpha   93.20287570
_cell_angle_beta   90.00000000
_cell_angle_gamma   90.00000000
_symmetry_Int_Tables_number   1
_chemical_formula_structural   HoTh(HgRh)2
_chemical_formula_sum   'Ho2 Th2 Hg4 Rh4'
_cell_volume   264.56020287
_cell_formula_units_Z   2
loop_
 _symmetry_equiv_pos_site_id
 _symmetry_equiv_pos_as_xyz
  1  'x, y, z'
loop_
 _atom_site_type_symbol
 _atom_site_label
 _atom_site_symmetry_multiplicity
 _atom_site_fract_x
 _atom_site_fract_y
 _atom_site_fract_z
 _atom_site_occupancy
  Ho  Ho0  1  0.250000  0.049161  0.316888  1
  Ho  Ho1  1  0.750000  0.950839  0.683112  1
  Th  Th2  1  0.250000  0.545166  0.193316  1
  Th  Th3  1  0.750000  0.454834  0.806684  1
  Hg  Hg4  1  0.250000  0.128556  0.934782  1
  Hg  Hg5  1  0.750000  0.871444  0.065218  1
  Hg  Hg6  1  0.250000  0.651025  0.558468  1
  Hg  Hg7  1  0.750000  0.348975  0.441532  1
  Rh  Rh8  1  0.750000  0.764605  0.353053  1
  Rh  Rh9  1  0.250000  0.235395  0.646947  1
  Rh  Rh10  1  0.750000  0.284021  0.135521  1
  Rh  Rh11  1  0.250000  0.715979  0.864479  1
