# generated using pymatgen
data_TcH8
_symmetry_space_group_name_H-M   'P 1'
_cell_length_a   3.21103967
_cell_length_b   3.20233588
_cell_length_c   9.04287544
_cell_angle_alpha   86.62368455
_cell_angle_beta   79.67865454
_cell_angle_gamma   120.34184722
_symmetry_Int_Tables_number   1
_chemical_formula_structural   TcH8
_chemical_formula_sum   'Tc1 H8'
_cell_volume   77.71925208
_cell_formula_units_Z   1
loop_
 _symmetry_equiv_pos_site_id
 _symmetry_equiv_pos_as_xyz
  1  'x, y, z'
loop_
 _atom_site_type_symbol
 _atom_site_label
 _atom_site_symmetry_multiplicity
 _atom_site_fract_x
 _atom_site_fract_y
 _atom_site_fract_z
 _atom_site_occupancy
  Tc  Tc0  1  0.454582  0.143858  0.547163  1
  H  H1  1  0.740432  0.259475  0.352389  1
  H  H2  1  0.535288  0.664748  0.003575  1
  H  H3  1  0.776967  0.826314  0.594501  1
  H  H4  1  0.447923  0.231160  0.355144  1
  H  H5  1  0.365121  0.162731  0.743851  1
  H  H6  1  0.398643  0.685213  0.076406  1
  H  H7  1  0.209792  0.843172  0.735402  1
  H  H8  1  0.189346  0.539938  0.497648  1
