# generated using pymatgen
data_NdEr4In2(HgPd)2
_symmetry_space_group_name_H-M   'P 1'
_cell_length_a   3.62587700
_cell_length_b   8.02202800
_cell_length_c   18.40688900
_cell_angle_alpha   90.00000000
_cell_angle_beta   90.00000000
_cell_angle_gamma   90.00000000
_symmetry_Int_Tables_number   1
_chemical_formula_structural   NdEr4In2(HgPd)2
_chemical_formula_sum   'Nd2 Er8 In4 Hg4 Pd4'
_cell_volume   535.39909702
_cell_formula_units_Z   2
loop_
 _symmetry_equiv_pos_site_id
 _symmetry_equiv_pos_as_xyz
  1  'x, y, z'
loop_
 _atom_site_type_symbol
 _atom_site_label
 _atom_site_symmetry_multiplicity
 _atom_site_fract_x
 _atom_site_fract_y
 _atom_site_fract_z
 _atom_site_occupancy
  Nd  Nd0  1  0.000000  0.500000  0.500000  1
  Nd  Nd1  1  0.000000  0.000000  0.000000  1
  Er  Er2  1  0.000000  0.744690  0.285164  1
  Er  Er3  1  0.000000  0.255310  0.714836  1
  Er  Er4  1  0.000000  0.755310  0.785164  1
  Er  Er5  1  0.000000  0.244690  0.214836  1
  Er  Er6  1  0.000000  0.612890  0.084355  1
  Er  Er7  1  0.000000  0.387110  0.915645  1
  Er  Er8  1  0.000000  0.887110  0.584355  1
  Er  Er9  1  0.000000  0.112890  0.415645  1
  In  In10  1  0.500000  0.582344  0.652870  1
  In  In11  1  0.500000  0.417656  0.347130  1
  In  In12  1  0.500000  0.917656  0.152870  1
  In  In13  1  0.500000  0.082344  0.847130  1
  Hg  Hg14  1  0.500000  0.703335  0.931947  1
  Hg  Hg15  1  0.500000  0.296665  0.068053  1
  Hg  Hg16  1  0.500000  0.796665  0.431947  1
  Hg  Hg17  1  0.500000  0.203335  0.568053  1
  Pd  Pd18  1  0.500000  0.533985  0.197581  1
  Pd  Pd19  1  0.500000  0.466015  0.802419  1
  Pd  Pd20  1  0.500000  0.966015  0.697581  1
  Pd  Pd21  1  0.500000  0.033985  0.302419  1
