# generated using pymatgen
data_Mg2ZnB2PtRh4
_symmetry_space_group_name_H-M   'P 1'
_cell_length_a   9.49222702
_cell_length_b   2.93753800
_cell_length_c   9.47210902
_cell_angle_alpha   90.00000000
_cell_angle_beta   90.00782504
_cell_angle_gamma   90.00000000
_symmetry_Int_Tables_number   1
_chemical_formula_structural   Mg2ZnB2PtRh4
_chemical_formula_sum   'Mg4 Zn2 B4 Pt2 Rh8'
_cell_volume   264.11817874
_cell_formula_units_Z   2
loop_
 _symmetry_equiv_pos_site_id
 _symmetry_equiv_pos_as_xyz
  1  'x, y, z'
loop_
 _atom_site_type_symbol
 _atom_site_label
 _atom_site_symmetry_multiplicity
 _atom_site_fract_x
 _atom_site_fract_y
 _atom_site_fract_z
 _atom_site_occupancy
  Mg  Mg0  1  0.329239  0.000000  0.175302  1
  Mg  Mg1  1  0.819586  0.000000  0.330098  1
  Mg  Mg2  1  0.174031  0.000000  0.678314  1
  Mg  Mg3  1  0.672617  0.000000  0.816608  1
  Zn  Zn4  1  0.003548  0.000000  0.994802  1
  Zn  Zn5  1  0.500862  0.000000  0.500895  1
  B  B6  1  0.617954  0.000000  0.128745  1
  B  B7  1  0.129609  0.000000  0.383504  1
  B  B8  1  0.870809  0.000000  0.627230  1
  B  B9  1  0.373080  0.000000  0.870595  1
  Pt  Pt10  1  0.785695  0.500000  0.071096  1
  Pt  Pt11  1  0.072390  0.500000  0.215354  1
  Rh  Rh12  1  0.503492  0.500000  0.997668  1
  Rh  Rh13  1  0.571660  0.500000  0.283903  1
  Rh  Rh14  1  0.285030  0.500000  0.427991  1
  Rh  Rh15  1  0.000294  0.500000  0.499612  1
  Rh  Rh16  1  0.716848  0.500000  0.568808  1
  Rh  Rh17  1  0.427022  0.500000  0.715788  1
  Rh  Rh18  1  0.926647  0.500000  0.782489  1
  Rh  Rh19  1  0.219589  0.500000  0.931199  1
