# generated using pymatgen
data_Ta10Al2Si3Ge
_symmetry_space_group_name_H-M   'P 1'
_cell_length_a   7.63667169
_cell_length_b   7.63667127
_cell_length_c   7.62863739
_cell_angle_alpha   128.35074731
_cell_angle_beta   128.35073427
_cell_angle_gamma   76.13458279
_symmetry_Int_Tables_number   1
_chemical_formula_structural   Ta10Al2Si3Ge
_chemical_formula_sum   'Ta10 Al2 Si3 Ge1'
_cell_volume   265.86372824
_cell_formula_units_Z   1
loop_
 _symmetry_equiv_pos_site_id
 _symmetry_equiv_pos_as_xyz
  1  'x, y, z'
loop_
 _atom_site_type_symbol
 _atom_site_label
 _atom_site_symmetry_multiplicity
 _atom_site_fract_x
 _atom_site_fract_y
 _atom_site_fract_z
 _atom_site_occupancy
  Ta  Ta0  1  0.009575  0.188680  0.500000  1
  Ta  Ta1  1  0.687510  0.515180  0.500000  1
  Ta  Ta2  1  0.517049  0.013273  0.830090  1
  Ta  Ta3  1  0.186958  0.683182  0.169910  1
  Ta  Ta4  1  0.984820  0.812490  0.500000  1
  Ta  Ta5  1  0.311320  0.490425  0.500000  1
  Ta  Ta6  1  0.486727  0.982951  0.169910  1
  Ta  Ta7  1  0.816818  0.313042  0.830090  1
  Ta  Ta8  1  0.997288  0.999094  0.996382  1
  Ta  Ta9  1  0.500906  0.502712  0.003618  1
  Al  Al10  1  0.751027  0.748973  0.000000  1
  Al  Al11  1  0.251027  0.248973  0.000000  1
  Si  Si12  1  0.631480  0.868520  0.500000  1
  Si  Si13  1  0.869686  0.369612  0.239299  1
  Si  Si14  1  0.130388  0.630314  0.760701  1
  Ge  Ge15  1  0.367421  0.132579  0.500000  1
