# generated using pymatgen
data_La2Zn6Si2Ge
_symmetry_space_group_name_H-M   'P 1'
_cell_length_a   7.65624562
_cell_length_b   7.66487025
_cell_length_c   4.12207600
_cell_angle_alpha   90.00000000
_cell_angle_beta   90.00000000
_cell_angle_gamma   120.03725831
_symmetry_Int_Tables_number   1
_chemical_formula_structural   La2Zn6Si2Ge
_chemical_formula_sum   'La2 Zn6 Si2 Ge1'
_cell_volume   209.41323111
_cell_formula_units_Z   1
loop_
 _symmetry_equiv_pos_site_id
 _symmetry_equiv_pos_as_xyz
  1  'x, y, z'
loop_
 _atom_site_type_symbol
 _atom_site_label
 _atom_site_symmetry_multiplicity
 _atom_site_fract_x
 _atom_site_fract_y
 _atom_site_fract_z
 _atom_site_occupancy
  La  La0  1  0.664786  0.332995  0.000000  1
  La  La1  1  0.335214  0.668210  0.000000  1
  Zn  Zn2  1  0.703752  0.995898  0.500000  1
  Zn  Zn3  1  0.000000  0.714449  0.500000  1
  Zn  Zn4  1  0.191560  0.999136  0.000000  1
  Zn  Zn5  1  0.808440  0.807576  0.000000  1
  Zn  Zn6  1  0.296248  0.292146  0.500000  1
  Zn  Zn7  1  0.000000  0.187020  0.000000  1
  Si  Si8  1  0.375698  0.999910  0.500000  1
  Si  Si9  1  0.624302  0.624212  0.500000  1
  Ge  Ge10  1  0.000000  0.378446  0.500000  1
