# generated using pymatgen
data_CaNd8ErIr6
_symmetry_space_group_name_H-M   'P 1'
_cell_length_a   11.23395600
_cell_length_b   11.23395600
_cell_length_c   6.51412300
_cell_angle_alpha   90.00000000
_cell_angle_beta   90.00000000
_cell_angle_gamma   90.00000000
_symmetry_Int_Tables_number   1
_chemical_formula_structural   CaNd8ErIr6
_chemical_formula_sum   'Ca2 Nd16 Er2 Ir12'
_cell_volume   822.09383573
_cell_formula_units_Z   2
loop_
 _symmetry_equiv_pos_site_id
 _symmetry_equiv_pos_as_xyz
  1  'x, y, z'
loop_
 _atom_site_type_symbol
 _atom_site_label
 _atom_site_symmetry_multiplicity
 _atom_site_fract_x
 _atom_site_fract_y
 _atom_site_fract_z
 _atom_site_occupancy
  Ca  Ca0  1  0.000000  0.000000  0.500000  1
  Ca  Ca1  1  0.000000  0.000000  0.000000  1
  Nd  Nd2  1  0.289573  0.087601  0.384938  1
  Nd  Nd3  1  0.289573  0.912399  0.884938  1
  Nd  Nd4  1  0.710427  0.087601  0.884938  1
  Nd  Nd5  1  0.710427  0.912399  0.384938  1
  Nd  Nd6  1  0.587824  0.788616  0.884312  1
  Nd  Nd7  1  0.587824  0.211384  0.384312  1
  Nd  Nd8  1  0.412176  0.788616  0.384312  1
  Nd  Nd9  1  0.412176  0.211384  0.884312  1
  Nd  Nd10  1  0.211384  0.412176  0.615688  1
  Nd  Nd11  1  0.211384  0.587824  0.115688  1
  Nd  Nd12  1  0.788616  0.412176  0.115688  1
  Nd  Nd13  1  0.788616  0.587824  0.615688  1
  Nd  Nd14  1  0.912399  0.710427  0.115062  1
  Nd  Nd15  1  0.912399  0.289573  0.615062  1
  Nd  Nd16  1  0.087601  0.710427  0.615062  1
  Nd  Nd17  1  0.087601  0.289573  0.115062  1
  Er  Er18  1  0.500000  0.500000  0.000000  1
  Er  Er19  1  0.500000  0.500000  0.500000  1
  Ir  Ir20  1  0.840529  0.159471  0.250000  1
  Ir  Ir21  1  0.840529  0.840529  0.750000  1
  Ir  Ir22  1  0.159471  0.159471  0.750000  1
  Ir  Ir23  1  0.159471  0.840529  0.250000  1
  Ir  Ir24  1  0.647624  0.352376  0.750000  1
  Ir  Ir25  1  0.647624  0.647624  0.250000  1
  Ir  Ir26  1  0.352376  0.352376  0.250000  1
  Ir  Ir27  1  0.352376  0.647624  0.750000  1
  Ir  Ir28  1  0.500000  0.000000  0.117104  1
  Ir  Ir29  1  0.500000  0.000000  0.617104  1
  Ir  Ir30  1  0.000000  0.500000  0.882896  1
  Ir  Ir31  1  0.000000  0.500000  0.382896  1
