# generated using pymatgen
data_Yb2PN3
_symmetry_space_group_name_H-M   'P 1'
_cell_length_a   5.71724585
_cell_length_b   5.71724620
_cell_length_c   11.20215000
_cell_angle_alpha   90.00000000
_cell_angle_beta   90.00000000
_cell_angle_gamma   126.32300900
_symmetry_Int_Tables_number   1
_chemical_formula_structural   Yb2PN3
_chemical_formula_sum   'Yb8 P4 N12'
_cell_volume   295.01450897
_cell_formula_units_Z   4
loop_
 _symmetry_equiv_pos_site_id
 _symmetry_equiv_pos_as_xyz
  1  'x, y, z'
loop_
 _atom_site_type_symbol
 _atom_site_label
 _atom_site_symmetry_multiplicity
 _atom_site_fract_x
 _atom_site_fract_y
 _atom_site_fract_z
 _atom_site_occupancy
  Yb  Yb0  1  0.362000  0.638000  0.074836  1
  Yb  Yb1  1  0.862000  0.138000  0.425164  1
  Yb  Yb2  1  0.138000  0.862000  0.574836  1
  Yb  Yb3  1  0.638000  0.362000  0.925164  1
  Yb  Yb4  1  0.447998  0.552002  0.642486  1
  Yb  Yb5  1  0.552002  0.447998  0.357514  1
  Yb  Yb6  1  0.052002  0.947998  0.142486  1
  Yb  Yb7  1  0.947998  0.052002  0.857514  1
  P  P8  1  0.755716  0.244284  0.664062  1
  P  P9  1  0.744284  0.255716  0.164062  1
  P  P10  1  0.244284  0.755716  0.335938  1
  P  P11  1  0.255716  0.744284  0.835938  1
  N  N12  1  0.959715  0.540285  0.750000  1
  N  N13  1  0.540285  0.959715  0.250000  1
  N  N14  1  0.040285  0.459715  0.250000  1
  N  N15  1  0.459715  0.040285  0.750000  1
  N  N16  1  0.413244  0.586756  0.860683  1
  N  N17  1  0.586756  0.413244  0.139317  1
  N  N18  1  0.086756  0.913244  0.360683  1
  N  N19  1  0.659352  0.340648  0.548283  1
  N  N20  1  0.159352  0.840648  0.951717  1
  N  N21  1  0.840648  0.159352  0.048283  1
  N  N22  1  0.340648  0.659352  0.451717  1
  N  N23  1  0.913244  0.086756  0.639317  1
