# generated using pymatgen
data_Eu2ReAsO8
_symmetry_space_group_name_H-M   'P 1'
_cell_length_a   6.28038881
_cell_length_b   6.28038784
_cell_length_c   6.28038913
_cell_angle_alpha   106.35386621
_cell_angle_beta   106.35385658
_cell_angle_gamma   115.90384975
_symmetry_Int_Tables_number   1
_chemical_formula_structural   Eu2ReAsO8
_chemical_formula_sum   'Eu2 Re1 As1 O8'
_cell_volume   188.87175874
_cell_formula_units_Z   1
loop_
 _symmetry_equiv_pos_site_id
 _symmetry_equiv_pos_as_xyz
  1  'x, y, z'
loop_
 _atom_site_type_symbol
 _atom_site_label
 _atom_site_symmetry_multiplicity
 _atom_site_fract_x
 _atom_site_fract_y
 _atom_site_fract_z
 _atom_site_occupancy
  Eu  Eu0  1  0.000000  0.000000  0.000000  1
  Eu  Eu1  1  0.250000  0.750000  0.500000  1
  Re  Re2  1  0.750000  0.250000  0.500000  1
  As  As3  1  0.500000  0.500000  0.000000  1
  O  O4  1  0.336307  0.157804  0.821497  1
  O  O5  1  0.766686  0.082079  0.684606  1
  O  O6  1  0.397473  0.082079  0.315394  1
  O  O7  1  0.336307  0.514811  0.178503  1
  O  O8  1  0.485189  0.663693  0.821497  1
  O  O9  1  0.917921  0.602527  0.684606  1
  O  O10  1  0.917921  0.233314  0.315394  1
  O  O11  1  0.842196  0.663693  0.178503  1
