# generated using pymatgen
data_La4Mg2InAu10
_symmetry_space_group_name_H-M   'P 1'
_cell_length_a   8.82994026
_cell_length_b   8.82994046
_cell_length_c   10.44241688
_cell_angle_alpha   90.31590598
_cell_angle_beta   89.68409423
_cell_angle_gamma   108.52344140
_symmetry_Int_Tables_number   1
_chemical_formula_structural   La4Mg2InAu10
_chemical_formula_sum   'La8 Mg4 In2 Au20'
_cell_volume   771.97571639
_cell_formula_units_Z   2
loop_
 _symmetry_equiv_pos_site_id
 _symmetry_equiv_pos_as_xyz
  1  'x, y, z'
loop_
 _atom_site_type_symbol
 _atom_site_label
 _atom_site_symmetry_multiplicity
 _atom_site_fract_x
 _atom_site_fract_y
 _atom_site_fract_z
 _atom_site_occupancy
  La  La0  1  0.704900  0.302256  0.998774  1
  La  La1  1  0.295100  0.697744  0.001226  1
  La  La2  1  0.802256  0.204900  0.501226  1
  La  La3  1  0.197744  0.795100  0.498774  1
  La  La4  1  0.297583  0.301224  0.203551  1
  La  La5  1  0.702417  0.698776  0.796449  1
  La  La6  1  0.198776  0.202417  0.703551  1
  La  La7  1  0.801224  0.797583  0.296449  1
  Mg  Mg8  1  0.488004  0.988004  0.750000  1
  Mg  Mg9  1  0.511996  0.011996  0.250000  1
  Mg  Mg10  1  0.000000  0.000000  0.000000  1
  Mg  Mg11  1  0.500000  0.500000  0.500000  1
  In  In12  1  0.010187  0.510187  0.250000  1
  In  In13  1  0.989813  0.489813  0.750000  1
  Au  Au14  1  0.096653  0.095099  0.404782  1
  Au  Au15  1  0.903347  0.904901  0.595218  1
  Au  Au16  1  0.404901  0.403347  0.904782  1
  Au  Au17  1  0.595099  0.596653  0.095218  1
  Au  Au18  1  0.881414  0.159594  0.206029  1
  Au  Au19  1  0.118586  0.840406  0.793971  1
  Au  Au20  1  0.604256  0.328731  0.705065  1
  Au  Au21  1  0.659594  0.381414  0.293971  1
  Au  Au22  1  0.395744  0.671269  0.294935  1
  Au  Au23  1  0.340406  0.618586  0.706029  1
  Au  Au24  1  0.828731  0.104256  0.794935  1
  Au  Au25  1  0.171269  0.895744  0.205065  1
  Au  Au26  1  0.931952  0.668170  0.024992  1
  Au  Au27  1  0.068048  0.331830  0.975008  1
  Au  Au28  1  0.564639  0.842026  0.524048  1
  Au  Au29  1  0.168170  0.431952  0.475008  1
  Au  Au30  1  0.435361  0.157974  0.475952  1
  Au  Au31  1  0.831830  0.568048  0.524992  1
  Au  Au32  1  0.342026  0.064639  0.975952  1
  Au  Au33  1  0.657974  0.935361  0.024048  1
