# generated using pymatgen
data_Ta6BeRe2Si3C2
_symmetry_space_group_name_H-M   'P 1'
_cell_length_a   8.18039231
_cell_length_b   8.17410560
_cell_length_c   8.17410588
_cell_angle_alpha   59.99556701
_cell_angle_beta   59.97455979
_cell_angle_gamma   59.97456137
_symmetry_Int_Tables_number   1
_chemical_formula_structural   Ta6BeRe2Si3C2
_chemical_formula_sum   'Ta12 Be2 Re4 Si6 C4'
_cell_volume   386.32961017
_cell_formula_units_Z   2
loop_
 _symmetry_equiv_pos_site_id
 _symmetry_equiv_pos_as_xyz
  1  'x, y, z'
loop_
 _atom_site_type_symbol
 _atom_site_label
 _atom_site_symmetry_multiplicity
 _atom_site_fract_x
 _atom_site_fract_y
 _atom_site_fract_z
 _atom_site_occupancy
  Ta  Ta0  1  0.550460  0.949391  0.553410  1
  Ta  Ta1  1  0.303064  0.697590  0.697590  1
  Ta  Ta2  1  0.692331  0.306824  0.306824  1
  Ta  Ta3  1  0.303262  0.696590  0.300609  1
  Ta  Ta4  1  0.692800  0.691322  0.307364  1
  Ta  Ta5  1  0.303262  0.300609  0.696590  1
  Ta  Ta6  1  0.550460  0.553410  0.949391  1
  Ta  Ta7  1  0.948242  0.552410  0.552410  1
  Ta  Ta8  1  0.555980  0.943176  0.943176  1
  Ta  Ta9  1  0.941486  0.942636  0.558678  1
  Ta  Ta10  1  0.692800  0.307364  0.691322  1
  Ta  Ta11  1  0.941486  0.558678  0.942636  1
  Be  Be12  1  0.257125  0.914736  0.914736  1
  Be  Be13  1  0.336595  0.335264  0.335264  1
  Re  Re14  1  0.127541  0.125431  0.125431  1
  Re  Re15  1  0.628403  0.124569  0.124569  1
  Re  Re16  1  0.125203  0.625000  0.125000  1
  Re  Re17  1  0.125203  0.125000  0.625000  1
  Si  Si18  1  0.918762  0.914564  0.914564  1
  Si  Si19  1  0.997888  0.335436  0.335436  1
  Si  Si20  1  0.337424  0.995190  0.335755  1
  Si  Si21  1  0.337424  0.335755  0.995190  1
  Si  Si22  1  0.918371  0.254810  0.914245  1
  Si  Si23  1  0.918371  0.914245  0.254810  1
  C  C24  1  0.624356  0.626540  0.626540  1
  C  C25  1  0.127436  0.623460  0.623460  1
  C  C26  1  0.622131  0.125000  0.625000  1
  C  C27  1  0.622131  0.625000  0.125000  1
