# generated using pymatgen
data_DyThHgAu2
_symmetry_space_group_name_H-M   'P 1'
_cell_length_a   8.08873300
_cell_length_b   8.05288600
_cell_length_c   3.81837400
_cell_angle_alpha   90.00000000
_cell_angle_beta   90.00000000
_cell_angle_gamma   90.00000000
_symmetry_Int_Tables_number   1
_chemical_formula_structural   DyThHgAu2
_chemical_formula_sum   'Dy2 Th2 Hg2 Au4'
_cell_volume   248.71988907
_cell_formula_units_Z   2
loop_
 _symmetry_equiv_pos_site_id
 _symmetry_equiv_pos_as_xyz
  1  'x, y, z'
loop_
 _atom_site_type_symbol
 _atom_site_label
 _atom_site_symmetry_multiplicity
 _atom_site_fract_x
 _atom_site_fract_y
 _atom_site_fract_z
 _atom_site_occupancy
  Dy  Dy0  1  0.672359  0.176293  0.500000  1
  Dy  Dy1  1  0.172359  0.323707  0.500000  1
  Th  Th2  1  0.326548  0.830762  0.500000  1
  Th  Th3  1  0.826548  0.669238  0.500000  1
  Hg  Hg4  1  0.498574  0.493238  0.000000  1
  Hg  Hg5  1  0.998574  0.006762  0.000000  1
  Au  Au6  1  0.129186  0.621526  0.000000  1
  Au  Au7  1  0.629186  0.878474  0.000000  1
  Au  Au8  1  0.373334  0.132911  0.000000  1
  Au  Au9  1  0.873334  0.367089  0.000000  1
