# generated using pymatgen
data_Tm3(B3Ir4)2
_symmetry_space_group_name_H-M   'P 1'
_cell_length_a   9.99471542
_cell_length_b   9.18525389
_cell_length_c   5.53361290
_cell_angle_alpha   81.46020832
_cell_angle_beta   65.34306083
_cell_angle_gamma   33.19672437
_symmetry_Int_Tables_number   1
_chemical_formula_structural   Tm3(B3Ir4)2
_chemical_formula_sum   'Tm3 B6 Ir8'
_cell_volume   231.32980444
_cell_formula_units_Z   1
loop_
 _symmetry_equiv_pos_site_id
 _symmetry_equiv_pos_as_xyz
  1  'x, y, z'
loop_
 _atom_site_type_symbol
 _atom_site_label
 _atom_site_symmetry_multiplicity
 _atom_site_fract_x
 _atom_site_fract_y
 _atom_site_fract_z
 _atom_site_occupancy
  Tm  Tm0  1  0.000000  0.000000  0.000000  1
  Tm  Tm1  1  0.177724  0.177724  0.822276  1
  Tm  Tm2  1  0.822276  0.822276  0.177724  1
  B  B3  1  0.823395  0.527301  0.472699  1
  B  B4  1  0.176605  0.472699  0.527301  1
  B  B5  1  0.472699  0.176605  0.823395  1
  B  B6  1  0.672332  0.327668  0.672332  1
  B  B7  1  0.527301  0.823395  0.176605  1
  B  B8  1  0.327668  0.672332  0.327668  1
  Ir  Ir9  1  0.414466  0.414466  0.585534  1
  Ir  Ir10  1  0.587231  0.587231  0.912769  1
  Ir  Ir11  1  0.087231  0.087231  0.412769  1
  Ir  Ir12  1  0.912769  0.912769  0.587231  1
  Ir  Ir13  1  0.585534  0.585534  0.414466  1
  Ir  Ir14  1  0.250000  0.250000  0.250000  1
  Ir  Ir15  1  0.412769  0.412769  0.087231  1
  Ir  Ir16  1  0.750000  0.750000  0.750000  1
