# generated using pymatgen
data_Sc2NiPRh5
_symmetry_space_group_name_H-M   'P 1'
_cell_length_a   5.84279484
_cell_length_b   5.76517031
_cell_length_c   5.76516877
_cell_angle_alpha   60.89281636
_cell_angle_beta   59.55359157
_cell_angle_gamma   59.55358502
_symmetry_Int_Tables_number   1
_chemical_formula_structural   Sc2NiPRh5
_chemical_formula_sum   'Sc2 Ni1 P1 Rh5'
_cell_volume   137.26826009
_cell_formula_units_Z   1
loop_
 _symmetry_equiv_pos_site_id
 _symmetry_equiv_pos_as_xyz
  1  'x, y, z'
loop_
 _atom_site_type_symbol
 _atom_site_label
 _atom_site_symmetry_multiplicity
 _atom_site_fract_x
 _atom_site_fract_y
 _atom_site_fract_z
 _atom_site_occupancy
  Sc  Sc0  1  0.251563  0.248437  0.248437  1
  Sc  Sc1  1  0.751563  0.748437  0.748437  1
  Ni  Ni2  1  0.726479  0.273522  0.273522  1
  P  P3  1  0.985918  0.014082  0.014082  1
  Rh  Rh4  1  0.271743  0.728258  0.262093  1
  Rh  Rh5  1  0.737906  0.728256  0.262095  1
  Rh  Rh6  1  0.271743  0.262093  0.728258  1
  Rh  Rh7  1  0.737906  0.262095  0.728256  1
  Rh  Rh8  1  0.265181  0.734820  0.734820  1
