# generated using pymatgen
data_Dy4Y6(GaSb)3
_symmetry_space_group_name_H-M   'P 1'
_cell_length_a   8.78328000
_cell_length_b   8.78375506
_cell_length_c   6.49976900
_cell_angle_alpha   90.00000000
_cell_angle_beta   90.00000000
_cell_angle_gamma   119.99822600
_symmetry_Int_Tables_number   1
_chemical_formula_structural   Dy4Y6(GaSb)3
_chemical_formula_sum   'Dy4 Y6 Ga3 Sb3'
_cell_volume   434.28343224
_cell_formula_units_Z   1
loop_
 _symmetry_equiv_pos_site_id
 _symmetry_equiv_pos_as_xyz
  1  'x, y, z'
loop_
 _atom_site_type_symbol
 _atom_site_label
 _atom_site_symmetry_multiplicity
 _atom_site_fract_x
 _atom_site_fract_y
 _atom_site_fract_z
 _atom_site_occupancy
  Dy  Dy0  1  0.327006  0.666773  0.002977  1
  Dy  Dy1  1  0.660234  0.333227  0.497023  1
  Dy  Dy2  1  0.660234  0.333227  0.002977  1
  Dy  Dy3  1  0.327006  0.666773  0.497023  1
  Y  Y4  1  0.235735  0.000000  0.250000  1
  Y  Y5  1  0.243240  0.232161  0.750000  1
  Y  Y6  1  0.011079  0.767839  0.750000  1
  Y  Y7  1  0.011974  0.248898  0.250000  1
  Y  Y8  1  0.763074  0.751102  0.250000  1
  Y  Y9  1  0.753839  0.000000  0.750000  1
  Ga  Ga10  1  0.999098  0.602621  0.250000  1
  Ga  Ga11  1  0.396478  0.397379  0.250000  1
  Ga  Ga12  1  0.398624  0.000000  0.750000  1
  Sb  Sb13  1  0.609463  0.000000  0.250000  1
  Sb  Sb14  1  0.605200  0.607481  0.750000  1
  Sb  Sb15  1  0.997719  0.392519  0.750000  1
