# generated using pymatgen
data_TmLu15MgCo4Ag3
_symmetry_space_group_name_H-M   'P 1'
_cell_length_a   9.25966077
_cell_length_b   9.26039656
_cell_length_c   9.26039624
_cell_angle_alpha   60.03544066
_cell_angle_beta   59.99156638
_cell_angle_gamma   59.99156540
_symmetry_Int_Tables_number   1
_chemical_formula_structural   TmLu15MgCo4Ag3
_chemical_formula_sum   'Tm1 Lu15 Mg1 Co4 Ag3'
_cell_volume   561.56497794
_cell_formula_units_Z   1
loop_
 _symmetry_equiv_pos_site_id
 _symmetry_equiv_pos_as_xyz
  1  'x, y, z'
loop_
 _atom_site_type_symbol
 _atom_site_label
 _atom_site_symmetry_multiplicity
 _atom_site_fract_x
 _atom_site_fract_y
 _atom_site_fract_z
 _atom_site_occupancy
  Tm  Tm0  1  0.809183  0.189379  0.189379  1
  Lu  Lu1  1  0.185620  0.813581  0.813581  1
  Lu  Lu2  1  0.185243  0.814092  0.186456  1
  Lu  Lu3  1  0.809337  0.189005  0.811861  1
  Lu  Lu4  1  0.185243  0.186456  0.814092  1
  Lu  Lu5  1  0.809337  0.811861  0.189005  1
  Lu  Lu6  1  0.935193  0.562375  0.562376  1
  Lu  Lu7  1  0.562607  0.937111  0.937112  1
  Lu  Lu8  1  0.562088  0.937279  0.563589  1
  Lu  Lu9  1  0.935839  0.562625  0.938614  1
  Lu  Lu10  1  0.562088  0.563588  0.937280  1
  Lu  Lu11  1  0.935839  0.938613  0.562626  1
  Lu  Lu12  1  0.346103  0.345157  0.345157  1
  Lu  Lu13  1  0.345806  0.345110  0.964339  1
  Lu  Lu14  1  0.345806  0.964339  0.345110  1
  Lu  Lu15  1  0.952045  0.349290  0.349290  1
  Mg  Mg16  1  0.289492  0.570040  0.570040  1
  Co  Co17  1  0.137746  0.143268  0.143268  1
  Co  Co18  1  0.137630  0.143427  0.576247  1
  Co  Co19  1  0.137630  0.576247  0.143427  1
  Co  Co20  1  0.576030  0.141206  0.141206  1
  Ag  Ag21  1  0.584342  0.583514  0.583514  1
  Ag  Ag22  1  0.584878  0.583962  0.248470  1
  Ag  Ag23  1  0.584878  0.248470  0.583962  1
