# generated using pymatgen
data_Sc6Ni17P12W
_symmetry_space_group_name_H-M   'P 1'
_cell_length_a   3.63068800
_cell_length_b   10.43328500
_cell_length_c   12.11993900
_cell_angle_alpha   90.00000000
_cell_angle_beta   90.00000000
_cell_angle_gamma   90.00000000
_symmetry_Int_Tables_number   1
_chemical_formula_structural   Sc6Ni17P12W
_chemical_formula_sum   'Sc6 Ni17 P12 W1'
_cell_volume   459.10332144
_cell_formula_units_Z   1
loop_
 _symmetry_equiv_pos_site_id
 _symmetry_equiv_pos_as_xyz
  1  'x, y, z'
loop_
 _atom_site_type_symbol
 _atom_site_label
 _atom_site_symmetry_multiplicity
 _atom_site_fract_x
 _atom_site_fract_y
 _atom_site_fract_z
 _atom_site_occupancy
  Sc  Sc0  1  0.000000  0.500000  0.528167  1
  Sc  Sc1  1  0.500000  0.000000  0.476999  1
  Sc  Sc2  1  0.500000  0.820533  0.206763  1
  Sc  Sc3  1  0.500000  0.179467  0.206763  1
  Sc  Sc4  1  0.000000  0.681770  0.792748  1
  Sc  Sc5  1  0.000000  0.318230  0.792748  1
  Ni  Ni6  1  0.000000  0.000000  0.835789  1
  Ni  Ni7  1  0.500000  0.500000  0.700756  1
  Ni  Ni8  1  0.000000  0.000000  0.300693  1
  Ni  Ni9  1  0.000000  0.500000  0.985867  1
  Ni  Ni10  1  0.500000  0.000000  0.015448  1
  Ni  Ni11  1  0.500000  0.329942  0.987846  1
  Ni  Ni12  1  0.500000  0.670058  0.987846  1
  Ni  Ni13  1  0.000000  0.163322  0.004971  1
  Ni  Ni14  1  0.000000  0.836678  0.004971  1
  Ni  Ni15  1  0.500000  0.301048  0.432596  1
  Ni  Ni16  1  0.500000  0.698952  0.432596  1
  Ni  Ni17  1  0.000000  0.198470  0.568505  1
  Ni  Ni18  1  0.000000  0.801530  0.568505  1
  Ni  Ni19  1  0.500000  0.875956  0.707919  1
  Ni  Ni20  1  0.500000  0.124044  0.707919  1
  Ni  Ni21  1  0.000000  0.624666  0.294254  1
  Ni  Ni22  1  0.000000  0.375334  0.294254  1
  P  P23  1  0.500000  0.500000  0.876043  1
  P  P24  1  0.000000  0.000000  0.126063  1
  P  P25  1  0.500000  0.500000  0.357700  1
  P  P26  1  0.000000  0.000000  0.646863  1
  P  P27  1  0.500000  0.317159  0.617848  1
  P  P28  1  0.500000  0.682841  0.617848  1
  P  P29  1  0.000000  0.181382  0.384235  1
  P  P30  1  0.000000  0.818618  0.384235  1
  P  P31  1  0.500000  0.847047  0.887333  1
  P  P32  1  0.500000  0.152953  0.887333  1
  P  P33  1  0.000000  0.661471  0.110610  1
  P  P34  1  0.000000  0.338529  0.110610  1
  W  W35  1  0.500000  0.500000  0.158362  1
