# generated using pymatgen
data_Tb3Ce3(SiPt5)2
_symmetry_space_group_name_H-M   'P 1'
_cell_length_a   8.29431341
_cell_length_b   8.28708229
_cell_length_c   8.28741008
_cell_angle_alpha   127.53236919
_cell_angle_beta   126.13952275
_cell_angle_gamma   78.50294183
_symmetry_Int_Tables_number   1
_chemical_formula_structural   Tb3Ce3(SiPt5)2
_chemical_formula_sum   'Tb3 Ce3 Si2 Pt10'
_cell_volume   353.24607126
_cell_formula_units_Z   1
loop_
 _symmetry_equiv_pos_site_id
 _symmetry_equiv_pos_as_xyz
  1  'x, y, z'
loop_
 _atom_site_type_symbol
 _atom_site_label
 _atom_site_symmetry_multiplicity
 _atom_site_fract_x
 _atom_site_fract_y
 _atom_site_fract_z
 _atom_site_occupancy
  Tb  Tb0  1  0.826473  0.548856  0.277674  1
  Tb  Tb1  1  0.613730  0.251377  0.362427  1
  Tb  Tb2  1  0.170124  0.449148  0.720942  1
  Ce  Ce3  1  0.382452  0.748907  0.633545  1
  Ce  Ce4  1  0.227293  0.950549  0.276737  1
  Ce  Ce5  1  0.773544  0.051358  0.722183  1
  Si  Si6  1  0.218287  0.250935  0.967320  1
  Si  Si7  1  0.782608  0.748937  0.033698  1
  Pt  Pt8  1  0.170718  0.900619  0.859040  1
  Pt  Pt9  1  0.831018  0.096950  0.139000  1
  Pt  Pt10  1  0.456581  0.187421  0.856211  1
  Pt  Pt11  1  0.544622  0.400337  0.734084  1
  Pt  Pt12  1  0.831007  0.692062  0.734133  1
  Pt  Pt13  1  0.456612  0.600342  0.269140  1
  Pt  Pt14  1  0.544626  0.810544  0.144265  1
  Pt  Pt15  1  0.170705  0.311682  0.270056  1
  Pt  Pt16  1  0.999816  0.000759  0.500557  1
  Pt  Pt17  1  0.999783  0.499216  0.998988  1
