# generated using pymatgen
data_Ti2V4C5
_symmetry_space_group_name_H-M   'P 1'
_cell_length_a   5.16907500
_cell_length_b   5.16907625
_cell_length_c   14.58286800
_cell_angle_alpha   90.00000000
_cell_angle_beta   90.00000000
_cell_angle_gamma   119.99998558
_symmetry_Int_Tables_number   1
_chemical_formula_structural   Ti2V4C5
_chemical_formula_sum   'Ti6 V12 C15'
_cell_volume   337.44221404
_cell_formula_units_Z   3
loop_
 _symmetry_equiv_pos_site_id
 _symmetry_equiv_pos_as_xyz
  1  'x, y, z'
loop_
 _atom_site_type_symbol
 _atom_site_label
 _atom_site_symmetry_multiplicity
 _atom_site_fract_x
 _atom_site_fract_y
 _atom_site_fract_z
 _atom_site_occupancy
  Ti  Ti0  1  0.771926  0.542666  0.417448  1
  Ti  Ti1  1  0.770740  0.228074  0.084115  1
  Ti  Ti2  1  0.457334  0.229260  0.750781  1
  Ti  Ti3  1  0.770740  0.542666  0.915885  1
  Ti  Ti4  1  0.771926  0.229260  0.582552  1
  Ti  Ti5  1  0.457334  0.228074  0.249219  1
  V  V6  1  0.104878  0.514864  0.748419  1
  V  V7  1  0.485136  0.590013  0.081753  1
  V  V8  1  0.409987  0.895122  0.415086  1
  V  V9  1  0.485136  0.895122  0.918247  1
  V  V10  1  0.409987  0.514864  0.584914  1
  V  V11  1  0.104878  0.590013  0.251581  1
  V  V12  1  0.131279  0.878198  0.590961  1
  V  V13  1  0.121802  0.253081  0.924295  1
  V  V14  1  0.746919  0.868721  0.257628  1
  V  V15  1  0.121802  0.868721  0.075705  1
  V  V16  1  0.746919  0.878198  0.742372  1
  V  V17  1  0.131279  0.253081  0.409039  1
  C  C18  1  0.448916  0.224458  0.000000  1
  C  C19  1  0.775542  0.551084  0.666667  1
  C  C20  1  0.775542  0.224458  0.333333  1
  C  C21  1  0.129865  0.564932  0.000000  1
  C  C22  1  0.435068  0.870135  0.666667  1
  C  C23  1  0.435068  0.564932  0.333333  1
  C  C24  1  0.793967  0.896984  0.000000  1
  C  C25  1  0.103016  0.206033  0.666667  1
  C  C26  1  0.103016  0.896984  0.333333  1
  C  C27  1  0.425782  0.212891  0.500000  1
  C  C28  1  0.787109  0.574218  0.166667  1
  C  C29  1  0.787109  0.212891  0.833333  1
  C  C30  1  0.113254  0.556628  0.500000  1
  C  C31  1  0.443372  0.886746  0.166667  1
  C  C32  1  0.443372  0.556628  0.833333  1
