# generated using pymatgen
data_Pr8Dy5Er7Si16
_symmetry_space_group_name_H-M   'P 1'
_cell_length_a   7.52281718
_cell_length_b   7.80243781
_cell_length_c   14.82175818
_cell_angle_alpha   90.01842193
_cell_angle_beta   89.95821853
_cell_angle_gamma   90.04886810
_symmetry_Int_Tables_number   1
_chemical_formula_structural   Pr8Dy5Er7Si16
_chemical_formula_sum   'Pr8 Dy5 Er7 Si16'
_cell_volume   869.98196806
_cell_formula_units_Z   1
loop_
 _symmetry_equiv_pos_site_id
 _symmetry_equiv_pos_as_xyz
  1  'x, y, z'
loop_
 _atom_site_type_symbol
 _atom_site_label
 _atom_site_symmetry_multiplicity
 _atom_site_fract_x
 _atom_site_fract_y
 _atom_site_fract_z
 _atom_site_occupancy
  Pr  Pr0  1  0.974456  0.820764  0.098148  1
  Pr  Pr1  1  0.474610  0.679236  0.401810  1
  Pr  Pr2  1  0.525413  0.320853  0.901779  1
  Pr  Pr3  1  0.025339  0.179156  0.598309  1
  Pr  Pr4  1  0.025000  0.179357  0.901802  1
  Pr  Pr5  1  0.525137  0.320615  0.598368  1
  Pr  Pr6  1  0.475046  0.679317  0.098128  1
  Pr  Pr7  1  0.974819  0.820548  0.401829  1
  Dy  Dy8  1  0.318512  0.178496  0.376955  1
  Dy  Dy9  1  0.318505  0.178612  0.122916  1
  Dy  Dy10  1  0.818431  0.321525  0.376924  1
  Dy  Dy11  1  0.181516  0.678600  0.876886  1
  Dy  Dy12  1  0.681605  0.821262  0.623202  1
  Er  Er13  1  0.648993  0.989884  0.249845  1
  Er  Er14  1  0.148746  0.510496  0.249920  1
  Er  Er15  1  0.851225  0.489933  0.750024  1
  Er  Er16  1  0.351243  0.010074  0.749961  1
  Er  Er17  1  0.681371  0.821881  0.876735  1
  Er  Er18  1  0.181444  0.678234  0.623313  1
  Er  Er19  1  0.818587  0.321964  0.123191  1
  Si  Si20  1  0.768197  0.620349  0.249628  1
  Si  Si21  1  0.268051  0.878864  0.249971  1
  Si  Si22  1  0.731675  0.120503  0.750323  1
  Si  Si23  1  0.231726  0.379546  0.749698  1
  Si  Si24  1  0.022152  0.112108  0.249654  1
  Si  Si25  1  0.523788  0.388333  0.249544  1
  Si  Si26  1  0.477006  0.612325  0.749966  1
  Si  Si27  1  0.976965  0.887607  0.750113  1
  Si  Si28  1  0.855491  0.530679  0.959916  1
  Si  Si29  1  0.355889  0.968633  0.540548  1
  Si  Si30  1  0.644497  0.030654  0.040040  1
  Si  Si31  1  0.143667  0.470061  0.460222  1
  Si  Si32  1  0.142367  0.469011  0.040539  1
  Si  Si33  1  0.643164  0.030470  0.459752  1
  Si  Si34  1  0.357677  0.968969  0.959452  1
  Si  Si35  1  0.857688  0.531082  0.540590  1
