# generated using pymatgen
data_Pr9Nd3Ir3AuI12
_symmetry_space_group_name_H-M   'P 1'
_cell_length_a   11.01249795
_cell_length_b   11.01674399
_cell_length_c   11.01894766
_cell_angle_alpha   109.92305837
_cell_angle_beta   109.79792533
_cell_angle_gamma   109.80813650
_symmetry_Int_Tables_number   1
_chemical_formula_structural   Pr9Nd3Ir3AuI12
_chemical_formula_sum   'Pr9 Nd3 Ir3 Au1 I12'
_cell_volume   1014.68431453
_cell_formula_units_Z   1
loop_
 _symmetry_equiv_pos_site_id
 _symmetry_equiv_pos_as_xyz
  1  'x, y, z'
loop_
 _atom_site_type_symbol
 _atom_site_label
 _atom_site_symmetry_multiplicity
 _atom_site_fract_x
 _atom_site_fract_y
 _atom_site_fract_z
 _atom_site_occupancy
  Pr  Pr0  1  0.223491  0.459731  0.487642  1
  Pr  Pr1  1  0.272147  0.749755  0.227967  1
  Pr  Pr2  1  0.040515  0.276631  0.012396  1
  Pr  Pr3  1  0.011908  0.040376  0.276681  1
  Pr  Pr4  1  0.479721  0.750347  0.021017  1
  Pr  Pr5  1  0.488046  0.223370  0.459595  1
  Pr  Pr6  1  0.020104  0.478892  0.749245  1
  Pr  Pr7  1  0.276674  0.012505  0.040411  1
  Pr  Pr8  1  0.228076  0.272166  0.750358  1
  Nd  Nd9  1  0.459068  0.487498  0.223042  1
  Nd  Nd10  1  0.749961  0.227379  0.272584  1
  Nd  Nd11  1  0.749970  0.021173  0.478785  1
  Ir  Ir12  1  0.502361  0.999341  0.250583  1
  Ir  Ir13  1  0.997594  0.249413  0.500653  1
  Ir  Ir14  1  0.250637  0.501320  0.999379  1
  Au  Au15  1  0.250580  0.250609  0.250039  1
  I  I16  1  0.249983  0.759910  0.740109  1
  I  I17  1  0.514955  0.506490  0.756434  1
  I  I18  1  0.985051  0.743539  0.993486  1
  I  I19  1  0.740108  0.249522  0.759439  1
  I  I20  1  0.993134  0.985007  0.743164  1
  I  I21  1  0.249983  0.993467  0.506533  1
  I  I22  1  0.756099  0.514438  0.505607  1
  I  I23  1  0.506928  0.250562  0.994383  1
  I  I24  1  0.759363  0.740077  0.250490  1
  I  I25  1  0.743557  0.994041  0.985583  1
  I  I26  1  0.993079  0.506183  0.250041  1
  I  I27  1  0.506907  0.756258  0.514354  1
