# generated using pymatgen
data_PrNd3Cd2PdAu3
_symmetry_space_group_name_H-M   'P 1'
_cell_length_a   3.91638600
_cell_length_b   8.07065954
_cell_length_c   8.07065998
_cell_angle_alpha   90.60149111
_cell_angle_beta   90.00000000
_cell_angle_gamma   90.00000000
_symmetry_Int_Tables_number   1
_chemical_formula_structural   PrNd3Cd2PdAu3
_chemical_formula_sum   'Pr1 Nd3 Cd2 Pd1 Au3'
_cell_volume   255.08189547
_cell_formula_units_Z   1
loop_
 _symmetry_equiv_pos_site_id
 _symmetry_equiv_pos_as_xyz
  1  'x, y, z'
loop_
 _atom_site_type_symbol
 _atom_site_label
 _atom_site_symmetry_multiplicity
 _atom_site_fract_x
 _atom_site_fract_y
 _atom_site_fract_z
 _atom_site_occupancy
  Pr  Pr0  1  0.500000  0.171471  0.671471  1
  Nd  Nd1  1  0.500000  0.820993  0.320993  1
  Nd  Nd2  1  0.500000  0.336281  0.175695  1
  Nd  Nd3  1  0.500000  0.675695  0.836281  1
  Cd  Cd4  1  0.000000  0.996606  0.001461  1
  Cd  Cd5  1  0.000000  0.501461  0.496606  1
  Pd  Pd6  1  0.000000  0.626364  0.126364  1
  Au  Au7  1  0.000000  0.375408  0.875408  1
  Au  Au8  1  0.000000  0.870333  0.625387  1
  Au  Au9  1  0.000000  0.125387  0.370333  1
