# generated using pymatgen
data_Gd2Tm2CoSn8
_symmetry_space_group_name_H-M   'P 1'
_cell_length_a   4.41100900
_cell_length_b   4.45675000
_cell_length_c   16.55493800
_cell_angle_alpha   90.00000000
_cell_angle_beta   90.00000000
_cell_angle_gamma   90.00000000
_symmetry_Int_Tables_number   1
_chemical_formula_structural   Gd2Tm2CoSn8
_chemical_formula_sum   'Gd2 Tm2 Co1 Sn8'
_cell_volume   325.44962515
_cell_formula_units_Z   1
loop_
 _symmetry_equiv_pos_site_id
 _symmetry_equiv_pos_as_xyz
  1  'x, y, z'
loop_
 _atom_site_type_symbol
 _atom_site_label
 _atom_site_symmetry_multiplicity
 _atom_site_fract_x
 _atom_site_fract_y
 _atom_site_fract_z
 _atom_site_occupancy
  Gd  Gd0  1  0.750000  0.500000  0.396013  1
  Gd  Gd1  1  0.750000  0.000000  0.901738  1
  Tm  Tm2  1  0.250000  0.000000  0.097152  1
  Tm  Tm3  1  0.250000  0.500000  0.603571  1
  Co  Co4  1  0.250000  0.000000  0.306326  1
  Sn  Sn5  1  0.250000  0.000000  0.456469  1
  Sn  Sn6  1  0.250000  0.500000  0.935904  1
  Sn  Sn7  1  0.750000  0.500000  0.062751  1
  Sn  Sn8  1  0.750000  0.000000  0.577395  1
  Sn  Sn9  1  0.250000  0.500000  0.235066  1
  Sn  Sn10  1  0.250000  0.000000  0.750725  1
  Sn  Sn11  1  0.750000  0.000000  0.235133  1
  Sn  Sn12  1  0.750000  0.500000  0.752757  1
