# generated using pymatgen
data_Hf3CrSi3Ru2
_symmetry_space_group_name_H-M   'P 1'
_cell_length_a   7.62409546
_cell_length_b   7.62409464
_cell_length_c   7.62409443
_cell_angle_alpha   127.33685953
_cell_angle_beta   124.85442930
_cell_angle_gamma   79.74709650
_symmetry_Int_Tables_number   1
_chemical_formula_structural   Hf3CrSi3Ru2
_chemical_formula_sum   'Hf6 Cr2 Si6 Ru4'
_cell_volume   279.32025278
_cell_formula_units_Z   2
loop_
 _symmetry_equiv_pos_site_id
 _symmetry_equiv_pos_as_xyz
  1  'x, y, z'
loop_
 _atom_site_type_symbol
 _atom_site_label
 _atom_site_symmetry_multiplicity
 _atom_site_fract_x
 _atom_site_fract_y
 _atom_site_fract_z
 _atom_site_occupancy
  Hf  Hf0  1  0.459538  0.676038  0.716500  1
  Hf  Hf1  1  0.540462  0.256962  0.216500  1
  Hf  Hf2  1  0.747225  0.835271  0.588045  1
  Hf  Hf3  1  0.252775  0.840819  0.088045  1
  Hf  Hf4  1  0.053717  0.256704  0.702986  1
  Hf  Hf5  1  0.946283  0.649269  0.202986  1
  Cr  Cr6  1  0.500000  0.503952  0.003952  1
  Cr  Cr7  1  0.000000  0.503952  0.503952  1
  Si  Si8  1  0.264250  0.267244  0.502994  1
  Si  Si9  1  0.735750  0.238743  0.002994  1
  Si  Si10  1  0.329526  0.586845  0.248417  1
  Si  Si11  1  0.670474  0.918891  0.257319  1
  Si  Si12  1  0.161571  0.918891  0.748417  1
  Si  Si13  1  0.838429  0.586845  0.757319  1
  Ru  Ru14  1  0.105774  0.254532  0.110829  1
  Ru  Ru15  1  0.894226  0.005055  0.148759  1
  Ru  Ru16  1  0.356297  0.005055  0.610829  1
  Ru  Ru17  1  0.643703  0.254532  0.648759  1
