# generated using pymatgen
data_Y6Ho2Re(B8Ru)3
_symmetry_space_group_name_H-M   'P 1'
_cell_length_a   3.67010000
_cell_length_b   9.15310399
_cell_length_c   11.54197117
_cell_angle_alpha   90.14627525
_cell_angle_beta   90.00000000
_cell_angle_gamma   90.00000000
_symmetry_Int_Tables_number   1
_chemical_formula_structural   Y6Ho2Re(B8Ru)3
_chemical_formula_sum   'Y6 Ho2 Re1 B24 Ru3'
_cell_volume   387.72594559
_cell_formula_units_Z   1
loop_
 _symmetry_equiv_pos_site_id
 _symmetry_equiv_pos_as_xyz
  1  'x, y, z'
loop_
 _atom_site_type_symbol
 _atom_site_label
 _atom_site_symmetry_multiplicity
 _atom_site_fract_x
 _atom_site_fract_y
 _atom_site_fract_z
 _atom_site_occupancy
  Y  Y0  1  0.000000  0.323279  0.414925  1
  Y  Y1  1  0.000000  0.679735  0.588079  1
  Y  Y2  1  0.000000  0.822469  0.083416  1
  Y  Y3  1  0.000000  0.176453  0.913559  1
  Y  Y4  1  0.000000  0.943035  0.371084  1
  Y  Y5  1  0.000000  0.056568  0.627728  1
  Ho  Ho6  1  0.000000  0.442480  0.128587  1
  Ho  Ho7  1  0.000000  0.556035  0.872454  1
  Re  Re8  1  0.000000  0.861924  0.821403  1
  B  B9  1  0.500000  0.554137  0.432963  1
  B  B10  1  0.500000  0.446235  0.567436  1
  B  B11  1  0.500000  0.053932  0.067683  1
  B  B12  1  0.500000  0.946904  0.933014  1
  B  B13  1  0.500000  0.747873  0.419158  1
  B  B14  1  0.500000  0.252540  0.580604  1
  B  B15  1  0.500000  0.248248  0.081055  1
  B  B16  1  0.500000  0.751089  0.919024  1
  B  B17  1  0.500000  0.789696  0.265869  1
  B  B18  1  0.500000  0.209862  0.733175  1
  B  B19  1  0.500000  0.290801  0.233870  1
  B  B20  1  0.500000  0.708291  0.766261  1
  B  B21  1  0.500000  0.630490  0.185348  1
  B  B22  1  0.500000  0.368763  0.814327  1
  B  B23  1  0.500000  0.131994  0.314504  1
  B  B24  1  0.500000  0.868547  0.685782  1
  B  B25  1  0.500000  0.983930  0.212245  1
  B  B26  1  0.500000  0.017425  0.787500  1
  B  B27  1  0.500000  0.483436  0.287781  1
  B  B28  1  0.500000  0.516508  0.712956  1
  B  B29  1  0.500000  0.604995  0.029930  1
  B  B30  1  0.500000  0.392796  0.970954  1
  B  B31  1  0.500000  0.108089  0.469604  1
  B  B32  1  0.500000  0.892873  0.528911  1
  Ru  Ru33  1  0.000000  0.637230  0.320836  1
  Ru  Ru34  1  0.000000  0.362876  0.678780  1
  Ru  Ru35  1  0.000000  0.138460  0.179195  1
