# generated using pymatgen
data_DyMn3CoP3W
_symmetry_space_group_name_H-M   'P 1'
_cell_length_a   3.65530200
_cell_length_b   10.63510300
_cell_length_c   12.25707100
_cell_angle_alpha   90.00000000
_cell_angle_beta   90.00000000
_cell_angle_gamma   90.00000000
_symmetry_Int_Tables_number   1
_chemical_formula_structural   DyMn3CoP3W
_chemical_formula_sum   'Dy4 Mn12 Co4 P12 W4'
_cell_volume   476.48766919
_cell_formula_units_Z   4
loop_
 _symmetry_equiv_pos_site_id
 _symmetry_equiv_pos_as_xyz
  1  'x, y, z'
loop_
 _atom_site_type_symbol
 _atom_site_label
 _atom_site_symmetry_multiplicity
 _atom_site_fract_x
 _atom_site_fract_y
 _atom_site_fract_z
 _atom_site_occupancy
  Dy  Dy0  1  0.250000  0.584276  0.708728  1
  Dy  Dy1  1  0.250000  0.915724  0.208728  1
  Dy  Dy2  1  0.750000  0.415724  0.291272  1
  Dy  Dy3  1  0.750000  0.084276  0.791272  1
  Mn  Mn4  1  0.250000  0.408418  0.492794  1
  Mn  Mn5  1  0.250000  0.091582  0.992794  1
  Mn  Mn6  1  0.750000  0.591582  0.507206  1
  Mn  Mn7  1  0.750000  0.908418  0.007206  1
  Mn  Mn8  1  0.250000  0.215835  0.179033  1
  Mn  Mn9  1  0.250000  0.284165  0.679033  1
  Mn  Mn10  1  0.750000  0.784165  0.820967  1
  Mn  Mn11  1  0.750000  0.715835  0.320967  1
  Mn  Mn12  1  0.250000  0.880566  0.695885  1
  Mn  Mn13  1  0.250000  0.619434  0.195885  1
  Mn  Mn14  1  0.750000  0.119434  0.304115  1
  Mn  Mn15  1  0.750000  0.380566  0.804115  1
  Co  Co16  1  0.250000  0.464199  0.936121  1
  Co  Co17  1  0.250000  0.035801  0.436121  1
  Co  Co18  1  0.750000  0.535801  0.063879  1
  Co  Co19  1  0.750000  0.964199  0.563879  1
  P  P20  1  0.250000  0.421209  0.114668  1
  P  P21  1  0.250000  0.078791  0.614668  1
  P  P22  1  0.750000  0.578791  0.885332  1
  P  P23  1  0.750000  0.921209  0.385332  1
  P  P24  1  0.250000  0.265522  0.868934  1
  P  P25  1  0.250000  0.234478  0.368934  1
  P  P26  1  0.750000  0.734478  0.131066  1
  P  P27  1  0.750000  0.765522  0.631066  1
  P  P28  1  0.250000  0.591543  0.384561  1
  P  P29  1  0.250000  0.908457  0.884561  1
  P  P30  1  0.750000  0.408457  0.615439  1
  P  P31  1  0.750000  0.091543  0.115439  1
  W  W32  1  0.250000  0.708757  0.985538  1
  W  W33  1  0.250000  0.791243  0.485538  1
  W  W34  1  0.750000  0.291243  0.014462  1
  W  W35  1  0.750000  0.208757  0.514462  1
