# generated using pymatgen
data_Y3HfSn2Ir3
_symmetry_space_group_name_H-M   'P 1'
_cell_length_a   7.26897800
_cell_length_b   7.36775909
_cell_length_c   4.21242900
_cell_angle_alpha   90.00000000
_cell_angle_beta   90.00000000
_cell_angle_gamma   119.55746640
_symmetry_Int_Tables_number   1
_chemical_formula_structural   Y3HfSn2Ir3
_chemical_formula_sum   'Y3 Hf1 Sn2 Ir3'
_cell_volume   196.24175032
_cell_formula_units_Z   1
loop_
 _symmetry_equiv_pos_site_id
 _symmetry_equiv_pos_as_xyz
  1  'x, y, z'
loop_
 _atom_site_type_symbol
 _atom_site_label
 _atom_site_symmetry_multiplicity
 _atom_site_fract_x
 _atom_site_fract_y
 _atom_site_fract_z
 _atom_site_occupancy
  Y  Y0  1  0.602603  0.000000  0.000000  1
  Y  Y1  1  0.995353  0.583860  0.000000  1
  Y  Y2  1  0.411493  0.416140  0.000000  1
  Hf  Hf3  1  0.249013  0.000000  0.500000  1
  Sn  Sn4  1  0.001579  0.254151  0.500000  1
  Sn  Sn5  1  0.747427  0.745849  0.500000  1
  Ir  Ir6  1  0.326717  0.679268  0.500000  1
  Ir  Ir7  1  0.647451  0.320732  0.500000  1
  Ir  Ir8  1  0.018364  0.000000  0.000000  1
