# generated using pymatgen
data_Nd5(BN3)2
_symmetry_space_group_name_H-M   'P 1'
_cell_length_a   6.42414669
_cell_length_b   6.42414633
_cell_length_c   8.92360940
_cell_angle_alpha   74.70209572
_cell_angle_beta   74.70209726
_cell_angle_gamma   32.62708516
_symmetry_Int_Tables_number   1
_chemical_formula_structural   Nd5(BN3)2
_chemical_formula_sum   'Nd5 B2 N6'
_cell_volume   190.91171911
_cell_formula_units_Z   1
loop_
 _symmetry_equiv_pos_site_id
 _symmetry_equiv_pos_as_xyz
  1  'x, y, z'
loop_
 _atom_site_type_symbol
 _atom_site_label
 _atom_site_symmetry_multiplicity
 _atom_site_fract_x
 _atom_site_fract_y
 _atom_site_fract_z
 _atom_site_occupancy
  Nd  Nd0  1  0.624441  0.624441  0.626815  1
  Nd  Nd1  1  0.307659  0.307659  0.820918  1
  Nd  Nd2  1  0.000000  0.000000  0.000000  1
  Nd  Nd3  1  0.692341  0.692341  0.179082  1
  Nd  Nd4  1  0.375559  0.375559  0.373185  1
  B  B5  1  0.055260  0.055260  0.409903  1
  B  B6  1  0.944740  0.944740  0.590097  1
  N  N7  1  0.025367  0.025367  0.261126  1
  N  N8  1  0.343793  0.343793  0.080483  1
  N  N9  1  0.826892  0.826892  0.584046  1
  N  N10  1  0.974633  0.974633  0.738874  1
  N  N11  1  0.656207  0.656207  0.919517  1
  N  N12  1  0.173108  0.173108  0.415954  1
