# generated using pymatgen
data_SbSe11
_symmetry_space_group_name_H-M   'P 1'
_cell_length_a   6.35671866
_cell_length_b   10.22453764
_cell_length_c   18.82434502
_cell_angle_alpha   82.20619550
_cell_angle_beta   116.71187803
_cell_angle_gamma   111.02504938
_symmetry_Int_Tables_number   1
_chemical_formula_structural   SbSe11
_chemical_formula_sum   'Sb2 Se22'
_cell_volume   1019.66214412
_cell_formula_units_Z   2
loop_
 _symmetry_equiv_pos_site_id
 _symmetry_equiv_pos_as_xyz
  1  'x, y, z'
loop_
 _atom_site_type_symbol
 _atom_site_label
 _atom_site_symmetry_multiplicity
 _atom_site_fract_x
 _atom_site_fract_y
 _atom_site_fract_z
 _atom_site_occupancy
  Sb  Sb0  1  0.331321  0.207480  0.438060  1
  Sb  Sb1  1  0.919116  0.831718  0.455881  1
  Se  Se2  1  0.068882  0.317926  0.109153  1
  Se  Se3  1  0.867153  0.040083  0.360179  1
  Se  Se4  1  0.369225  0.863281  0.471800  1
  Se  Se5  1  0.254463  0.314945  0.025500  1
  Se  Se6  1  0.728953  0.683918  0.973917  1
  Se  Se7  1  0.235217  0.436709  0.434916  1
  Se  Se8  1  0.736689  0.617059  0.358159  1
  Se  Se9  1  0.801981  0.087062  0.109976  1
  Se  Se10  1  0.252516  0.888131  0.163622  1
  Se  Se11  1  0.727950  0.663148  0.645442  1
  Se  Se12  1  0.181747  0.301979  0.602153  1
  Se  Se13  1  0.181991  0.921466  0.892226  1
  Se  Se14  1  0.718131  0.111933  0.840204  1
  Se  Se15  1  0.996305  0.660495  0.107808  1
  Se  Se16  1  0.575768  0.851959  0.613998  1
  Se  Se17  1  0.379441  0.157601  0.586234  1
  Se  Se18  1  0.932295  0.686695  0.894639  1
  Se  Se19  1  0.976933  0.341161  0.893313  1
  Se  Se20  1  0.302023  0.534012  0.321443  1
  Se  Se21  1  0.038023  0.968536  0.214395  1
  Se  Se22  1  0.492745  0.478476  0.698840  1
  Se  Se23  1  0.931131  0.034225  0.788141  1
