# generated using pymatgen
data_Y8Ti7Ge16Mo5
_symmetry_space_group_name_H-M   'P 1'
_cell_length_a   6.93830656
_cell_length_b   7.10158274
_cell_length_c   13.40273607
_cell_angle_alpha   89.94416079
_cell_angle_beta   89.95452851
_cell_angle_gamma   90.03753883
_symmetry_Int_Tables_number   1
_chemical_formula_structural   Y8Ti7Ge16Mo5
_chemical_formula_sum   'Y8 Ti7 Ge16 Mo5'
_cell_volume   660.39178915
_cell_formula_units_Z   1
loop_
 _symmetry_equiv_pos_site_id
 _symmetry_equiv_pos_as_xyz
  1  'x, y, z'
loop_
 _atom_site_type_symbol
 _atom_site_label
 _atom_site_symmetry_multiplicity
 _atom_site_fract_x
 _atom_site_fract_y
 _atom_site_fract_z
 _atom_site_occupancy
  Y  Y0  1  0.003477  0.172034  0.404147  1
  Y  Y1  1  0.503890  0.325856  0.095858  1
  Y  Y2  1  0.496738  0.672201  0.596177  1
  Y  Y3  1  0.995849  0.827360  0.903765  1
  Y  Y4  1  0.996266  0.827194  0.596535  1
  Y  Y5  1  0.495973  0.673343  0.905800  1
  Y  Y6  1  0.502851  0.328329  0.403025  1
  Y  Y7  1  0.005754  0.169934  0.095708  1
  Ti  Ti8  1  0.837882  0.670040  0.371104  1
  Ti  Ti9  1  0.662071  0.168207  0.627676  1
  Ti  Ti10  1  0.162001  0.331179  0.873482  1
  Ti  Ti11  1  0.162324  0.331632  0.627504  1
  Ti  Ti12  1  0.661691  0.167817  0.872588  1
  Ti  Ti13  1  0.841487  0.669494  0.127483  1
  Ti  Ti14  1  0.335613  0.831024  0.371758  1
  Ge  Ge15  1  0.329012  0.043742  0.544244  1
  Ge  Ge16  1  0.828565  0.456757  0.955953  1
  Ge  Ge17  1  0.668606  0.956637  0.044782  1
  Ge  Ge18  1  0.170708  0.544324  0.455707  1
  Ge  Ge19  1  0.172828  0.543280  0.044131  1
  Ge  Ge20  1  0.669542  0.956546  0.455413  1
  Ge  Ge21  1  0.829844  0.456027  0.544793  1
  Ge  Ge22  1  0.327443  0.044563  0.956581  1
  Ge  Ge23  1  0.807790  0.366662  0.249173  1
  Ge  Ge24  1  0.309130  0.132731  0.250450  1
  Ge  Ge25  1  0.692493  0.866154  0.750067  1
  Ge  Ge26  1  0.193788  0.633639  0.750370  1
  Ge  Ge27  1  0.037601  0.872368  0.250598  1
  Ge  Ge28  1  0.536226  0.630002  0.249082  1
  Ge  Ge29  1  0.462663  0.370556  0.750304  1
  Ge  Ge30  1  0.963287  0.129397  0.750140  1
  Mo  Mo31  1  0.335482  0.832345  0.127261  1
  Mo  Mo32  1  0.333825  0.009937  0.750190  1
  Mo  Mo33  1  0.666792  0.987024  0.249055  1
  Mo  Mo34  1  0.165305  0.513576  0.248866  1
  Mo  Mo35  1  0.835199  0.488087  0.750231  1
