# generated using pymatgen
data_La12Zn(RuBr4)3
_symmetry_space_group_name_H-M   'P 1'
_cell_length_a   10.70503125
_cell_length_b   10.70503051
_cell_length_c   10.49377900
_cell_angle_alpha   109.07195635
_cell_angle_beta   109.07195499
_cell_angle_gamma   109.86751695
_symmetry_Int_Tables_number   1
_chemical_formula_structural   La12Zn(RuBr4)3
_chemical_formula_sum   'La12 Zn1 Ru3 Br12'
_cell_volume   930.25531328
_cell_formula_units_Z   1
loop_
 _symmetry_equiv_pos_site_id
 _symmetry_equiv_pos_as_xyz
  1  'x, y, z'
loop_
 _atom_site_type_symbol
 _atom_site_label
 _atom_site_symmetry_multiplicity
 _atom_site_fract_x
 _atom_site_fract_y
 _atom_site_fract_z
 _atom_site_occupancy
  La  La0  1  0.258057  0.731939  0.228134  1
  La  La1  1  0.473882  0.731939  0.003805  1
  La  La2  1  0.234138  0.468276  0.484138  1
  La  La3  1  0.013401  0.026804  0.263401  1
  La  La4  1  0.234138  0.265862  0.750000  1
  La  La5  1  0.013401  0.486599  0.750000  1
  La  La6  1  0.473882  0.241943  0.470076  1
  La  La7  1  0.258057  0.026118  0.029924  1
  La  La8  1  0.768061  0.241943  0.271866  1
  La  La9  1  0.768061  0.026118  0.496195  1
  La  La10  1  0.473196  0.486599  0.236599  1
  La  La11  1  0.031724  0.265862  0.015862  1
  Zn  Zn12  1  0.500000  0.000000  0.250000  1
  Ru  Ru13  1  0.251565  0.503131  0.001565  1
  Ru  Ru14  1  0.996869  0.248435  0.498435  1
  Ru  Ru15  1  0.251565  0.248435  0.250000  1
  Br  Br16  1  0.249138  0.993916  0.502754  1
  Br  Br17  1  0.514739  0.507369  0.757369  1
  Br  Br18  1  0.249138  0.755222  0.746384  1
  Br  Br19  1  0.991230  0.745616  0.995616  1
  Br  Br20  1  0.992631  0.507369  0.250000  1
  Br  Br21  1  0.744778  0.993916  0.991161  1
  Br  Br22  1  0.754384  0.745616  0.250000  1
  Br  Br23  1  0.506084  0.755222  0.508839  1
  Br  Br24  1  0.506084  0.250862  0.997246  1
  Br  Br25  1  0.754384  0.508770  0.504384  1
  Br  Br26  1  0.744778  0.250862  0.753616  1
  Br  Br27  1  0.992631  0.985261  0.742631  1
