# generated using pymatgen
data_La7ThSe12
_symmetry_space_group_name_H-M   'P 1'
_cell_length_a   7.96100755
_cell_length_b   4.28968100
_cell_length_c   16.49511579
_cell_angle_alpha   90.00000000
_cell_angle_beta   90.35307601
_cell_angle_gamma   90.00000000
_symmetry_Int_Tables_number   1
_chemical_formula_structural   La7ThSe12
_chemical_formula_sum   'La7 Th1 Se12'
_cell_volume   563.30052454
_cell_formula_units_Z   1
loop_
 _symmetry_equiv_pos_site_id
 _symmetry_equiv_pos_as_xyz
  1  'x, y, z'
loop_
 _atom_site_type_symbol
 _atom_site_label
 _atom_site_symmetry_multiplicity
 _atom_site_fract_x
 _atom_site_fract_y
 _atom_site_fract_z
 _atom_site_occupancy
  La  La0  1  0.135094  0.000000  0.206723  1
  La  La1  1  0.639060  0.000000  0.295619  1
  La  La2  1  0.236191  0.500000  0.455594  1
  La  La3  1  0.763463  0.000000  0.544434  1
  La  La4  1  0.358153  0.500000  0.705134  1
  La  La5  1  0.860692  0.500000  0.794030  1
  La  La6  1  0.261125  0.000000  0.956389  1
  Th  Th7  1  0.743587  0.500000  0.042210  1
  Se  Se8  1  0.124382  0.500000  0.067219  1
  Se  Se9  1  0.518974  0.000000  0.105612  1
  Se  Se10  1  0.848644  0.500000  0.216975  1
  Se  Se11  1  0.354641  0.500000  0.278226  1
  Se  Se12  1  0.007153  0.000000  0.388916  1
  Se  Se13  1  0.627809  0.500000  0.432459  1
  Se  Se14  1  0.371783  0.000000  0.567315  1
  Se  Se15  1  0.992485  0.500000  0.609617  1
  Se  Se16  1  0.644276  0.000000  0.721084  1
  Se  Se17  1  0.146790  0.000000  0.781460  1
  Se  Se18  1  0.497633  0.500000  0.896949  1
  Se  Se19  1  0.868068  0.000000  0.934035  1
