# generated using pymatgen
data_Ac8AlSn24
_symmetry_space_group_name_H-M   'P 1'
_cell_length_a   9.91394400
_cell_length_b   9.91394400
_cell_length_c   9.91394400
_cell_angle_alpha   90.00000000
_cell_angle_beta   90.00000000
_cell_angle_gamma   90.00000000
_symmetry_Int_Tables_number   1
_chemical_formula_structural   Ac8AlSn24
_chemical_formula_sum   'Ac8 Al1 Sn24'
_cell_volume   974.40473175
_cell_formula_units_Z   1
loop_
 _symmetry_equiv_pos_site_id
 _symmetry_equiv_pos_as_xyz
  1  'x, y, z'
loop_
 _atom_site_type_symbol
 _atom_site_label
 _atom_site_symmetry_multiplicity
 _atom_site_fract_x
 _atom_site_fract_y
 _atom_site_fract_z
 _atom_site_occupancy
  Ac  Ac0  1  0.249498  0.249498  0.249498  1
  Ac  Ac1  1  0.750502  0.750502  0.750502  1
  Ac  Ac2  1  0.750502  0.750502  0.249498  1
  Ac  Ac3  1  0.750502  0.249498  0.750502  1
  Ac  Ac4  1  0.249498  0.249498  0.750502  1
  Ac  Ac5  1  0.249498  0.750502  0.249498  1
  Ac  Ac6  1  0.249498  0.750502  0.750502  1
  Ac  Ac7  1  0.750502  0.249498  0.249498  1
  Al  Al8  1  0.000000  0.000000  0.000000  1
  Sn  Sn9  1  0.260122  0.500000  0.000000  1
  Sn  Sn10  1  0.739878  0.500000  0.000000  1
  Sn  Sn11  1  0.000000  0.260122  0.500000  1
  Sn  Sn12  1  0.500000  0.260122  0.000000  1
  Sn  Sn13  1  0.000000  0.739878  0.500000  1
  Sn  Sn14  1  0.500000  0.739878  0.000000  1
  Sn  Sn15  1  0.500000  0.000000  0.260122  1
  Sn  Sn16  1  0.260122  0.000000  0.500000  1
  Sn  Sn17  1  0.500000  0.000000  0.739878  1
  Sn  Sn18  1  0.739878  0.000000  0.500000  1
  Sn  Sn19  1  0.000000  0.500000  0.260122  1
  Sn  Sn20  1  0.000000  0.500000  0.739878  1
  Sn  Sn21  1  0.250543  0.500000  0.500000  1
  Sn  Sn22  1  0.749457  0.500000  0.500000  1
  Sn  Sn23  1  0.500000  0.250543  0.500000  1
  Sn  Sn24  1  0.500000  0.749457  0.500000  1
  Sn  Sn25  1  0.500000  0.500000  0.250543  1
  Sn  Sn26  1  0.500000  0.500000  0.749457  1
  Sn  Sn27  1  0.293946  0.000000  0.000000  1
  Sn  Sn28  1  0.706054  0.000000  0.000000  1
  Sn  Sn29  1  0.000000  0.293946  0.000000  1
  Sn  Sn30  1  0.000000  0.706054  0.000000  1
  Sn  Sn31  1  0.000000  0.000000  0.293946  1
  Sn  Sn32  1  0.000000  0.000000  0.706054  1
