# generated using pymatgen
data_Ca3C3ClF
_symmetry_space_group_name_H-M   'P 1'
_cell_length_a   6.61766092
_cell_length_b   6.61766138
_cell_length_c   11.17835400
_cell_angle_alpha   90.00000000
_cell_angle_beta   90.00000000
_cell_angle_gamma   146.78654815
_symmetry_Int_Tables_number   1
_chemical_formula_structural   Ca3C3ClF
_chemical_formula_sum   'Ca6 C6 Cl2 F2'
_cell_volume   268.14947949
_cell_formula_units_Z   2
loop_
 _symmetry_equiv_pos_site_id
 _symmetry_equiv_pos_as_xyz
  1  'x, y, z'
loop_
 _atom_site_type_symbol
 _atom_site_label
 _atom_site_symmetry_multiplicity
 _atom_site_fract_x
 _atom_site_fract_y
 _atom_site_fract_z
 _atom_site_occupancy
  Ca  Ca0  1  0.657539  0.342461  0.576920  1
  Ca  Ca1  1  0.342461  0.657539  0.423080  1
  Ca  Ca2  1  0.342461  0.657539  0.076920  1
  Ca  Ca3  1  0.657539  0.342461  0.923080  1
  Ca  Ca4  1  0.093687  0.906313  0.250000  1
  Ca  Ca5  1  0.906313  0.093687  0.750000  1
  C  C6  1  0.279925  0.720075  0.631418  1
  C  C7  1  0.720075  0.279925  0.368582  1
  C  C8  1  0.720075  0.279925  0.131418  1
  C  C9  1  0.279925  0.720075  0.868582  1
  C  C10  1  0.729361  0.270639  0.250000  1
  C  C11  1  0.270639  0.729361  0.750000  1
  Cl  Cl12  1  0.000000  0.000000  0.000000  1
  Cl  Cl13  1  0.000000  0.000000  0.500000  1
  F  F14  1  0.539388  0.460612  0.750000  1
  F  F15  1  0.460612  0.539388  0.250000  1
