# generated using pymatgen
data_NaYb(CuS)4
_symmetry_space_group_name_H-M   'P 1'
_cell_length_a   7.66579009
_cell_length_b   7.66579061
_cell_length_c   6.69012882
_cell_angle_alpha   63.71433084
_cell_angle_beta   63.71433117
_cell_angle_gamma   29.03484195
_symmetry_Int_Tables_number   1
_chemical_formula_structural   NaYb(CuS)4
_chemical_formula_sum   'Na1 Yb1 Cu4 S4'
_cell_volume   169.67260040
_cell_formula_units_Z   1
loop_
 _symmetry_equiv_pos_site_id
 _symmetry_equiv_pos_as_xyz
  1  'x, y, z'
loop_
 _atom_site_type_symbol
 _atom_site_label
 _atom_site_symmetry_multiplicity
 _atom_site_fract_x
 _atom_site_fract_y
 _atom_site_fract_z
 _atom_site_occupancy
  Na  Na0  1  0.000000  0.000000  0.000000  1
  Yb  Yb1  1  0.500000  0.500000  0.500000  1
  Cu  Cu2  1  0.184251  0.184251  0.146994  1
  Cu  Cu3  1  0.683613  0.683613  0.648215  1
  Cu  Cu4  1  0.815749  0.815749  0.853006  1
  Cu  Cu5  1  0.316387  0.316387  0.351785  1
  S  S6  1  0.869255  0.869255  0.466021  1
  S  S7  1  0.367538  0.367538  0.963754  1
  S  S8  1  0.130745  0.130745  0.533979  1
  S  S9  1  0.632462  0.632462  0.036246  1
