# generated using pymatgen
data_Hf8TaNb(Si3N)2
_symmetry_space_group_name_H-M   'P 1'
_cell_length_a   7.78595600
_cell_length_b   7.78595540
_cell_length_c   5.47732700
_cell_angle_alpha   90.00000000
_cell_angle_beta   90.00000000
_cell_angle_gamma   120.00000253
_symmetry_Int_Tables_number   1
_chemical_formula_structural   Hf8TaNb(Si3N)2
_chemical_formula_sum   'Hf8 Ta1 Nb1 Si6 N2'
_cell_volume   287.55647217
_cell_formula_units_Z   1
loop_
 _symmetry_equiv_pos_site_id
 _symmetry_equiv_pos_as_xyz
  1  'x, y, z'
loop_
 _atom_site_type_symbol
 _atom_site_label
 _atom_site_symmetry_multiplicity
 _atom_site_fract_x
 _atom_site_fract_y
 _atom_site_fract_z
 _atom_site_occupancy
  Hf  Hf0  1  0.235556  0.999901  0.750459  1
  Hf  Hf1  1  0.764346  0.999901  0.249541  1
  Hf  Hf2  1  0.000099  0.235654  0.750459  1
  Hf  Hf3  1  0.000099  0.764444  0.249541  1
  Hf  Hf4  1  0.764346  0.764444  0.750459  1
  Hf  Hf5  1  0.235556  0.235654  0.249541  1
  Hf  Hf6  1  0.333333  0.666667  0.500000  1
  Hf  Hf7  1  0.666667  0.333333  0.500000  1
  Ta  Ta8  1  0.333333  0.666667  0.000000  1
  Nb  Nb9  1  0.666667  0.333333  0.000000  1
  Si  Si10  1  0.592666  0.999906  0.760473  1
  Si  Si11  1  0.407240  0.999906  0.239527  1
  Si  Si12  1  0.000094  0.592760  0.760473  1
  Si  Si13  1  0.000094  0.407334  0.239527  1
  Si  Si14  1  0.407240  0.407334  0.760473  1
  Si  Si15  1  0.592666  0.592760  0.239527  1
  N  N16  1  0.000000  0.000000  0.500000  1
  N  N17  1  0.000000  0.000000  0.000000  1
