# generated using pymatgen
data_Tb3Pr3Ta2(Co4P3)4
_symmetry_space_group_name_H-M   'P 1'
_cell_length_a   3.75208600
_cell_length_b   10.72782276
_cell_length_c   12.43811789
_cell_angle_alpha   89.95670531
_cell_angle_beta   90.00000000
_cell_angle_gamma   90.00000000
_symmetry_Int_Tables_number   1
_chemical_formula_structural   Tb3Pr3Ta2(Co4P3)4
_chemical_formula_sum   'Tb3 Pr3 Ta2 Co16 P12'
_cell_volume   500.65541613
_cell_formula_units_Z   1
loop_
 _symmetry_equiv_pos_site_id
 _symmetry_equiv_pos_as_xyz
  1  'x, y, z'
loop_
 _atom_site_type_symbol
 _atom_site_label
 _atom_site_symmetry_multiplicity
 _atom_site_fract_x
 _atom_site_fract_y
 _atom_site_fract_z
 _atom_site_occupancy
  Tb  Tb0  1  0.500000  0.819936  0.204263  1
  Tb  Tb1  1  0.500000  0.179833  0.203672  1
  Tb  Tb2  1  0.000000  0.681014  0.796117  1
  Pr  Pr3  1  0.000000  0.500454  0.526156  1
  Pr  Pr4  1  0.500000  0.999703  0.473091  1
  Pr  Pr5  1  0.000000  0.320646  0.795051  1
  Ta  Ta6  1  0.500000  0.500301  0.153478  1
  Ta  Ta7  1  0.000000  0.998891  0.847093  1
  Co  Co8  1  0.500000  0.504043  0.704741  1
  Co  Co9  1  0.000000  0.999668  0.294462  1
  Co  Co10  1  0.000000  0.501844  0.988320  1
  Co  Co11  1  0.500000  0.998268  0.014240  1
  Co  Co12  1  0.500000  0.332798  0.994512  1
  Co  Co13  1  0.500000  0.668892  0.993452  1
  Co  Co14  1  0.000000  0.166154  0.009116  1
  Co  Co15  1  0.000000  0.832304  0.008270  1
  Co  Co16  1  0.500000  0.294889  0.429130  1
  Co  Co17  1  0.500000  0.705184  0.430533  1
  Co  Co18  1  0.000000  0.204052  0.566739  1
  Co  Co19  1  0.000000  0.795264  0.569076  1
  Co  Co20  1  0.500000  0.878101  0.708917  1
  Co  Co21  1  0.500000  0.118679  0.706691  1
  Co  Co22  1  0.000000  0.621360  0.291386  1
  Co  Co23  1  0.000000  0.378678  0.290770  1
  P  P24  1  0.500000  0.503209  0.885679  1
  P  P25  1  0.000000  0.999304  0.117050  1
  P  P26  1  0.500000  0.500044  0.350416  1
  P  P27  1  0.000000  0.000027  0.649418  1
  P  P28  1  0.500000  0.305265  0.612639  1
  P  P29  1  0.500000  0.694012  0.616777  1
  P  P30  1  0.000000  0.192743  0.381786  1
  P  P31  1  0.000000  0.806671  0.382995  1
  P  P32  1  0.500000  0.841411  0.894610  1
  P  P33  1  0.500000  0.155818  0.897370  1
  P  P34  1  0.000000  0.658939  0.106551  1
  P  P35  1  0.000000  0.341600  0.105433  1
