# generated using pymatgen
data_Zr5Sc3Ta4(VSi2)8
_symmetry_space_group_name_H-M   'P 1'
_cell_length_a   6.71814905
_cell_length_b   6.72056406
_cell_length_c   12.46194038
_cell_angle_alpha   89.99278221
_cell_angle_beta   89.98816708
_cell_angle_gamma   89.98538486
_symmetry_Int_Tables_number   1
_chemical_formula_structural   Zr5Sc3Ta4(VSi2)8
_chemical_formula_sum   'Zr5 Sc3 Ta4 V8 Si16'
_cell_volume   562.65347115
_cell_formula_units_Z   1
loop_
 _symmetry_equiv_pos_site_id
 _symmetry_equiv_pos_as_xyz
  1  'x, y, z'
loop_
 _atom_site_type_symbol
 _atom_site_label
 _atom_site_symmetry_multiplicity
 _atom_site_fract_x
 _atom_site_fract_y
 _atom_site_fract_z
 _atom_site_occupancy
  Zr  Zr0  1  0.004596  0.661093  0.030281  1
  Zr  Zr1  1  0.837022  0.503879  0.280750  1
  Zr  Zr2  1  0.162185  0.496084  0.780301  1
  Zr  Zr3  1  0.503582  0.837448  0.718911  1
  Zr  Zr4  1  0.495894  0.162502  0.219276  1
  Sc  Sc5  1  0.996760  0.337649  0.529540  1
  Sc  Sc6  1  0.663190  0.002423  0.970556  1
  Sc  Sc7  1  0.337658  0.997071  0.470515  1
  Ta  Ta8  1  0.332970  0.335377  0.999703  1
  Ta  Ta9  1  0.165980  0.834261  0.249997  1
  Ta  Ta10  1  0.834057  0.165771  0.749829  1
  Ta  Ta11  1  0.665885  0.665765  0.500020  1
  V  V12  1  0.006055  0.160491  0.127472  1
  V  V13  1  0.341168  0.506938  0.376302  1
  V  V14  1  0.658901  0.493489  0.876464  1
  V  V15  1  0.506835  0.341460  0.623820  1
  V  V16  1  0.493922  0.659976  0.123169  1
  V  V17  1  0.993820  0.840186  0.628126  1
  V  V18  1  0.158893  0.005974  0.872386  1
  V  V19  1  0.840461  0.993237  0.372165  1
  Si  Si20  1  0.294006  0.958938  0.060921  1
  Si  Si21  1  0.540097  0.794784  0.312943  1
  Si  Si22  1  0.459520  0.205203  0.812643  1
  Si  Si23  1  0.794806  0.540392  0.687146  1
  Si  Si24  1  0.207480  0.458424  0.188613  1
  Si  Si25  1  0.707365  0.042040  0.560702  1
  Si  Si26  1  0.956180  0.290557  0.938410  1
  Si  Si27  1  0.042113  0.707010  0.439203  1
  Si  Si28  1  0.708538  0.373521  0.072747  1
  Si  Si29  1  0.126549  0.208575  0.323481  1
  Si  Si30  1  0.872445  0.790705  0.823278  1
  Si  Si31  1  0.208852  0.126991  0.676585  1
  Si  Si32  1  0.789986  0.874902  0.177282  1
  Si  Si33  1  0.290594  0.626118  0.572472  1
  Si  Si34  1  0.375522  0.710293  0.926556  1
  Si  Si35  1  0.626113  0.290474  0.427435  1
