# generated using pymatgen
data_Rb8La3UBr20
_symmetry_space_group_name_H-M   'P 1'
_cell_length_a   8.89301935
_cell_length_b   9.47344600
_cell_length_c   14.21351200
_cell_angle_alpha   90.00000000
_cell_angle_beta   89.53461990
_cell_angle_gamma   90.00000000
_symmetry_Int_Tables_number   1
_chemical_formula_structural   Rb8La3UBr20
_chemical_formula_sum   'Rb8 La3 U1 Br20'
_cell_volume   1197.41390085
_cell_formula_units_Z   1
loop_
 _symmetry_equiv_pos_site_id
 _symmetry_equiv_pos_as_xyz
  1  'x, y, z'
loop_
 _atom_site_type_symbol
 _atom_site_label
 _atom_site_symmetry_multiplicity
 _atom_site_fract_x
 _atom_site_fract_y
 _atom_site_fract_z
 _atom_site_occupancy
  Rb  Rb0  1  0.944415  0.002700  0.830129  1
  Rb  Rb1  1  0.054301  0.995125  0.169915  1
  Rb  Rb2  1  0.446199  0.995675  0.674285  1
  Rb  Rb3  1  0.054301  0.504875  0.169915  1
  Rb  Rb4  1  0.554113  0.003141  0.325682  1
  Rb  Rb5  1  0.944415  0.497300  0.830129  1
  Rb  Rb6  1  0.554113  0.496859  0.325682  1
  Rb  Rb7  1  0.446199  0.504325  0.674285  1
  La  La8  1  0.927264  0.750000  0.504568  1
  La  La9  1  0.073720  0.250000  0.495383  1
  La  La10  1  0.428944  0.250000  0.995651  1
  U  U11  1  0.568377  0.750000  0.003084  1
  Br  Br12  1  0.120196  0.750000  0.676755  1
  Br  Br13  1  0.879873  0.250000  0.323464  1
  Br  Br14  1  0.622355  0.250000  0.823358  1
  Br  Br15  1  0.381473  0.750000  0.174384  1
  Br  Br16  1  0.838025  0.043163  0.575730  1
  Br  Br17  1  0.163022  0.956521  0.423945  1
  Br  Br18  1  0.338062  0.954087  0.927818  1
  Br  Br19  1  0.163022  0.543479  0.423945  1
  Br  Br20  1  0.661509  0.041088  0.072597  1
  Br  Br21  1  0.838025  0.456837  0.575730  1
  Br  Br22  1  0.661509  0.458912  0.072597  1
  Br  Br23  1  0.338062  0.545913  0.927818  1
  Br  Br24  1  0.587154  0.750000  0.511109  1
  Br  Br25  1  0.413551  0.250000  0.489742  1
  Br  Br26  1  0.089508  0.250000  0.988678  1
  Br  Br27  1  0.908419  0.750000  0.011505  1
  Br  Br28  1  0.657064  0.750000  0.802617  1
  Br  Br29  1  0.342395  0.250000  0.198880  1
  Br  Br30  1  0.157169  0.250000  0.699887  1
  Br  Br31  1  0.843244  0.750000  0.300737  1
