# generated using pymatgen
data_Ca2GaPdPt
_symmetry_space_group_name_H-M   'P 1'
_cell_length_a   5.73211685
_cell_length_b   5.73211730
_cell_length_c   7.85251944
_cell_angle_alpha   78.89557513
_cell_angle_beta   78.89557384
_cell_angle_gamma   59.94734940
_symmetry_Int_Tables_number   1
_chemical_formula_structural   Ca2GaPdPt
_chemical_formula_sum   'Ca4 Ga2 Pd2 Pt2'
_cell_volume   217.73619228
_cell_formula_units_Z   2
loop_
 _symmetry_equiv_pos_site_id
 _symmetry_equiv_pos_as_xyz
  1  'x, y, z'
loop_
 _atom_site_type_symbol
 _atom_site_label
 _atom_site_symmetry_multiplicity
 _atom_site_fract_x
 _atom_site_fract_y
 _atom_site_fract_z
 _atom_site_occupancy
  Ca  Ca0  1  0.785553  0.517299  0.350135  1
  Ca  Ca1  1  0.482701  0.214447  0.149865  1
  Ca  Ca2  1  0.215919  0.485273  0.650617  1
  Ca  Ca3  1  0.514727  0.784081  0.849383  1
  Ga  Ga4  1  0.135436  0.864564  0.250000  1
  Ga  Ga5  1  0.869086  0.130914  0.750000  1
  Pd  Pd6  1  0.996428  0.262195  0.998316  1
  Pd  Pd7  1  0.737805  0.003572  0.501684  1
  Pt  Pt8  1  0.002582  0.740238  0.003849  1
  Pt  Pt9  1  0.259762  0.997418  0.496151  1
