# generated using pymatgen
data_Dy3ErGa18(Ni2Ru)2
_symmetry_space_group_name_H-M   'P 1'
_cell_length_a   7.49189902
_cell_length_b   7.49190337
_cell_length_c   9.42048201
_cell_angle_alpha   90.00613707
_cell_angle_beta   89.99836040
_cell_angle_gamma   120.01329238
_symmetry_Int_Tables_number   1
_chemical_formula_structural   Dy3ErGa18(Ni2Ru)2
_chemical_formula_sum   'Dy3 Er1 Ga18 Ni4 Ru2'
_cell_volume   457.85678002
_cell_formula_units_Z   1
loop_
 _symmetry_equiv_pos_site_id
 _symmetry_equiv_pos_as_xyz
  1  'x, y, z'
loop_
 _atom_site_type_symbol
 _atom_site_label
 _atom_site_symmetry_multiplicity
 _atom_site_fract_x
 _atom_site_fract_y
 _atom_site_fract_z
 _atom_site_occupancy
  Dy  Dy0  1  0.666037  0.995854  0.249416  1
  Dy  Dy1  1  0.004136  0.333947  0.750586  1
  Dy  Dy2  1  0.995855  0.666052  0.250585  1
  Er  Er3  1  0.333943  0.004125  0.749405  1
  Ga  Ga4  1  0.880400  0.880304  0.749994  1
  Ga  Ga5  1  0.119759  0.119754  0.250003  1
  Ga  Ga6  1  0.668988  0.669704  0.438387  1
  Ga  Ga7  1  0.331014  0.330169  0.938306  1
  Ga  Ga8  1  0.669709  0.668987  0.061618  1
  Ga  Ga9  1  0.330301  0.330892  0.561692  1
  Ga  Ga10  1  0.453441  0.663438  0.752132  1
  Ga  Ga11  1  0.546512  0.336631  0.252134  1
  Ga  Ga12  1  0.663247  0.453315  0.747860  1
  Ga  Ga13  1  0.336639  0.546517  0.247878  1
  Ga  Ga14  1  0.004024  0.333406  0.075400  1
  Ga  Ga15  1  0.996114  0.666738  0.575464  1
  Ga  Ga16  1  0.333419  0.004022  0.424710  1
  Ga  Ga17  1  0.666460  0.995971  0.924535  1
  Ga  Ga18  1  0.005418  0.669279  0.924824  1
  Ga  Ga19  1  0.994740  0.330884  0.424895  1
  Ga  Ga20  1  0.668974  0.005272  0.575173  1
  Ga  Ga21  1  0.330885  0.994730  0.074995  1
  Ni  Ni22  1  0.000127  0.999896  0.500035  1
  Ni  Ni23  1  0.999922  0.000117  0.999963  1
  Ni  Ni24  1  0.669406  0.330546  0.500035  1
  Ni  Ni25  1  0.330580  0.669451  0.999973  1
  Ru  Ru26  1  0.327162  0.672892  0.500084  1
  Ru  Ru27  1  0.672788  0.327109  0.999917  1
