# generated using pymatgen
data_YTm5GaSi5Rh12
_symmetry_space_group_name_H-M   'P 1'
_cell_length_a   5.55883900
_cell_length_b   5.55883757
_cell_length_c   15.07611100
_cell_angle_alpha   90.00000000
_cell_angle_beta   90.00000000
_cell_angle_gamma   119.99999068
_symmetry_Int_Tables_number   1
_chemical_formula_structural   YTm5GaSi5Rh12
_chemical_formula_sum   'Y1 Tm5 Ga1 Si5 Rh12'
_cell_volume   403.44847519
_cell_formula_units_Z   1
loop_
 _symmetry_equiv_pos_site_id
 _symmetry_equiv_pos_as_xyz
  1  'x, y, z'
loop_
 _atom_site_type_symbol
 _atom_site_label
 _atom_site_symmetry_multiplicity
 _atom_site_fract_x
 _atom_site_fract_y
 _atom_site_fract_z
 _atom_site_occupancy
  Y  Y0  1  0.333333  0.666667  0.250171  1
  Tm  Tm1  1  0.666667  0.333333  0.962519  1
  Tm  Tm2  1  0.666667  0.333333  0.537024  1
  Tm  Tm3  1  0.333333  0.666667  0.036883  1
  Tm  Tm4  1  0.666667  0.333333  0.749636  1
  Tm  Tm5  1  0.333333  0.666667  0.463439  1
  Ga  Ga6  1  0.000000  0.000000  0.500216  1
  Si  Si7  1  0.666667  0.333333  0.247974  1
  Si  Si8  1  0.000000  0.000000  0.248527  1
  Si  Si9  1  0.000000  0.000000  0.751485  1
  Si  Si10  1  0.333333  0.666667  0.752062  1
  Si  Si11  1  0.000000  0.000000  0.999864  1
  Rh  Rh12  1  0.166926  0.333853  0.870932  1
  Rh  Rh13  1  0.167973  0.335947  0.634073  1
  Rh  Rh14  1  0.666147  0.833074  0.870932  1
  Rh  Rh15  1  0.336033  0.168017  0.366703  1
  Rh  Rh16  1  0.831983  0.663967  0.366703  1
  Rh  Rh17  1  0.831983  0.168017  0.366703  1
  Rh  Rh18  1  0.833019  0.166981  0.128359  1
  Rh  Rh19  1  0.333962  0.166981  0.128359  1
  Rh  Rh20  1  0.664053  0.832027  0.634073  1
  Rh  Rh21  1  0.167973  0.832027  0.634073  1
  Rh  Rh22  1  0.833019  0.666038  0.128359  1
  Rh  Rh23  1  0.166926  0.833074  0.870932  1
