# generated using pymatgen
data_LaPr7(MgIr)2
_symmetry_space_group_name_H-M   'P 1'
_cell_length_a   10.12252180
_cell_length_b   10.12252183
_cell_length_c   10.13879500
_cell_angle_alpha   59.94680934
_cell_angle_beta   59.94680925
_cell_angle_gamma   59.92963284
_symmetry_Int_Tables_number   1
_chemical_formula_structural   LaPr7(MgIr)2
_chemical_formula_sum   'La2 Pr14 Mg4 Ir4'
_cell_volume   733.61472044
_cell_formula_units_Z   2
loop_
 _symmetry_equiv_pos_site_id
 _symmetry_equiv_pos_as_xyz
  1  'x, y, z'
loop_
 _atom_site_type_symbol
 _atom_site_label
 _atom_site_symmetry_multiplicity
 _atom_site_fract_x
 _atom_site_fract_y
 _atom_site_fract_z
 _atom_site_occupancy
  La  La0  1  0.344906  0.344906  0.345525  1
  La  La1  1  0.344906  0.344906  0.964663  1
  Pr  Pr2  1  0.346447  0.959296  0.347129  1
  Pr  Pr3  1  0.959296  0.346447  0.347129  1
  Pr  Pr4  1  0.811853  0.188299  0.188778  1
  Pr  Pr5  1  0.188299  0.811853  0.811069  1
  Pr  Pr6  1  0.188299  0.811853  0.188778  1
  Pr  Pr7  1  0.811853  0.188299  0.811069  1
  Pr  Pr8  1  0.188307  0.188307  0.811693  1
  Pr  Pr9  1  0.811194  0.811194  0.188806  1
  Pr  Pr10  1  0.938090  0.561631  0.562516  1
  Pr  Pr11  1  0.561631  0.938090  0.937763  1
  Pr  Pr12  1  0.561631  0.938090  0.562516  1
  Pr  Pr13  1  0.938090  0.561631  0.937763  1
  Pr  Pr14  1  0.562826  0.562826  0.937174  1
  Pr  Pr15  1  0.938447  0.938447  0.561553  1
  Mg  Mg16  1  0.579045  0.579045  0.578204  1
  Mg  Mg17  1  0.579045  0.579045  0.263706  1
  Mg  Mg18  1  0.579287  0.263495  0.578609  1
  Mg  Mg19  1  0.263495  0.579287  0.578609  1
  Ir  Ir20  1  0.142493  0.142493  0.139942  1
  Ir  Ir21  1  0.142493  0.142493  0.575071  1
  Ir  Ir22  1  0.143402  0.574664  0.140967  1
  Ir  Ir23  1  0.574664  0.143402  0.140967  1
