# generated using pymatgen
data_Nd3GaHg2Pd3
_symmetry_space_group_name_H-M   'P 1'
_cell_length_a   7.68177700
_cell_length_b   7.80988237
_cell_length_c   3.91732700
_cell_angle_alpha   90.00000000
_cell_angle_beta   90.00000000
_cell_angle_gamma   119.45884839
_symmetry_Int_Tables_number   1
_chemical_formula_structural   Nd3GaHg2Pd3
_chemical_formula_sum   'Nd3 Ga1 Hg2 Pd3'
_cell_volume   204.62991318
_cell_formula_units_Z   1
loop_
 _symmetry_equiv_pos_site_id
 _symmetry_equiv_pos_as_xyz
  1  'x, y, z'
loop_
 _atom_site_type_symbol
 _atom_site_label
 _atom_site_symmetry_multiplicity
 _atom_site_fract_x
 _atom_site_fract_y
 _atom_site_fract_z
 _atom_site_occupancy
  Nd  Nd0  1  0.999338  0.596530  0.500000  1
  Nd  Nd1  1  0.402807  0.403470  0.500000  1
  Nd  Nd2  1  0.589366  0.000000  0.500000  1
  Ga  Ga3  1  0.258792  0.000000  0.000000  1
  Hg  Hg4  1  0.998070  0.256546  0.000000  1
  Hg  Hg5  1  0.741524  0.743454  0.000000  1
  Pd  Pd6  1  0.035924  0.000000  0.500000  1
  Pd  Pd7  1  0.326910  0.679643  0.000000  1
  Pd  Pd8  1  0.647268  0.320357  0.000000  1
