# generated using pymatgen
data_Ac4BeCoSi6
_symmetry_space_group_name_H-M   'P 1'
_cell_length_a   8.22084900
_cell_length_b   8.22084869
_cell_length_c   4.64552000
_cell_angle_alpha   90.00000000
_cell_angle_beta   90.00000000
_cell_angle_gamma   119.99999724
_symmetry_Int_Tables_number   1
_chemical_formula_structural   Ac4BeCoSi6
_chemical_formula_sum   'Ac4 Be1 Co1 Si6'
_cell_volume   271.89317344
_cell_formula_units_Z   1
loop_
 _symmetry_equiv_pos_site_id
 _symmetry_equiv_pos_as_xyz
  1  'x, y, z'
loop_
 _atom_site_type_symbol
 _atom_site_label
 _atom_site_symmetry_multiplicity
 _atom_site_fract_x
 _atom_site_fract_y
 _atom_site_fract_z
 _atom_site_occupancy
  Ac  Ac0  1  0.502796  0.497204  0.000000  1
  Ac  Ac1  1  0.994407  0.497204  0.000000  1
  Ac  Ac2  1  0.502796  0.005593  0.000000  1
  Ac  Ac3  1  0.000000  0.000000  0.000000  1
  Be  Be4  1  0.333333  0.666667  0.500000  1
  Co  Co5  1  0.666667  0.333333  0.500000  1
  Si  Si6  1  0.826204  0.652408  0.500000  1
  Si  Si7  1  0.168534  0.831466  0.500000  1
  Si  Si8  1  0.662932  0.831466  0.500000  1
  Si  Si9  1  0.168534  0.337068  0.500000  1
  Si  Si10  1  0.826204  0.173796  0.500000  1
  Si  Si11  1  0.347592  0.173796  0.500000  1
