# generated using pymatgen
data_CaPrY5IrBr12
_symmetry_space_group_name_H-M   'P 1'
_cell_length_a   9.35702286
_cell_length_b   9.31677244
_cell_length_c   9.37411377
_cell_angle_alpha   106.75331147
_cell_angle_beta   106.64676303
_cell_angle_gamma   107.44671146
_symmetry_Int_Tables_number   1
_chemical_formula_structural   CaPrY5IrBr12
_chemical_formula_sum   'Ca1 Pr1 Y5 Ir1 Br12'
_cell_volume   681.49543050
_cell_formula_units_Z   1
loop_
 _symmetry_equiv_pos_site_id
 _symmetry_equiv_pos_as_xyz
  1  'x, y, z'
loop_
 _atom_site_type_symbol
 _atom_site_label
 _atom_site_symmetry_multiplicity
 _atom_site_fract_x
 _atom_site_fract_y
 _atom_site_fract_z
 _atom_site_occupancy
  Ca  Ca0  1  0.499696  0.500754  0.498900  1
  Pr  Pr1  1  0.893960  0.685499  0.975981  1
  Y  Y2  1  0.103842  0.305144  0.025021  1
  Y  Y3  1  0.316738  0.026466  0.106556  1
  Y  Y4  1  0.026432  0.108655  0.316315  1
  Y  Y5  1  0.974939  0.896329  0.686035  1
  Y  Y6  1  0.683812  0.973189  0.893440  1
  Ir  Ir7  1  0.000385  0.999651  0.001391  1
  Br  Br8  1  0.228095  0.681863  0.075666  1
  Br  Br9  1  0.455379  0.376497  0.158410  1
  Br  Br10  1  0.679322  0.072552  0.216080  1
  Br  Br11  1  0.929883  0.789743  0.330704  1
  Br  Br12  1  0.158502  0.455845  0.374554  1
  Br  Br13  1  0.375630  0.158213  0.455157  1
  Br  Br14  1  0.624782  0.843640  0.545307  1
  Br  Br15  1  0.839529  0.544030  0.614017  1
  Br  Br16  1  0.073370  0.218915  0.681442  1
  Br  Br17  1  0.320758  0.928485  0.784369  1
  Br  Br18  1  0.532671  0.623484  0.834412  1
  Br  Br19  1  0.782277  0.311049  0.926245  1
