# generated using pymatgen
data_TaTiBi4(OsO8)2
_symmetry_space_group_name_H-M   'P 1'
_cell_length_a   5.52461479
_cell_length_b   7.79363040
_cell_length_c   7.77649077
_cell_angle_alpha   103.93682060
_cell_angle_beta   89.76623040
_cell_angle_gamma   91.61427445
_symmetry_Int_Tables_number   1
_chemical_formula_structural   TaTiBi4(OsO8)2
_chemical_formula_sum   'Ta1 Ti1 Bi4 Os2 O16'
_cell_volume   324.84383306
_cell_formula_units_Z   1
loop_
 _symmetry_equiv_pos_site_id
 _symmetry_equiv_pos_as_xyz
  1  'x, y, z'
loop_
 _atom_site_type_symbol
 _atom_site_label
 _atom_site_symmetry_multiplicity
 _atom_site_fract_x
 _atom_site_fract_y
 _atom_site_fract_z
 _atom_site_occupancy
  Ta  Ta0  1  0.252661  0.159385  0.791659  1
  Ti  Ti1  1  0.738701  0.840461  0.704895  1
  Bi  Bi2  1  0.289326  0.619313  0.415908  1
  Bi  Bi3  1  0.210557  0.674578  0.894144  1
  Bi  Bi4  1  0.745061  0.371429  0.611238  1
  Bi  Bi5  1  0.785126  0.386391  0.091679  1
  Os  Os6  1  0.744346  0.833795  0.207827  1
  Os  Os7  1  0.254905  0.165610  0.292460  1
  O  O8  1  0.488931  0.991354  0.228852  1
  O  O9  1  0.500717  0.597839  0.669016  1
  O  O10  1  0.046179  0.365810  0.360359  1
  O  O11  1  0.681108  0.809645  0.450302  1
  O  O12  1  0.309821  0.178214  0.545896  1
  O  O13  1  0.805744  0.822917  0.953528  1
  O  O14  1  0.044526  0.402324  0.840931  1
  O  O15  1  0.542583  0.318284  0.850263  1
  O  O16  1  0.421646  0.941884  0.765972  1
  O  O17  1  0.930758  0.041536  0.725339  1
  O  O18  1  0.507664  0.356684  0.321219  1
  O  O19  1  0.199506  0.178832  0.046454  1
  O  O20  1  0.994208  0.653932  0.182068  1
  O  O21  1  0.988646  0.009110  0.274546  1
  O  O22  1  0.988283  0.652737  0.644403  1
  O  O23  1  0.528997  0.627937  0.131044  1
