# generated using pymatgen
data_Zr3In3IrPtAu
_symmetry_space_group_name_H-M   'P 1'
_cell_length_a   7.58899400
_cell_length_b   7.58899449
_cell_length_c   3.64134300
_cell_angle_alpha   90.00000000
_cell_angle_beta   90.00000000
_cell_angle_gamma   120.00000777
_symmetry_Int_Tables_number   1
_chemical_formula_structural   Zr3In3IrPtAu
_chemical_formula_sum   'Zr3 In3 Ir1 Pt1 Au1'
_cell_volume   181.61872986
_cell_formula_units_Z   1
loop_
 _symmetry_equiv_pos_site_id
 _symmetry_equiv_pos_as_xyz
  1  'x, y, z'
loop_
 _atom_site_type_symbol
 _atom_site_label
 _atom_site_symmetry_multiplicity
 _atom_site_fract_x
 _atom_site_fract_y
 _atom_site_fract_z
 _atom_site_occupancy
  Zr  Zr0  1  0.408051  0.381092  0.500000  1
  Zr  Zr1  1  0.618908  0.026958  0.500000  1
  Zr  Zr2  1  0.973042  0.591949  0.500000  1
  In  In3  1  0.726956  0.735868  0.000000  1
  In  In4  1  0.264132  0.991089  0.000000  1
  In  In5  1  0.008911  0.273044  0.000000  1
  Ir  Ir6  1  0.666667  0.333333  0.000000  1
  Pt  Pt7  1  0.000000  0.000000  0.500000  1
  Au  Au8  1  0.333333  0.666667  0.000000  1
