# generated using pymatgen
data_La7Yb9MgCd3Ir4
_symmetry_space_group_name_H-M   'P 1'
_cell_length_a   10.00022541
_cell_length_b   10.00047618
_cell_length_c   10.06905941
_cell_angle_alpha   60.02270951
_cell_angle_beta   60.53958251
_cell_angle_gamma   60.73123120
_symmetry_Int_Tables_number   1
_chemical_formula_structural   La7Yb9MgCd3Ir4
_chemical_formula_sum   'La7 Yb9 Mg1 Cd3 Ir4'
_cell_volume   718.92364943
_cell_formula_units_Z   1
loop_
 _symmetry_equiv_pos_site_id
 _symmetry_equiv_pos_as_xyz
  1  'x, y, z'
loop_
 _atom_site_type_symbol
 _atom_site_label
 _atom_site_symmetry_multiplicity
 _atom_site_fract_x
 _atom_site_fract_y
 _atom_site_fract_z
 _atom_site_occupancy
  La  La0  1  0.344473  0.344319  0.352490  1
  La  La1  1  0.345747  0.339943  0.965946  1
  La  La2  1  0.349607  0.965364  0.340749  1
  La  La3  1  0.966466  0.348657  0.344779  1
  La  La4  1  0.810325  0.188502  0.189791  1
  La  La5  1  0.188336  0.812736  0.810592  1
  La  La6  1  0.191254  0.807474  0.192592  1
  Yb  Yb7  1  0.807534  0.191867  0.808590  1
  Yb  Yb8  1  0.193228  0.194419  0.805308  1
  Yb  Yb9  1  0.805929  0.809030  0.191229  1
  Yb  Yb10  1  0.940394  0.564716  0.559388  1
  Yb  Yb11  1  0.556917  0.939213  0.939336  1
  Yb  Yb12  1  0.557281  0.945018  0.557149  1
  Yb  Yb13  1  0.944129  0.554784  0.944542  1
  Yb  Yb14  1  0.553943  0.553227  0.949125  1
  Yb  Yb15  1  0.946986  0.948674  0.551904  1
  Mg  Mg16  1  0.573335  0.572143  0.574433  1
  Cd  Cd17  1  0.582844  0.580790  0.257048  1
  Cd  Cd18  1  0.581066  0.258677  0.579485  1
  Cd  Cd19  1  0.255987  0.582132  0.582215  1
  Ir  Ir20  1  0.133887  0.138392  0.145951  1
  Ir  Ir21  1  0.143156  0.129386  0.579304  1
  Ir  Ir22  1  0.148029  0.581180  0.134887  1
  Ir  Ir23  1  0.579145  0.149356  0.143164  1
