# generated using pymatgen
data_CaNd4ScSi4
_symmetry_space_group_name_H-M   'P 1'
_cell_length_a   7.52601100
_cell_length_b   7.52601100
_cell_length_c   4.42235900
_cell_angle_alpha   90.00000000
_cell_angle_beta   90.00000000
_cell_angle_gamma   90.00000000
_symmetry_Int_Tables_number   1
_chemical_formula_structural   CaNd4ScSi4
_chemical_formula_sum   'Ca1 Nd4 Sc1 Si4'
_cell_volume   250.48613549
_cell_formula_units_Z   1
loop_
 _symmetry_equiv_pos_site_id
 _symmetry_equiv_pos_as_xyz
  1  'x, y, z'
loop_
 _atom_site_type_symbol
 _atom_site_label
 _atom_site_symmetry_multiplicity
 _atom_site_fract_x
 _atom_site_fract_y
 _atom_site_fract_z
 _atom_site_occupancy
  Ca  Ca0  1  0.500000  0.500000  0.000000  1
  Nd  Nd1  1  0.679814  0.176727  0.500000  1
  Nd  Nd2  1  0.823273  0.679814  0.500000  1
  Nd  Nd3  1  0.176727  0.320186  0.500000  1
  Nd  Nd4  1  0.320186  0.823273  0.500000  1
  Sc  Sc5  1  0.000000  0.000000  0.000000  1
  Si  Si6  1  0.623515  0.894706  0.000000  1
  Si  Si7  1  0.894706  0.376485  0.000000  1
  Si  Si8  1  0.105294  0.623515  0.000000  1
  Si  Si9  1  0.376485  0.105294  0.000000  1
