# generated using pymatgen
data_PrGd4MgAu4
_symmetry_space_group_name_H-M   'P 1'
_cell_length_a   8.19064400
_cell_length_b   8.19064400
_cell_length_c   3.90826900
_cell_angle_alpha   90.00000000
_cell_angle_beta   90.00000000
_cell_angle_gamma   90.00000000
_symmetry_Int_Tables_number   1
_chemical_formula_structural   PrGd4MgAu4
_chemical_formula_sum   'Pr1 Gd4 Mg1 Au4'
_cell_volume   262.19267113
_cell_formula_units_Z   1
loop_
 _symmetry_equiv_pos_site_id
 _symmetry_equiv_pos_as_xyz
  1  'x, y, z'
loop_
 _atom_site_type_symbol
 _atom_site_label
 _atom_site_symmetry_multiplicity
 _atom_site_fract_x
 _atom_site_fract_y
 _atom_site_fract_z
 _atom_site_occupancy
  Pr  Pr0  1  0.000000  0.000000  0.000000  1
  Gd  Gd1  1  0.641628  0.188886  0.500000  1
  Gd  Gd2  1  0.358372  0.811114  0.500000  1
  Gd  Gd3  1  0.188886  0.358372  0.500000  1
  Gd  Gd4  1  0.811114  0.641628  0.500000  1
  Mg  Mg5  1  0.500000  0.500000  0.000000  1
  Au  Au6  1  0.125401  0.637254  0.000000  1
  Au  Au7  1  0.874599  0.362746  0.000000  1
  Au  Au8  1  0.637254  0.874599  0.000000  1
  Au  Au9  1  0.362746  0.125401  0.000000  1
