# generated using pymatgen
data_Ca4Ac16(Tl3Sn)3
_symmetry_space_group_name_H-M   'P 1'
_cell_length_a   8.61790400
_cell_length_b   8.61790400
_cell_length_c   15.90007600
_cell_angle_alpha   90.00000000
_cell_angle_beta   90.00000000
_cell_angle_gamma   90.00000000
_symmetry_Int_Tables_number   1
_chemical_formula_structural   Ca4Ac16(Tl3Sn)3
_chemical_formula_sum   'Ca4 Ac16 Tl9 Sn3'
_cell_volume   1180.87112710
_cell_formula_units_Z   1
loop_
 _symmetry_equiv_pos_site_id
 _symmetry_equiv_pos_as_xyz
  1  'x, y, z'
loop_
 _atom_site_type_symbol
 _atom_site_label
 _atom_site_symmetry_multiplicity
 _atom_site_fract_x
 _atom_site_fract_y
 _atom_site_fract_z
 _atom_site_occupancy
  Ca  Ca0  1  0.500000  0.500000  0.754391  1
  Ca  Ca1  1  0.000000  0.000000  0.251346  1
  Ca  Ca2  1  0.000000  0.000000  0.748654  1
  Ca  Ca3  1  0.500000  0.500000  0.245609  1
  Ac  Ac4  1  0.666582  0.167496  0.100170  1
  Ac  Ac5  1  0.169046  0.667663  0.601320  1
  Ac  Ac6  1  0.333418  0.832504  0.100170  1
  Ac  Ac7  1  0.830954  0.332337  0.601320  1
  Ac  Ac8  1  0.832504  0.666582  0.100170  1
  Ac  Ac9  1  0.332337  0.169046  0.601320  1
  Ac  Ac10  1  0.167496  0.333418  0.100170  1
  Ac  Ac11  1  0.667663  0.830954  0.601320  1
  Ac  Ac12  1  0.832504  0.333418  0.899830  1
  Ac  Ac13  1  0.332337  0.830954  0.398680  1
  Ac  Ac14  1  0.167496  0.666582  0.899830  1
  Ac  Ac15  1  0.667663  0.169046  0.398680  1
  Ac  Ac16  1  0.666582  0.832504  0.899830  1
  Ac  Ac17  1  0.169046  0.332337  0.398680  1
  Ac  Ac18  1  0.333418  0.167496  0.899830  1
  Ac  Ac19  1  0.830954  0.667663  0.398680  1
  Tl  Tl20  1  0.629745  0.129554  0.749929  1
  Tl  Tl21  1  0.129554  0.629745  0.250071  1
  Tl  Tl22  1  0.870446  0.370255  0.250071  1
  Tl  Tl23  1  0.370255  0.870446  0.749929  1
  Tl  Tl24  1  0.870446  0.629745  0.749929  1
  Tl  Tl25  1  0.370255  0.129554  0.250071  1
  Tl  Tl26  1  0.129554  0.370255  0.749929  1
  Tl  Tl27  1  0.629745  0.870446  0.250071  1
  Tl  Tl28  1  0.000000  0.000000  0.000000  1
  Sn  Sn29  1  0.500000  0.500000  0.500000  1
  Sn  Sn30  1  0.500000  0.500000  0.000000  1
  Sn  Sn31  1  0.000000  0.000000  0.500000  1
