# generated using pymatgen
data_Er2TaNb3(B2Ru5)2
_symmetry_space_group_name_H-M   'P 1'
_cell_length_a   9.55508645
_cell_length_b   9.55364792
_cell_length_c   3.08465900
_cell_angle_alpha   90.00000000
_cell_angle_beta   90.00000000
_cell_angle_gamma   89.47857226
_symmetry_Int_Tables_number   1
_chemical_formula_structural   Er2TaNb3(B2Ru5)2
_chemical_formula_sum   'Er2 Ta1 Nb3 B4 Ru10'
_cell_volume   281.57431039
_cell_formula_units_Z   1
loop_
 _symmetry_equiv_pos_site_id
 _symmetry_equiv_pos_as_xyz
  1  'x, y, z'
loop_
 _atom_site_type_symbol
 _atom_site_label
 _atom_site_symmetry_multiplicity
 _atom_site_fract_x
 _atom_site_fract_y
 _atom_site_fract_z
 _atom_site_occupancy
  Er  Er0  1  0.175975  0.175639  0.000000  1
  Er  Er1  1  0.824025  0.824361  0.000000  1
  Ta  Ta2  1  0.500000  0.000000  0.000000  1
  Nb  Nb3  1  0.000000  0.500000  0.000000  1
  Nb  Nb4  1  0.675729  0.324003  0.000000  1
  Nb  Nb5  1  0.324271  0.675997  0.000000  1
  B  B6  1  0.379085  0.379034  0.000000  1
  B  B7  1  0.620915  0.620966  0.000000  1
  B  B8  1  0.879194  0.120704  0.000000  1
  B  B9  1  0.120806  0.879296  0.000000  1
  Ru  Ru10  1  0.500000  0.500000  0.500000  1
  Ru  Ru11  1  0.000000  0.000000  0.500000  1
  Ru  Ru12  1  0.438971  0.222192  0.500000  1
  Ru  Ru13  1  0.561029  0.777808  0.500000  1
  Ru  Ru14  1  0.919677  0.284889  0.500000  1
  Ru  Ru15  1  0.080323  0.715111  0.500000  1
  Ru  Ru16  1  0.715003  0.080265  0.500000  1
  Ru  Ru17  1  0.284997  0.919735  0.500000  1
  Ru  Ru18  1  0.777671  0.560997  0.500000  1
  Ru  Ru19  1  0.222329  0.439003  0.500000  1
