# generated using pymatgen
data_Tb3Yb5(TmRu2)2
_symmetry_space_group_name_H-M   'P 1'
_cell_length_a   6.31300970
_cell_length_b   7.37109488
_cell_length_c   8.47736075
_cell_angle_alpha   96.63405164
_cell_angle_beta   111.51740203
_cell_angle_gamma   89.89007511
_symmetry_Int_Tables_number   1
_chemical_formula_structural   Tb3Yb5(TmRu2)2
_chemical_formula_sum   'Tb3 Yb5 Tm2 Ru4'
_cell_volume   364.18392191
_cell_formula_units_Z   1
loop_
 _symmetry_equiv_pos_site_id
 _symmetry_equiv_pos_as_xyz
  1  'x, y, z'
loop_
 _atom_site_type_symbol
 _atom_site_label
 _atom_site_symmetry_multiplicity
 _atom_site_fract_x
 _atom_site_fract_y
 _atom_site_fract_z
 _atom_site_occupancy
  Tb  Tb0  1  0.795047  0.081508  0.826242  1
  Tb  Tb1  1  0.970568  0.418196  0.168438  1
  Tb  Tb2  1  0.199500  0.915440  0.168936  1
  Yb  Yb3  1  0.026711  0.580097  0.821139  1
  Yb  Yb4  1  0.199897  0.182676  0.568951  1
  Yb  Yb5  1  0.629479  0.316462  0.432057  1
  Yb  Yb6  1  0.803600  0.818029  0.431569  1
  Yb  Yb7  1  0.370091  0.681456  0.567196  1
  Tm  Tm8  1  0.422996  0.252701  0.000316  1
  Tm  Tm9  1  0.569952  0.747714  0.998939  1
  Ru  Ru10  1  0.613892  0.420597  0.800059  1
  Ru  Ru11  1  0.818270  0.075572  0.200889  1
  Ru  Ru12  1  0.395267  0.579196  0.216274  1
  Ru  Ru13  1  0.184732  0.930356  0.798995  1
