# generated using pymatgen
data_BaNaCuF6
_symmetry_space_group_name_H-M   'P 1'
_cell_length_a   5.68694500
_cell_length_b   9.54744200
_cell_length_c   10.67771500
_cell_angle_alpha   90.00000000
_cell_angle_beta   90.00000000
_cell_angle_gamma   90.00000000
_symmetry_Int_Tables_number   1
_chemical_formula_structural   BaNaCuF6
_chemical_formula_sum   'Ba4 Na4 Cu4 F24'
_cell_volume   579.75483833
_cell_formula_units_Z   4
loop_
 _symmetry_equiv_pos_site_id
 _symmetry_equiv_pos_as_xyz
  1  'x, y, z'
loop_
 _atom_site_type_symbol
 _atom_site_label
 _atom_site_symmetry_multiplicity
 _atom_site_fract_x
 _atom_site_fract_y
 _atom_site_fract_z
 _atom_site_occupancy
  Ba  Ba0  1  0.499890  0.312615  0.181883  1
  Ba  Ba1  1  0.000110  0.687385  0.681883  1
  Ba  Ba2  1  0.500110  0.812615  0.318117  1
  Ba  Ba3  1  0.999890  0.187385  0.818117  1
  Na  Na4  1  0.041061  0.644633  0.088821  1
  Na  Na5  1  0.458939  0.355367  0.588821  1
  Na  Na6  1  0.958939  0.144633  0.411179  1
  Na  Na7  1  0.541061  0.855367  0.911179  1
  Cu  Cu8  1  0.038910  0.994762  0.124689  1
  Cu  Cu9  1  0.461090  0.005238  0.624689  1
  Cu  Cu10  1  0.961090  0.494762  0.375311  1
  Cu  Cu11  1  0.538910  0.505238  0.875311  1
  F  F12  1  0.214169  0.138211  0.577253  1
  F  F13  1  0.285831  0.861789  0.077253  1
  F  F14  1  0.785831  0.638211  0.922747  1
  F  F15  1  0.714169  0.361789  0.422747  1
  F  F16  1  0.208841  0.604775  0.300221  1
  F  F17  1  0.291159  0.395225  0.800221  1
  F  F18  1  0.791159  0.104775  0.199779  1
  F  F19  1  0.708841  0.895225  0.699779  1
  F  F20  1  0.196847  0.153330  0.048253  1
  F  F21  1  0.303153  0.846670  0.548253  1
  F  F22  1  0.803153  0.653330  0.451747  1
  F  F23  1  0.696847  0.346670  0.951747  1
  F  F24  1  0.116659  0.333018  0.310173  1
  F  F25  1  0.383341  0.666982  0.810173  1
  F  F26  1  0.883341  0.833018  0.189827  1
  F  F27  1  0.616659  0.166982  0.689827  1
  F  F28  1  0.365427  0.522488  0.029860  1
  F  F29  1  0.134573  0.477512  0.529860  1
  F  F30  1  0.634573  0.022488  0.470140  1
  F  F31  1  0.865427  0.977512  0.970140  1
  F  F32  1  0.215605  0.027864  0.276692  1
  F  F33  1  0.284395  0.972136  0.776692  1
  F  F34  1  0.784395  0.527864  0.223308  1
  F  F35  1  0.715605  0.472136  0.723308  1
