# generated using pymatgen
data_Ho4Ga4IrPd2Ru
_symmetry_space_group_name_H-M   'P 1'
_cell_length_a   4.35459000
_cell_length_b   6.88143269
_cell_length_c   7.75257556
_cell_angle_alpha   90.15995492
_cell_angle_beta   90.00000000
_cell_angle_gamma   90.00000000
_symmetry_Int_Tables_number   1
_chemical_formula_structural   Ho4Ga4IrPd2Ru
_chemical_formula_sum   'Ho4 Ga4 Ir1 Pd2 Ru1'
_cell_volume   232.31136305
_cell_formula_units_Z   1
loop_
 _symmetry_equiv_pos_site_id
 _symmetry_equiv_pos_as_xyz
  1  'x, y, z'
loop_
 _atom_site_type_symbol
 _atom_site_label
 _atom_site_symmetry_multiplicity
 _atom_site_fract_x
 _atom_site_fract_y
 _atom_site_fract_z
 _atom_site_occupancy
  Ho  Ho0  1  0.250000  0.027393  0.814179  1
  Ho  Ho1  1  0.250000  0.526805  0.684402  1
  Ho  Ho2  1  0.750000  0.984665  0.198212  1
  Ho  Ho3  1  0.750000  0.484244  0.302773  1
  Ga  Ga4  1  0.250000  0.159092  0.426776  1
  Ga  Ga5  1  0.250000  0.660060  0.074182  1
  Ga  Ga6  1  0.750000  0.832723  0.568756  1
  Ga  Ga7  1  0.750000  0.336084  0.929100  1
  Ir  Ir8  1  0.250000  0.270748  0.106843  1
  Pd  Pd9  1  0.750000  0.223867  0.605665  1
  Pd  Pd10  1  0.750000  0.724924  0.894527  1
  Ru  Ru11  1  0.250000  0.769396  0.394584  1
