# generated using pymatgen
data_Zr2BeAsRu2
_symmetry_space_group_name_H-M   'P 1'
_cell_length_a   7.64388277
_cell_length_b   7.64335686
_cell_length_c   7.64421609
_cell_angle_alpha   127.38553893
_cell_angle_beta   124.93613239
_cell_angle_gamma   79.64440864
_symmetry_Int_Tables_number   1
_chemical_formula_structural   Zr2BeAsRu2
_chemical_formula_sum   'Zr6 Be3 As3 Ru6'
_cell_volume   281.07808592
_cell_formula_units_Z   3
loop_
 _symmetry_equiv_pos_site_id
 _symmetry_equiv_pos_as_xyz
  1  'x, y, z'
loop_
 _atom_site_type_symbol
 _atom_site_label
 _atom_site_symmetry_multiplicity
 _atom_site_fract_x
 _atom_site_fract_y
 _atom_site_fract_z
 _atom_site_occupancy
  Zr  Zr0  1  0.442714  0.645106  0.686486  1
  Zr  Zr1  1  0.545806  0.262981  0.200052  1
  Zr  Zr2  1  0.735131  0.852210  0.597433  1
  Zr  Zr3  1  0.254639  0.853174  0.116848  1
  Zr  Zr4  1  0.062834  0.262914  0.716075  1
  Zr  Zr5  1  0.957257  0.643896  0.201235  1
  Be  Be6  1  0.251857  0.254558  0.504923  1
  Be  Be7  1  0.749745  0.252113  0.002987  1
  Be  Be8  1  0.332055  0.586147  0.252183  1
  As  As9  1  0.669304  0.920592  0.250435  1
  As  As10  1  0.162757  0.919532  0.755287  1
  As  As11  1  0.833470  0.586659  0.753488  1
  Ru  Ru12  1  0.497715  0.491624  0.995554  1
  Ru  Ru13  1  0.999680  0.490966  0.491181  1
  Ru  Ru14  1  0.121861  0.260522  0.138245  1
  Ru  Ru15  1  0.883378  0.014383  0.134104  1
  Ru  Ru16  1  0.379588  0.009897  0.628981  1
  Ru  Ru17  1  0.620212  0.252326  0.634106  1
