# generated using pymatgen
data_Y10In3Sn2Bi
_symmetry_space_group_name_H-M   'P 1'
_cell_length_a   9.02789700
_cell_length_b   9.04722154
_cell_length_c   6.61556400
_cell_angle_alpha   90.00000000
_cell_angle_beta   90.00000000
_cell_angle_gamma   119.84115087
_symmetry_Int_Tables_number   1
_chemical_formula_structural   Y10In3Sn2Bi
_chemical_formula_sum   'Y10 In3 Sn2 Bi1'
_cell_volume   468.69709980
_cell_formula_units_Z   1
loop_
 _symmetry_equiv_pos_site_id
 _symmetry_equiv_pos_as_xyz
  1  'x, y, z'
loop_
 _atom_site_type_symbol
 _atom_site_label
 _atom_site_symmetry_multiplicity
 _atom_site_fract_x
 _atom_site_fract_y
 _atom_site_fract_z
 _atom_site_occupancy
  Y  Y0  1  0.670822  0.333211  0.003145  1
  Y  Y1  1  0.333857  0.671204  0.003352  1
  Y  Y2  1  0.333857  0.671204  0.496648  1
  Y  Y3  1  0.670822  0.333211  0.496855  1
  Y  Y4  1  0.764417  0.766499  0.750000  1
  Y  Y5  1  0.236625  0.993848  0.750000  1
  Y  Y6  1  0.992343  0.237048  0.750000  1
  Y  Y7  1  0.238912  0.237596  0.250000  1
  Y  Y8  1  0.760576  0.998613  0.250000  1
  Y  Y9  1  0.000209  0.760496  0.250000  1
  In  In10  1  0.598405  0.000055  0.750000  1
  In  In11  1  0.604216  0.603272  0.250000  1
  In  In12  1  0.400198  0.002269  0.250000  1
  Sn  Sn13  1  0.999156  0.603122  0.750000  1
  Sn  Sn14  1  0.002698  0.394736  0.250000  1
  Bi  Bi15  1  0.392887  0.393617  0.750000  1
