# generated using pymatgen
data_Ac4EuPb4
_symmetry_space_group_name_H-M   'P 1'
_cell_length_a   8.98880100
_cell_length_b   9.09553900
_cell_length_c   17.44340200
_cell_angle_alpha   90.00000000
_cell_angle_beta   90.00000000
_cell_angle_gamma   90.00000000
_symmetry_Int_Tables_number   1
_chemical_formula_structural   Ac4EuPb4
_chemical_formula_sum   'Ac16 Eu4 Pb16'
_cell_volume   1426.13748731
_cell_formula_units_Z   4
loop_
 _symmetry_equiv_pos_site_id
 _symmetry_equiv_pos_as_xyz
  1  'x, y, z'
loop_
 _atom_site_type_symbol
 _atom_site_label
 _atom_site_symmetry_multiplicity
 _atom_site_fract_x
 _atom_site_fract_y
 _atom_site_fract_z
 _atom_site_occupancy
  Ac  Ac0  1  0.377888  0.842458  0.882326  1
  Ac  Ac1  1  0.877888  0.657542  0.617674  1
  Ac  Ac2  1  0.622112  0.157542  0.382326  1
  Ac  Ac3  1  0.122112  0.342458  0.117674  1
  Ac  Ac4  1  0.622112  0.157542  0.117674  1
  Ac  Ac5  1  0.122112  0.342458  0.382326  1
  Ac  Ac6  1  0.377888  0.842458  0.617674  1
  Ac  Ac7  1  0.877888  0.657542  0.882326  1
  Ac  Ac8  1  0.533149  0.320632  0.899613  1
  Ac  Ac9  1  0.033149  0.179368  0.600387  1
  Ac  Ac10  1  0.466851  0.679368  0.399613  1
  Ac  Ac11  1  0.966851  0.820632  0.100387  1
  Ac  Ac12  1  0.466851  0.679368  0.100387  1
  Ac  Ac13  1  0.966851  0.820632  0.399613  1
  Ac  Ac14  1  0.533149  0.320632  0.600387  1
  Ac  Ac15  1  0.033149  0.179368  0.899613  1
  Eu  Eu16  1  0.212719  0.503274  0.750000  1
  Eu  Eu17  1  0.712719  0.996726  0.750000  1
  Eu  Eu18  1  0.787281  0.496726  0.250000  1
  Eu  Eu19  1  0.287281  0.003274  0.250000  1
  Pb  Pb20  1  0.280766  0.030052  0.046026  1
  Pb  Pb21  1  0.780766  0.469948  0.453974  1
  Pb  Pb22  1  0.719234  0.969948  0.546026  1
  Pb  Pb23  1  0.219234  0.530052  0.953974  1
  Pb  Pb24  1  0.719234  0.969948  0.953974  1
  Pb  Pb25  1  0.219234  0.530052  0.546026  1
  Pb  Pb26  1  0.280766  0.030052  0.453974  1
  Pb  Pb27  1  0.780766  0.469948  0.046026  1
  Pb  Pb28  1  0.577784  0.615175  0.750000  1
  Pb  Pb29  1  0.077784  0.884825  0.750000  1
  Pb  Pb30  1  0.422216  0.384825  0.250000  1
  Pb  Pb31  1  0.922216  0.115175  0.250000  1
  Pb  Pb32  1  0.335853  0.145847  0.750000  1
  Pb  Pb33  1  0.835853  0.354153  0.750000  1
  Pb  Pb34  1  0.664147  0.854153  0.250000  1
  Pb  Pb35  1  0.164147  0.645847  0.250000  1
