# generated using pymatgen
data_Rb6Na4NbGaAs6
_symmetry_space_group_name_H-M   'P 1'
_cell_length_a   10.81107088
_cell_length_b   10.81107247
_cell_length_c   16.00399800
_cell_angle_alpha   90.00000000
_cell_angle_beta   90.00000000
_cell_angle_gamma   142.53401612
_symmetry_Int_Tables_number   1
_chemical_formula_structural   Rb6Na4NbGaAs6
_chemical_formula_sum   'Rb12 Na8 Nb2 Ga2 As12'
_cell_volume   1137.82869579
_cell_formula_units_Z   2
loop_
 _symmetry_equiv_pos_site_id
 _symmetry_equiv_pos_as_xyz
  1  'x, y, z'
loop_
 _atom_site_type_symbol
 _atom_site_label
 _atom_site_symmetry_multiplicity
 _atom_site_fract_x
 _atom_site_fract_y
 _atom_site_fract_z
 _atom_site_occupancy
  Rb  Rb0  1  0.606906  0.945698  0.824980  1
  Rb  Rb1  1  0.270636  0.275454  0.317808  1
  Rb  Rb2  1  0.229364  0.224546  0.817808  1
  Rb  Rb3  1  0.724546  0.729364  0.682192  1
  Rb  Rb4  1  0.445698  0.106906  0.675020  1
  Rb  Rb5  1  0.893094  0.554302  0.324980  1
  Rb  Rb6  1  0.054302  0.393094  0.175020  1
  Rb  Rb7  1  0.397234  0.065478  0.172047  1
  Rb  Rb8  1  0.565478  0.897234  0.327953  1
  Rb  Rb9  1  0.102766  0.434522  0.672047  1
  Rb  Rb10  1  0.934522  0.602766  0.827953  1
  Rb  Rb11  1  0.775454  0.770636  0.182192  1
  Na  Na12  1  0.081052  0.918948  0.000000  1
  Na  Na13  1  0.579846  0.420154  0.500000  1
  Na  Na14  1  0.920154  0.079846  0.000000  1
  Na  Na15  1  0.752504  0.247496  0.000000  1
  Na  Na16  1  0.747496  0.252504  0.500000  1
  Na  Na17  1  0.243529  0.756471  0.000000  1
  Na  Na18  1  0.256471  0.743529  0.500000  1
  Na  Na19  1  0.418948  0.581052  0.500000  1
  Nb  Nb20  1  0.080521  0.919479  0.500000  1
  Nb  Nb21  1  0.419479  0.580521  0.000000  1
  Ga  Ga22  1  0.913488  0.086512  0.500000  1
  Ga  Ga23  1  0.586512  0.413488  0.000000  1
  As  As24  1  0.058274  0.368312  0.401616  1
  As  As25  1  0.868312  0.558274  0.098384  1
  As  As26  1  0.441726  0.131688  0.901616  1
  As  As27  1  0.631688  0.941726  0.598384  1
  As  As28  1  0.947961  0.642813  0.593383  1
  As  As29  1  0.142813  0.447961  0.906617  1
  As  As30  1  0.552039  0.857187  0.093383  1
  As  As31  1  0.357187  0.052039  0.406617  1
  As  As32  1  0.201379  0.196182  0.588781  1
  As  As33  1  0.696182  0.701379  0.911219  1
  As  As34  1  0.298621  0.303818  0.088781  1
  As  As35  1  0.803818  0.798621  0.411219  1
