# generated using pymatgen
data_Dy3Tl2InAg2Rh
_symmetry_space_group_name_H-M   'P 1'
_cell_length_a   8.06235282
_cell_length_b   8.06048776
_cell_length_c   3.73243600
_cell_angle_alpha   90.00000000
_cell_angle_beta   90.00000000
_cell_angle_gamma   120.29397321
_symmetry_Int_Tables_number   1
_chemical_formula_structural   Dy3Tl2InAg2Rh
_chemical_formula_sum   'Dy3 Tl2 In1 Ag2 Rh1'
_cell_volume   209.43631587
_cell_formula_units_Z   1
loop_
 _symmetry_equiv_pos_site_id
 _symmetry_equiv_pos_as_xyz
  1  'x, y, z'
loop_
 _atom_site_type_symbol
 _atom_site_label
 _atom_site_symmetry_multiplicity
 _atom_site_fract_x
 _atom_site_fract_y
 _atom_site_fract_z
 _atom_site_occupancy
  Dy  Dy0  1  0.033669  0.612259  0.500000  1
  Dy  Dy1  1  0.580862  0.968795  0.500000  1
  Dy  Dy2  1  0.385796  0.417354  0.500000  1
  Tl  Tl3  1  0.990008  0.269737  0.000000  1
  Tl  Tl4  1  0.279001  0.008067  0.000000  1
  In  In5  1  0.729208  0.722793  0.000000  1
  Ag  Ag6  1  0.993310  0.992484  0.500000  1
  Ag  Ag7  1  0.668264  0.340817  0.000000  1
  Rh  Rh8  1  0.339883  0.667694  0.000000  1
