# generated using pymatgen
data_Sr5ReSiN7
_symmetry_space_group_name_H-M   'P 1'
_cell_length_a   6.38797770
_cell_length_b   8.98092194
_cell_length_c   9.26280523
_cell_angle_alpha   113.58696043
_cell_angle_beta   97.95867263
_cell_angle_gamma   89.56153773
_symmetry_Int_Tables_number   1
_chemical_formula_structural   Sr5ReSiN7
_chemical_formula_sum   'Sr10 Re2 Si2 N14'
_cell_volume   481.65076584
_cell_formula_units_Z   2
loop_
 _symmetry_equiv_pos_site_id
 _symmetry_equiv_pos_as_xyz
  1  'x, y, z'
loop_
 _atom_site_type_symbol
 _atom_site_label
 _atom_site_symmetry_multiplicity
 _atom_site_fract_x
 _atom_site_fract_y
 _atom_site_fract_z
 _atom_site_occupancy
  Sr  Sr0  1  0.855849  0.583045  0.351720  1
  Sr  Sr1  1  0.272355  0.976526  0.559046  1
  Sr  Sr2  1  0.694303  0.404201  0.832685  1
  Sr  Sr3  1  0.305697  0.595799  0.167315  1
  Sr  Sr4  1  0.395023  0.780162  0.891417  1
  Sr  Sr5  1  0.604977  0.219838  0.108583  1
  Sr  Sr6  1  0.144151  0.416955  0.648280  1
  Sr  Sr7  1  0.882731  0.833069  0.745460  1
  Sr  Sr8  1  0.117269  0.166931  0.254540  1
  Sr  Sr9  1  0.727645  0.023474  0.440954  1
  Re  Re10  1  0.123152  0.219500  0.917804  1
  Re  Re11  1  0.876848  0.780500  0.082196  1
  Si  Si12  1  0.571848  0.363157  0.475736  1
  Si  Si13  1  0.428152  0.636843  0.524264  1
  N  N14  1  0.558463  0.549319  0.655326  1
  N  N15  1  0.441537  0.450681  0.344674  1
  N  N16  1  0.178662  0.696182  0.581538  1
  N  N17  1  0.821338  0.303818  0.418462  1
  N  N18  1  0.420829  0.207846  0.489429  1
  N  N19  1  0.579171  0.792154  0.510571  1
  N  N20  1  0.954695  0.141335  0.721453  1
  N  N21  1  0.045305  0.858665  0.278547  1
  N  N22  1  0.233456  0.054291  0.968336  1
  N  N23  1  0.766544  0.945709  0.031664  1
  N  N24  1  0.352696  0.337859  0.913621  1
  N  N25  1  0.969585  0.346544  0.073580  1
  N  N26  1  0.030415  0.653456  0.926420  1
  N  N27  1  0.647304  0.662141  0.086379  1
