# generated using pymatgen
data_Pr16CoHg4Pt3
_symmetry_space_group_name_H-M   'P 1'
_cell_length_a   10.00975263
_cell_length_b   10.00975322
_cell_length_c   10.00975240
_cell_angle_alpha   60.10904188
_cell_angle_beta   60.10903886
_cell_angle_gamma   60.10904387
_symmetry_Int_Tables_number   1
_chemical_formula_structural   Pr16CoHg4Pt3
_chemical_formula_sum   'Pr16 Co1 Hg4 Pt3'
_cell_volume   710.92972152
_cell_formula_units_Z   1
loop_
 _symmetry_equiv_pos_site_id
 _symmetry_equiv_pos_as_xyz
  1  'x, y, z'
loop_
 _atom_site_type_symbol
 _atom_site_label
 _atom_site_symmetry_multiplicity
 _atom_site_fract_x
 _atom_site_fract_y
 _atom_site_fract_z
 _atom_site_occupancy
  Pr  Pr0  1  0.352721  0.352721  0.352721  1
  Pr  Pr1  1  0.346551  0.346551  0.950088  1
  Pr  Pr2  1  0.346551  0.950088  0.346551  1
  Pr  Pr3  1  0.950088  0.346551  0.346551  1
  Pr  Pr4  1  0.819496  0.189569  0.189569  1
  Pr  Pr5  1  0.190680  0.808074  0.808074  1
  Pr  Pr6  1  0.189569  0.819496  0.189569  1
  Pr  Pr7  1  0.808074  0.190680  0.808074  1
  Pr  Pr8  1  0.189569  0.189569  0.819496  1
  Pr  Pr9  1  0.808074  0.808074  0.190680  1
  Pr  Pr10  1  0.938121  0.561605  0.561605  1
  Pr  Pr11  1  0.561985  0.935716  0.935716  1
  Pr  Pr12  1  0.561605  0.938121  0.561605  1
  Pr  Pr13  1  0.935716  0.561985  0.935716  1
  Pr  Pr14  1  0.561605  0.561605  0.938121  1
  Pr  Pr15  1  0.935716  0.935716  0.561985  1
  Co  Co16  1  0.142658  0.142658  0.142658  1
  Hg  Hg17  1  0.583644  0.583644  0.583644  1
  Hg  Hg18  1  0.585678  0.585678  0.246054  1
  Hg  Hg19  1  0.585678  0.246054  0.585678  1
  Hg  Hg20  1  0.246054  0.585678  0.585678  1
  Pt  Pt21  1  0.144523  0.144523  0.571117  1
  Pt  Pt22  1  0.144523  0.571117  0.144523  1
  Pt  Pt23  1  0.571117  0.144523  0.144523  1
