# generated using pymatgen
data_CaLu4HfH18
_symmetry_space_group_name_H-M   'P 1'
_cell_length_a   6.10467312
_cell_length_b   6.10315283
_cell_length_c   6.35829200
_cell_angle_alpha   89.84816934
_cell_angle_beta   89.90653855
_cell_angle_gamma   119.73686765
_symmetry_Int_Tables_number   1
_chemical_formula_structural   CaLu4HfH18
_chemical_formula_sum   'Ca1 Lu4 Hf1 H18'
_cell_volume   205.69757444
_cell_formula_units_Z   1
loop_
 _symmetry_equiv_pos_site_id
 _symmetry_equiv_pos_as_xyz
  1  'x, y, z'
loop_
 _atom_site_type_symbol
 _atom_site_label
 _atom_site_symmetry_multiplicity
 _atom_site_fract_x
 _atom_site_fract_y
 _atom_site_fract_z
 _atom_site_occupancy
  Ca  Ca0  1  0.333120  0.002776  0.750941  1
  Lu  Lu1  1  0.004177  0.331424  0.751191  1
  Lu  Lu2  1  0.330605  0.327849  0.254186  1
  Lu  Lu3  1  0.667502  0.999243  0.247592  1
  Lu  Lu4  1  0.999643  0.670935  0.249728  1
  Hf  Hf5  1  0.679223  0.679307  0.753098  1
  H  H6  1  0.289254  0.304758  0.586582  1
  H  H7  1  0.719535  0.982740  0.591865  1
  H  H8  1  0.972682  0.697471  0.593007  1
  H  H9  1  0.695247  0.692741  0.084576  1
  H  H10  1  0.308546  0.003384  0.097021  1
  H  H11  1  0.001280  0.304208  0.090476  1
  H  H12  1  0.374200  0.392345  0.906867  1
  H  H13  1  0.655306  0.979531  0.905661  1
  H  H14  1  0.973643  0.633129  0.908104  1
  H  H15  1  0.641075  0.639436  0.422417  1
  H  H16  1  0.357364  0.999090  0.403933  1
  H  H17  1  0.988708  0.353786  0.411017  1
  H  H18  1  0.982285  0.987009  0.826402  1
  H  H19  1  0.999319  0.000262  0.310775  1
  H  H20  1  0.352337  0.663694  0.697451  1
  H  H21  1  0.676063  0.356349  0.703655  1
  H  H22  1  0.667246  0.333524  0.203092  1
  H  H23  1  0.331642  0.665012  0.206382  1
