# generated using pymatgen
data_Pr3Nd2P12Pd2Ru17
_symmetry_space_group_name_H-M   'P 1'
_cell_length_a   12.75450200
_cell_length_b   12.65496270
_cell_length_c   4.02136500
_cell_angle_alpha   90.00000000
_cell_angle_beta   90.00000000
_cell_angle_gamma   120.26054121
_symmetry_Int_Tables_number   1
_chemical_formula_structural   Pr3Nd2P12Pd2Ru17
_chemical_formula_sum   'Pr3 Nd2 P12 Pd2 Ru17'
_cell_volume   560.63771862
_cell_formula_units_Z   1
loop_
 _symmetry_equiv_pos_site_id
 _symmetry_equiv_pos_as_xyz
  1  'x, y, z'
loop_
 _atom_site_type_symbol
 _atom_site_label
 _atom_site_symmetry_multiplicity
 _atom_site_fract_x
 _atom_site_fract_y
 _atom_site_fract_z
 _atom_site_occupancy
  Pr  Pr0  1  0.000959  0.182670  0.500000  1
  Pr  Pr1  1  0.818289  0.817330  0.500000  1
  Pr  Pr2  1  0.184037  0.000000  0.500000  1
  Nd  Nd3  1  0.664117  0.328339  0.000000  1
  Nd  Nd4  1  0.335777  0.671661  0.000000  1
  P  P5  1  0.998681  0.809329  0.000000  1
  P  P6  1  0.189352  0.190671  0.000000  1
  P  P7  1  0.814439  0.000000  0.000000  1
  P  P8  1  0.693816  0.169469  0.500000  1
  P  P9  1  0.818922  0.519347  0.500000  1
  P  P10  1  0.475405  0.298203  0.500000  1
  P  P11  1  0.177203  0.701797  0.500000  1
  P  P12  1  0.524348  0.830531  0.500000  1
  P  P13  1  0.299575  0.480653  0.500000  1
  P  P14  1  0.000148  0.368701  0.000000  1
  P  P15  1  0.631447  0.631299  0.000000  1
  P  P16  1  0.376602  0.000000  0.000000  1
  Pd  Pd17  1  0.999318  0.552655  0.000000  1
  Pd  Pd18  1  0.446664  0.447345  0.000000  1
  Ru  Ru19  1  0.555624  0.000000  0.000000  1
  Ru  Ru20  1  0.997974  0.709600  0.500000  1
  Ru  Ru21  1  0.288374  0.290400  0.500000  1
  Ru  Ru22  1  0.715965  0.000000  0.500000  1
  Ru  Ru23  1  0.806745  0.184660  0.000000  1
  Ru  Ru24  1  0.812942  0.617407  0.000000  1
  Ru  Ru25  1  0.377755  0.193321  0.000000  1
  Ru  Ru26  1  0.184435  0.806679  0.000000  1
  Ru  Ru27  1  0.622086  0.815340  0.000000  1
  Ru  Ru28  1  0.195534  0.382593  0.000000  1
  Ru  Ru29  1  0.873442  0.366240  0.500000  1
  Ru  Ru30  1  0.629215  0.507978  0.500000  1
  Ru  Ru31  1  0.491331  0.122839  0.500000  1
  Ru  Ru32  1  0.368492  0.877161  0.500000  1
  Ru  Ru33  1  0.507203  0.633760  0.500000  1
  Ru  Ru34  1  0.121238  0.492022  0.500000  1
  Ru  Ru35  1  0.002544  0.000000  0.000000  1
