# generated using pymatgen
data_K2Rb6Zr6MnI20
_symmetry_space_group_name_H-M   'P 1'
_cell_length_a   12.84783295
_cell_length_b   12.84783329
_cell_length_c   12.84783149
_cell_angle_alpha   60.26480948
_cell_angle_beta   60.26480891
_cell_angle_gamma   60.26480985
_symmetry_Int_Tables_number   1
_chemical_formula_structural   K2Rb6Zr6MnI20
_chemical_formula_sum   'K2 Rb6 Zr6 Mn1 I20'
_cell_volume   1508.58542197
_cell_formula_units_Z   1
loop_
 _symmetry_equiv_pos_site_id
 _symmetry_equiv_pos_as_xyz
  1  'x, y, z'
loop_
 _atom_site_type_symbol
 _atom_site_label
 _atom_site_symmetry_multiplicity
 _atom_site_fract_x
 _atom_site_fract_y
 _atom_site_fract_z
 _atom_site_occupancy
  K  K0  1  0.362133  0.362133  0.362133  1
  K  K1  1  0.637867  0.637867  0.637867  1
  Rb  Rb2  1  0.361135  0.361135  0.917496  1
  Rb  Rb3  1  0.361135  0.917496  0.361135  1
  Rb  Rb4  1  0.638865  0.638865  0.082504  1
  Rb  Rb5  1  0.638865  0.082504  0.638865  1
  Rb  Rb6  1  0.917496  0.361135  0.361135  1
  Rb  Rb7  1  0.082504  0.638865  0.638865  1
  Zr  Zr8  1  0.864319  0.135871  0.135871  1
  Zr  Zr9  1  0.135681  0.864129  0.864129  1
  Zr  Zr10  1  0.135871  0.864319  0.135871  1
  Zr  Zr11  1  0.864129  0.135681  0.864129  1
  Zr  Zr12  1  0.135871  0.135871  0.864319  1
  Zr  Zr13  1  0.864129  0.864129  0.135681  1
  Mn  Mn14  1  0.000000  0.000000  0.000000  1
  I  I15  1  0.323261  0.000631  0.000631  1
  I  I16  1  0.676739  0.999369  0.999369  1
  I  I17  1  0.000000  0.321842  0.678158  1
  I  I18  1  0.000000  0.678158  0.321842  1
  I  I19  1  0.000631  0.323261  0.000631  1
  I  I20  1  0.678158  0.000000  0.321842  1
  I  I21  1  0.999369  0.676739  0.999369  1
  I  I22  1  0.321842  0.000000  0.678158  1
  I  I23  1  0.000631  0.000631  0.323261  1
  I  I24  1  0.999369  0.999369  0.676739  1
  I  I25  1  0.678158  0.321842  0.000000  1
  I  I26  1  0.321842  0.678158  0.000000  1
  I  I27  1  0.682411  0.313016  0.313016  1
  I  I28  1  0.317589  0.686984  0.686984  1
  I  I29  1  0.313016  0.682411  0.313016  1
  I  I30  1  0.686984  0.317589  0.686984  1
  I  I31  1  0.313016  0.313016  0.682411  1
  I  I32  1  0.686984  0.686984  0.317589  1
  I  I33  1  0.253943  0.253943  0.253943  1
  I  I34  1  0.746057  0.746057  0.746057  1
