# generated using pymatgen
data_Ba2Gd3Er(Si3O10)2
_symmetry_space_group_name_H-M   'P 1'
_cell_length_a   5.48918166
_cell_length_b   12.40532797
_cell_length_c   6.96914844
_cell_angle_alpha   90.07978489
_cell_angle_beta   106.37933303
_cell_angle_gamma   89.90006036
_symmetry_Int_Tables_number   1
_chemical_formula_structural   Ba2Gd3Er(Si3O10)2
_chemical_formula_sum   'Ba2 Gd3 Er1 Si6 O20'
_cell_volume   455.30410211
_cell_formula_units_Z   1
loop_
 _symmetry_equiv_pos_site_id
 _symmetry_equiv_pos_as_xyz
  1  'x, y, z'
loop_
 _atom_site_type_symbol
 _atom_site_label
 _atom_site_symmetry_multiplicity
 _atom_site_fract_x
 _atom_site_fract_y
 _atom_site_fract_z
 _atom_site_occupancy
  Ba  Ba0  1  0.764428  0.251431  0.013985  1
  Ba  Ba1  1  0.235470  0.747899  0.985375  1
  Gd  Gd2  1  0.839225  0.900821  0.312891  1
  Gd  Gd3  1  0.159826  0.097608  0.686735  1
  Gd  Gd4  1  0.159385  0.403904  0.684600  1
  Er  Er5  1  0.839366  0.599604  0.314616  1
  Si  Si6  1  0.305150  0.063046  0.215540  1
  Si  Si7  1  0.306173  0.439113  0.215515  1
  Si  Si8  1  0.582179  0.249899  0.489107  1
  Si  Si9  1  0.416004  0.748303  0.510890  1
  Si  Si10  1  0.697129  0.563493  0.786815  1
  Si  Si11  1  0.693856  0.935751  0.783454  1
  O  O12  1  0.168019  0.125231  0.007213  1
  O  O13  1  0.166793  0.378416  0.005766  1
  O  O14  1  0.442516  0.552190  0.192572  1
  O  O15  1  0.429142  0.946889  0.189970  1
  O  O16  1  0.548037  0.142805  0.341513  1
  O  O17  1  0.542945  0.356124  0.340425  1
  O  O18  1  0.101345  0.051979  0.349553  1
  O  O19  1  0.101219  0.454062  0.348694  1
  O  O20  1  0.123105  0.745860  0.366670  1
  O  O21  1  0.621471  0.747337  0.380982  1
  O  O22  1  0.376961  0.250019  0.618730  1
  O  O23  1  0.874560  0.250797  0.633399  1
  O  O24  1  0.895090  0.555550  0.646278  1
  O  O25  1  0.898121  0.946420  0.649737  1
  O  O26  1  0.453682  0.644417  0.665527  1
  O  O27  1  0.450429  0.856729  0.655321  1
  O  O28  1  0.570563  0.051841  0.809799  1
  O  O29  1  0.571652  0.447196  0.806882  1
  O  O30  1  0.835896  0.621763  0.999463  1
  O  O31  1  0.830259  0.873502  0.991983  1
