# generated using pymatgen
data_Li3Th2AgBr12
_symmetry_space_group_name_H-M   'P 1'
_cell_length_a   7.07867300
_cell_length_b   7.07867393
_cell_length_c   13.85379500
_cell_angle_alpha   90.00000000
_cell_angle_beta   90.00000000
_cell_angle_gamma   119.99999100
_symmetry_Int_Tables_number   1
_chemical_formula_structural   Li3Th2AgBr12
_chemical_formula_sum   'Li3 Th2 Ag1 Br12'
_cell_volume   601.17814743
_cell_formula_units_Z   1
loop_
 _symmetry_equiv_pos_site_id
 _symmetry_equiv_pos_as_xyz
  1  'x, y, z'
loop_
 _atom_site_type_symbol
 _atom_site_label
 _atom_site_symmetry_multiplicity
 _atom_site_fract_x
 _atom_site_fract_y
 _atom_site_fract_z
 _atom_site_occupancy
  Li  Li0  1  0.666667  0.333333  0.750000  1
  Li  Li1  1  0.333333  0.666667  0.250000  1
  Li  Li2  1  0.000000  0.000000  0.250000  1
  Th  Th3  1  0.333333  0.666667  0.750000  1
  Th  Th4  1  0.666667  0.333333  0.250000  1
  Ag  Ag5  1  0.000000  0.000000  0.750000  1
  Br  Br6  1  0.994240  0.342052  0.632679  1
  Br  Br7  1  0.347813  0.005760  0.632679  1
  Br  Br8  1  0.657948  0.652187  0.632679  1
  Br  Br9  1  0.657948  0.005760  0.867321  1
  Br  Br10  1  0.347813  0.342052  0.867321  1
  Br  Br11  1  0.994240  0.652187  0.867321  1
  Br  Br12  1  0.004324  0.333164  0.137405  1
  Br  Br13  1  0.328839  0.995676  0.137405  1
  Br  Br14  1  0.666836  0.671161  0.137405  1
  Br  Br15  1  0.666836  0.995676  0.362595  1
  Br  Br16  1  0.328839  0.333164  0.362595  1
  Br  Br17  1  0.004324  0.671161  0.362595  1
