# generated using pymatgen
data_YbSm3(In2Pd3)4
_symmetry_space_group_name_H-M   'P 1'
_cell_length_a   4.63235100
_cell_length_b   9.85461302
_cell_length_c   10.46321702
_cell_angle_alpha   89.99298916
_cell_angle_beta   90.00000000
_cell_angle_gamma   90.00000000
_symmetry_Int_Tables_number   1
_chemical_formula_structural   YbSm3(In2Pd3)4
_chemical_formula_sum   'Yb1 Sm3 In8 Pd12'
_cell_volume   477.64613034
_cell_formula_units_Z   1
loop_
 _symmetry_equiv_pos_site_id
 _symmetry_equiv_pos_as_xyz
  1  'x, y, z'
loop_
 _atom_site_type_symbol
 _atom_site_label
 _atom_site_symmetry_multiplicity
 _atom_site_fract_x
 _atom_site_fract_y
 _atom_site_fract_z
 _atom_site_occupancy
  Yb  Yb0  1  0.750000  0.946116  0.776339  1
  Sm  Sm1  1  0.250000  0.446714  0.726912  1
  Sm  Sm2  1  0.250000  0.053127  0.225956  1
  Sm  Sm3  1  0.750000  0.553043  0.273788  1
  In  In4  1  0.250000  0.888996  0.516832  1
  In  In5  1  0.250000  0.611455  0.015805  1
  In  In6  1  0.750000  0.110791  0.485847  1
  In  In7  1  0.750000  0.389079  0.982396  1
  In  In8  1  0.250000  0.158446  0.890002  1
  In  In9  1  0.250000  0.339536  0.392149  1
  In  In10  1  0.750000  0.839454  0.106250  1
  In  In11  1  0.750000  0.662570  0.609901  1
  Pd  Pd12  1  0.250000  0.152284  0.618316  1
  Pd  Pd13  1  0.250000  0.348164  0.118371  1
  Pd  Pd14  1  0.750000  0.848182  0.380152  1
  Pd  Pd15  1  0.750000  0.653412  0.881488  1
  Pd  Pd16  1  0.250000  0.743677  0.740226  1
  Pd  Pd17  1  0.250000  0.756374  0.240864  1
  Pd  Pd18  1  0.750000  0.255669  0.258890  1
  Pd  Pd19  1  0.750000  0.241358  0.759259  1
  Pd  Pd20  1  0.250000  0.893728  0.974246  1
  Pd  Pd21  1  0.250000  0.607248  0.473674  1
  Pd  Pd22  1  0.750000  0.106621  0.026222  1
  Pd  Pd23  1  0.750000  0.393955  0.526114  1
