# generated using pymatgen
data_Lu10Ag3Pt
_symmetry_space_group_name_H-M   'P 1'
_cell_length_a   9.34311004
_cell_length_b   9.34198162
_cell_length_c   9.44017400
_cell_angle_alpha   90.00000000
_cell_angle_beta   90.00000000
_cell_angle_gamma   119.99295862
_symmetry_Int_Tables_number   1
_chemical_formula_structural   Lu10Ag3Pt
_chemical_formula_sum   'Lu20 Ag6 Pt2'
_cell_volume   713.62805282
_cell_formula_units_Z   2
loop_
 _symmetry_equiv_pos_site_id
 _symmetry_equiv_pos_as_xyz
  1  'x, y, z'
loop_
 _atom_site_type_symbol
 _atom_site_label
 _atom_site_symmetry_multiplicity
 _atom_site_fract_x
 _atom_site_fract_y
 _atom_site_fract_z
 _atom_site_occupancy
  Lu  Lu0  1  0.000000  0.000000  0.500000  1
  Lu  Lu1  1  0.000000  0.000000  0.000000  1
  Lu  Lu2  1  0.207582  0.792335  0.446448  1
  Lu  Lu3  1  0.207565  0.415215  0.446433  1
  Lu  Lu4  1  0.584898  0.792452  0.446526  1
  Lu  Lu5  1  0.792418  0.207665  0.553552  1
  Lu  Lu6  1  0.792435  0.584785  0.553567  1
  Lu  Lu7  1  0.415102  0.207548  0.553474  1
  Lu  Lu8  1  0.792418  0.207665  0.946448  1
  Lu  Lu9  1  0.792435  0.584785  0.946433  1
  Lu  Lu10  1  0.415102  0.207548  0.946526  1
  Lu  Lu11  1  0.207582  0.792335  0.053552  1
  Lu  Lu12  1  0.207565  0.415215  0.053567  1
  Lu  Lu13  1  0.584898  0.792452  0.053474  1
  Lu  Lu14  1  0.542459  0.457551  0.250000  1
  Lu  Lu15  1  0.542487  0.084904  0.250000  1
  Lu  Lu16  1  0.915199  0.457578  0.250000  1
  Lu  Lu17  1  0.457541  0.542449  0.750000  1
  Lu  Lu18  1  0.457513  0.915096  0.750000  1
  Lu  Lu19  1  0.084801  0.542422  0.750000  1
  Ag  Ag20  1  0.883092  0.117366  0.250000  1
  Ag  Ag21  1  0.883278  0.765728  0.250000  1
  Ag  Ag22  1  0.234203  0.116859  0.250000  1
  Ag  Ag23  1  0.116908  0.882634  0.750000  1
  Ag  Ag24  1  0.116722  0.234272  0.750000  1
  Ag  Ag25  1  0.765797  0.883141  0.750000  1
  Pt  Pt26  1  0.333954  0.666879  0.250000  1
  Pt  Pt27  1  0.666046  0.333121  0.750000  1
