# generated using pymatgen
data_Er5Tm(LuIn2)4
_symmetry_space_group_name_H-M   'P 1'
_cell_length_a   9.15788227
_cell_length_b   9.15788359
_cell_length_c   6.59781600
_cell_angle_alpha   90.00000000
_cell_angle_beta   90.00000000
_cell_angle_gamma   119.97205998
_symmetry_Int_Tables_number   1
_chemical_formula_structural   Er5Tm(LuIn2)4
_chemical_formula_sum   'Er5 Tm1 Lu4 In8'
_cell_volume   479.33949048
_cell_formula_units_Z   1
loop_
 _symmetry_equiv_pos_site_id
 _symmetry_equiv_pos_as_xyz
  1  'x, y, z'
loop_
 _atom_site_type_symbol
 _atom_site_label
 _atom_site_symmetry_multiplicity
 _atom_site_fract_x
 _atom_site_fract_y
 _atom_site_fract_z
 _atom_site_occupancy
  Er  Er0  1  0.290425  0.999957  0.750000  1
  Er  Er1  1  0.709472  0.999822  0.250000  1
  Er  Er2  1  0.999957  0.290425  0.750000  1
  Er  Er3  1  0.999822  0.709472  0.250000  1
  Er  Er4  1  0.709814  0.709814  0.750000  1
  Tm  Tm5  1  0.290537  0.290537  0.250000  1
  Lu  Lu6  1  0.333335  0.666501  0.499928  1
  Lu  Lu7  1  0.666501  0.333335  0.499928  1
  Lu  Lu8  1  0.666501  0.333335  0.000072  1
  Lu  Lu9  1  0.333335  0.666501  0.000072  1
  In  In10  1  0.000238  0.000238  0.499770  1
  In  In11  1  0.000238  0.000238  0.000230  1
  In  In12  1  0.628193  0.999941  0.750000  1
  In  In13  1  0.371705  0.000407  0.250000  1
  In  In14  1  0.999941  0.628193  0.750000  1
  In  In15  1  0.000407  0.371705  0.250000  1
  In  In16  1  0.371824  0.371824  0.750000  1
  In  In17  1  0.627753  0.627753  0.250000  1
