# generated using pymatgen
data_Ho9Tm3(ThSn2)8
_symmetry_space_group_name_H-M   'P 1'
_cell_length_a   8.10748100
_cell_length_b   8.19938100
_cell_length_c   15.49889200
_cell_angle_alpha   90.00000000
_cell_angle_beta   90.00000000
_cell_angle_gamma   89.99610689
_symmetry_Int_Tables_number   1
_chemical_formula_structural   Ho9Tm3(ThSn2)8
_chemical_formula_sum   'Ho9 Tm3 Th8 Sn16'
_cell_volume   1030.30939092
_cell_formula_units_Z   1
loop_
 _symmetry_equiv_pos_site_id
 _symmetry_equiv_pos_as_xyz
  1  'x, y, z'
loop_
 _atom_site_type_symbol
 _atom_site_label
 _atom_site_symmetry_multiplicity
 _atom_site_fract_x
 _atom_site_fract_y
 _atom_site_fract_z
 _atom_site_occupancy
  Ho  Ho0  1  0.362028  0.837454  0.875977  1
  Ho  Ho1  1  0.861848  0.662659  0.624006  1
  Ho  Ho2  1  0.638067  0.162597  0.375942  1
  Ho  Ho3  1  0.138072  0.337401  0.124070  1
  Ho  Ho4  1  0.638067  0.162597  0.124058  1
  Ho  Ho5  1  0.138072  0.337401  0.375930  1
  Ho  Ho6  1  0.362028  0.837454  0.624023  1
  Ho  Ho7  1  0.861848  0.662659  0.875994  1
  Ho  Ho8  1  0.191564  0.498157  0.750000  1
  Tm  Tm9  1  0.691697  0.001771  0.750000  1
  Tm  Tm10  1  0.808301  0.501736  0.250000  1
  Tm  Tm11  1  0.308261  0.998243  0.250000  1
  Th  Th12  1  0.519225  0.321124  0.903909  1
  Th  Th13  1  0.019216  0.178809  0.596103  1
  Th  Th14  1  0.480741  0.678827  0.403887  1
  Th  Th15  1  0.980772  0.821246  0.096138  1
  Th  Th16  1  0.480741  0.678827  0.096113  1
  Th  Th17  1  0.980772  0.821246  0.403862  1
  Th  Th18  1  0.519225  0.321124  0.596091  1
  Th  Th19  1  0.019216  0.178809  0.903897  1
  Sn  Sn20  1  0.298783  0.039996  0.042622  1
  Sn  Sn21  1  0.798794  0.460018  0.457387  1
  Sn  Sn22  1  0.701223  0.959976  0.542576  1
  Sn  Sn23  1  0.201251  0.539983  0.957606  1
  Sn  Sn24  1  0.701223  0.959976  0.957424  1
  Sn  Sn25  1  0.201251  0.539983  0.542394  1
  Sn  Sn26  1  0.298783  0.039996  0.457378  1
  Sn  Sn27  1  0.798794  0.460018  0.042613  1
  Sn  Sn28  1  0.557817  0.623367  0.750000  1
  Sn  Sn29  1  0.057300  0.877013  0.750000  1
  Sn  Sn30  1  0.442674  0.376742  0.250000  1
  Sn  Sn31  1  0.942664  0.123261  0.250000  1
  Sn  Sn32  1  0.326587  0.142870  0.750000  1
  Sn  Sn33  1  0.826071  0.356630  0.750000  1
  Sn  Sn34  1  0.673520  0.856702  0.250000  1
  Sn  Sn35  1  0.173506  0.643325  0.250000  1
