# generated using pymatgen
data_Mg2SbPd4Rh
_symmetry_space_group_name_H-M   'P 1'
_cell_length_a   4.23930000
_cell_length_b   5.58528428
_cell_length_c   10.94516555
_cell_angle_alpha   89.04307228
_cell_angle_beta   90.00000000
_cell_angle_gamma   90.00000000
_symmetry_Int_Tables_number   1
_chemical_formula_structural   Mg2SbPd4Rh
_chemical_formula_sum   'Mg4 Sb2 Pd8 Rh2'
_cell_volume   259.12015465
_cell_formula_units_Z   2
loop_
 _symmetry_equiv_pos_site_id
 _symmetry_equiv_pos_as_xyz
  1  'x, y, z'
loop_
 _atom_site_type_symbol
 _atom_site_label
 _atom_site_symmetry_multiplicity
 _atom_site_fract_x
 _atom_site_fract_y
 _atom_site_fract_z
 _atom_site_occupancy
  Mg  Mg0  1  0.500000  0.171829  0.148718  1
  Mg  Mg1  1  0.500000  0.828171  0.851282  1
  Mg  Mg2  1  0.500000  0.331864  0.639569  1
  Mg  Mg3  1  0.500000  0.668136  0.360431  1
  Sb  Sb4  1  0.000000  0.000000  0.500000  1
  Sb  Sb5  1  0.000000  0.500000  0.000000  1
  Pd  Pd6  1  0.500000  0.305072  0.890328  1
  Pd  Pd7  1  0.500000  0.694928  0.109672  1
  Pd  Pd8  1  0.000000  0.425344  0.243736  1
  Pd  Pd9  1  0.000000  0.574656  0.756264  1
  Pd  Pd10  1  0.000000  0.076551  0.743821  1
  Pd  Pd11  1  0.000000  0.923449  0.256179  1
  Pd  Pd12  1  0.000000  0.000000  0.000000  1
  Pd  Pd13  1  0.000000  0.500000  0.500000  1
  Rh  Rh14  1  0.500000  0.185813  0.392980  1
  Rh  Rh15  1  0.500000  0.814187  0.607020  1
