# generated using pymatgen
data_Sr2DyPaO6
_symmetry_space_group_name_H-M   'P 1'
_cell_length_a   6.14344000
_cell_length_b   6.01645026
_cell_length_c   10.48698584
_cell_angle_alpha   55.03364584
_cell_angle_beta   90.00000000
_cell_angle_gamma   90.00000000
_symmetry_Int_Tables_number   1
_chemical_formula_structural   Sr2DyPaO6
_chemical_formula_sum   'Sr4 Dy2 Pa2 O12'
_cell_volume   317.64762721
_cell_formula_units_Z   2
loop_
 _symmetry_equiv_pos_site_id
 _symmetry_equiv_pos_as_xyz
  1  'x, y, z'
loop_
 _atom_site_type_symbol
 _atom_site_label
 _atom_site_symmetry_multiplicity
 _atom_site_fract_x
 _atom_site_fract_y
 _atom_site_fract_z
 _atom_site_occupancy
  Sr  Sr0  1  0.041812  0.238239  0.250731  1
  Sr  Sr1  1  0.541812  0.761761  0.249269  1
  Sr  Sr2  1  0.458188  0.238239  0.750731  1
  Sr  Sr3  1  0.958188  0.761761  0.749269  1
  Dy  Dy4  1  0.500000  0.000000  0.500000  1
  Dy  Dy5  1  0.000000  0.000000  0.000000  1
  Pa  Pa6  1  0.500000  0.500000  0.000000  1
  Pa  Pa7  1  0.000000  0.500000  0.500000  1
  O  O8  1  0.538889  0.642465  0.755604  1
  O  O9  1  0.038889  0.357535  0.744396  1
  O  O10  1  0.461111  0.357535  0.244396  1
  O  O11  1  0.961111  0.642465  0.255604  1
  O  O12  1  0.802858  0.845345  0.447540  1
  O  O13  1  0.302858  0.154655  0.052460  1
  O  O14  1  0.197142  0.154655  0.552460  1
  O  O15  1  0.697142  0.845345  0.947540  1
  O  O16  1  0.208765  0.753215  0.943394  1
  O  O17  1  0.708765  0.246785  0.556606  1
  O  O18  1  0.791235  0.246785  0.056606  1
  O  O19  1  0.291235  0.753215  0.443394  1
