# generated using pymatgen
data_La2PrInHg2Pt3
_symmetry_space_group_name_H-M   'P 1'
_cell_length_a   7.97092335
_cell_length_b   7.97092209
_cell_length_c   4.00566100
_cell_angle_alpha   90.00000000
_cell_angle_beta   90.00000000
_cell_angle_gamma   121.21457100
_symmetry_Int_Tables_number   1
_chemical_formula_structural   La2PrInHg2Pt3
_chemical_formula_sum   'La2 Pr1 In1 Hg2 Pt3'
_cell_volume   217.65847471
_cell_formula_units_Z   1
loop_
 _symmetry_equiv_pos_site_id
 _symmetry_equiv_pos_as_xyz
  1  'x, y, z'
loop_
 _atom_site_type_symbol
 _atom_site_label
 _atom_site_symmetry_multiplicity
 _atom_site_fract_x
 _atom_site_fract_y
 _atom_site_fract_z
 _atom_site_occupancy
  La  La0  1  0.595658  0.004354  0.000000  1
  La  La1  1  0.004354  0.595658  0.000000  1
  Pr  Pr2  1  0.394873  0.394873  0.000000  1
  In  In3  1  0.743450  0.743450  0.500000  1
  Hg  Hg4  1  0.258571  0.000814  0.500000  1
  Hg  Hg5  1  0.000814  0.258571  0.500000  1
  Pt  Pt6  1  0.347796  0.671679  0.500000  1
  Pt  Pt7  1  0.671679  0.347796  0.500000  1
  Pt  Pt8  1  0.982805  0.982805  0.000000  1
