# generated using pymatgen
data_ScNi21GeB6
_symmetry_space_group_name_H-M   'P 1'
_cell_length_a   7.43784636
_cell_length_b   7.43784608
_cell_length_c   7.43784600
_cell_angle_alpha   60.00000037
_cell_angle_beta   60.00000160
_cell_angle_gamma   60.00000241
_symmetry_Int_Tables_number   1
_chemical_formula_structural   ScNi21GeB6
_chemical_formula_sum   'Sc1 Ni21 Ge1 B6'
_cell_volume   290.95551170
_cell_formula_units_Z   1
loop_
 _symmetry_equiv_pos_site_id
 _symmetry_equiv_pos_as_xyz
  1  'x, y, z'
loop_
 _atom_site_type_symbol
 _atom_site_label
 _atom_site_symmetry_multiplicity
 _atom_site_fract_x
 _atom_site_fract_y
 _atom_site_fract_z
 _atom_site_occupancy
  Sc  Sc0  1  0.250000  0.250000  0.250000  1
  Ni  Ni1  1  0.336314  0.001286  0.001286  1
  Ni  Ni2  1  0.661114  0.001286  0.001286  1
  Ni  Ni3  1  0.001286  0.336314  0.661114  1
  Ni  Ni4  1  0.001286  0.661114  0.336314  1
  Ni  Ni5  1  0.001286  0.336314  0.001286  1
  Ni  Ni6  1  0.661114  0.001286  0.336314  1
  Ni  Ni7  1  0.001286  0.661114  0.001286  1
  Ni  Ni8  1  0.336314  0.001286  0.661114  1
  Ni  Ni9  1  0.001286  0.001286  0.336314  1
  Ni  Ni10  1  0.001286  0.001286  0.661114  1
  Ni  Ni11  1  0.661114  0.336314  0.001286  1
  Ni  Ni12  1  0.336314  0.661114  0.001286  1
  Ni  Ni13  1  0.389236  0.389236  0.389236  1
  Ni  Ni14  1  0.621999  0.621999  0.621999  1
  Ni  Ni15  1  0.389236  0.389236  0.832290  1
  Ni  Ni16  1  0.389236  0.832290  0.389236  1
  Ni  Ni17  1  0.621999  0.621999  0.134003  1
  Ni  Ni18  1  0.621999  0.134003  0.621999  1
  Ni  Ni19  1  0.832290  0.389236  0.389236  1
  Ni  Ni20  1  0.134003  0.621999  0.621999  1
  Ni  Ni21  1  0.000000  0.000000  0.000000  1
  Ge  Ge22  1  0.750000  0.750000  0.750000  1
  B  B23  1  0.728857  0.271143  0.271143  1
  B  B24  1  0.271143  0.728857  0.728857  1
  B  B25  1  0.271143  0.728857  0.271143  1
  B  B26  1  0.728857  0.271143  0.728857  1
  B  B27  1  0.271143  0.271143  0.728857  1
  B  B28  1  0.728857  0.728857  0.271143  1
