# generated using pymatgen
data_Zr16Co3Ir5
_symmetry_space_group_name_H-M   'P 1'
_cell_length_a   8.72220052
_cell_length_b   8.75328642
_cell_length_c   8.75328600
_cell_angle_alpha   59.99999404
_cell_angle_beta   59.88202771
_cell_angle_gamma   59.88203020
_symmetry_Int_Tables_number   1
_chemical_formula_structural   Zr16Co3Ir5
_chemical_formula_sum   'Zr16 Co3 Ir5'
_cell_volume   471.71164452
_cell_formula_units_Z   1
loop_
 _symmetry_equiv_pos_site_id
 _symmetry_equiv_pos_as_xyz
  1  'x, y, z'
loop_
 _atom_site_type_symbol
 _atom_site_label
 _atom_site_symmetry_multiplicity
 _atom_site_fract_x
 _atom_site_fract_y
 _atom_site_fract_z
 _atom_site_occupancy
  Zr  Zr0  1  0.057370  0.647543  0.647543  1
  Zr  Zr1  1  0.648272  0.075967  0.637880  1
  Zr  Zr2  1  0.648272  0.637880  0.075967  1
  Zr  Zr3  1  0.648272  0.637880  0.637880  1
  Zr  Zr4  1  0.806684  0.804407  0.194454  1
  Zr  Zr5  1  0.191531  0.204527  0.801971  1
  Zr  Zr6  1  0.806684  0.194454  0.804407  1
  Zr  Zr7  1  0.191531  0.801971  0.204527  1
  Zr  Zr8  1  0.191531  0.801971  0.801971  1
  Zr  Zr9  1  0.806684  0.194454  0.194454  1
  Zr  Zr10  1  0.439507  0.435535  0.062479  1
  Zr  Zr11  1  0.067936  0.063179  0.434442  1
  Zr  Zr12  1  0.439507  0.062479  0.435535  1
  Zr  Zr13  1  0.067936  0.434442  0.063179  1
  Zr  Zr14  1  0.067936  0.434442  0.434442  1
  Zr  Zr15  1  0.439507  0.062479  0.062479  1
  Co  Co16  1  0.851960  0.428070  0.859985  1
  Co  Co17  1  0.851960  0.859985  0.428070  1
  Co  Co18  1  0.851960  0.859985  0.859985  1
  Ir  Ir19  1  0.751789  0.416071  0.416071  1
  Ir  Ir20  1  0.413738  0.750222  0.418021  1
  Ir  Ir21  1  0.413738  0.418021  0.750222  1
  Ir  Ir22  1  0.413738  0.418021  0.418021  1
  Ir  Ir23  1  0.431958  0.856014  0.856014  1
