# generated using pymatgen
data_Ac11HoGa12
_symmetry_space_group_name_H-M   'P 1'
_cell_length_a   4.28590500
_cell_length_b   14.17928200
_cell_length_c   11.98633600
_cell_angle_alpha   90.00234428
_cell_angle_beta   90.00000000
_cell_angle_gamma   90.00000000
_symmetry_Int_Tables_number   1
_chemical_formula_structural   Ac11HoGa12
_chemical_formula_sum   'Ac11 Ho1 Ga12'
_cell_volume   728.42229144
_cell_formula_units_Z   1
loop_
 _symmetry_equiv_pos_site_id
 _symmetry_equiv_pos_as_xyz
  1  'x, y, z'
loop_
 _atom_site_type_symbol
 _atom_site_label
 _atom_site_symmetry_multiplicity
 _atom_site_fract_x
 _atom_site_fract_y
 _atom_site_fract_z
 _atom_site_occupancy
  Ac  Ac0  1  0.250000  0.662612  0.853725  1
  Ac  Ac1  1  0.250000  0.829511  0.358894  1
  Ac  Ac2  1  0.750000  0.333786  0.142103  1
  Ac  Ac3  1  0.750000  0.167665  0.643328  1
  Ac  Ac4  1  0.250000  0.336543  0.855252  1
  Ac  Ac5  1  0.250000  0.171056  0.359969  1
  Ac  Ac6  1  0.750000  0.666409  0.140896  1
  Ac  Ac7  1  0.750000  0.832303  0.642152  1
  Ac  Ac8  1  0.250000  0.000197  0.858898  1
  Ac  Ac9  1  0.250000  0.499787  0.357972  1
  Ac  Ac10  1  0.750000  0.999482  0.143120  1
  Ho  Ho11  1  0.750000  0.500387  0.625642  1
  Ga  Ga12  1  0.250000  0.344580  0.574841  1
  Ga  Ga13  1  0.250000  0.166741  0.066532  1
  Ga  Ga14  1  0.750000  0.662506  0.440470  1
  Ga  Ga15  1  0.750000  0.831259  0.931948  1
  Ga  Ga16  1  0.250000  0.655985  0.572765  1
  Ga  Ga17  1  0.250000  0.832684  0.064017  1
  Ga  Ga18  1  0.750000  0.337793  0.442663  1
  Ga  Ga19  1  0.750000  0.168445  0.934399  1
  Ga  Ga20  1  0.250000  0.000132  0.564459  1
  Ga  Ga21  1  0.250000  0.500000  0.062838  1
  Ga  Ga22  1  0.750000  0.000344  0.433033  1
  Ga  Ga23  1  0.750000  0.499801  0.930083  1
