# generated using pymatgen
data_La17Yb3(Ga3Si)3
_symmetry_space_group_name_H-M   'P 1'
_cell_length_a   7.97012432
_cell_length_b   7.96952523
_cell_length_c   14.69544481
_cell_angle_alpha   89.97625938
_cell_angle_beta   90.02956631
_cell_angle_gamma   89.84753681
_symmetry_Int_Tables_number   1
_chemical_formula_structural   La17Yb3(Ga3Si)3
_chemical_formula_sum   'La17 Yb3 Ga9 Si3'
_cell_volume   933.42332327
_cell_formula_units_Z   1
loop_
 _symmetry_equiv_pos_site_id
 _symmetry_equiv_pos_as_xyz
  1  'x, y, z'
loop_
 _atom_site_type_symbol
 _atom_site_label
 _atom_site_symmetry_multiplicity
 _atom_site_fract_x
 _atom_site_fract_y
 _atom_site_fract_z
 _atom_site_occupancy
  La  La0  1  0.334153  0.314466  0.103076  1
  La  La1  1  0.831668  0.821643  0.896639  1
  La  La2  1  0.834362  0.182917  0.394286  1
  La  La3  1  0.165254  0.181093  0.896352  1
  La  La4  1  0.670597  0.685294  0.105164  1
  La  La5  1  0.820515  0.834009  0.602498  1
  La  La6  1  0.318431  0.336890  0.395571  1
  La  La7  1  0.182610  0.830970  0.102926  1
  La  La8  1  0.176727  0.168244  0.602483  1
  La  La9  1  0.813032  0.168545  0.104594  1
  La  La10  1  0.331270  0.680224  0.601667  1
  La  La11  1  0.505474  0.002825  0.286736  1
  La  La12  1  0.683430  0.328290  0.895996  1
  La  La13  1  0.671079  0.317813  0.603570  1
  La  La14  1  0.318317  0.668508  0.897520  1
  La  La15  1  0.160055  0.816173  0.395430  1
  La  La16  1  0.685174  0.663987  0.393233  1
  Yb  Yb17  1  0.501768  0.000152  0.761048  1
  Yb  Yb18  1  0.997974  0.501690  0.232371  1
  Yb  Yb19  1  0.000211  0.498054  0.736935  1
  Ga  Ga20  1  0.499374  0.999487  0.499822  1
  Ga  Ga21  1  0.999649  0.500079  0.006223  1
  Ga  Ga22  1  0.115511  0.883957  0.749660  1
  Ga  Ga23  1  0.382846  0.382756  0.749660  1
  Ga  Ga24  1  0.116210  0.116756  0.247766  1
  Ga  Ga25  1  0.383220  0.616392  0.247684  1
  Ga  Ga26  1  0.617164  0.616464  0.749692  1
  Ga  Ga27  1  0.499684  0.999470  0.990152  1
  Ga  Ga28  1  0.999767  0.499571  0.505630  1
  Si  Si29  1  0.615161  0.383889  0.248144  1
  Si  Si30  1  0.885792  0.114635  0.749635  1
  Si  Si31  1  0.883521  0.884757  0.247839  1
