# generated using pymatgen
data_LaTm2Pa(ReB6)2
_symmetry_space_group_name_H-M   'P 1'
_cell_length_a   3.72518700
_cell_length_b   9.20450259
_cell_length_c   11.62623011
_cell_angle_alpha   90.26335656
_cell_angle_beta   90.00000000
_cell_angle_gamma   90.00000000
_symmetry_Int_Tables_number   1
_chemical_formula_structural   LaTm2Pa(ReB6)2
_chemical_formula_sum   'La2 Tm4 Pa2 Re4 B24'
_cell_volume   398.64170308
_cell_formula_units_Z   2
loop_
 _symmetry_equiv_pos_site_id
 _symmetry_equiv_pos_as_xyz
  1  'x, y, z'
loop_
 _atom_site_type_symbol
 _atom_site_label
 _atom_site_symmetry_multiplicity
 _atom_site_fract_x
 _atom_site_fract_y
 _atom_site_fract_z
 _atom_site_occupancy
  La  La0  1  0.000000  0.823311  0.086045  1
  La  La1  1  0.000000  0.176689  0.913955  1
  Tm  Tm2  1  0.000000  0.944990  0.374041  1
  Tm  Tm3  1  0.000000  0.055010  0.625959  1
  Tm  Tm4  1  0.000000  0.444484  0.128488  1
  Tm  Tm5  1  0.000000  0.555516  0.871512  1
  Pa  Pa6  1  0.000000  0.321555  0.414019  1
  Pa  Pa7  1  0.000000  0.678445  0.585981  1
  Re  Re8  1  0.000000  0.634357  0.326377  1
  Re  Re9  1  0.000000  0.365643  0.673623  1
  Re  Re10  1  0.000000  0.144373  0.186841  1
  Re  Re11  1  0.000000  0.855627  0.813159  1
  B  B12  1  0.500000  0.553618  0.433657  1
  B  B13  1  0.500000  0.446382  0.566343  1
  B  B14  1  0.500000  0.057544  0.073052  1
  B  B15  1  0.500000  0.942456  0.926948  1
  B  B16  1  0.500000  0.748403  0.420529  1
  B  B17  1  0.500000  0.251597  0.579471  1
  B  B18  1  0.500000  0.251045  0.085566  1
  B  B19  1  0.500000  0.748955  0.914434  1
  B  B20  1  0.500000  0.789815  0.269306  1
  B  B21  1  0.500000  0.210185  0.730694  1
  B  B22  1  0.500000  0.293722  0.237121  1
  B  B23  1  0.500000  0.706278  0.762879  1
  B  B24  1  0.500000  0.628606  0.188459  1
  B  B25  1  0.500000  0.371394  0.811541  1
  B  B26  1  0.500000  0.133142  0.317234  1
  B  B27  1  0.500000  0.866858  0.682766  1
  B  B28  1  0.500000  0.985754  0.216671  1
  B  B29  1  0.500000  0.014246  0.783329  1
  B  B30  1  0.500000  0.482505  0.288678  1
  B  B31  1  0.500000  0.517495  0.711322  1
  B  B32  1  0.500000  0.597200  0.027082  1
  B  B33  1  0.500000  0.402800  0.972918  1
  B  B34  1  0.500000  0.109262  0.470573  1
  B  B35  1  0.500000  0.890738  0.529427  1
