# generated using pymatgen
data_SmYBe2(Co3B)2
_symmetry_space_group_name_H-M   'P 1'
_cell_length_a   5.06081501
_cell_length_b   5.06014743
_cell_length_c   6.38664600
_cell_angle_alpha   90.00000000
_cell_angle_beta   90.00000000
_cell_angle_gamma   120.01578441
_symmetry_Int_Tables_number   1
_chemical_formula_structural   SmYBe2(Co3B)2
_chemical_formula_sum   'Sm1 Y1 Be2 Co6 B2'
_cell_volume   141.61785452
_cell_formula_units_Z   1
loop_
 _symmetry_equiv_pos_site_id
 _symmetry_equiv_pos_as_xyz
  1  'x, y, z'
loop_
 _atom_site_type_symbol
 _atom_site_label
 _atom_site_symmetry_multiplicity
 _atom_site_fract_x
 _atom_site_fract_y
 _atom_site_fract_z
 _atom_site_occupancy
  Sm  Sm0  1  0.999981  0.000000  0.000000  1
  Y  Y1  1  0.999988  0.000002  0.500000  1
  Be  Be2  1  0.333606  0.667053  0.000000  1
  Be  Be3  1  0.666353  0.332945  0.000000  1
  Co  Co4  1  0.499985  0.999999  0.276905  1
  Co  Co5  1  0.499985  0.500002  0.276902  1
  Co  Co6  1  0.999983  0.500000  0.276889  1
  Co  Co7  1  0.499985  0.999999  0.723095  1
  Co  Co8  1  0.499985  0.500002  0.723097  1
  Co  Co9  1  0.999983  0.500000  0.723110  1
  B  B10  1  0.333331  0.666759  0.500000  1
  B  B11  1  0.666635  0.333240  0.500000  1
