# generated using pymatgen
data_Tm2Al2NiRh
_symmetry_space_group_name_H-M   'P 1'
_cell_length_a   4.19516900
_cell_length_b   6.69488100
_cell_length_c   7.78119100
_cell_angle_alpha   90.00000000
_cell_angle_beta   90.00000000
_cell_angle_gamma   90.00000000
_symmetry_Int_Tables_number   1
_chemical_formula_structural   Tm2Al2NiRh
_chemical_formula_sum   'Tm4 Al4 Ni2 Rh2'
_cell_volume   218.54375386
_cell_formula_units_Z   2
loop_
 _symmetry_equiv_pos_site_id
 _symmetry_equiv_pos_as_xyz
  1  'x, y, z'
loop_
 _atom_site_type_symbol
 _atom_site_label
 _atom_site_symmetry_multiplicity
 _atom_site_fract_x
 _atom_site_fract_y
 _atom_site_fract_z
 _atom_site_occupancy
  Tm  Tm0  1  0.250000  0.966891  0.319832  1
  Tm  Tm1  1  0.750000  0.536955  0.825999  1
  Tm  Tm2  1  0.250000  0.466891  0.180168  1
  Tm  Tm3  1  0.750000  0.036955  0.674001  1
  Al  Al4  1  0.750000  0.632436  0.435242  1
  Al  Al5  1  0.750000  0.132436  0.064758  1
  Al  Al6  1  0.250000  0.360344  0.553651  1
  Al  Al7  1  0.250000  0.860344  0.946349  1
  Ni  Ni8  1  0.750000  0.766542  0.127167  1
  Ni  Ni9  1  0.750000  0.266542  0.372833  1
  Rh  Rh10  1  0.250000  0.236832  0.877684  1
  Rh  Rh11  1  0.250000  0.736832  0.622316  1
