# generated using pymatgen
data_Sn3Pt(SO4)8
_symmetry_space_group_name_H-M   'P 1'
_cell_length_a   9.13502600
_cell_length_b   9.33391000
_cell_length_c   13.80475100
_cell_angle_alpha   90.00000000
_cell_angle_beta   90.00000000
_cell_angle_gamma   90.00000000
_symmetry_Int_Tables_number   1
_chemical_formula_structural   Sn3Pt(SO4)8
_chemical_formula_sum   'Sn6 Pt2 S16 O64'
_cell_volume   1177.06914178
_cell_formula_units_Z   2
loop_
 _symmetry_equiv_pos_site_id
 _symmetry_equiv_pos_as_xyz
  1  'x, y, z'
loop_
 _atom_site_type_symbol
 _atom_site_label
 _atom_site_symmetry_multiplicity
 _atom_site_fract_x
 _atom_site_fract_y
 _atom_site_fract_z
 _atom_site_occupancy
  Sn  Sn0  1  0.394453  0.641754  0.126741  1
  Sn  Sn1  1  0.105547  0.641754  0.626741  1
  Sn  Sn2  1  0.892462  0.360469  0.374114  1
  Sn  Sn3  1  0.607538  0.360469  0.874114  1
  Sn  Sn4  1  0.392781  0.137978  0.372843  1
  Sn  Sn5  1  0.107219  0.137978  0.872843  1
  Pt  Pt6  1  0.892777  0.862385  0.124715  1
  Pt  Pt7  1  0.607223  0.862385  0.624715  1
  S  S8  1  0.927425  0.922100  0.720066  1
  S  S9  1  0.572575  0.922100  0.220066  1
  S  S10  1  0.059930  0.583062  0.218867  1
  S  S11  1  0.440070  0.583062  0.718867  1
  S  S12  1  0.563520  0.421663  0.279140  1
  S  S13  1  0.936480  0.421663  0.779140  1
  S  S14  1  0.438636  0.074543  0.775570  1
  S  S15  1  0.061364  0.074543  0.275570  1
  S  S16  1  0.314607  0.840970  0.490113  1
  S  S17  1  0.185393  0.840970  0.990113  1
  S  S18  1  0.810446  0.663581  0.487786  1
  S  S19  1  0.689554  0.663581  0.987786  1
  S  S20  1  0.312606  0.341338  0.013091  1
  S  S21  1  0.187394  0.341338  0.513091  1
  S  S22  1  0.813170  0.154833  0.015212  1
  S  S23  1  0.686830  0.154833  0.515212  1
  O  O24  1  0.301694  0.001093  0.476257  1
  O  O25  1  0.198306  0.001093  0.976257  1
  O  O26  1  0.006917  0.985582  0.351220  1
  O  O27  1  0.493083  0.985582  0.851220  1
  O  O28  1  0.529495  0.976642  0.320206  1
  O  O29  1  0.970505  0.976642  0.820206  1
  O  O30  1  0.760482  0.914960  0.730554  1
  O  O31  1  0.739518  0.914960  0.230554  1
  O  O32  1  0.273394  0.817152  0.081726  1
  O  O33  1  0.226606  0.817152  0.581726  1
  O  O34  1  0.027156  0.801234  0.014495  1
  O  O35  1  0.472844  0.801234  0.514495  1
  O  O36  1  0.983519  0.768034  0.720693  1
  O  O37  1  0.516481  0.768034  0.220693  1
  O  O38  1  0.272004  0.758843  0.407791  1
  O  O39  1  0.227996  0.758843  0.907791  1
  O  O40  1  0.762176  0.743446  0.406288  1
  O  O41  1  0.737824  0.743446  0.906288  1
  O  O42  1  0.997032  0.734907  0.225550  1
  O  O43  1  0.502968  0.734907  0.725550  1
  O  O44  1  0.969058  0.697787  0.512019  1
  O  O45  1  0.530942  0.697787  0.012019  1
  O  O46  1  0.774906  0.686566  0.082586  1
  O  O47  1  0.725094  0.686566  0.582586  1
  O  O48  1  0.226667  0.596736  0.224988  1
  O  O49  1  0.273333  0.596736  0.724988  1
  O  O50  1  0.474964  0.523248  0.819097  1
  O  O51  1  0.025036  0.523248  0.319097  1
  O  O52  1  0.511126  0.507001  0.357329  1
  O  O53  1  0.988874  0.507001  0.857329  1
  O  O54  1  0.799278  0.502008  0.476167  1
  O  O55  1  0.700722  0.502008  0.976167  1
  O  O56  1  0.301892  0.502482  0.024117  1
  O  O57  1  0.198108  0.502482  0.524117  1
  O  O58  1  0.490608  0.499340  0.639344  1
  O  O59  1  0.009392  0.499340  0.139344  1
  O  O60  1  0.525595  0.476434  0.178573  1
  O  O61  1  0.974405  0.476434  0.678573  1
  O  O62  1  0.729858  0.408973  0.273877  1
  O  O63  1  0.770142  0.408973  0.773877  1
  O  O64  1  0.273458  0.313709  0.420509  1
  O  O65  1  0.226542  0.313709  0.920509  1
  O  O66  1  0.470375  0.305129  0.987765  1
  O  O67  1  0.029625  0.305129  0.487765  1
  O  O68  1  0.505761  0.268796  0.277728  1
  O  O69  1  0.994239  0.268796  0.777728  1
  O  O70  1  0.266424  0.262632  0.095813  1
  O  O71  1  0.233576  0.262632  0.595813  1
  O  O72  1  0.769565  0.233148  0.098709  1
  O  O73  1  0.730435  0.233148  0.598709  1
  O  O74  1  0.495567  0.228047  0.777537  1
  O  O75  1  0.004433  0.228047  0.277537  1
  O  O76  1  0.529280  0.187927  0.488935  1
  O  O77  1  0.970720  0.187927  0.988935  1
  O  O78  1  0.773507  0.184105  0.423204  1
  O  O79  1  0.726493  0.184105  0.923204  1
  O  O80  1  0.271708  0.087045  0.772859  1
  O  O81  1  0.228292  0.087045  0.272859  1
  O  O82  1  0.471105  0.025152  0.671527  1
  O  O83  1  0.028895  0.025152  0.171527  1
  O  O84  1  0.980357  0.005671  0.640967  1
  O  O85  1  0.519643  0.005671  0.140967  1
  O  O86  1  0.794271  0.991497  0.023309  1
  O  O87  1  0.705729  0.991497  0.523309  1
