# generated using pymatgen
data_NdGaCoNi2B
_symmetry_space_group_name_H-M   'P 1'
_cell_length_a   5.22592400
_cell_length_b   5.24493575
_cell_length_c   6.79909300
_cell_angle_alpha   90.00000000
_cell_angle_beta   90.00000000
_cell_angle_gamma   119.88017803
_symmetry_Int_Tables_number   1
_chemical_formula_structural   NdGaCoNi2B
_chemical_formula_sum   'Nd2 Ga2 Co2 Ni4 B2'
_cell_volume   161.58758110
_cell_formula_units_Z   2
loop_
 _symmetry_equiv_pos_site_id
 _symmetry_equiv_pos_as_xyz
  1  'x, y, z'
loop_
 _atom_site_type_symbol
 _atom_site_label
 _atom_site_symmetry_multiplicity
 _atom_site_fract_x
 _atom_site_fract_y
 _atom_site_fract_z
 _atom_site_occupancy
  Nd  Nd0  1  0.000000  0.000000  0.000000  1
  Nd  Nd1  1  0.000000  0.000000  0.500000  1
  Ga  Ga2  1  0.335248  0.670498  0.000000  1
  Ga  Ga3  1  0.664752  0.329502  0.000000  1
  Co  Co4  1  0.500000  0.000000  0.699864  1
  Co  Co5  1  0.500000  0.000000  0.300136  1
  Ni  Ni6  1  0.000000  0.500000  0.295624  1
  Ni  Ni7  1  0.500000  0.500000  0.704376  1
  Ni  Ni8  1  0.500000  0.500000  0.295624  1
  Ni  Ni9  1  0.000000  0.500000  0.704376  1
  B  B10  1  0.337246  0.674494  0.500000  1
  B  B11  1  0.662754  0.325506  0.500000  1
