# generated using pymatgen
data_Tb20Bi8Ir3Pt
_symmetry_space_group_name_H-M   'P 1'
_cell_length_a   8.08254963
_cell_length_b   9.02965800
_cell_length_c   12.56237498
_cell_angle_alpha   90.00000000
_cell_angle_beta   90.04521670
_cell_angle_gamma   90.00000000
_symmetry_Int_Tables_number   1
_chemical_formula_structural   Tb20Bi8Ir3Pt
_chemical_formula_sum   'Tb20 Bi8 Ir3 Pt1'
_cell_volume   916.83524274
_cell_formula_units_Z   1
loop_
 _symmetry_equiv_pos_site_id
 _symmetry_equiv_pos_as_xyz
  1  'x, y, z'
loop_
 _atom_site_type_symbol
 _atom_site_label
 _atom_site_symmetry_multiplicity
 _atom_site_fract_x
 _atom_site_fract_y
 _atom_site_fract_z
 _atom_site_occupancy
  Tb  Tb0  1  0.842529  0.750000  0.795267  1
  Tb  Tb1  1  0.157784  0.250000  0.205183  1
  Tb  Tb2  1  0.341597  0.250000  0.705991  1
  Tb  Tb3  1  0.660168  0.750000  0.291434  1
  Tb  Tb4  1  0.373383  0.750000  0.697153  1
  Tb  Tb5  1  0.624152  0.250000  0.305203  1
  Tb  Tb6  1  0.876369  0.250000  0.805277  1
  Tb  Tb7  1  0.124015  0.750000  0.194811  1
  Tb  Tb8  1  0.951574  0.750000  0.501088  1
  Tb  Tb9  1  0.051067  0.250000  0.498929  1
  Tb  Tb10  1  0.448208  0.250000  0.998652  1
  Tb  Tb11  1  0.551478  0.750000  0.001021  1
  Tb  Tb12  1  0.678458  0.045237  0.566133  1
  Tb  Tb13  1  0.320369  0.961533  0.433590  1
  Tb  Tb14  1  0.177086  0.958420  0.934730  1
  Tb  Tb15  1  0.320369  0.538467  0.433590  1
  Tb  Tb16  1  0.822723  0.041250  0.065392  1
  Tb  Tb17  1  0.678458  0.454763  0.566133  1
  Tb  Tb18  1  0.822723  0.458750  0.065392  1
  Tb  Tb19  1  0.177086  0.541580  0.934730  1
  Bi  Bi20  1  0.569198  0.491345  0.826590  1
  Bi  Bi21  1  0.430861  0.508897  0.173258  1
  Bi  Bi22  1  0.069484  0.509081  0.672790  1
  Bi  Bi23  1  0.430861  0.991103  0.173258  1
  Bi  Bi24  1  0.930267  0.491248  0.327134  1
  Bi  Bi25  1  0.569198  0.008655  0.826590  1
  Bi  Bi26  1  0.930267  0.008752  0.327134  1
  Bi  Bi27  1  0.069484  0.990919  0.672790  1
  Ir  Ir28  1  0.431627  0.250000  0.490467  1
  Ir  Ir29  1  0.068541  0.250000  0.990400  1
  Ir  Ir30  1  0.931422  0.750000  0.009872  1
  Pt  Pt31  1  0.569193  0.750000  0.510019  1
