# generated using pymatgen
data_LaNd2Ag(Pt2O7)2
_symmetry_space_group_name_H-M   'P 1'
_cell_length_a   7.33483242
_cell_length_b   7.32601898
_cell_length_c   7.33483228
_cell_angle_alpha   61.38570890
_cell_angle_beta   61.39965340
_cell_angle_gamma   61.38571371
_symmetry_Int_Tables_number   1
_chemical_formula_structural   LaNd2Ag(Pt2O7)2
_chemical_formula_sum   'La1 Nd2 Ag1 Pt4 O14'
_cell_volume   287.40252793
_cell_formula_units_Z   1
loop_
 _symmetry_equiv_pos_site_id
 _symmetry_equiv_pos_as_xyz
  1  'x, y, z'
loop_
 _atom_site_type_symbol
 _atom_site_label
 _atom_site_symmetry_multiplicity
 _atom_site_fract_x
 _atom_site_fract_y
 _atom_site_fract_z
 _atom_site_occupancy
  La  La0  1  0.625000  0.125000  0.625000  1
  Nd  Nd1  1  0.625000  0.625000  0.125000  1
  Nd  Nd2  1  0.125000  0.625000  0.625000  1
  Ag  Ag3  1  0.625000  0.625000  0.625000  1
  Pt  Pt4  1  0.125000  0.125000  0.625000  1
  Pt  Pt5  1  0.125000  0.625000  0.125000  1
  Pt  Pt6  1  0.625000  0.125000  0.125000  1
  Pt  Pt7  1  0.125000  0.125000  0.125000  1
  O  O8  1  0.507183  0.510705  0.507183  1
  O  O9  1  0.742817  0.739295  0.742817  1
  O  O10  1  0.450725  0.055560  0.450725  1
  O  O11  1  0.212995  0.789756  0.212995  1
  O  O12  1  0.451854  0.452034  0.056705  1
  O  O13  1  0.056705  0.452034  0.451854  1
  O  O14  1  0.459088  0.035874  0.040101  1
  O  O15  1  0.040101  0.035874  0.459088  1
  O  O16  1  0.037005  0.460244  0.037005  1
  O  O17  1  0.790912  0.214126  0.209899  1
  O  O18  1  0.193295  0.797966  0.798146  1
  O  O19  1  0.799275  0.194440  0.799275  1
  O  O20  1  0.209899  0.214126  0.790912  1
  O  O21  1  0.798146  0.797966  0.193295  1
