# generated using pymatgen
data_RbSn3MoO8
_symmetry_space_group_name_H-M   'P 1'
_cell_length_a   7.66508920
_cell_length_b   7.66509196
_cell_length_c   10.73706181
_cell_angle_alpha   47.30902894
_cell_angle_beta   47.30899122
_cell_angle_gamma   24.67020534
_symmetry_Int_Tables_number   1
_chemical_formula_structural   RbSn3MoO8
_chemical_formula_sum   'Rb1 Sn3 Mo1 O8'
_cell_volume   189.55946077
_cell_formula_units_Z   1
loop_
 _symmetry_equiv_pos_site_id
 _symmetry_equiv_pos_as_xyz
  1  'x, y, z'
loop_
 _atom_site_type_symbol
 _atom_site_label
 _atom_site_symmetry_multiplicity
 _atom_site_fract_x
 _atom_site_fract_y
 _atom_site_fract_z
 _atom_site_occupancy
  Rb  Rb0  1  0.498580  0.498578  0.997659  1
  Sn  Sn1  1  0.652338  0.652338  0.179364  1
  Sn  Sn2  1  0.163111  0.163112  0.486967  1
  Sn  Sn3  1  0.837589  0.837590  0.515685  1
  Mo  Mo4  1  0.346990  0.346990  0.820002  1
  O  O5  1  0.147725  0.147721  0.055965  1
  O  O6  1  0.842511  0.842510  0.958586  1
  O  O7  1  0.206693  0.206695  0.637844  1
  O  O8  1  0.796283  0.796283  0.361043  1
  O  O9  1  0.546232  0.546237  0.617429  1
  O  O10  1  0.459317  0.459316  0.374593  1
  O  O11  1  0.165612  0.165612  0.292382  1
  O  O12  1  0.837020  0.837019  0.702481  1
