# generated using pymatgen
data_Cs4Mn3CoS8
_symmetry_space_group_name_H-M   'P 1'
_cell_length_a   5.29806808
_cell_length_b   7.30830146
_cell_length_c   12.45391567
_cell_angle_alpha   88.47857572
_cell_angle_beta   83.68223538
_cell_angle_gamma   79.70690684
_symmetry_Int_Tables_number   1
_chemical_formula_structural   Cs4Mn3CoS8
_chemical_formula_sum   'Cs4 Mn3 Co1 S8'
_cell_volume   471.56052332
_cell_formula_units_Z   1
loop_
 _symmetry_equiv_pos_site_id
 _symmetry_equiv_pos_as_xyz
  1  'x, y, z'
loop_
 _atom_site_type_symbol
 _atom_site_label
 _atom_site_symmetry_multiplicity
 _atom_site_fract_x
 _atom_site_fract_y
 _atom_site_fract_z
 _atom_site_occupancy
  Cs  Cs0  1  0.074316  0.025014  0.677170  1
  Cs  Cs1  1  0.574263  0.528499  0.174076  1
  Cs  Cs2  1  0.427156  0.471091  0.825935  1
  Cs  Cs3  1  0.924155  0.974983  0.322835  1
  Mn  Mn4  1  0.250117  0.498998  0.499546  1
  Mn  Mn5  1  0.749565  0.501264  0.500382  1
  Mn  Mn6  1  0.250019  0.000361  0.000159  1
  Co  Co7  1  0.749972  0.000334  0.000160  1
  S  S8  1  0.952315  0.557460  0.636042  1
  S  S9  1  0.447676  0.060790  0.136910  1
  S  S10  1  0.954326  0.234730  0.961461  1
  S  S11  1  0.450699  0.732848  0.461510  1
  S  S12  1  0.545855  0.938889  0.863080  1
  S  S13  1  0.047071  0.442582  0.363927  1
  S  S14  1  0.549336  0.267355  0.538376  1
  S  S15  1  0.053158  0.764798  0.038429  1
