# generated using pymatgen
data_RbMn(CuS2)2
_symmetry_space_group_name_H-M   'P 1'
_cell_length_a   9.61936829
_cell_length_b   9.61936783
_cell_length_c   7.40019900
_cell_angle_alpha   90.00000000
_cell_angle_beta   90.00000000
_cell_angle_gamma   146.86566811
_symmetry_Int_Tables_number   1
_chemical_formula_structural   RbMn(CuS2)2
_chemical_formula_sum   'Rb2 Mn2 Cu4 S8'
_cell_volume   374.29079922
_cell_formula_units_Z   2
loop_
 _symmetry_equiv_pos_site_id
 _symmetry_equiv_pos_as_xyz
  1  'x, y, z'
loop_
 _atom_site_type_symbol
 _atom_site_label
 _atom_site_symmetry_multiplicity
 _atom_site_fract_x
 _atom_site_fract_y
 _atom_site_fract_z
 _atom_site_occupancy
  Rb  Rb0  1  0.174560  0.542501  0.750000  1
  Rb  Rb1  1  0.542501  0.174560  0.250000  1
  Mn  Mn2  1  0.709287  0.495398  0.750000  1
  Mn  Mn3  1  0.495398  0.709287  0.250000  1
  Cu  Cu4  1  0.621670  0.621670  0.500000  1
  Cu  Cu5  1  0.997752  0.208193  0.250000  1
  Cu  Cu6  1  0.208193  0.997752  0.750000  1
  Cu  Cu7  1  0.621670  0.621670  0.000000  1
  S  S8  1  0.726108  0.939301  0.013316  1
  S  S9  1  0.383599  0.364212  0.750000  1
  S  S10  1  0.364212  0.383599  0.250000  1
  S  S11  1  0.939301  0.726108  0.513316  1
  S  S12  1  0.570826  0.171317  0.750000  1
  S  S13  1  0.939301  0.726108  0.986684  1
  S  S14  1  0.171317  0.570826  0.250000  1
  S  S15  1  0.726108  0.939301  0.486684  1
