# generated using pymatgen
data_ZrCuSiH
_symmetry_space_group_name_H-M   'P 1'
_cell_length_a   3.77766700
_cell_length_b   3.77766700
_cell_length_c   6.81510800
_cell_angle_alpha   90.00000000
_cell_angle_beta   90.00000000
_cell_angle_gamma   90.00000000
_symmetry_Int_Tables_number   1
_chemical_formula_structural   ZrCuSiH
_chemical_formula_sum   'Zr2 Cu2 Si2 H2'
_cell_volume   97.25682491
_cell_formula_units_Z   2
loop_
 _symmetry_equiv_pos_site_id
 _symmetry_equiv_pos_as_xyz
  1  'x, y, z'
loop_
 _atom_site_type_symbol
 _atom_site_label
 _atom_site_symmetry_multiplicity
 _atom_site_fract_x
 _atom_site_fract_y
 _atom_site_fract_z
 _atom_site_occupancy
  Zr  Zr0  1  0.500000  0.000000  0.351911  1
  Zr  Zr1  1  0.000000  0.500000  0.648089  1
  Cu  Cu2  1  0.500000  0.500000  0.000000  1
  Cu  Cu3  1  0.000000  0.000000  0.000000  1
  Si  Si4  1  0.500000  0.000000  0.785814  1
  Si  Si5  1  0.000000  0.500000  0.214186  1
  H  H6  1  0.000000  0.000000  0.500000  1
  H  H7  1  0.500000  0.500000  0.500000  1
