# generated using pymatgen
data_SmHo7(PI6)2
_symmetry_space_group_name_H-M   'P 1'
_cell_length_a   4.16451000
_cell_length_b   13.81839315
_cell_length_c   14.58000200
_cell_angle_alpha   90.07905418
_cell_angle_beta   90.00000000
_cell_angle_gamma   90.00000000
_symmetry_Int_Tables_number   1
_chemical_formula_structural   SmHo7(PI6)2
_chemical_formula_sum   'Sm1 Ho7 P2 I12'
_cell_volume   839.03219219
_cell_formula_units_Z   1
loop_
 _symmetry_equiv_pos_site_id
 _symmetry_equiv_pos_as_xyz
  1  'x, y, z'
loop_
 _atom_site_type_symbol
 _atom_site_label
 _atom_site_symmetry_multiplicity
 _atom_site_fract_x
 _atom_site_fract_y
 _atom_site_fract_z
 _atom_site_occupancy
  Sm  Sm0  1  0.000000  0.391497  0.073601  1
  Ho  Ho1  1  0.500000  0.113037  0.350603  1
  Ho  Ho2  1  0.500000  0.887005  0.649027  1
  Ho  Ho3  1  0.500000  0.613247  0.149317  1
  Ho  Ho4  1  0.500000  0.386921  0.850743  1
  Ho  Ho5  1  0.000000  0.107059  0.572377  1
  Ho  Ho6  1  0.000000  0.892850  0.427807  1
  Ho  Ho7  1  0.000000  0.608217  0.926938  1
  P  P8  1  0.500000  0.000089  0.499953  1
  P  P9  1  0.500000  0.503263  0.997885  1
  I  I10  1  0.500000  0.242315  0.165979  1
  I  I11  1  0.500000  0.753200  0.836346  1
  I  I12  1  0.500000  0.748635  0.337283  1
  I  I13  1  0.500000  0.251949  0.662314  1
  I  I14  1  0.000000  0.259048  0.416972  1
  I  I15  1  0.000000  0.740696  0.583202  1
  I  I16  1  0.000000  0.759720  0.083571  1
  I  I17  1  0.000000  0.238915  0.912962  1
  I  I18  1  0.000000  0.998930  0.241147  1
  I  I19  1  0.000000  0.000222  0.759079  1
  I  I20  1  0.000000  0.503193  0.262594  1
  I  I21  1  0.000000  0.499990  0.740300  1
