# generated using pymatgen
data_Tb16ZnCd2InIr4
_symmetry_space_group_name_H-M   'P 1'
_cell_length_a   9.67010871
_cell_length_b   9.65629245
_cell_length_c   9.65146525
_cell_angle_alpha   59.88238789
_cell_angle_beta   59.93607960
_cell_angle_gamma   59.95266131
_symmetry_Int_Tables_number   1
_chemical_formula_structural   Tb16ZnCd2InIr4
_chemical_formula_sum   'Tb16 Zn1 Cd2 In1 Ir4'
_cell_volume   636.16160597
_cell_formula_units_Z   1
loop_
 _symmetry_equiv_pos_site_id
 _symmetry_equiv_pos_as_xyz
  1  'x, y, z'
loop_
 _atom_site_type_symbol
 _atom_site_label
 _atom_site_symmetry_multiplicity
 _atom_site_fract_x
 _atom_site_fract_y
 _atom_site_fract_z
 _atom_site_occupancy
  Tb  Tb0  1  0.099524  0.701071  0.099883  1
  Tb  Tb1  1  0.942171  0.939040  0.559433  1
  Tb  Tb2  1  0.943413  0.558300  0.939650  1
  Tb  Tb3  1  0.312325  0.693116  0.310101  1
  Tb  Tb4  1  0.939722  0.560073  0.560483  1
  Tb  Tb5  1  0.312019  0.312059  0.687306  1
  Tb  Tb6  1  0.099853  0.100065  0.100420  1
  Tb  Tb7  1  0.558637  0.558300  0.939650  1
  Tb  Tb8  1  0.099607  0.100080  0.700707  1
  Tb  Tb9  1  0.688617  0.312059  0.687306  1
  Tb  Tb10  1  0.684459  0.693116  0.310101  1
  Tb  Tb11  1  0.688430  0.312593  0.310548  1
  Tb  Tb12  1  0.311550  0.694155  0.682745  1
  Tb  Tb13  1  0.559356  0.939040  0.559433  1
  Tb  Tb14  1  0.699664  0.100065  0.100420  1
  Tb  Tb15  1  0.558022  0.942296  0.941660  1
  Zn  Zn16  1  0.332837  0.000496  0.333830  1
  Cd  Cd17  1  0.331010  0.326939  0.332632  1
  Cd  Cd18  1  0.009418  0.326939  0.332632  1
  In  In19  1  0.332409  0.327666  0.007515  1
  Ir  Ir20  1  0.890446  0.892412  0.892631  1
  Ir  Ir21  1  0.891045  0.893104  0.324805  1
  Ir  Ir22  1  0.324511  0.892412  0.892631  1
  Ir  Ir23  1  0.890958  0.324608  0.893475  1
