# generated using pymatgen
data_SrThNpSe5
_symmetry_space_group_name_H-M   'P 1'
_cell_length_a   7.95763400
_cell_length_b   8.63523923
_cell_length_c   12.60391267
_cell_angle_alpha   90.30584749
_cell_angle_beta   90.00000000
_cell_angle_gamma   90.00000000
_symmetry_Int_Tables_number   1
_chemical_formula_structural   SrThNpSe5
_chemical_formula_sum   'Sr4 Th4 Np4 Se20'
_cell_volume   866.07904730
_cell_formula_units_Z   4
loop_
 _symmetry_equiv_pos_site_id
 _symmetry_equiv_pos_as_xyz
  1  'x, y, z'
loop_
 _atom_site_type_symbol
 _atom_site_label
 _atom_site_symmetry_multiplicity
 _atom_site_fract_x
 _atom_site_fract_y
 _atom_site_fract_z
 _atom_site_occupancy
  Sr  Sr0  1  0.966467  0.504267  0.826134  1
  Sr  Sr1  1  0.466467  0.495733  0.673866  1
  Sr  Sr2  1  0.033533  0.495733  0.173866  1
  Sr  Sr3  1  0.533533  0.504267  0.326134  1
  Th  Th4  1  0.520812  0.001090  0.320845  1
  Th  Th5  1  0.020812  0.998910  0.179155  1
  Th  Th6  1  0.479188  0.998910  0.679155  1
  Th  Th7  1  0.979188  0.001090  0.820845  1
  Np  Np8  1  0.563789  0.251333  0.003262  1
  Np  Np9  1  0.936211  0.251333  0.503262  1
  Np  Np10  1  0.436211  0.748667  0.996738  1
  Np  Np11  1  0.063789  0.748667  0.496738  1
  Se  Se12  1  0.839621  0.959959  0.598553  1
  Se  Se13  1  0.832229  0.773914  0.314650  1
  Se  Se14  1  0.667771  0.773914  0.814650  1
  Se  Se15  1  0.167771  0.226086  0.685350  1
  Se  Se16  1  0.548314  0.225250  0.502324  1
  Se  Se17  1  0.048314  0.774750  0.997676  1
  Se  Se18  1  0.451686  0.774750  0.497676  1
  Se  Se19  1  0.951686  0.225250  0.002324  1
  Se  Se20  1  0.194327  0.763240  0.713419  1
  Se  Se21  1  0.694327  0.236760  0.786581  1
  Se  Se22  1  0.805673  0.236760  0.286581  1
  Se  Se23  1  0.660379  0.959959  0.098553  1
  Se  Se24  1  0.832559  0.538321  0.586485  1
  Se  Se25  1  0.332559  0.461679  0.913515  1
  Se  Se26  1  0.167441  0.461679  0.413515  1
  Se  Se27  1  0.667441  0.538321  0.086485  1
  Se  Se28  1  0.305673  0.763240  0.213419  1
  Se  Se29  1  0.339621  0.040041  0.901447  1
  Se  Se30  1  0.160379  0.040041  0.401447  1
  Se  Se31  1  0.332229  0.226086  0.185350  1
