# generated using pymatgen
data_Nd2Al20OsRh3
_symmetry_space_group_name_H-M   'P 1'
_cell_length_a   6.89163378
_cell_length_b   6.88861650
_cell_length_c   9.21047253
_cell_angle_alpha   90.10715353
_cell_angle_beta   90.14162126
_cell_angle_gamma   97.41738447
_symmetry_Int_Tables_number   1
_chemical_formula_structural   Nd2Al20OsRh3
_chemical_formula_sum   'Nd2 Al20 Os1 Rh3'
_cell_volume   433.59500990
_cell_formula_units_Z   1
loop_
 _symmetry_equiv_pos_site_id
 _symmetry_equiv_pos_as_xyz
  1  'x, y, z'
loop_
 _atom_site_type_symbol
 _atom_site_label
 _atom_site_symmetry_multiplicity
 _atom_site_fract_x
 _atom_site_fract_y
 _atom_site_fract_z
 _atom_site_occupancy
  Nd  Nd0  1  0.870431  0.126348  0.750414  1
  Nd  Nd1  1  0.129569  0.873652  0.249586  1
  Al  Al2  1  0.620856  0.376561  0.547032  1
  Al  Al3  1  0.379144  0.623439  0.452968  1
  Al  Al4  1  0.378530  0.621982  0.049002  1
  Al  Al5  1  0.621470  0.378018  0.950998  1
  Al  Al6  1  0.221313  0.221061  0.499656  1
  Al  Al7  1  0.778687  0.778939  0.500344  1
  Al  Al8  1  0.776481  0.776569  0.999472  1
  Al  Al9  1  0.223519  0.223431  0.000528  1
  Al  Al10  1  0.842441  0.157987  0.104561  1
  Al  Al11  1  0.157559  0.842013  0.895439  1
  Al  Al12  1  0.157363  0.843141  0.603521  1
  Al  Al13  1  0.842637  0.156859  0.396479  1
  Al  Al14  1  0.856751  0.591917  0.749400  1
  Al  Al15  1  0.143249  0.408083  0.250600  1
  Al  Al16  1  0.407371  0.142728  0.749533  1
  Al  Al17  1  0.592629  0.857272  0.250467  1
  Al  Al18  1  0.225313  0.481909  0.749723  1
  Al  Al19  1  0.774687  0.518091  0.250277  1
  Al  Al20  1  0.517412  0.776157  0.746439  1
  Al  Al21  1  0.482588  0.223843  0.253561  1
  Os  Os22  1  0.500000  0.000000  0.500000  1
  Rh  Rh23  1  0.000000  0.500000  0.500000  1
  Rh  Rh24  1  0.000000  0.500000  0.000000  1
  Rh  Rh25  1  0.500000  0.000000  0.000000  1
