# generated using pymatgen
data_Ta3Cr2Si3W
_symmetry_space_group_name_H-M   'P 1'
_cell_length_a   6.72102828
_cell_length_b   6.79127593
_cell_length_c   3.32271300
_cell_angle_alpha   90.00000000
_cell_angle_beta   90.00000000
_cell_angle_gamma   120.34634136
_symmetry_Int_Tables_number   1
_chemical_formula_structural   Ta3Cr2Si3W
_chemical_formula_sum   'Ta3 Cr2 Si3 W1'
_cell_volume   130.88331465
_cell_formula_units_Z   1
loop_
 _symmetry_equiv_pos_site_id
 _symmetry_equiv_pos_as_xyz
  1  'x, y, z'
loop_
 _atom_site_type_symbol
 _atom_site_label
 _atom_site_symmetry_multiplicity
 _atom_site_fract_x
 _atom_site_fract_y
 _atom_site_fract_z
 _atom_site_occupancy
  Ta  Ta0  1  0.404142  0.407318  0.500000  1
  Ta  Ta1  1  0.595858  0.003177  0.500000  1
  Ta  Ta2  1  0.000000  0.599705  0.500000  1
  Cr  Cr3  1  0.742154  0.741887  0.000000  1
  Cr  Cr4  1  0.257846  0.999733  0.000000  1
  Si  Si5  1  0.661894  0.335809  0.000000  1
  Si  Si6  1  0.338106  0.673916  0.000000  1
  Si  Si7  1  0.000000  0.985343  0.500000  1
  W  W8  1  0.000000  0.253112  0.000000  1
