# generated using pymatgen
data_Y9Tm(GeB4)4
_symmetry_space_group_name_H-M   'P 1'
_cell_length_a   7.25922600
_cell_length_b   7.25922600
_cell_length_c   8.14121300
_cell_angle_alpha   90.00000000
_cell_angle_beta   90.00000000
_cell_angle_gamma   90.00000000
_symmetry_Int_Tables_number   1
_chemical_formula_structural   Y9Tm(GeB4)4
_chemical_formula_sum   'Y9 Tm1 Ge4 B16'
_cell_volume   429.01230834
_cell_formula_units_Z   1
loop_
 _symmetry_equiv_pos_site_id
 _symmetry_equiv_pos_as_xyz
  1  'x, y, z'
loop_
 _atom_site_type_symbol
 _atom_site_label
 _atom_site_symmetry_multiplicity
 _atom_site_fract_x
 _atom_site_fract_y
 _atom_site_fract_z
 _atom_site_occupancy
  Y  Y0  1  0.680698  0.180192  0.221613  1
  Y  Y1  1  0.319302  0.819808  0.778387  1
  Y  Y2  1  0.319302  0.819808  0.221613  1
  Y  Y3  1  0.819808  0.680698  0.221613  1
  Y  Y4  1  0.819808  0.680698  0.778387  1
  Y  Y5  1  0.680698  0.180192  0.778387  1
  Y  Y6  1  0.180192  0.319302  0.778387  1
  Y  Y7  1  0.180192  0.319302  0.221613  1
  Y  Y8  1  0.500000  0.500000  0.500000  1
  Tm  Tm9  1  0.000000  0.000000  0.500000  1
  Ge  Ge10  1  0.118441  0.622213  0.500000  1
  Ge  Ge11  1  0.881559  0.377787  0.500000  1
  Ge  Ge12  1  0.377787  0.118441  0.500000  1
  Ge  Ge13  1  0.622213  0.881559  0.500000  1
  B  B14  1  0.172346  0.039273  0.000000  1
  B  B15  1  0.827654  0.960727  0.000000  1
  B  B16  1  0.960727  0.172346  0.000000  1
  B  B17  1  0.327655  0.539253  0.000000  1
  B  B18  1  0.039273  0.827654  0.000000  1
  B  B19  1  0.672345  0.460747  0.000000  1
  B  B20  1  0.539253  0.672345  0.000000  1
  B  B21  1  0.460747  0.327655  0.000000  1
  B  B22  1  0.090273  0.590216  0.000000  1
  B  B23  1  0.909727  0.409784  0.000000  1
  B  B24  1  0.409784  0.090273  0.000000  1
  B  B25  1  0.590216  0.909727  0.000000  1
  B  B26  1  0.000000  0.000000  0.162152  1
  B  B27  1  0.000000  0.000000  0.837848  1
  B  B28  1  0.500000  0.500000  0.838351  1
  B  B29  1  0.500000  0.500000  0.161649  1
