# generated using pymatgen
data_NdSn6IrRu2Rh
_symmetry_space_group_name_H-M   'P 1'
_cell_length_a   6.99333981
_cell_length_b   6.99334063
_cell_length_c   6.99998586
_cell_angle_alpha   120.58052654
_cell_angle_beta   120.58052997
_cell_angle_gamma   88.82352784
_symmetry_Int_Tables_number   1
_chemical_formula_structural   NdSn6IrRu2Rh
_chemical_formula_sum   'Nd1 Sn6 Ir1 Ru2 Rh1'
_cell_volume   240.26707827
_cell_formula_units_Z   1
loop_
 _symmetry_equiv_pos_site_id
 _symmetry_equiv_pos_as_xyz
  1  'x, y, z'
loop_
 _atom_site_type_symbol
 _atom_site_label
 _atom_site_symmetry_multiplicity
 _atom_site_fract_x
 _atom_site_fract_y
 _atom_site_fract_z
 _atom_site_occupancy
  Nd  Nd0  1  0.003984  0.003984  0.002727  1
  Sn  Sn1  1  0.467805  0.467805  0.594981  1
  Sn  Sn2  1  0.124749  0.124749  0.591772  1
  Sn  Sn3  1  0.877638  0.530900  0.408172  1
  Sn  Sn4  1  0.530900  0.877638  0.408172  1
  Sn  Sn5  1  0.993168  0.495233  0.988668  1
  Sn  Sn6  1  0.495233  0.993168  0.988668  1
  Ir  Ir7  1  0.396089  0.396089  0.159257  1
  Ru  Ru8  1  0.252255  0.595754  0.848623  1
  Ru  Ru9  1  0.595754  0.252255  0.848623  1
  Rh  Rh10  1  0.762425  0.762425  0.160335  1
