# generated using pymatgen
data_CaTmSi4Tc3
_symmetry_space_group_name_H-M   'P 1'
_cell_length_a   6.81784900
_cell_length_b   6.63817072
_cell_length_c   6.79889333
_cell_angle_alpha   70.54998574
_cell_angle_beta   90.00000000
_cell_angle_gamma   90.00000000
_symmetry_Int_Tables_number   1
_chemical_formula_structural   CaTmSi4Tc3
_chemical_formula_sum   'Ca2 Tm2 Si8 Tc6'
_cell_volume   290.14464484
_cell_formula_units_Z   2
loop_
 _symmetry_equiv_pos_site_id
 _symmetry_equiv_pos_as_xyz
  1  'x, y, z'
loop_
 _atom_site_type_symbol
 _atom_site_label
 _atom_site_symmetry_multiplicity
 _atom_site_fract_x
 _atom_site_fract_y
 _atom_site_fract_z
 _atom_site_occupancy
  Ca  Ca0  1  0.333326  0.556520  0.814439  1
  Ca  Ca1  1  0.833326  0.943480  0.185561  1
  Tm  Tm2  1  0.668608  0.441396  0.193355  1
  Tm  Tm3  1  0.168608  0.058604  0.806645  1
  Si  Si4  1  0.546548  0.880484  0.896409  1
  Si  Si5  1  0.046548  0.619516  0.103591  1
  Si  Si6  1  0.454276  0.120700  0.102456  1
  Si  Si7  1  0.954276  0.379300  0.897544  1
  Si  Si8  1  0.138879  0.865005  0.490608  1
  Si  Si9  1  0.638879  0.634995  0.509392  1
  Si  Si10  1  0.860819  0.131051  0.509338  1
  Si  Si11  1  0.360819  0.368949  0.490662  1
  Tc  Tc12  1  0.497234  0.003084  0.501523  1
  Tc  Tc13  1  0.997234  0.496916  0.498477  1
  Tc  Tc14  1  0.842059  0.755192  0.763547  1
  Tc  Tc15  1  0.342059  0.744808  0.236453  1
  Tc  Tc16  1  0.158251  0.242403  0.237454  1
  Tc  Tc17  1  0.658251  0.257597  0.762546  1
