# generated using pymatgen
data_SiMo12Pt7N4
_symmetry_space_group_name_H-M   'P 1'
_cell_length_a   6.88746411
_cell_length_b   6.88746411
_cell_length_c   6.88746411
_cell_angle_alpha   90.04589422
_cell_angle_beta   90.04589422
_cell_angle_gamma   90.04589422
_symmetry_Int_Tables_number   1
_chemical_formula_structural   SiMo12Pt7N4
_chemical_formula_sum   'Si1 Mo12 Pt7 N4'
_cell_volume   326.72143454
_cell_formula_units_Z   1
loop_
 _symmetry_equiv_pos_site_id
 _symmetry_equiv_pos_as_xyz
  1  'x, y, z'
loop_
 _atom_site_type_symbol
 _atom_site_label
 _atom_site_symmetry_multiplicity
 _atom_site_fract_x
 _atom_site_fract_y
 _atom_site_fract_z
 _atom_site_occupancy
  Si  Si0  1  0.186168  0.186168  0.186168  1
  Mo  Mo1  1  0.618017  0.708347  0.950276  1
  Mo  Mo2  1  0.465672  0.870059  0.306607  1
  Mo  Mo3  1  0.708347  0.950276  0.618017  1
  Mo  Mo4  1  0.544227  0.373770  0.203363  1
  Mo  Mo5  1  0.373770  0.203363  0.544227  1
  Mo  Mo6  1  0.203363  0.544227  0.373770  1
  Mo  Mo7  1  0.870059  0.306607  0.465672  1
  Mo  Mo8  1  0.043356  0.119474  0.792212  1
  Mo  Mo9  1  0.306607  0.465672  0.870059  1
  Mo  Mo10  1  0.119474  0.792212  0.043356  1
  Mo  Mo11  1  0.792212  0.043356  0.119474  1
  Mo  Mo12  1  0.950276  0.618017  0.708347  1
  Pt  Pt13  1  0.305611  0.818059  0.685302  1
  Pt  Pt14  1  0.414871  0.069865  0.959934  1
  Pt  Pt15  1  0.818059  0.685302  0.305611  1
  Pt  Pt16  1  0.685302  0.305611  0.818059  1
  Pt  Pt17  1  0.559346  0.559346  0.559346  1
  Pt  Pt18  1  0.069865  0.959934  0.414871  1
  Pt  Pt19  1  0.959934  0.414871  0.069865  1
  N  N20  1  0.376691  0.628999  0.127890  1
  N  N21  1  0.871883  0.871883  0.871883  1
  N  N22  1  0.127890  0.376691  0.628999  1
  N  N23  1  0.628999  0.127890  0.376691  1
