# generated using pymatgen
data_CaCeEr4Ta2O14
_symmetry_space_group_name_H-M   'P 1'
_cell_length_a   6.44206355
_cell_length_b   6.44206314
_cell_length_c   7.48658149
_cell_angle_alpha   89.64046413
_cell_angle_beta   90.35953485
_cell_angle_gamma   108.72644591
_symmetry_Int_Tables_number   1
_chemical_formula_structural   CaCeEr4Ta2O14
_chemical_formula_sum   'Ca1 Ce1 Er4 Ta2 O14'
_cell_volume   294.23822536
_cell_formula_units_Z   1
loop_
 _symmetry_equiv_pos_site_id
 _symmetry_equiv_pos_as_xyz
  1  'x, y, z'
loop_
 _atom_site_type_symbol
 _atom_site_label
 _atom_site_symmetry_multiplicity
 _atom_site_fract_x
 _atom_site_fract_y
 _atom_site_fract_z
 _atom_site_occupancy
  Ca  Ca0  1  0.500000  0.500000  0.000000  1
  Ce  Ce1  1  0.500000  0.500000  0.500000  1
  Er  Er2  1  0.534356  0.000692  0.752719  1
  Er  Er3  1  0.000692  0.534356  0.247281  1
  Er  Er4  1  0.465644  0.999308  0.247281  1
  Er  Er5  1  0.999308  0.465644  0.752719  1
  Ta  Ta6  1  0.000000  0.000000  0.500000  1
  Ta  Ta7  1  0.000000  0.000000  0.000000  1
  O  O8  1  0.678668  0.929464  0.465654  1
  O  O9  1  0.929464  0.678668  0.534346  1
  O  O10  1  0.680016  0.936056  0.034689  1
  O  O11  1  0.936056  0.680016  0.965311  1
  O  O12  1  0.321332  0.070536  0.534346  1
  O  O13  1  0.070536  0.321332  0.465654  1
  O  O14  1  0.319984  0.063944  0.965311  1
  O  O15  1  0.063944  0.319984  0.034689  1
  O  O16  1  0.930955  0.069045  0.749536  1
  O  O17  1  0.069045  0.930955  0.250464  1
  O  O18  1  0.367437  0.632562  0.735566  1
  O  O19  1  0.632562  0.367437  0.264434  1
  O  O20  1  0.640821  0.359179  0.735594  1
  O  O21  1  0.359179  0.640821  0.264406  1
