# generated using pymatgen
data_Zr10Be2SnSb5
_symmetry_space_group_name_H-M   'P 1'
_cell_length_a   8.58349777
_cell_length_b   8.58349934
_cell_length_c   5.83378400
_cell_angle_alpha   90.00000000
_cell_angle_beta   90.00000000
_cell_angle_gamma   120.02914032
_symmetry_Int_Tables_number   1
_chemical_formula_structural   Zr10Be2SnSb5
_chemical_formula_sum   'Zr10 Be2 Sn1 Sb5'
_cell_volume   372.11917863
_cell_formula_units_Z   1
loop_
 _symmetry_equiv_pos_site_id
 _symmetry_equiv_pos_as_xyz
  1  'x, y, z'
loop_
 _atom_site_type_symbol
 _atom_site_label
 _atom_site_symmetry_multiplicity
 _atom_site_fract_x
 _atom_site_fract_y
 _atom_site_fract_z
 _atom_site_occupancy
  Zr  Zr0  1  0.000111  0.252169  0.250000  1
  Zr  Zr1  1  0.746557  0.000485  0.750000  1
  Zr  Zr2  1  0.748844  0.748844  0.250000  1
  Zr  Zr3  1  0.667049  0.332517  0.500381  1
  Zr  Zr4  1  0.000485  0.746557  0.750000  1
  Zr  Zr5  1  0.252385  0.252385  0.750000  1
  Zr  Zr6  1  0.332517  0.667049  0.999619  1
  Zr  Zr7  1  0.667049  0.332517  0.999619  1
  Zr  Zr8  1  0.332517  0.667049  0.500381  1
  Zr  Zr9  1  0.252169  0.000111  0.250000  1
  Be  Be10  1  0.999383  0.999383  0.998267  1
  Be  Be11  1  0.999383  0.999383  0.501733  1
  Sn  Sn12  1  0.610981  0.610981  0.750000  1
  Sb  Sb13  1  0.609858  0.999345  0.250000  1
  Sb  Sb14  1  0.389497  0.000147  0.750000  1
  Sb  Sb15  1  0.391723  0.391723  0.250000  1
  Sb  Sb16  1  0.999345  0.609858  0.250000  1
  Sb  Sb17  1  0.000147  0.389497  0.750000  1
