# generated using pymatgen
data_Lu4As6IrRh6
_symmetry_space_group_name_H-M   'P 1'
_cell_length_a   7.22105605
_cell_length_b   7.22105627
_cell_length_c   7.22105532
_cell_angle_alpha   109.51714096
_cell_angle_beta   109.37941997
_cell_angle_gamma   109.51713947
_symmetry_Int_Tables_number   1
_chemical_formula_structural   Lu4As6IrRh6
_chemical_formula_sum   'Lu4 As6 Ir1 Rh6'
_cell_volume   289.85406349
_cell_formula_units_Z   1
loop_
 _symmetry_equiv_pos_site_id
 _symmetry_equiv_pos_as_xyz
  1  'x, y, z'
loop_
 _atom_site_type_symbol
 _atom_site_label
 _atom_site_symmetry_multiplicity
 _atom_site_fract_x
 _atom_site_fract_y
 _atom_site_fract_z
 _atom_site_occupancy
  Lu  Lu0  1  0.500096  0.500000  0.499904  1
  Lu  Lu1  1  0.999904  0.500000  0.000096  1
  Lu  Lu2  1  0.500096  0.000192  0.000096  1
  Lu  Lu3  1  0.999904  0.999808  0.499904  1
  As  As4  1  0.683157  0.000000  0.683157  1
  As  As5  1  0.683006  0.683609  0.999398  1
  As  As6  1  0.315789  0.316391  0.999398  1
  As  As7  1  0.000602  0.683609  0.684211  1
  As  As8  1  0.000602  0.316391  0.316994  1
  As  As9  1  0.316843  0.000000  0.316843  1
  Ir  Ir10  1  0.750000  0.500000  0.250000  1
  Rh  Rh11  1  0.500289  0.249791  0.750080  1
  Rh  Rh12  1  0.749502  0.249791  0.499711  1
  Rh  Rh13  1  0.249920  0.750209  0.499711  1
  Rh  Rh14  1  0.250000  0.500000  0.750000  1
  Rh  Rh15  1  0.500289  0.750209  0.250498  1
  Rh  Rh16  1  0.000000  0.000000  0.000000  1
