# generated using pymatgen
data_CuAgAu(CO4)2
_symmetry_space_group_name_H-M   'P 1'
_cell_length_a   5.97506400
_cell_length_b   5.29264220
_cell_length_c   11.06746573
_cell_angle_alpha   85.49868586
_cell_angle_beta   90.00000000
_cell_angle_gamma   90.00000000
_symmetry_Int_Tables_number   1
_chemical_formula_structural   CuAgAu(CO4)2
_chemical_formula_sum   'Cu2 Ag2 Au2 C4 O16'
_cell_volume   348.91661153
_cell_formula_units_Z   2
loop_
 _symmetry_equiv_pos_site_id
 _symmetry_equiv_pos_as_xyz
  1  'x, y, z'
loop_
 _atom_site_type_symbol
 _atom_site_label
 _atom_site_symmetry_multiplicity
 _atom_site_fract_x
 _atom_site_fract_y
 _atom_site_fract_z
 _atom_site_occupancy
  Cu  Cu0  1  0.996354  0.255113  0.410151  1
  Cu  Cu1  1  0.496354  0.744887  0.089849  1
  Ag  Ag2  1  0.003899  0.763836  0.586525  1
  Ag  Ag3  1  0.503899  0.236164  0.913475  1
  Au  Au4  1  0.502424  0.011518  0.492468  1
  Au  Au5  1  0.002424  0.988482  0.007532  1
  C  C6  1  0.810247  0.669792  0.827727  1
  C  C7  1  0.310247  0.330208  0.672273  1
  C  C8  1  0.189512  0.334660  0.183331  1
  C  C9  1  0.689512  0.665340  0.316669  1
  O  O10  1  0.320672  0.912615  0.963957  1
  O  O11  1  0.820672  0.087385  0.536043  1
  O  O12  1  0.679491  0.040170  0.052840  1
  O  O13  1  0.179491  0.959830  0.447160  1
  O  O14  1  0.926331  0.877270  0.839764  1
  O  O15  1  0.426331  0.122730  0.660236  1
  O  O16  1  0.081365  0.121473  0.170384  1
  O  O17  1  0.581365  0.878527  0.329616  1
  O  O18  1  0.720839  0.550938  0.921596  1
  O  O19  1  0.220839  0.449062  0.578404  1
  O  O20  1  0.284557  0.459858  0.093017  1
  O  O21  1  0.784557  0.540142  0.406983  1
  O  O22  1  0.788956  0.592623  0.721494  1
  O  O23  1  0.288956  0.407377  0.778506  1
  O  O24  1  0.195353  0.410607  0.290902  1
  O  O25  1  0.695353  0.589393  0.209098  1
