# generated using pymatgen
data_TbY5Al24Os5Pd3
_symmetry_space_group_name_H-M   'P 1'
_cell_length_a   8.85276410
_cell_length_b   8.88314299
_cell_length_c   9.57311304
_cell_angle_alpha   90.23822693
_cell_angle_beta   89.83744271
_cell_angle_gamma   120.00261118
_symmetry_Int_Tables_number   1
_chemical_formula_structural   TbY5Al24Os5Pd3
_chemical_formula_sum   'Tb1 Y5 Al24 Os5 Pd3'
_cell_volume   651.94958870
_cell_formula_units_Z   1
loop_
 _symmetry_equiv_pos_site_id
 _symmetry_equiv_pos_as_xyz
  1  'x, y, z'
loop_
 _atom_site_type_symbol
 _atom_site_label
 _atom_site_symmetry_multiplicity
 _atom_site_fract_x
 _atom_site_fract_y
 _atom_site_fract_z
 _atom_site_occupancy
  Tb  Tb0  1  0.805655  0.187885  0.748647  1
  Y  Y1  1  0.198317  0.384987  0.252201  1
  Y  Y2  1  0.801655  0.614995  0.747811  1
  Y  Y3  1  0.612930  0.804333  0.250787  1
  Y  Y4  1  0.387081  0.195714  0.749216  1
  Y  Y5  1  0.194488  0.811935  0.251405  1
  Al  Al6  1  0.334711  0.664332  0.027859  1
  Al  Al7  1  0.665258  0.335743  0.972288  1
  Al  Al8  1  0.662278  0.330814  0.525182  1
  Al  Al9  1  0.337669  0.669256  0.474686  1
  Al  Al10  1  0.167850  0.325593  0.577365  1
  Al  Al11  1  0.832183  0.674402  0.422610  1
  Al  Al12  1  0.670804  0.835459  0.574831  1
  Al  Al13  1  0.832159  0.674559  0.077006  1
  Al  Al14  1  0.329189  0.164435  0.425142  1
  Al  Al15  1  0.167867  0.325449  0.923014  1
  Al  Al16  1  0.167590  0.843095  0.577762  1
  Al  Al17  1  0.326727  0.169049  0.078225  1
  Al  Al18  1  0.832482  0.156913  0.422135  1
  Al  Al19  1  0.673274  0.830925  0.921774  1
  Al  Al20  1  0.839585  0.162882  0.080729  1
  Al  Al21  1  0.160451  0.837119  0.919317  1
  Al  Al22  1  0.562791  0.125361  0.252316  1
  Al  Al23  1  0.436891  0.874376  0.747677  1
  Al  Al24  1  0.876242  0.438412  0.249818  1
  Al  Al25  1  0.123943  0.561827  0.750209  1
  Al  Al26  1  0.562522  0.438748  0.249563  1
  Al  Al27  1  0.437496  0.561224  0.750422  1
  Al  Al28  1  0.002118  0.001081  0.250241  1
  Al  Al29  1  0.997684  0.999031  0.749727  1
  Os  Os30  1  0.500021  0.999997  0.500027  1
  Os  Os31  1  0.499963  0.500028  0.000005  1
  Os  Os32  1  0.499945  0.500019  0.499981  1
  Os  Os33  1  0.000085  0.999951  0.000028  1
  Os  Os34  1  0.000052  0.999919  0.499928  1
  Pd  Pd35  1  0.499946  0.999969  0.000034  1
  Pd  Pd36  1  0.000068  0.500135  0.000072  1
  Pd  Pd37  1  0.000032  0.500049  0.499963  1
