# generated using pymatgen
data_CaSiGe2AsRh6
_symmetry_space_group_name_H-M   'P 1'
_cell_length_a   7.17140200
_cell_length_b   7.20991259
_cell_length_c   3.82195000
_cell_angle_alpha   90.00000000
_cell_angle_beta   90.00000000
_cell_angle_gamma   119.82346663
_symmetry_Int_Tables_number   1
_chemical_formula_structural   CaSiGe2AsRh6
_chemical_formula_sum   'Ca1 Si1 Ge2 As1 Rh6'
_cell_volume   171.44290130
_cell_formula_units_Z   1
loop_
 _symmetry_equiv_pos_site_id
 _symmetry_equiv_pos_as_xyz
  1  'x, y, z'
loop_
 _atom_site_type_symbol
 _atom_site_label
 _atom_site_symmetry_multiplicity
 _atom_site_fract_x
 _atom_site_fract_y
 _atom_site_fract_z
 _atom_site_occupancy
  Ca  Ca0  1  0.000293  0.000585  0.000000  1
  Si  Si1  1  0.333557  0.667115  0.000000  1
  Ge  Ge2  1  0.803398  0.194531  0.500000  1
  Ge  Ge3  1  0.391134  0.194531  0.500000  1
  As  As4  1  0.805530  0.611058  0.500000  1
  Rh  Rh5  1  0.201565  0.796174  0.500000  1
  Rh  Rh6  1  0.202924  0.405847  0.500000  1
  Rh  Rh7  1  0.531291  0.062583  0.000000  1
  Rh  Rh8  1  0.937202  0.469035  0.000000  1
  Rh  Rh9  1  0.531832  0.469035  0.000000  1
  Rh  Rh10  1  0.594609  0.796174  0.500000  1
