# generated using pymatgen
data_Pu4V2ReB16W
_symmetry_space_group_name_H-M   'P 1'
_cell_length_a   3.57047400
_cell_length_b   5.98609453
_cell_length_c   11.59082943
_cell_angle_alpha   90.08118297
_cell_angle_beta   90.00000000
_cell_angle_gamma   90.00000000
_symmetry_Int_Tables_number   1
_chemical_formula_structural   Pu4V2ReB16W
_chemical_formula_sum   'Pu4 V2 Re1 B16 W1'
_cell_volume   247.73280772
_cell_formula_units_Z   1
loop_
 _symmetry_equiv_pos_site_id
 _symmetry_equiv_pos_as_xyz
  1  'x, y, z'
loop_
 _atom_site_type_symbol
 _atom_site_label
 _atom_site_symmetry_multiplicity
 _atom_site_fract_x
 _atom_site_fract_y
 _atom_site_fract_z
 _atom_site_occupancy
  Pu  Pu0  1  0.000000  0.624163  0.349167  1
  Pu  Pu1  1  0.000000  0.374248  0.651550  1
  Pu  Pu2  1  0.000000  0.125897  0.151463  1
  Pu  Pu3  1  0.000000  0.875779  0.850200  1
  V  V4  1  0.000000  0.368524  0.915791  1
  V  V5  1  0.000000  0.130360  0.413947  1
  Re  Re6  1  0.000000  0.629034  0.084457  1
  B  B7  1  0.500000  0.784980  0.185799  1
  B  B8  1  0.500000  0.215891  0.814907  1
  B  B9  1  0.500000  0.284805  0.313773  1
  B  B10  1  0.500000  0.712074  0.687874  1
  B  B11  1  0.500000  0.865125  0.032604  1
  B  B12  1  0.500000  0.135444  0.967890  1
  B  B13  1  0.500000  0.364783  0.466018  1
  B  B14  1  0.500000  0.632451  0.531512  1
  B  B15  1  0.500000  0.887044  0.451265  1
  B  B16  1  0.500000  0.117304  0.545627  1
  B  B17  1  0.500000  0.384834  0.047315  1
  B  B18  1  0.500000  0.614318  0.953075  1
  B  B19  1  0.500000  0.975889  0.306988  1
  B  B20  1  0.500000  0.027790  0.693346  1
  B  B21  1  0.500000  0.474824  0.191995  1
  B  B22  1  0.500000  0.523530  0.808924  1
  W  W23  1  0.000000  0.870907  0.584512  1
