# generated using pymatgen
data_Hf8Ti2(GaBi)3
_symmetry_space_group_name_H-M   'P 1'
_cell_length_a   5.44090130
_cell_length_b   8.24671858
_cell_length_c   8.25097832
_cell_angle_alpha   83.75578675
_cell_angle_beta   70.74868616
_cell_angle_gamma   70.73833992
_symmetry_Int_Tables_number   1
_chemical_formula_structural   Hf8Ti2(GaBi)3
_chemical_formula_sum   'Hf8 Ti2 Ga3 Bi3'
_cell_volume   329.95066664
_cell_formula_units_Z   1
loop_
 _symmetry_equiv_pos_site_id
 _symmetry_equiv_pos_as_xyz
  1  'x, y, z'
loop_
 _atom_site_type_symbol
 _atom_site_label
 _atom_site_symmetry_multiplicity
 _atom_site_fract_x
 _atom_site_fract_y
 _atom_site_fract_z
 _atom_site_occupancy
  Hf  Hf0  1  0.706286  0.877925  0.709504  1
  Hf  Hf1  1  0.284505  0.134004  0.296986  1
  Hf  Hf2  1  0.776849  0.292172  0.154130  1
  Hf  Hf3  1  0.206701  0.718203  0.868396  1
  Hf  Hf4  1  0.575095  0.718203  0.131604  1
  Hf  Hf5  1  0.430980  0.292172  0.845870  1
  Hf  Hf6  1  0.081491  0.134004  0.703014  1
  Hf  Hf7  1  0.915790  0.877925  0.290496  1
  Ti  Ti8  1  0.754116  0.475267  0.500000  1
  Ti  Ti9  1  0.270617  0.475267  0.500000  1
  Ga  Ga10  1  0.661685  0.176629  0.500000  1
  Ga  Ga11  1  0.245558  0.008884  0.000000  1
  Ga  Ga12  1  0.745558  0.008884  0.000000  1
  Bi  Bi13  1  0.158851  0.501710  0.180588  1
  Bi  Bi14  1  0.839439  0.501710  0.819412  1
  Bi  Bi15  1  0.346478  0.807042  0.500000  1
