# generated using pymatgen
data_Dy3Er17(Cd3Ir)2
_symmetry_space_group_name_H-M   'P 1'
_cell_length_a   9.55780800
_cell_length_b   9.55780877
_cell_length_c   9.75123000
_cell_angle_alpha   90.00000000
_cell_angle_beta   90.00000000
_cell_angle_gamma   119.99999041
_symmetry_Int_Tables_number   1
_chemical_formula_structural   Dy3Er17(Cd3Ir)2
_chemical_formula_sum   'Dy3 Er17 Cd6 Ir2'
_cell_volume   771.44809855
_cell_formula_units_Z   1
loop_
 _symmetry_equiv_pos_site_id
 _symmetry_equiv_pos_as_xyz
  1  'x, y, z'
loop_
 _atom_site_type_symbol
 _atom_site_label
 _atom_site_symmetry_multiplicity
 _atom_site_fract_x
 _atom_site_fract_y
 _atom_site_fract_z
 _atom_site_occupancy
  Dy  Dy0  1  0.459088  0.540912  0.750000  1
  Dy  Dy1  1  0.459088  0.918176  0.750000  1
  Dy  Dy2  1  0.081824  0.540912  0.750000  1
  Er  Er3  1  0.000000  0.000000  0.499621  1
  Er  Er4  1  0.000000  0.000000  0.000379  1
  Er  Er5  1  0.541426  0.458574  0.250000  1
  Er  Er6  1  0.541426  0.082852  0.250000  1
  Er  Er7  1  0.917148  0.458574  0.250000  1
  Er  Er8  1  0.209091  0.790909  0.439968  1
  Er  Er9  1  0.209091  0.418182  0.439968  1
  Er  Er10  1  0.581818  0.790909  0.439968  1
  Er  Er11  1  0.790379  0.209621  0.558370  1
  Er  Er12  1  0.790379  0.580758  0.558370  1
  Er  Er13  1  0.419242  0.209621  0.558370  1
  Er  Er14  1  0.790379  0.209621  0.941630  1
  Er  Er15  1  0.790379  0.580758  0.941630  1
  Er  Er16  1  0.419242  0.209621  0.941630  1
  Er  Er17  1  0.209091  0.790909  0.060032  1
  Er  Er18  1  0.209091  0.418182  0.060032  1
  Er  Er19  1  0.581818  0.790909  0.060032  1
  Cd  Cd20  1  0.885182  0.114818  0.250000  1
  Cd  Cd21  1  0.885182  0.770365  0.250000  1
  Cd  Cd22  1  0.229635  0.114818  0.250000  1
  Cd  Cd23  1  0.113599  0.886401  0.750000  1
  Cd  Cd24  1  0.113599  0.227199  0.750000  1
  Cd  Cd25  1  0.772801  0.886401  0.750000  1
  Ir  Ir26  1  0.333333  0.666667  0.250000  1
  Ir  Ir27  1  0.666667  0.333333  0.750000  1
