# generated using pymatgen
data_Sc3Co2Sn3Pd
_symmetry_space_group_name_H-M   'P 1'
_cell_length_a   7.48557200
_cell_length_b   7.48537647
_cell_length_c   6.76141800
_cell_angle_alpha   89.99807810
_cell_angle_beta   90.00174537
_cell_angle_gamma   119.99795145
_symmetry_Int_Tables_number   1
_chemical_formula_structural   Sc3Co2Sn3Pd
_chemical_formula_sum   'Sc6 Co4 Sn6 Pd2'
_cell_volume   328.10739704
_cell_formula_units_Z   2
loop_
 _symmetry_equiv_pos_site_id
 _symmetry_equiv_pos_as_xyz
  1  'x, y, z'
loop_
 _atom_site_type_symbol
 _atom_site_label
 _atom_site_symmetry_multiplicity
 _atom_site_fract_x
 _atom_site_fract_y
 _atom_site_fract_z
 _atom_site_occupancy
  Sc  Sc0  1  0.385046  0.980600  0.250006  1
  Sc  Sc1  1  0.595535  0.614942  0.250005  1
  Sc  Sc2  1  0.019421  0.404459  0.249998  1
  Sc  Sc3  1  0.383653  0.977627  0.750004  1
  Sc  Sc4  1  0.593955  0.616342  0.749997  1
  Sc  Sc5  1  0.022401  0.406035  0.749996  1
  Co  Co6  1  0.333328  0.666682  0.001386  1
  Co  Co7  1  0.333326  0.666678  0.498610  1
  Co  Co8  1  0.999997  0.999999  0.250001  1
  Co  Co9  1  0.999993  0.999997  0.749998  1
  Sn  Sn10  1  0.732221  0.001627  0.000192  1
  Sn  Sn11  1  0.269425  0.267785  0.499804  1
  Sn  Sn12  1  0.998381  0.730589  0.499810  1
  Sn  Sn13  1  0.998375  0.730589  0.000196  1
  Sn  Sn14  1  0.269425  0.267778  0.000193  1
  Sn  Sn15  1  0.732213  0.001617  0.499803  1
  Pd  Pd16  1  0.666653  0.333327  0.994589  1
  Pd  Pd17  1  0.666653  0.333326  0.505411  1
