# generated using pymatgen
data_Tb8Cd2OsAu
_symmetry_space_group_name_H-M   'P 1'
_cell_length_a   9.74823759
_cell_length_b   9.74823701
_cell_length_c   9.85644100
_cell_angle_alpha   59.63213209
_cell_angle_beta   59.63213410
_cell_angle_gamma   59.38200178
_symmetry_Int_Tables_number   1
_chemical_formula_structural   Tb8Cd2OsAu
_chemical_formula_sum   'Tb16 Cd4 Os2 Au2'
_cell_volume   655.50059334
_cell_formula_units_Z   2
loop_
 _symmetry_equiv_pos_site_id
 _symmetry_equiv_pos_as_xyz
  1  'x, y, z'
loop_
 _atom_site_type_symbol
 _atom_site_label
 _atom_site_symmetry_multiplicity
 _atom_site_fract_x
 _atom_site_fract_y
 _atom_site_fract_z
 _atom_site_occupancy
  Tb  Tb0  1  0.350294  0.350294  0.364749  1
  Tb  Tb1  1  0.350294  0.350294  0.934663  1
  Tb  Tb2  1  0.343378  0.952164  0.352229  1
  Tb  Tb3  1  0.952164  0.343378  0.352229  1
  Tb  Tb4  1  0.819082  0.187516  0.192969  1
  Tb  Tb5  1  0.187516  0.819082  0.800434  1
  Tb  Tb6  1  0.187516  0.819082  0.192969  1
  Tb  Tb7  1  0.819082  0.187516  0.800434  1
  Tb  Tb8  1  0.187046  0.187046  0.812954  1
  Tb  Tb9  1  0.807141  0.807141  0.192859  1
  Tb  Tb10  1  0.936533  0.557599  0.569182  1
  Tb  Tb11  1  0.557599  0.936533  0.936687  1
  Tb  Tb12  1  0.557599  0.936533  0.569182  1
  Tb  Tb13  1  0.936533  0.557599  0.936687  1
  Tb  Tb14  1  0.563084  0.563084  0.936916  1
  Tb  Tb15  1  0.937856  0.937856  0.562144  1
  Cd  Cd16  1  0.579814  0.579814  0.581687  1
  Cd  Cd17  1  0.579814  0.579814  0.258684  1
  Cd  Cd18  1  0.583023  0.252340  0.582318  1
  Cd  Cd19  1  0.252340  0.583023  0.582318  1
  Os  Os20  1  0.146125  0.146125  0.135916  1
  Os  Os21  1  0.146125  0.146125  0.571835  1
  Au  Au22  1  0.150703  0.569342  0.139978  1
  Au  Au23  1  0.569342  0.150703  0.139978  1
