# generated using pymatgen
data_Ca3(Si3Os)4
_symmetry_space_group_name_H-M   'P 1'
_cell_length_a   10.19294886
_cell_length_b   10.19294792
_cell_length_c   8.19569200
_cell_angle_alpha   90.00000000
_cell_angle_beta   90.00000000
_cell_angle_gamma   132.55324309
_symmetry_Int_Tables_number   1
_chemical_formula_structural   Ca3(Si3Os)4
_chemical_formula_sum   'Ca6 Si24 Os8'
_cell_volume   627.25771193
_cell_formula_units_Z   2
loop_
 _symmetry_equiv_pos_site_id
 _symmetry_equiv_pos_as_xyz
  1  'x, y, z'
loop_
 _atom_site_type_symbol
 _atom_site_label
 _atom_site_symmetry_multiplicity
 _atom_site_fract_x
 _atom_site_fract_y
 _atom_site_fract_z
 _atom_site_occupancy
  Ca  Ca0  1  0.500638  0.000638  0.750000  1
  Ca  Ca1  1  0.999362  0.499362  0.250000  1
  Ca  Ca2  1  0.499362  0.999362  0.250000  1
  Ca  Ca3  1  0.000638  0.500638  0.750000  1
  Ca  Ca4  1  0.000000  0.000000  0.000000  1
  Ca  Ca5  1  0.500000  0.500000  0.500000  1
  Si  Si6  1  0.794572  0.205428  0.500000  1
  Si  Si7  1  0.705428  0.294572  0.000000  1
  Si  Si8  1  0.205428  0.794572  0.500000  1
  Si  Si9  1  0.294572  0.705428  0.000000  1
  Si  Si10  1  0.667770  0.667770  0.167528  1
  Si  Si11  1  0.167770  0.167770  0.332472  1
  Si  Si12  1  0.832230  0.832230  0.667528  1
  Si  Si13  1  0.332230  0.332230  0.832472  1
  Si  Si14  1  0.847448  0.613546  0.991759  1
  Si  Si15  1  0.113546  0.347448  0.508241  1
  Si  Si16  1  0.652552  0.886454  0.491759  1
  Si  Si17  1  0.386454  0.152552  0.008241  1
  Si  Si18  1  0.152552  0.386454  0.008241  1
  Si  Si19  1  0.886454  0.652552  0.491759  1
  Si  Si20  1  0.125803  0.892439  0.731046  1
  Si  Si21  1  0.392439  0.625803  0.768954  1
  Si  Si22  1  0.374197  0.607561  0.231046  1
  Si  Si23  1  0.107561  0.874197  0.268954  1
  Si  Si24  1  0.874197  0.107561  0.268954  1
  Si  Si25  1  0.607561  0.374197  0.231046  1
  Si  Si26  1  0.625803  0.392439  0.768954  1
  Si  Si27  1  0.892439  0.125803  0.731046  1
  Si  Si28  1  0.613546  0.847448  0.991759  1
  Si  Si29  1  0.347448  0.113546  0.508241  1
  Os  Os30  1  0.625759  0.625759  0.874909  1
  Os  Os31  1  0.125759  0.125759  0.625091  1
  Os  Os32  1  0.374241  0.374241  0.125091  1
  Os  Os33  1  0.874241  0.874241  0.374909  1
  Os  Os34  1  0.169671  0.830329  0.000000  1
  Os  Os35  1  0.330329  0.669671  0.500000  1
  Os  Os36  1  0.830329  0.169671  0.000000  1
  Os  Os37  1  0.669671  0.330329  0.500000  1
