# generated using pymatgen
data_Lu6ScRhO12
_symmetry_space_group_name_H-M   'P 1'
_cell_length_a   6.43143804
_cell_length_b   6.43143705
_cell_length_c   6.43143773
_cell_angle_alpha   93.30083394
_cell_angle_beta   93.30085304
_cell_angle_gamma   93.30083979
_symmetry_Int_Tables_number   1
_chemical_formula_structural   Lu6ScRhO12
_chemical_formula_sum   'Lu6 Sc1 Rh1 O12'
_cell_volume   264.64877581
_cell_formula_units_Z   1
loop_
 _symmetry_equiv_pos_site_id
 _symmetry_equiv_pos_as_xyz
  1  'x, y, z'
loop_
 _atom_site_type_symbol
 _atom_site_label
 _atom_site_symmetry_multiplicity
 _atom_site_fract_x
 _atom_site_fract_y
 _atom_site_fract_z
 _atom_site_occupancy
  Lu  Lu0  1  0.742494  0.921627  0.432923  1
  Lu  Lu1  1  0.921627  0.432923  0.742494  1
  Lu  Lu2  1  0.432923  0.742494  0.921627  1
  Lu  Lu3  1  0.257506  0.078373  0.567077  1
  Lu  Lu4  1  0.078373  0.567077  0.257506  1
  Lu  Lu5  1  0.567077  0.257506  0.078373  1
  Sc  Sc6  1  0.000000  0.000000  0.000000  1
  Rh  Rh7  1  0.500000  0.500000  0.500000  1
  O  O8  1  0.592090  0.461214  0.809677  1
  O  O9  1  0.461214  0.809677  0.592090  1
  O  O10  1  0.809677  0.592090  0.461214  1
  O  O11  1  0.407910  0.538786  0.190323  1
  O  O12  1  0.538786  0.190323  0.407910  1
  O  O13  1  0.190323  0.407910  0.538786  1
  O  O14  1  0.069703  0.914812  0.312185  1
  O  O15  1  0.914812  0.312185  0.069703  1
  O  O16  1  0.687815  0.930297  0.085188  1
  O  O17  1  0.085188  0.687815  0.930297  1
  O  O18  1  0.930297  0.085188  0.687815  1
  O  O19  1  0.312185  0.069703  0.914812  1
