# generated using pymatgen
data_Y16ZnIn6Ag
_symmetry_space_group_name_H-M   'P 1'
_cell_length_a   10.70453500
_cell_length_b   10.70451596
_cell_length_c   6.86029900
_cell_angle_alpha   89.99995577
_cell_angle_beta   90.00003276
_cell_angle_gamma   120.00030247
_symmetry_Int_Tables_number   1
_chemical_formula_structural   Y16ZnIn6Ag
_chemical_formula_sum   'Y16 Zn1 In6 Ag1'
_cell_volume   680.78063388
_cell_formula_units_Z   1
loop_
 _symmetry_equiv_pos_site_id
 _symmetry_equiv_pos_as_xyz
  1  'x, y, z'
loop_
 _atom_site_type_symbol
 _atom_site_label
 _atom_site_symmetry_multiplicity
 _atom_site_fract_x
 _atom_site_fract_y
 _atom_site_fract_z
 _atom_site_occupancy
  Y  Y0  1  0.521530  0.043062  0.518919  1
  Y  Y1  1  0.956937  0.478469  0.518918  1
  Y  Y2  1  0.521531  0.478469  0.518921  1
  Y  Y3  1  0.477338  0.954675  0.019698  1
  Y  Y4  1  0.045325  0.522662  0.019698  1
  Y  Y5  1  0.477335  0.522664  0.019702  1
  Y  Y6  1  0.171569  0.343139  0.736251  1
  Y  Y7  1  0.656861  0.828431  0.736251  1
  Y  Y8  1  0.171570  0.828431  0.736252  1
  Y  Y9  1  0.827956  0.655911  0.231850  1
  Y  Y10  1  0.344089  0.172044  0.231851  1
  Y  Y11  1  0.827955  0.172045  0.231851  1
  Y  Y12  1  0.666666  0.333334  0.868877  1
  Y  Y13  1  0.333333  0.666666  0.371426  1
  Y  Y14  1  0.000001  0.000000  0.498268  1
  Y  Y15  1  0.000000  0.000001  0.996743  1
  Zn  Zn16  1  0.333335  0.666667  0.800587  1
  In  In17  1  0.835367  0.670735  0.750471  1
  In  In18  1  0.329265  0.164633  0.750472  1
  In  In19  1  0.835368  0.164631  0.750472  1
  In  In20  1  0.164881  0.329762  0.253495  1
  In  In21  1  0.670237  0.835119  0.253494  1
  In  In22  1  0.164881  0.835119  0.253493  1
  Ag  Ag23  1  0.666668  0.333334  0.290043  1
