# generated using pymatgen
data_NaUNiS3
_symmetry_space_group_name_H-M   'P 1'
_cell_length_a   6.72345454
_cell_length_b   6.72345383
_cell_length_c   10.06470200
_cell_angle_alpha   90.00000000
_cell_angle_beta   90.00000000
_cell_angle_gamma   147.20870252
_symmetry_Int_Tables_number   1
_chemical_formula_structural   NaUNiS3
_chemical_formula_sum   'Na2 U2 Ni2 S6'
_cell_volume   246.40463068
_cell_formula_units_Z   2
loop_
 _symmetry_equiv_pos_site_id
 _symmetry_equiv_pos_as_xyz
  1  'x, y, z'
loop_
 _atom_site_type_symbol
 _atom_site_label
 _atom_site_symmetry_multiplicity
 _atom_site_fract_x
 _atom_site_fract_y
 _atom_site_fract_z
 _atom_site_occupancy
  Na  Na0  1  0.248189  0.751811  0.750000  1
  Na  Na1  1  0.751811  0.248189  0.250000  1
  U  U2  1  0.000000  0.000000  0.500000  1
  U  U3  1  0.000000  0.000000  0.000000  1
  Ni  Ni4  1  0.527897  0.472103  0.750000  1
  Ni  Ni5  1  0.472103  0.527897  0.250000  1
  S  S6  1  0.070968  0.929032  0.250000  1
  S  S7  1  0.633440  0.366560  0.927127  1
  S  S8  1  0.929032  0.070968  0.750000  1
  S  S9  1  0.633440  0.366560  0.572873  1
  S  S10  1  0.366560  0.633440  0.072873  1
  S  S11  1  0.366560  0.633440  0.427127  1
