# generated using pymatgen
data_YbY19Cd3Ag3Ru2
_symmetry_space_group_name_H-M   'P 1'
_cell_length_a   9.65993400
_cell_length_b   9.65993329
_cell_length_c   9.71356100
_cell_angle_alpha   90.00000000
_cell_angle_beta   90.00000000
_cell_angle_gamma   119.99999558
_symmetry_Int_Tables_number   1
_chemical_formula_structural   YbY19Cd3Ag3Ru2
_chemical_formula_sum   'Yb1 Y19 Cd3 Ag3 Ru2'
_cell_volume   784.97786265
_cell_formula_units_Z   1
loop_
 _symmetry_equiv_pos_site_id
 _symmetry_equiv_pos_as_xyz
  1  'x, y, z'
loop_
 _atom_site_type_symbol
 _atom_site_label
 _atom_site_symmetry_multiplicity
 _atom_site_fract_x
 _atom_site_fract_y
 _atom_site_fract_z
 _atom_site_occupancy
  Yb  Yb0  1  0.000000  0.000000  0.476761  1
  Y  Y1  1  0.000000  0.000000  0.021497  1
  Y  Y2  1  0.210474  0.789526  0.440631  1
  Y  Y3  1  0.210474  0.420950  0.440631  1
  Y  Y4  1  0.579050  0.789526  0.440631  1
  Y  Y5  1  0.790660  0.209340  0.560265  1
  Y  Y6  1  0.790660  0.581319  0.560265  1
  Y  Y7  1  0.418681  0.209340  0.560265  1
  Y  Y8  1  0.790998  0.209002  0.940465  1
  Y  Y9  1  0.790998  0.581997  0.940465  1
  Y  Y10  1  0.418003  0.209002  0.940465  1
  Y  Y11  1  0.210236  0.789764  0.059136  1
  Y  Y12  1  0.210236  0.420473  0.059136  1
  Y  Y13  1  0.579527  0.789764  0.059136  1
  Y  Y14  1  0.541119  0.458881  0.250290  1
  Y  Y15  1  0.541119  0.082237  0.250290  1
  Y  Y16  1  0.917763  0.458881  0.250290  1
  Y  Y17  1  0.458780  0.541220  0.749411  1
  Y  Y18  1  0.458780  0.917560  0.749411  1
  Y  Y19  1  0.082440  0.541220  0.749411  1
  Cd  Cd20  1  0.111492  0.888508  0.750331  1
  Cd  Cd21  1  0.111492  0.222982  0.750331  1
  Cd  Cd22  1  0.777018  0.888508  0.750331  1
  Ag  Ag23  1  0.876294  0.123706  0.250174  1
  Ag  Ag24  1  0.876294  0.752590  0.250174  1
  Ag  Ag25  1  0.247410  0.123706  0.250174  1
  Ru  Ru26  1  0.333333  0.666667  0.250323  1
  Ru  Ru27  1  0.666667  0.333333  0.749311  1
