# generated using pymatgen
data_Hf2SiIr2Rh3
_symmetry_space_group_name_H-M   'P 1'
_cell_length_a   4.02731500
_cell_length_b   5.57294700
_cell_length_c   10.93085700
_cell_angle_alpha   90.00000000
_cell_angle_beta   90.00000000
_cell_angle_gamma   90.00000000
_symmetry_Int_Tables_number   1
_chemical_formula_structural   Hf2SiIr2Rh3
_chemical_formula_sum   'Hf4 Si2 Ir4 Rh6'
_cell_volume   245.33229713
_cell_formula_units_Z   2
loop_
 _symmetry_equiv_pos_site_id
 _symmetry_equiv_pos_as_xyz
  1  'x, y, z'
loop_
 _atom_site_type_symbol
 _atom_site_label
 _atom_site_symmetry_multiplicity
 _atom_site_fract_x
 _atom_site_fract_y
 _atom_site_fract_z
 _atom_site_occupancy
  Hf  Hf0  1  0.500000  0.175288  0.640725  1
  Hf  Hf1  1  0.500000  0.824712  0.359275  1
  Hf  Hf2  1  0.500000  0.675288  0.859275  1
  Hf  Hf3  1  0.500000  0.324712  0.140725  1
  Si  Si4  1  0.000000  0.500000  0.500000  1
  Si  Si5  1  0.000000  0.000000  0.000000  1
  Ir  Ir6  1  0.500000  0.179869  0.896038  1
  Ir  Ir7  1  0.500000  0.820131  0.103962  1
  Ir  Ir8  1  0.500000  0.679869  0.603962  1
  Ir  Ir9  1  0.500000  0.320131  0.396038  1
  Rh  Rh10  1  0.000000  0.429548  0.743287  1
  Rh  Rh11  1  0.000000  0.570452  0.256713  1
  Rh  Rh12  1  0.000000  0.000000  0.500000  1
  Rh  Rh13  1  0.000000  0.500000  0.000000  1
  Rh  Rh14  1  0.000000  0.070452  0.243287  1
  Rh  Rh15  1  0.000000  0.929548  0.756713  1
