# generated using pymatgen
data_LuZr(SiMo)2
_symmetry_space_group_name_H-M   'P 1'
_cell_length_a   3.57512900
_cell_length_b   7.09737900
_cell_length_c   8.32685300
_cell_angle_alpha   90.00000000
_cell_angle_beta   90.00000000
_cell_angle_gamma   90.00000000
_symmetry_Int_Tables_number   1
_chemical_formula_structural   LuZr(SiMo)2
_chemical_formula_sum   'Lu2 Zr2 Si4 Mo4'
_cell_volume   211.28594678
_cell_formula_units_Z   2
loop_
 _symmetry_equiv_pos_site_id
 _symmetry_equiv_pos_as_xyz
  1  'x, y, z'
loop_
 _atom_site_type_symbol
 _atom_site_label
 _atom_site_symmetry_multiplicity
 _atom_site_fract_x
 _atom_site_fract_y
 _atom_site_fract_z
 _atom_site_occupancy
  Lu  Lu0  1  0.250000  0.042649  0.334870  1
  Lu  Lu1  1  0.250000  0.542649  0.165130  1
  Zr  Zr2  1  0.750000  0.956760  0.669291  1
  Zr  Zr3  1  0.750000  0.456760  0.830709  1
  Si  Si4  1  0.250000  0.258732  0.637052  1
  Si  Si5  1  0.250000  0.758732  0.862948  1
  Si  Si6  1  0.750000  0.738636  0.366308  1
  Si  Si7  1  0.750000  0.238636  0.133692  1
  Mo  Mo8  1  0.250000  0.129585  0.936915  1
  Mo  Mo9  1  0.250000  0.629585  0.563085  1
  Mo  Mo10  1  0.750000  0.873639  0.056312  1
  Mo  Mo11  1  0.750000  0.373639  0.443688  1
