# generated using pymatgen
data_La5Pr6(NdRh2)3
_symmetry_space_group_name_H-M   'P 1'
_cell_length_a   6.46008214
_cell_length_b   10.22797844
_cell_length_c   10.22797907
_cell_angle_alpha   119.70944374
_cell_angle_beta   90.02037934
_cell_angle_gamma   89.97961894
_symmetry_Int_Tables_number   1
_chemical_formula_structural   La5Pr6(NdRh2)3
_chemical_formula_sum   'La5 Pr6 Nd3 Rh6'
_cell_volume   586.96523857
_cell_formula_units_Z   1
loop_
 _symmetry_equiv_pos_site_id
 _symmetry_equiv_pos_as_xyz
  1  'x, y, z'
loop_
 _atom_site_type_symbol
 _atom_site_label
 _atom_site_symmetry_multiplicity
 _atom_site_fract_x
 _atom_site_fract_y
 _atom_site_fract_z
 _atom_site_occupancy
  La  La0  1  0.253292  0.748497  0.873370  1
  La  La1  1  0.253292  0.126630  0.251503  1
  La  La2  1  0.753330  0.873665  0.126335  1
  La  La3  1  0.753935  0.252048  0.125077  1
  La  La4  1  0.753935  0.874923  0.747952  1
  Pr  Pr5  1  0.439836  0.541067  0.458933  1
  Pr  Pr6  1  0.439411  0.918480  0.460225  1
  Pr  Pr7  1  0.439411  0.539775  0.081520  1
  Pr  Pr8  1  0.939590  0.459046  0.540954  1
  Pr  Pr9  1  0.940811  0.082483  0.542011  1
  Pr  Pr10  1  0.940811  0.457989  0.917517  1
  Nd  Nd11  1  0.465691  0.332812  0.667188  1
  Nd  Nd12  1  0.965650  0.666798  0.333202  1
  Nd  Nd13  1  0.253338  0.126449  0.873551  1
  Rh  Rh14  1  0.182290  0.812478  0.187522  1
  Rh  Rh15  1  0.181514  0.376369  0.189576  1
  Rh  Rh16  1  0.181514  0.810424  0.623631  1
  Rh  Rh17  1  0.683786  0.187580  0.812420  1
  Rh  Rh18  1  0.682283  0.625126  0.812639  1
  Rh  Rh19  1  0.682283  0.187361  0.374874  1
