# generated using pymatgen
data_La8TbLuIr6
_symmetry_space_group_name_H-M   'P 1'
_cell_length_a   11.36414500
_cell_length_b   11.36414500
_cell_length_c   6.53992100
_cell_angle_alpha   90.00000000
_cell_angle_beta   90.00000000
_cell_angle_gamma   90.00000000
_symmetry_Int_Tables_number   1
_chemical_formula_structural   La8TbLuIr6
_chemical_formula_sum   'La16 Tb2 Lu2 Ir12'
_cell_volume   844.59019458
_cell_formula_units_Z   2
loop_
 _symmetry_equiv_pos_site_id
 _symmetry_equiv_pos_as_xyz
  1  'x, y, z'
loop_
 _atom_site_type_symbol
 _atom_site_label
 _atom_site_symmetry_multiplicity
 _atom_site_fract_x
 _atom_site_fract_y
 _atom_site_fract_z
 _atom_site_occupancy
  La  La0  1  0.286176  0.087947  0.389417  1
  La  La1  1  0.286176  0.912053  0.889417  1
  La  La2  1  0.713824  0.087947  0.889417  1
  La  La3  1  0.713824  0.912053  0.389417  1
  La  La4  1  0.588343  0.788422  0.888776  1
  La  La5  1  0.588343  0.211578  0.388776  1
  La  La6  1  0.411657  0.788422  0.388776  1
  La  La7  1  0.411657  0.211578  0.888776  1
  La  La8  1  0.211578  0.411657  0.611224  1
  La  La9  1  0.211578  0.588343  0.111224  1
  La  La10  1  0.788422  0.411657  0.111224  1
  La  La11  1  0.788422  0.588343  0.611224  1
  La  La12  1  0.912053  0.713824  0.110583  1
  La  La13  1  0.912053  0.286176  0.610583  1
  La  La14  1  0.087947  0.713824  0.610583  1
  La  La15  1  0.087947  0.286176  0.110583  1
  Tb  Tb16  1  0.500000  0.500000  0.000000  1
  Tb  Tb17  1  0.500000  0.500000  0.500000  1
  Lu  Lu18  1  0.000000  0.000000  0.500000  1
  Lu  Lu19  1  0.000000  0.000000  0.000000  1
  Ir  Ir20  1  0.854318  0.145682  0.250000  1
  Ir  Ir21  1  0.854318  0.854318  0.750000  1
  Ir  Ir22  1  0.145682  0.145682  0.750000  1
  Ir  Ir23  1  0.145682  0.854318  0.250000  1
  Ir  Ir24  1  0.649782  0.350218  0.750000  1
  Ir  Ir25  1  0.649782  0.649782  0.250000  1
  Ir  Ir26  1  0.350218  0.350218  0.250000  1
  Ir  Ir27  1  0.350218  0.649782  0.750000  1
  Ir  Ir28  1  0.500000  0.000000  0.121788  1
  Ir  Ir29  1  0.500000  0.000000  0.621788  1
  Ir  Ir30  1  0.000000  0.500000  0.878212  1
  Ir  Ir31  1  0.000000  0.500000  0.378212  1
