# generated using pymatgen
data_Rb2TiZn3Sb4
_symmetry_space_group_name_H-M   'P 1'
_cell_length_a   8.46166966
_cell_length_b   8.46166898
_cell_length_c   6.19927200
_cell_angle_alpha   90.00000000
_cell_angle_beta   90.00000000
_cell_angle_gamma   136.80540778
_symmetry_Int_Tables_number   1
_chemical_formula_structural   Rb2TiZn3Sb4
_chemical_formula_sum   'Rb2 Ti1 Zn3 Sb4'
_cell_volume   303.81728237
_cell_formula_units_Z   1
loop_
 _symmetry_equiv_pos_site_id
 _symmetry_equiv_pos_as_xyz
  1  'x, y, z'
loop_
 _atom_site_type_symbol
 _atom_site_label
 _atom_site_symmetry_multiplicity
 _atom_site_fract_x
 _atom_site_fract_y
 _atom_site_fract_z
 _atom_site_occupancy
  Rb  Rb0  1  0.500000  0.000000  0.254073  1
  Rb  Rb1  1  0.000000  0.500000  0.745927  1
  Ti  Ti2  1  0.000000  0.000000  0.000000  1
  Zn  Zn3  1  0.500000  0.500000  0.500000  1
  Zn  Zn4  1  0.500000  0.500000  0.000000  1
  Zn  Zn5  1  0.000000  0.000000  0.500000  1
  Sb  Sb6  1  0.649959  0.860233  0.755616  1
  Sb  Sb7  1  0.139767  0.350041  0.244384  1
  Sb  Sb8  1  0.860233  0.649959  0.244384  1
  Sb  Sb9  1  0.350041  0.139767  0.755616  1
