# generated using pymatgen
data_TbCe2(AlCo)3
_symmetry_space_group_name_H-M   'P 1'
_cell_length_a   6.85666300
_cell_length_b   7.03304089
_cell_length_c   3.84128400
_cell_angle_alpha   90.00000000
_cell_angle_beta   90.00000000
_cell_angle_gamma   119.17381664
_symmetry_Int_Tables_number   1
_chemical_formula_structural   TbCe2(AlCo)3
_chemical_formula_sum   'Tb1 Ce2 Al3 Co3'
_cell_volume   161.74047020
_cell_formula_units_Z   1
loop_
 _symmetry_equiv_pos_site_id
 _symmetry_equiv_pos_as_xyz
  1  'x, y, z'
loop_
 _atom_site_type_symbol
 _atom_site_label
 _atom_site_symmetry_multiplicity
 _atom_site_fract_x
 _atom_site_fract_y
 _atom_site_fract_z
 _atom_site_occupancy
  Tb  Tb0  1  0.582433  0.000000  0.000000  1
  Ce  Ce1  1  0.000057  0.576094  0.000000  1
  Ce  Ce2  1  0.423963  0.423906  0.000000  1
  Al  Al3  1  0.238448  0.000000  0.500000  1
  Al  Al4  1  0.996916  0.226152  0.500000  1
  Al  Al5  1  0.770764  0.773848  0.500000  1
  Co  Co6  1  0.307881  0.636984  0.500000  1
  Co  Co7  1  0.670897  0.363016  0.500000  1
  Co  Co8  1  0.008643  0.000000  0.000000  1
