# generated using pymatgen
data_Ta4Be3Nb2As
_symmetry_space_group_name_H-M   'P 1'
_cell_length_a   6.60362258
_cell_length_b   6.60362235
_cell_length_c   3.40507700
_cell_angle_alpha   90.00000000
_cell_angle_beta   90.00000000
_cell_angle_gamma   90.14387240
_symmetry_Int_Tables_number   1
_chemical_formula_structural   Ta4Be3Nb2As
_chemical_formula_sum   'Ta4 Be3 Nb2 As1'
_cell_volume   148.48754953
_cell_formula_units_Z   1
loop_
 _symmetry_equiv_pos_site_id
 _symmetry_equiv_pos_as_xyz
  1  'x, y, z'
loop_
 _atom_site_type_symbol
 _atom_site_label
 _atom_site_symmetry_multiplicity
 _atom_site_fract_x
 _atom_site_fract_y
 _atom_site_fract_z
 _atom_site_occupancy
  Ta  Ta0  1  0.506494  0.497752  0.000000  1
  Ta  Ta1  1  0.997752  0.006494  0.000000  1
  Ta  Ta2  1  0.677364  0.177364  0.500000  1
  Ta  Ta3  1  0.333057  0.833057  0.500000  1
  Be  Be4  1  0.875892  0.375892  0.000000  1
  Be  Be5  1  0.615435  0.886853  0.000000  1
  Be  Be6  1  0.386853  0.115435  0.000000  1
  Nb  Nb7  1  0.180565  0.309858  0.500000  1
  Nb  Nb8  1  0.809858  0.680565  0.500000  1
  As  As9  1  0.116730  0.616730  0.000000  1
