# generated using pymatgen
data_DyYEr6(B6Rh)4
_symmetry_space_group_name_H-M   'P 1'
_cell_length_a   3.64493400
_cell_length_b   9.15361400
_cell_length_c   11.48816001
_cell_angle_alpha   90.00280566
_cell_angle_beta   90.00000000
_cell_angle_gamma   90.00000000
_symmetry_Int_Tables_number   1
_chemical_formula_structural   DyYEr6(B6Rh)4
_chemical_formula_sum   'Dy1 Y1 Er6 B24 Rh4'
_cell_volume   383.29463351
_cell_formula_units_Z   1
loop_
 _symmetry_equiv_pos_site_id
 _symmetry_equiv_pos_as_xyz
  1  'x, y, z'
loop_
 _atom_site_type_symbol
 _atom_site_label
 _atom_site_symmetry_multiplicity
 _atom_site_fract_x
 _atom_site_fract_y
 _atom_site_fract_z
 _atom_site_occupancy
  Dy  Dy0  1  0.500000  0.677573  0.586562  1
  Y  Y1  1  0.500000  0.322338  0.413480  1
  Er  Er2  1  0.500000  0.177721  0.913606  1
  Er  Er3  1  0.500000  0.822285  0.086307  1
  Er  Er4  1  0.500000  0.444408  0.126473  1
  Er  Er5  1  0.500000  0.555635  0.873519  1
  Er  Er6  1  0.500000  0.055566  0.627054  1
  Er  Er7  1  0.500000  0.944383  0.373032  1
  B  B8  1  0.000000  0.109104  0.470422  1
  B  B9  1  0.000000  0.890777  0.529693  1
  B  B10  1  0.000000  0.389394  0.969972  1
  B  B11  1  0.000000  0.610693  0.029975  1
  B  B12  1  0.000000  0.132826  0.315722  1
  B  B13  1  0.000000  0.866991  0.684153  1
  B  B14  1  0.000000  0.366622  0.816377  1
  B  B15  1  0.000000  0.633470  0.183593  1
  B  B16  1  0.000000  0.053524  0.065224  1
  B  B17  1  0.000000  0.946351  0.934631  1
  B  B18  1  0.000000  0.446294  0.566111  1
  B  B19  1  0.000000  0.554100  0.434180  1
  B  B20  1  0.000000  0.483193  0.286290  1
  B  B21  1  0.000000  0.517078  0.713638  1
  B  B22  1  0.000000  0.017403  0.787070  1
  B  B23  1  0.000000  0.982445  0.212888  1
  B  B24  1  0.000000  0.249373  0.079076  1
  B  B25  1  0.000000  0.750615  0.920780  1
  B  B26  1  0.000000  0.250199  0.580099  1
  B  B27  1  0.000000  0.749799  0.420244  1
  B  B28  1  0.000000  0.294148  0.235051  1
  B  B29  1  0.000000  0.705758  0.764769  1
  B  B30  1  0.000000  0.205358  0.736173  1
  B  B31  1  0.000000  0.794588  0.263936  1
  Rh  Rh32  1  0.500000  0.139049  0.178252  1
  Rh  Rh33  1  0.500000  0.860721  0.821498  1
  Rh  Rh34  1  0.500000  0.359810  0.679866  1
  Rh  Rh35  1  0.500000  0.640406  0.320282  1
