# generated using pymatgen
data_PrSc5Pa2(ReB6)4
_symmetry_space_group_name_H-M   'P 1'
_cell_length_a   3.62122500
_cell_length_b   9.00318117
_cell_length_c   11.38304318
_cell_angle_alpha   90.18298769
_cell_angle_beta   90.00000000
_cell_angle_gamma   90.00000000
_symmetry_Int_Tables_number   1
_chemical_formula_structural   PrSc5Pa2(ReB6)4
_chemical_formula_sum   'Pr1 Sc5 Pa2 Re4 B24'
_cell_volume   371.11428159
_cell_formula_units_Z   1
loop_
 _symmetry_equiv_pos_site_id
 _symmetry_equiv_pos_as_xyz
  1  'x, y, z'
loop_
 _atom_site_type_symbol
 _atom_site_label
 _atom_site_symmetry_multiplicity
 _atom_site_fract_x
 _atom_site_fract_y
 _atom_site_fract_z
 _atom_site_occupancy
  Pr  Pr0  1  0.000000  0.821678  0.085178  1
  Sc  Sc1  1  0.000000  0.178537  0.914311  1
  Sc  Sc2  1  0.000000  0.946551  0.373087  1
  Sc  Sc3  1  0.000000  0.054851  0.627766  1
  Sc  Sc4  1  0.000000  0.443070  0.125007  1
  Sc  Sc5  1  0.000000  0.553973  0.873424  1
  Pa  Pa6  1  0.000000  0.319742  0.414287  1
  Pa  Pa7  1  0.000000  0.680108  0.586687  1
  Re  Re8  1  0.000000  0.636396  0.322895  1
  Re  Re9  1  0.000000  0.361339  0.680049  1
  Re  Re10  1  0.000000  0.144592  0.182192  1
  Re  Re11  1  0.000000  0.859489  0.815546  1
  B  B12  1  0.500000  0.554263  0.433225  1
  B  B13  1  0.500000  0.444659  0.568309  1
  B  B14  1  0.500000  0.057770  0.065266  1
  B  B15  1  0.500000  0.948827  0.930579  1
  B  B16  1  0.500000  0.753397  0.419362  1
  B  B17  1  0.500000  0.246347  0.582518  1
  B  B18  1  0.500000  0.253061  0.077864  1
  B  B19  1  0.500000  0.747044  0.916389  1
  B  B20  1  0.500000  0.793320  0.266483  1
  B  B21  1  0.500000  0.205433  0.737463  1
  B  B22  1  0.500000  0.294435  0.233431  1
  B  B23  1  0.500000  0.705955  0.764754  1
  B  B24  1  0.500000  0.626902  0.184285  1
  B  B25  1  0.500000  0.368590  0.818598  1
  B  B26  1  0.500000  0.130427  0.316389  1
  B  B27  1  0.500000  0.871663  0.683543  1
  B  B28  1  0.500000  0.983853  0.214253  1
  B  B29  1  0.500000  0.021194  0.787092  1
  B  B30  1  0.500000  0.480811  0.285513  1
  B  B31  1  0.500000  0.517187  0.715741  1
  B  B32  1  0.500000  0.594209  0.025642  1
  B  B33  1  0.500000  0.399683  0.972288  1
  B  B34  1  0.500000  0.100599  0.472965  1
  B  B35  1  0.500000  0.900044  0.527620  1
