# generated using pymatgen
data_Dy10Zn3Bi2Au
_symmetry_space_group_name_H-M   'P 1'
_cell_length_a   8.67590433
_cell_length_b   8.67590470
_cell_length_c   8.67900389
_cell_angle_alpha   123.85160307
_cell_angle_beta   123.85160442
_cell_angle_gamma   83.42604566
_symmetry_Int_Tables_number   1
_chemical_formula_structural   Dy10Zn3Bi2Au
_chemical_formula_sum   'Dy10 Zn3 Bi2 Au1'
_cell_volume   432.02842215
_cell_formula_units_Z   1
loop_
 _symmetry_equiv_pos_site_id
 _symmetry_equiv_pos_as_xyz
  1  'x, y, z'
loop_
 _atom_site_type_symbol
 _atom_site_label
 _atom_site_symmetry_multiplicity
 _atom_site_fract_x
 _atom_site_fract_y
 _atom_site_fract_z
 _atom_site_occupancy
  Dy  Dy0  1  0.499538  0.499826  0.999364  1
  Dy  Dy1  1  0.000174  0.000462  0.000636  1
  Dy  Dy2  1  0.509931  0.011374  0.806062  1
  Dy  Dy3  1  0.203869  0.705312  0.193938  1
  Dy  Dy4  1  0.011830  0.204560  0.500000  1
  Dy  Dy5  1  0.704799  0.511284  0.500000  1
  Dy  Dy6  1  0.488626  0.990069  0.193938  1
  Dy  Dy7  1  0.794688  0.296131  0.806062  1
  Dy  Dy8  1  0.988716  0.795201  0.500000  1
  Dy  Dy9  1  0.295440  0.488170  0.500000  1
  Zn  Zn10  1  0.137293  0.639005  0.776299  1
  Zn  Zn11  1  0.860995  0.362707  0.223701  1
  Zn  Zn12  1  0.639343  0.860657  0.500000  1
  Bi  Bi13  1  0.249232  0.250768  0.000000  1
  Bi  Bi14  1  0.749232  0.750768  0.000000  1
  Au  Au15  1  0.366294  0.133706  0.500000  1
