# generated using pymatgen
data_YbUTeO2
_symmetry_space_group_name_H-M   'P 1'
_cell_length_a   6.87359461
_cell_length_b   6.87359469
_cell_length_c   6.87359439
_cell_angle_alpha   147.03193400
_cell_angle_beta   147.03193067
_cell_angle_gamma   47.31650304
_symmetry_Int_Tables_number   1
_chemical_formula_structural   YbUTeO2
_chemical_formula_sum   'Yb1 U1 Te1 O2'
_cell_volume   95.79702913
_cell_formula_units_Z   1
loop_
 _symmetry_equiv_pos_site_id
 _symmetry_equiv_pos_as_xyz
  1  'x, y, z'
loop_
 _atom_site_type_symbol
 _atom_site_label
 _atom_site_symmetry_multiplicity
 _atom_site_fract_x
 _atom_site_fract_y
 _atom_site_fract_z
 _atom_site_occupancy
  Yb  Yb0  1  0.657097  0.657097  0.000000  1
  U  U1  1  0.337968  0.337968  0.000000  1
  Te  Te2  1  0.995790  0.995790  0.000000  1
  O  O3  1  0.254573  0.754573  0.500000  1
  O  O4  1  0.754573  0.254573  0.500000  1
