# generated using pymatgen
data_Tb3Y2(MnB3)2
_symmetry_space_group_name_H-M   'P 1'
_cell_length_a   5.44146695
_cell_length_b   5.44146728
_cell_length_c   8.27655236
_cell_angle_alpha   70.80842190
_cell_angle_beta   70.80842432
_cell_angle_gamma   59.99999349
_symmetry_Int_Tables_number   1
_chemical_formula_structural   Tb3Y2(MnB3)2
_chemical_formula_sum   'Tb3 Y2 Mn2 B6'
_cell_volume   196.34869092
_cell_formula_units_Z   1
loop_
 _symmetry_equiv_pos_site_id
 _symmetry_equiv_pos_as_xyz
  1  'x, y, z'
loop_
 _atom_site_type_symbol
 _atom_site_label
 _atom_site_symmetry_multiplicity
 _atom_site_fract_x
 _atom_site_fract_y
 _atom_site_fract_z
 _atom_site_occupancy
  Tb  Tb0  1  0.000000  0.000000  0.000000  1
  Tb  Tb1  1  0.251493  0.251493  0.245521  1
  Tb  Tb2  1  0.748507  0.748507  0.754479  1
  Y  Y3  1  0.416672  0.416672  0.749983  1
  Y  Y4  1  0.583328  0.583328  0.250017  1
  Mn  Mn5  1  0.115144  0.115144  0.654568  1
  Mn  Mn6  1  0.884856  0.884856  0.345432  1
  B  B7  1  0.165755  0.834245  0.500000  1
  B  B8  1  0.834245  0.500000  0.500000  1
  B  B9  1  0.500000  0.165755  0.500000  1
  B  B10  1  0.165755  0.500000  0.500000  1
  B  B11  1  0.500000  0.834245  0.500000  1
  B  B12  1  0.834245  0.165755  0.500000  1
