# generated using pymatgen
data_Th8Ta9Ti3Si16
_symmetry_space_group_name_H-M   'P 1'
_cell_length_a   7.17026315
_cell_length_b   7.16869638
_cell_length_c   13.37422908
_cell_angle_alpha   89.97428963
_cell_angle_beta   90.05878657
_cell_angle_gamma   89.97339455
_symmetry_Int_Tables_number   1
_chemical_formula_structural   Th8Ta9Ti3Si16
_chemical_formula_sum   'Th8 Ta9 Ti3 Si16'
_cell_volume   687.45412045
_cell_formula_units_Z   1
loop_
 _symmetry_equiv_pos_site_id
 _symmetry_equiv_pos_as_xyz
  1  'x, y, z'
loop_
 _atom_site_type_symbol
 _atom_site_label
 _atom_site_symmetry_multiplicity
 _atom_site_fract_x
 _atom_site_fract_y
 _atom_site_fract_z
 _atom_site_occupancy
  Th  Th0  1  0.337160  0.001740  0.468249  1
  Th  Th1  1  0.499154  0.837901  0.718075  1
  Th  Th2  1  0.501075  0.162036  0.218461  1
  Th  Th3  1  0.838185  0.499193  0.282056  1
  Th  Th4  1  0.162096  0.501382  0.781958  1
  Th  Th5  1  0.662526  0.998767  0.968319  1
  Th  Th6  1  0.001591  0.337021  0.531581  1
  Th  Th7  1  0.998099  0.663065  0.031900  1
  Ta  Ta8  1  0.331838  0.331152  0.999375  1
  Ta  Ta9  1  0.171048  0.828836  0.250093  1
  Ta  Ta10  1  0.830165  0.170713  0.750480  1
  Ta  Ta11  1  0.668165  0.667741  0.499650  1
  Ta  Ta12  1  0.159401  0.006340  0.876346  1
  Ta  Ta13  1  0.493943  0.659227  0.126292  1
  Ta  Ta14  1  0.504916  0.340561  0.626234  1
  Ta  Ta15  1  0.658547  0.494318  0.873717  1
  Ta  Ta16  1  0.341171  0.505294  0.374039  1
  Ti  Ti17  1  0.840181  0.993089  0.376471  1
  Ti  Ti18  1  0.006785  0.159206  0.123172  1
  Ti  Ti19  1  0.993770  0.840250  0.623833  1
  Si  Si20  1  0.199626  0.122952  0.685302  1
  Si  Si21  1  0.374870  0.701681  0.935775  1
  Si  Si22  1  0.625864  0.298987  0.435775  1
  Si  Si23  1  0.700208  0.374251  0.064297  1
  Si  Si24  1  0.299723  0.625988  0.564079  1
  Si  Si25  1  0.801462  0.877637  0.186544  1
  Si  Si26  1  0.122416  0.198626  0.313564  1
  Si  Si27  1  0.875791  0.800344  0.813564  1
  Si  Si28  1  0.287173  0.960775  0.064910  1
  Si  Si29  1  0.540974  0.789562  0.314607  1
  Si  Si30  1  0.459749  0.210763  0.814018  1
  Si  Si31  1  0.789621  0.540836  0.684967  1
  Si  Si32  1  0.209855  0.458569  0.185445  1
  Si  Si33  1  0.713900  0.038856  0.563952  1
  Si  Si34  1  0.959737  0.288898  0.936739  1
  Si  Si35  1  0.039216  0.713446  0.436158  1
