# generated using pymatgen
data_Ta12Mn3Ga8CoC4
_symmetry_space_group_name_H-M   'P 1'
_cell_length_a   8.19968213
_cell_length_b   8.19995829
_cell_length_c   8.20003407
_cell_angle_alpha   60.05183295
_cell_angle_beta   60.04504098
_cell_angle_gamma   60.04641989
_symmetry_Int_Tables_number   1
_chemical_formula_structural   Ta12Mn3Ga8CoC4
_chemical_formula_sum   'Ta12 Mn3 Ga8 Co1 C4'
_cell_volume   390.28264117
_cell_formula_units_Z   1
loop_
 _symmetry_equiv_pos_site_id
 _symmetry_equiv_pos_as_xyz
  1  'x, y, z'
loop_
 _atom_site_type_symbol
 _atom_site_label
 _atom_site_symmetry_multiplicity
 _atom_site_fract_x
 _atom_site_fract_y
 _atom_site_fract_z
 _atom_site_occupancy
  Ta  Ta0  1  0.552149  0.947595  0.552149  1
  Ta  Ta1  1  0.302409  0.697804  0.697864  1
  Ta  Ta2  1  0.691060  0.305394  0.305426  1
  Ta  Ta3  1  0.305453  0.690989  0.305418  1
  Ta  Ta4  1  0.697839  0.697834  0.302380  1
  Ta  Ta5  1  0.305421  0.305399  0.691050  1
  Ta  Ta6  1  0.552133  0.552205  0.947639  1
  Ta  Ta7  1  0.947613  0.552186  0.552130  1
  Ta  Ta8  1  0.558950  0.944626  0.944574  1
  Ta  Ta9  1  0.944528  0.944633  0.558987  1
  Ta  Ta10  1  0.697874  0.302384  0.697772  1
  Ta  Ta11  1  0.944585  0.558988  0.944566  1
  Mn  Mn12  1  0.625019  0.124979  0.125020  1
  Mn  Mn13  1  0.125058  0.624976  0.124990  1
  Mn  Mn14  1  0.124993  0.124993  0.624996  1
  Ga  Ga15  1  0.916743  0.916744  0.916775  1
  Ga  Ga16  1  0.996687  0.333051  0.333007  1
  Ga  Ga17  1  0.333054  0.996679  0.333007  1
  Ga  Ga18  1  0.333032  0.333029  0.996701  1
  Ga  Ga19  1  0.916939  0.253315  0.916984  1
  Ga  Ga20  1  0.916953  0.916962  0.253331  1
  Ga  Ga21  1  0.253304  0.916958  0.916977  1
  Ga  Ga22  1  0.333272  0.333254  0.333221  1
  Co  Co23  1  0.125002  0.124998  0.124998  1
  C  C24  1  0.624976  0.624983  0.625023  1
  C  C25  1  0.124974  0.624990  0.625020  1
  C  C26  1  0.624996  0.125047  0.624982  1
  C  C27  1  0.624983  0.625007  0.125009  1
