# generated using pymatgen
data_Tb4Sn6IrRh6
_symmetry_space_group_name_H-M   'P 1'
_cell_length_a   7.63003217
_cell_length_b   7.63003210
_cell_length_c   7.63003233
_cell_angle_alpha   109.60660737
_cell_angle_beta   109.40355892
_cell_angle_gamma   109.40356811
_symmetry_Int_Tables_number   1
_chemical_formula_structural   Tb4Sn6IrRh6
_chemical_formula_sum   'Tb4 Sn6 Ir1 Rh6'
_cell_volume   341.94437852
_cell_formula_units_Z   1
loop_
 _symmetry_equiv_pos_site_id
 _symmetry_equiv_pos_as_xyz
  1  'x, y, z'
loop_
 _atom_site_type_symbol
 _atom_site_label
 _atom_site_symmetry_multiplicity
 _atom_site_fract_x
 _atom_site_fract_y
 _atom_site_fract_z
 _atom_site_occupancy
  Tb  Tb0  1  0.998775  0.999388  0.499388  1
  Tb  Tb1  1  0.001225  0.500612  0.000612  1
  Tb  Tb2  1  0.500000  0.999388  0.000612  1
  Tb  Tb3  1  0.500000  0.500612  0.499388  1
  Sn  Sn4  1  0.684066  0.683762  0.999696  1
  Sn  Sn5  1  0.315934  0.000304  0.316238  1
  Sn  Sn6  1  0.000000  0.317145  0.317145  1
  Sn  Sn7  1  0.315934  0.315630  0.999696  1
  Sn  Sn8  1  0.684066  0.000304  0.684370  1
  Sn  Sn9  1  0.000000  0.682855  0.682855  1
  Ir  Ir10  1  0.500000  0.750000  0.250000  1
  Rh  Rh11  1  0.749790  0.249703  0.499914  1
  Rh  Rh12  1  0.749790  0.500086  0.249876  1
  Rh  Rh13  1  0.500000  0.250000  0.750000  1
  Rh  Rh14  1  0.250210  0.500086  0.750297  1
  Rh  Rh15  1  0.250210  0.750124  0.499914  1
  Rh  Rh16  1  0.000000  0.000000  0.000000  1
