# generated using pymatgen
data_Ac2Sn4Pd3Au
_symmetry_space_group_name_H-M   'P 1'
_cell_length_a   4.62649300
_cell_length_b   4.62649300
_cell_length_c   11.01653200
_cell_angle_alpha   90.00000000
_cell_angle_beta   90.00000000
_cell_angle_gamma   90.00000000
_symmetry_Int_Tables_number   1
_chemical_formula_structural   Ac2Sn4Pd3Au
_chemical_formula_sum   'Ac2 Sn4 Pd3 Au1'
_cell_volume   235.80267043
_cell_formula_units_Z   1
loop_
 _symmetry_equiv_pos_site_id
 _symmetry_equiv_pos_as_xyz
  1  'x, y, z'
loop_
 _atom_site_type_symbol
 _atom_site_label
 _atom_site_symmetry_multiplicity
 _atom_site_fract_x
 _atom_site_fract_y
 _atom_site_fract_z
 _atom_site_occupancy
  Ac  Ac0  1  0.000000  0.500000  0.243286  1
  Ac  Ac1  1  0.500000  0.000000  0.756714  1
  Sn  Sn2  1  0.000000  0.000000  0.500000  1
  Sn  Sn3  1  0.500000  0.500000  0.500000  1
  Sn  Sn4  1  0.000000  0.500000  0.866369  1
  Sn  Sn5  1  0.500000  0.000000  0.133631  1
  Pd  Pd6  1  0.000000  0.500000  0.627316  1
  Pd  Pd7  1  0.500000  0.000000  0.372684  1
  Pd  Pd8  1  0.500000  0.500000  0.000000  1
  Au  Au9  1  0.000000  0.000000  0.000000  1
