# generated using pymatgen
data_Hf5ZrAl16Ni6Ir
_symmetry_space_group_name_H-M   'P 1'
_cell_length_a   8.56803118
_cell_length_b   8.55491209
_cell_length_c   8.55491207
_cell_angle_alpha   60.10149433
_cell_angle_beta   59.94926413
_cell_angle_gamma   59.94926361
_symmetry_Int_Tables_number   1
_chemical_formula_structural   Hf5ZrAl16Ni6Ir
_chemical_formula_sum   'Hf5 Zr1 Al16 Ni6 Ir1'
_cell_volume   443.39946837
_cell_formula_units_Z   1
loop_
 _symmetry_equiv_pos_site_id
 _symmetry_equiv_pos_as_xyz
  1  'x, y, z'
loop_
 _atom_site_type_symbol
 _atom_site_label
 _atom_site_symmetry_multiplicity
 _atom_site_fract_x
 _atom_site_fract_y
 _atom_site_fract_z
 _atom_site_occupancy
  Hf  Hf0  1  0.689327  0.688554  0.310673  1
  Hf  Hf1  1  0.311446  0.688554  0.310673  1
  Hf  Hf2  1  0.685912  0.314088  0.314088  1
  Hf  Hf3  1  0.311446  0.310673  0.688554  1
  Hf  Hf4  1  0.689327  0.310673  0.688554  1
  Zr  Zr5  1  0.310788  0.689212  0.689212  1
  Al  Al6  1  0.879323  0.879627  0.361728  1
  Al  Al7  1  0.879323  0.361728  0.879627  1
  Al  Al8  1  0.362575  0.879445  0.879445  1
  Al  Al9  1  0.878538  0.879445  0.879445  1
  Al  Al10  1  0.120555  0.121462  0.637425  1
  Al  Al11  1  0.120555  0.637425  0.121462  1
  Al  Al12  1  0.638272  0.120677  0.120677  1
  Al  Al13  1  0.120373  0.120677  0.120677  1
  Al  Al14  1  0.665406  0.665477  0.003711  1
  Al  Al15  1  0.665406  0.003711  0.665477  1
  Al  Al16  1  0.003027  0.665353  0.665353  1
  Al  Al17  1  0.666267  0.665353  0.665353  1
  Al  Al18  1  0.334647  0.333733  0.996973  1
  Al  Al19  1  0.334647  0.996973  0.333733  1
  Al  Al20  1  0.996289  0.334594  0.334594  1
  Al  Al21  1  0.334523  0.334594  0.334594  1
  Ni  Ni22  1  0.999476  0.000524  0.499059  1
  Ni  Ni23  1  0.500941  0.000524  0.499059  1
  Ni  Ni24  1  0.000265  0.499735  0.499735  1
  Ni  Ni25  1  0.500941  0.499059  0.000524  1
  Ni  Ni26  1  0.999476  0.499059  0.000524  1
  Ni  Ni27  1  0.500265  0.999735  0.999735  1
  Ir  Ir28  1  0.000665  0.999335  0.999335  1
