# generated using pymatgen
data_Tb10InBi5Br2
_symmetry_space_group_name_H-M   'P 1'
_cell_length_a   9.37729300
_cell_length_b   9.30830453
_cell_length_c   6.65084300
_cell_angle_alpha   90.00000000
_cell_angle_beta   90.00000000
_cell_angle_gamma   120.24547824
_symmetry_Int_Tables_number   1
_chemical_formula_structural   Tb10InBi5Br2
_chemical_formula_sum   'Tb10 In1 Bi5 Br2'
_cell_volume   501.50561763
_cell_formula_units_Z   1
loop_
 _symmetry_equiv_pos_site_id
 _symmetry_equiv_pos_as_xyz
  1  'x, y, z'
loop_
 _atom_site_type_symbol
 _atom_site_label
 _atom_site_symmetry_multiplicity
 _atom_site_fract_x
 _atom_site_fract_y
 _atom_site_fract_z
 _atom_site_occupancy
  Tb  Tb0  1  0.275383  0.000000  0.750000  1
  Tb  Tb1  1  0.726660  0.000000  0.250000  1
  Tb  Tb2  1  0.994792  0.269194  0.750000  1
  Tb  Tb3  1  0.000180  0.728524  0.250000  1
  Tb  Tb4  1  0.725597  0.730806  0.750000  1
  Tb  Tb5  1  0.271658  0.271476  0.250000  1
  Tb  Tb6  1  0.336159  0.670157  0.500637  1
  Tb  Tb7  1  0.666003  0.329843  0.500637  1
  Tb  Tb8  1  0.666003  0.329843  0.999363  1
  Tb  Tb9  1  0.336159  0.670157  0.999363  1
  In  In10  1  0.612233  0.000000  0.750000  1
  Bi  Bi11  1  0.387737  0.000000  0.250000  1
  Bi  Bi12  1  0.998718  0.614096  0.750000  1
  Bi  Bi13  1  0.000560  0.386668  0.250000  1
  Bi  Bi14  1  0.384621  0.385904  0.750000  1
  Bi  Bi15  1  0.613892  0.613332  0.250000  1
  Br  Br16  1  0.001822  0.000000  0.499710  1
  Br  Br17  1  0.001822  0.000000  0.000290  1
