# generated using pymatgen
data_NaCu(S2O7)2
_symmetry_space_group_name_H-M   'P 1'
_cell_length_a   5.70425129
_cell_length_b   6.96588110
_cell_length_c   8.79066290
_cell_angle_alpha   106.70736891
_cell_angle_beta   94.41185385
_cell_angle_gamma   101.91921221
_symmetry_Int_Tables_number   1
_chemical_formula_structural   NaCu(S2O7)2
_chemical_formula_sum   'Na1 Cu1 S4 O14'
_cell_volume   323.85898869
_cell_formula_units_Z   1
loop_
 _symmetry_equiv_pos_site_id
 _symmetry_equiv_pos_as_xyz
  1  'x, y, z'
loop_
 _atom_site_type_symbol
 _atom_site_label
 _atom_site_symmetry_multiplicity
 _atom_site_fract_x
 _atom_site_fract_y
 _atom_site_fract_z
 _atom_site_occupancy
  Na  Na0  1  0.500000  0.000000  0.000000  1
  Cu  Cu1  1  0.500000  0.500000  0.500000  1
  S  S2  1  0.924259  0.725638  0.756238  1
  S  S3  1  0.075741  0.274362  0.243762  1
  S  S4  1  0.663984  0.318939  0.746114  1
  S  S5  1  0.336016  0.681061  0.253886  1
  O  O6  1  0.823544  0.643026  0.577749  1
  O  O7  1  0.176456  0.356974  0.422251  1
  O  O8  1  0.472818  0.411937  0.681685  1
  O  O9  1  0.527182  0.588063  0.318315  1
  O  O10  1  0.180506  0.809720  0.771425  1
  O  O11  1  0.819494  0.190280  0.228575  1
  O  O12  1  0.781380  0.847378  0.850806  1
  O  O13  1  0.218620  0.152622  0.149194  1
  O  O14  1  0.593541  0.280251  0.890209  1
  O  O15  1  0.406459  0.719749  0.109791  1
  O  O16  1  0.907843  0.518067  0.811523  1
  O  O17  1  0.092157  0.481933  0.188477  1
  O  O18  1  0.736333  0.164295  0.626232  1
  O  O19  1  0.263667  0.835705  0.373768  1
