# generated using pymatgen
data_Nb8AlVSe16
_symmetry_space_group_name_H-M   'P 1'
_cell_length_a   6.99997100
_cell_length_b   6.99997287
_cell_length_c   12.88049700
_cell_angle_alpha   90.00000000
_cell_angle_beta   90.00000000
_cell_angle_gamma   120.00000536
_symmetry_Int_Tables_number   1
_chemical_formula_structural   Nb8AlVSe16
_chemical_formula_sum   'Nb8 Al1 V1 Se16'
_cell_volume   546.58263045
_cell_formula_units_Z   1
loop_
 _symmetry_equiv_pos_site_id
 _symmetry_equiv_pos_as_xyz
  1  'x, y, z'
loop_
 _atom_site_type_symbol
 _atom_site_label
 _atom_site_symmetry_multiplicity
 _atom_site_fract_x
 _atom_site_fract_y
 _atom_site_fract_z
 _atom_site_occupancy
  Nb  Nb0  1  0.000000  0.000000  0.251595  1
  Nb  Nb1  1  0.000000  0.000000  0.748405  1
  Nb  Nb2  1  0.506708  0.013417  0.250254  1
  Nb  Nb3  1  0.493292  0.986583  0.749746  1
  Nb  Nb4  1  0.986583  0.493292  0.250254  1
  Nb  Nb5  1  0.013417  0.506708  0.749746  1
  Nb  Nb6  1  0.506708  0.493292  0.250254  1
  Nb  Nb7  1  0.493292  0.506708  0.749746  1
  Al  Al8  1  0.000000  0.000000  0.000000  1
  V  V9  1  0.000000  0.000000  0.500000  1
  Se  Se10  1  0.333333  0.666667  0.616612  1
  Se  Se11  1  0.666667  0.333333  0.383388  1
  Se  Se12  1  0.666667  0.333333  0.117409  1
  Se  Se13  1  0.333333  0.666667  0.882591  1
  Se  Se14  1  0.168284  0.336569  0.120223  1
  Se  Se15  1  0.831716  0.663431  0.879777  1
  Se  Se16  1  0.663431  0.831716  0.120223  1
  Se  Se17  1  0.832509  0.665018  0.620612  1
  Se  Se18  1  0.336569  0.168284  0.879777  1
  Se  Se19  1  0.167491  0.334982  0.379388  1
  Se  Se20  1  0.168284  0.831716  0.120223  1
  Se  Se21  1  0.334982  0.167491  0.620612  1
  Se  Se22  1  0.831716  0.168284  0.879777  1
  Se  Se23  1  0.665018  0.832509  0.379388  1
  Se  Se24  1  0.832509  0.167491  0.620612  1
  Se  Se25  1  0.167491  0.832509  0.379388  1
