# generated using pymatgen
data_ErPaPd2Pb
_symmetry_space_group_name_H-M   'P 1'
_cell_length_a   7.89973100
_cell_length_b   7.87808300
_cell_length_c   3.63067600
_cell_angle_alpha   90.00000000
_cell_angle_beta   90.00000000
_cell_angle_gamma   90.00000000
_symmetry_Int_Tables_number   1
_chemical_formula_structural   ErPaPd2Pb
_chemical_formula_sum   'Er2 Pa2 Pd4 Pb2'
_cell_volume   225.95416416
_cell_formula_units_Z   2
loop_
 _symmetry_equiv_pos_site_id
 _symmetry_equiv_pos_as_xyz
  1  'x, y, z'
loop_
 _atom_site_type_symbol
 _atom_site_label
 _atom_site_symmetry_multiplicity
 _atom_site_fract_x
 _atom_site_fract_y
 _atom_site_fract_z
 _atom_site_occupancy
  Er  Er0  1  0.828081  0.672551  0.500000  1
  Er  Er1  1  0.328081  0.827449  0.500000  1
  Pa  Pa2  1  0.669836  0.169595  0.500000  1
  Pa  Pa3  1  0.169836  0.330405  0.500000  1
  Pd  Pd4  1  0.372530  0.135733  0.000000  1
  Pd  Pd5  1  0.126772  0.615515  0.000000  1
  Pd  Pd6  1  0.626772  0.884485  0.000000  1
  Pd  Pd7  1  0.872530  0.364267  0.000000  1
  Pb  Pb8  1  0.002782  0.990828  0.000000  1
  Pb  Pb9  1  0.502782  0.509172  0.000000  1
