# generated using pymatgen
data_Li3HoEr2Si2Sb
_symmetry_space_group_name_H-M   'P 1'
_cell_length_a   7.08688360
_cell_length_b   7.05636932
_cell_length_c   4.26872400
_cell_angle_alpha   90.00000000
_cell_angle_beta   90.00000000
_cell_angle_gamma   119.85765762
_symmetry_Int_Tables_number   1
_chemical_formula_structural   Li3HoEr2Si2Sb
_chemical_formula_sum   'Li3 Ho1 Er2 Si2 Sb1'
_cell_volume   185.13411262
_cell_formula_units_Z   1
loop_
 _symmetry_equiv_pos_site_id
 _symmetry_equiv_pos_as_xyz
  1  'x, y, z'
loop_
 _atom_site_type_symbol
 _atom_site_label
 _atom_site_symmetry_multiplicity
 _atom_site_fract_x
 _atom_site_fract_y
 _atom_site_fract_z
 _atom_site_occupancy
  Li  Li0  1  0.244354  0.000341  0.500000  1
  Li  Li1  1  0.755646  0.755988  0.500000  1
  Li  Li2  1  0.000000  0.243661  0.500000  1
  Ho  Ho3  1  0.000000  0.558396  0.000000  1
  Er  Er4  1  0.558116  0.999019  0.000000  1
  Er  Er5  1  0.441884  0.440903  0.000000  1
  Si  Si6  1  0.334289  0.666581  0.500000  1
  Si  Si7  1  0.665711  0.332289  0.500000  1
  Sb  Sb8  1  0.000000  0.002823  0.000000  1
