# generated using pymatgen
data_ErTm2Lu3ReBi2
_symmetry_space_group_name_H-M   'P 1'
_cell_length_a   8.14726248
_cell_length_b   8.14726315
_cell_length_c   4.30658300
_cell_angle_alpha   90.00000000
_cell_angle_beta   90.00000000
_cell_angle_gamma   120.05152463
_symmetry_Int_Tables_number   1
_chemical_formula_structural   ErTm2Lu3ReBi2
_chemical_formula_sum   'Er1 Tm2 Lu3 Re1 Bi2'
_cell_volume   247.43503197
_cell_formula_units_Z   1
loop_
 _symmetry_equiv_pos_site_id
 _symmetry_equiv_pos_as_xyz
  1  'x, y, z'
loop_
 _atom_site_type_symbol
 _atom_site_label
 _atom_site_symmetry_multiplicity
 _atom_site_fract_x
 _atom_site_fract_y
 _atom_site_fract_z
 _atom_site_occupancy
  Er  Er0  1  0.385036  0.385036  0.000000  1
  Tm  Tm1  1  0.617918  0.000298  0.000000  1
  Tm  Tm2  1  0.000298  0.617918  0.000000  1
  Lu  Lu3  1  0.230012  0.999909  0.500000  1
  Lu  Lu4  1  0.999909  0.230012  0.500000  1
  Lu  Lu5  1  0.768216  0.768216  0.500000  1
  Re  Re6  1  0.998438  0.998438  0.000000  1
  Bi  Bi7  1  0.332823  0.667347  0.500000  1
  Bi  Bi8  1  0.667347  0.332823  0.500000  1
