# generated using pymatgen
data_DyTmLu2(WO6)2
_symmetry_space_group_name_H-M   'P 1'
_cell_length_a   5.33971500
_cell_length_b   7.61984947
_cell_length_c   11.34530050
_cell_angle_alpha   75.36258863
_cell_angle_beta   90.00000000
_cell_angle_gamma   90.00000000
_symmetry_Int_Tables_number   1
_chemical_formula_structural   DyTmLu2(WO6)2
_chemical_formula_sum   'Dy2 Tm2 Lu4 W4 O24'
_cell_volume   446.63357329
_cell_formula_units_Z   2
loop_
 _symmetry_equiv_pos_site_id
 _symmetry_equiv_pos_as_xyz
  1  'x, y, z'
loop_
 _atom_site_type_symbol
 _atom_site_label
 _atom_site_symmetry_multiplicity
 _atom_site_fract_x
 _atom_site_fract_y
 _atom_site_fract_z
 _atom_site_occupancy
  Dy  Dy0  1  0.684945  0.500000  0.750000  1
  Dy  Dy1  1  0.315055  0.500000  0.250000  1
  Tm  Tm2  1  0.740668  0.000000  0.750000  1
  Tm  Tm3  1  0.259332  0.000000  0.250000  1
  Lu  Lu4  1  0.185890  0.796597  0.578591  1
  Lu  Lu5  1  0.814110  0.796597  0.078591  1
  Lu  Lu6  1  0.185890  0.203403  0.921409  1
  Lu  Lu7  1  0.814110  0.203403  0.421409  1
  W  W8  1  0.254718  0.724208  0.886001  1
  W  W9  1  0.745282  0.724208  0.386001  1
  W  W10  1  0.254718  0.275792  0.613999  1
  W  W11  1  0.745282  0.275792  0.113999  1
  O  O12  1  0.040684  0.942492  0.896070  1
  O  O13  1  0.536283  0.848317  0.931687  1
  O  O14  1  0.959316  0.942492  0.396070  1
  O  O15  1  0.459382  0.792539  0.725577  1
  O  O16  1  0.463717  0.848317  0.431687  1
  O  O17  1  0.982230  0.713600  0.769319  1
  O  O18  1  0.540618  0.792539  0.225577  1
  O  O19  1  0.856360  0.636309  0.549698  1
  O  O20  1  0.358589  0.487191  0.887580  1
  O  O21  1  0.017770  0.713600  0.269319  1
  O  O22  1  0.358589  0.512809  0.612420  1
  O  O23  1  0.856360  0.363691  0.950302  1
  O  O24  1  0.143640  0.636309  0.049698  1
  O  O25  1  0.641411  0.487191  0.387580  1
  O  O26  1  0.982230  0.286400  0.730681  1
  O  O27  1  0.641411  0.512809  0.112420  1
  O  O28  1  0.143640  0.363691  0.450302  1
  O  O29  1  0.459382  0.207461  0.774423  1
  O  O30  1  0.017770  0.286400  0.230681  1
  O  O31  1  0.536283  0.151683  0.568313  1
  O  O32  1  0.540618  0.207461  0.274423  1
  O  O33  1  0.040684  0.057508  0.603930  1
  O  O34  1  0.463717  0.151683  0.068313  1
  O  O35  1  0.959316  0.057508  0.103930  1
