# generated using pymatgen
data_CaTePdO6
_symmetry_space_group_name_H-M   'P 1'
_cell_length_a   5.23409000
_cell_length_b   5.23409008
_cell_length_c   5.09280900
_cell_angle_alpha   90.00000000
_cell_angle_beta   90.00000000
_cell_angle_gamma   119.99999948
_symmetry_Int_Tables_number   1
_chemical_formula_structural   CaTePdO6
_chemical_formula_sum   'Ca1 Te1 Pd1 O6'
_cell_volume   120.82878309
_cell_formula_units_Z   1
loop_
 _symmetry_equiv_pos_site_id
 _symmetry_equiv_pos_as_xyz
  1  'x, y, z'
loop_
 _atom_site_type_symbol
 _atom_site_label
 _atom_site_symmetry_multiplicity
 _atom_site_fract_x
 _atom_site_fract_y
 _atom_site_fract_z
 _atom_site_occupancy
  Ca  Ca0  1  0.000000  0.000000  0.000000  1
  Te  Te1  1  0.666668  0.333334  0.500000  1
  Pd  Pd2  1  0.333333  0.666667  0.500000  1
  O  O3  1  0.639057  0.009890  0.284439  1
  O  O4  1  0.370833  0.360942  0.284439  1
  O  O5  1  0.990109  0.629167  0.284439  1
  O  O6  1  0.370832  0.009890  0.715561  1
  O  O7  1  0.990109  0.360942  0.715561  1
  O  O8  1  0.639056  0.629167  0.715561  1
