# generated using pymatgen
data_BaSn2(AsRh3)3
_symmetry_space_group_name_H-M   'P 1'
_cell_length_a   7.65346000
_cell_length_b   7.65345968
_cell_length_c   11.25197400
_cell_angle_alpha   90.00000000
_cell_angle_beta   90.00000000
_cell_angle_gamma   119.99999272
_symmetry_Int_Tables_number   1
_chemical_formula_structural   BaSn2(AsRh3)3
_chemical_formula_sum   'Ba2 Sn4 As6 Rh18'
_cell_volume   570.78821686
_cell_formula_units_Z   2
loop_
 _symmetry_equiv_pos_site_id
 _symmetry_equiv_pos_as_xyz
  1  'x, y, z'
loop_
 _atom_site_type_symbol
 _atom_site_label
 _atom_site_symmetry_multiplicity
 _atom_site_fract_x
 _atom_site_fract_y
 _atom_site_fract_z
 _atom_site_occupancy
  Ba  Ba0  1  0.000000  0.000000  0.000000  1
  Ba  Ba1  1  0.000000  0.000000  0.500000  1
  Sn  Sn2  1  0.333333  0.666667  0.065747  1
  Sn  Sn3  1  0.666667  0.333333  0.565747  1
  Sn  Sn4  1  0.666667  0.333333  0.934253  1
  Sn  Sn5  1  0.333333  0.666667  0.434253  1
  As  As6  1  0.831810  0.168190  0.250000  1
  As  As7  1  0.663619  0.831810  0.750000  1
  As  As8  1  0.168190  0.336381  0.750000  1
  As  As9  1  0.831810  0.663619  0.250000  1
  As  As10  1  0.336381  0.168190  0.250000  1
  As  As11  1  0.168190  0.831810  0.750000  1
  Rh  Rh12  1  0.537781  0.462219  0.121473  1
  Rh  Rh13  1  0.075561  0.537781  0.621473  1
  Rh  Rh14  1  0.462219  0.924439  0.621473  1
  Rh  Rh15  1  0.537781  0.075561  0.121473  1
  Rh  Rh16  1  0.924439  0.462219  0.121473  1
  Rh  Rh17  1  0.075561  0.537781  0.878527  1
  Rh  Rh18  1  0.462219  0.924439  0.878527  1
  Rh  Rh19  1  0.462219  0.537781  0.621473  1
  Rh  Rh20  1  0.462219  0.537781  0.878527  1
  Rh  Rh21  1  0.537781  0.462219  0.378527  1
  Rh  Rh22  1  0.924439  0.462219  0.378527  1
  Rh  Rh23  1  0.537781  0.075561  0.378527  1
  Rh  Rh24  1  0.196447  0.803553  0.250000  1
  Rh  Rh25  1  0.392895  0.196447  0.750000  1
  Rh  Rh26  1  0.803553  0.607105  0.750000  1
  Rh  Rh27  1  0.196447  0.392895  0.250000  1
  Rh  Rh28  1  0.607105  0.803553  0.250000  1
  Rh  Rh29  1  0.803553  0.196447  0.750000  1
