# generated using pymatgen
data_BaNaAsS3
_symmetry_space_group_name_H-M   'P 1'
_cell_length_a   8.87273100
_cell_length_b   9.10634744
_cell_length_c   10.07544707
_cell_angle_alpha   63.43634453
_cell_angle_beta   90.00000000
_cell_angle_gamma   90.00000000
_symmetry_Int_Tables_number   1
_chemical_formula_structural   BaNaAsS3
_chemical_formula_sum   'Ba4 Na4 As4 S12'
_cell_volume   728.14209663
_cell_formula_units_Z   4
loop_
 _symmetry_equiv_pos_site_id
 _symmetry_equiv_pos_as_xyz
  1  'x, y, z'
loop_
 _atom_site_type_symbol
 _atom_site_label
 _atom_site_symmetry_multiplicity
 _atom_site_fract_x
 _atom_site_fract_y
 _atom_site_fract_z
 _atom_site_occupancy
  Ba  Ba0  1  0.222386  0.474558  0.063967  1
  Ba  Ba1  1  0.722386  0.025442  0.936033  1
  Ba  Ba2  1  0.777614  0.525442  0.936033  1
  Ba  Ba3  1  0.277614  0.974558  0.063967  1
  Na  Na4  1  0.676494  0.231616  0.500015  1
  Na  Na5  1  0.176494  0.268384  0.499985  1
  Na  Na6  1  0.323506  0.768384  0.499985  1
  Na  Na7  1  0.823506  0.731616  0.500015  1
  As  As8  1  0.976263  0.110901  0.277049  1
  As  As9  1  0.476263  0.389099  0.722951  1
  As  As10  1  0.023737  0.889099  0.722951  1
  As  As11  1  0.523737  0.610901  0.277049  1
  S  S12  1  0.729054  0.402413  0.674246  1
  S  S13  1  0.229054  0.097587  0.325754  1
  S  S14  1  0.270946  0.597587  0.325754  1
  S  S15  1  0.770946  0.902413  0.674246  1
  S  S16  1  0.490111  0.292118  0.975125  1
  S  S17  1  0.990111  0.207882  0.024875  1
  S  S18  1  0.509889  0.707882  0.024875  1
  S  S19  1  0.009889  0.792118  0.975125  1
  S  S20  1  0.912016  0.347067  0.285345  1
  S  S21  1  0.412016  0.152933  0.714655  1
  S  S22  1  0.087984  0.652933  0.714655  1
  S  S23  1  0.587984  0.847067  0.285345  1
