# generated using pymatgen
data_Nd3Y(TmBi)6
_symmetry_space_group_name_H-M   'P 1'
_cell_length_a   8.29664400
_cell_length_b   9.47684300
_cell_length_c   12.21161100
_cell_angle_alpha   90.00000000
_cell_angle_beta   90.00000000
_cell_angle_gamma   90.00000000
_symmetry_Int_Tables_number   1
_chemical_formula_structural   Nd3Y(TmBi)6
_chemical_formula_sum   'Nd6 Y2 Tm12 Bi12'
_cell_volume   960.15003630
_cell_formula_units_Z   2
loop_
 _symmetry_equiv_pos_site_id
 _symmetry_equiv_pos_as_xyz
  1  'x, y, z'
loop_
 _atom_site_type_symbol
 _atom_site_label
 _atom_site_symmetry_multiplicity
 _atom_site_fract_x
 _atom_site_fract_y
 _atom_site_fract_z
 _atom_site_occupancy
  Nd  Nd0  1  0.185137  0.750000  0.720428  1
  Nd  Nd1  1  0.685137  0.750000  0.779572  1
  Nd  Nd2  1  0.816960  0.250000  0.280112  1
  Nd  Nd3  1  0.316960  0.250000  0.219888  1
  Nd  Nd4  1  0.351949  0.750000  0.216187  1
  Nd  Nd5  1  0.851949  0.750000  0.283813  1
  Y  Y6  1  0.647605  0.250000  0.782889  1
  Y  Y7  1  0.147605  0.250000  0.717111  1
  Tm  Tm8  1  0.023956  0.750000  0.987097  1
  Tm  Tm9  1  0.523956  0.750000  0.512903  1
  Tm  Tm10  1  0.976097  0.250000  0.009948  1
  Tm  Tm11  1  0.476097  0.250000  0.490052  1
  Tm  Tm12  1  0.308314  0.434316  0.939903  1
  Tm  Tm13  1  0.808314  0.065684  0.560097  1
  Tm  Tm14  1  0.691426  0.934423  0.057713  1
  Tm  Tm15  1  0.191426  0.565577  0.442287  1
  Tm  Tm16  1  0.691426  0.565577  0.057713  1
  Tm  Tm17  1  0.191426  0.934423  0.442287  1
  Tm  Tm18  1  0.308314  0.065684  0.939903  1
  Tm  Tm19  1  0.808314  0.434316  0.560097  1
  Bi  Bi20  1  0.434705  0.008265  0.670402  1
  Bi  Bi21  1  0.934705  0.491735  0.829598  1
  Bi  Bi22  1  0.564898  0.504045  0.332764  1
  Bi  Bi23  1  0.064898  0.995955  0.167236  1
  Bi  Bi24  1  0.564898  0.995955  0.332764  1
  Bi  Bi25  1  0.064898  0.504045  0.167236  1
  Bi  Bi26  1  0.434705  0.491735  0.670402  1
  Bi  Bi27  1  0.934705  0.008265  0.829598  1
  Bi  Bi28  1  0.404484  0.750000  0.957303  1
  Bi  Bi29  1  0.904484  0.750000  0.542697  1
  Bi  Bi30  1  0.595124  0.250000  0.037823  1
  Bi  Bi31  1  0.095124  0.250000  0.462177  1
