# generated using pymatgen
data_Lu2CrCo8ReP6
_symmetry_space_group_name_H-M   'P 1'
_cell_length_a   3.65904800
_cell_length_b   10.27311800
_cell_length_c   11.72922900
_cell_angle_alpha   90.00000000
_cell_angle_beta   90.00000000
_cell_angle_gamma   90.00000000
_symmetry_Int_Tables_number   1
_chemical_formula_structural   Lu2CrCo8ReP6
_chemical_formula_sum   'Lu4 Cr2 Co16 Re2 P12'
_cell_volume   440.89974609
_cell_formula_units_Z   2
loop_
 _symmetry_equiv_pos_site_id
 _symmetry_equiv_pos_as_xyz
  1  'x, y, z'
loop_
 _atom_site_type_symbol
 _atom_site_label
 _atom_site_symmetry_multiplicity
 _atom_site_fract_x
 _atom_site_fract_y
 _atom_site_fract_z
 _atom_site_occupancy
  Lu  Lu0  1  0.250000  0.581810  0.703569  1
  Lu  Lu1  1  0.250000  0.918190  0.203569  1
  Lu  Lu2  1  0.750000  0.415510  0.294756  1
  Lu  Lu3  1  0.750000  0.084490  0.794756  1
  Cr  Cr4  1  0.750000  0.287658  0.011710  1
  Cr  Cr5  1  0.750000  0.212342  0.511710  1
  Co  Co6  1  0.250000  0.405732  0.487533  1
  Co  Co7  1  0.250000  0.094268  0.987533  1
  Co  Co8  1  0.750000  0.593342  0.511371  1
  Co  Co9  1  0.750000  0.906658  0.011371  1
  Co  Co10  1  0.250000  0.220333  0.177937  1
  Co  Co11  1  0.250000  0.279667  0.677937  1
  Co  Co12  1  0.750000  0.777611  0.821929  1
  Co  Co13  1  0.750000  0.722389  0.321929  1
  Co  Co14  1  0.250000  0.888611  0.701868  1
  Co  Co15  1  0.250000  0.611389  0.201868  1
  Co  Co16  1  0.750000  0.114450  0.300177  1
  Co  Co17  1  0.750000  0.385550  0.800177  1
  Co  Co18  1  0.250000  0.464610  0.932819  1
  Co  Co19  1  0.250000  0.035390  0.432819  1
  Co  Co20  1  0.750000  0.534517  0.067517  1
  Co  Co21  1  0.750000  0.965483  0.567517  1
  Re  Re22  1  0.250000  0.710131  0.989066  1
  Re  Re23  1  0.250000  0.789869  0.489066  1
  P  P24  1  0.250000  0.416045  0.113967  1
  P  P25  1  0.250000  0.083955  0.613967  1
  P  P26  1  0.750000  0.578874  0.884561  1
  P  P27  1  0.750000  0.921126  0.384561  1
  P  P28  1  0.250000  0.267565  0.868203  1
  P  P29  1  0.250000  0.232435  0.368203  1
  P  P30  1  0.750000  0.732290  0.134034  1
  P  P31  1  0.750000  0.767710  0.634034  1
  P  P32  1  0.250000  0.594016  0.390116  1
  P  P33  1  0.250000  0.905984  0.890116  1
  P  P34  1  0.750000  0.401115  0.608866  1
  P  P35  1  0.750000  0.098885  0.108866  1
