# generated using pymatgen
data_Tm3Sc2SnSb2
_symmetry_space_group_name_H-M   'P 1'
_cell_length_a   8.71138500
_cell_length_b   8.70230161
_cell_length_c   6.10609600
_cell_angle_alpha   90.00000000
_cell_angle_beta   90.00000000
_cell_angle_gamma   120.03453817
_symmetry_Int_Tables_number   1
_chemical_formula_structural   Tm3Sc2SnSb2
_chemical_formula_sum   'Tm6 Sc4 Sn2 Sb4'
_cell_volume   400.74152464
_cell_formula_units_Z   2
loop_
 _symmetry_equiv_pos_site_id
 _symmetry_equiv_pos_as_xyz
  1  'x, y, z'
loop_
 _atom_site_type_symbol
 _atom_site_label
 _atom_site_symmetry_multiplicity
 _atom_site_fract_x
 _atom_site_fract_y
 _atom_site_fract_z
 _atom_site_occupancy
  Tm  Tm0  1  0.241134  0.000000  0.250000  1
  Tm  Tm1  1  0.758866  0.000000  0.750000  1
  Tm  Tm2  1  0.997447  0.241150  0.250000  1
  Tm  Tm3  1  0.756297  0.758850  0.250000  1
  Tm  Tm4  1  0.243703  0.241150  0.750000  1
  Tm  Tm5  1  0.002553  0.758850  0.750000  1
  Sc  Sc6  1  0.333389  0.666778  0.000000  1
  Sc  Sc7  1  0.666611  0.333222  0.500000  1
  Sc  Sc8  1  0.666611  0.333222  0.000000  1
  Sc  Sc9  1  0.333389  0.666778  0.500000  1
  Sn  Sn10  1  0.601498  0.000000  0.250000  1
  Sn  Sn11  1  0.398502  0.000000  0.750000  1
  Sb  Sb12  1  0.999219  0.604296  0.250000  1
  Sb  Sb13  1  0.394923  0.395704  0.250000  1
  Sb  Sb14  1  0.605077  0.604296  0.750000  1
  Sb  Sb15  1  0.000781  0.395704  0.750000  1
