# generated using pymatgen
data_Lu3Th(ZnIr)4
_symmetry_space_group_name_H-M   'P 1'
_cell_length_a   4.00467600
_cell_length_b   6.95362622
_cell_length_c   8.20324904
_cell_angle_alpha   89.68612670
_cell_angle_beta   90.00000000
_cell_angle_gamma   90.00000000
_symmetry_Int_Tables_number   1
_chemical_formula_structural   Lu3Th(ZnIr)4
_chemical_formula_sum   'Lu3 Th1 Zn4 Ir4'
_cell_volume   228.43261289
_cell_formula_units_Z   1
loop_
 _symmetry_equiv_pos_site_id
 _symmetry_equiv_pos_as_xyz
  1  'x, y, z'
loop_
 _atom_site_type_symbol
 _atom_site_label
 _atom_site_symmetry_multiplicity
 _atom_site_fract_x
 _atom_site_fract_y
 _atom_site_fract_z
 _atom_site_occupancy
  Lu  Lu0  1  0.750000  0.455137  0.812199  1
  Lu  Lu1  1  0.750000  0.955253  0.680724  1
  Lu  Lu2  1  0.250000  0.043832  0.325080  1
  Th  Th3  1  0.250000  0.543016  0.180787  1
  Zn  Zn4  1  0.250000  0.633181  0.567021  1
  Zn  Zn5  1  0.750000  0.359061  0.443450  1
  Zn  Zn6  1  0.750000  0.878234  0.058348  1
  Zn  Zn7  1  0.250000  0.129475  0.934685  1
  Ir  Ir8  1  0.250000  0.750946  0.873037  1
  Ir  Ir9  1  0.750000  0.252003  0.125230  1
  Ir  Ir10  1  0.750000  0.751776  0.372699  1
  Ir  Ir11  1  0.250000  0.248086  0.626741  1
