# generated using pymatgen
data_Ti2VSi2B4W7
_symmetry_space_group_name_H-M   'P 1'
_cell_length_a   6.98834872
_cell_length_b   6.99009803
_cell_length_c   6.98937237
_cell_angle_alpha   128.99798615
_cell_angle_beta   129.01392938
_cell_angle_gamma   74.90881576
_symmetry_Int_Tables_number   1
_chemical_formula_structural   Ti2VSi2B4W7
_chemical_formula_sum   'Ti2 V1 Si2 B4 W7'
_cell_volume   200.89082720
_cell_formula_units_Z   1
loop_
 _symmetry_equiv_pos_site_id
 _symmetry_equiv_pos_as_xyz
  1  'x, y, z'
loop_
 _atom_site_type_symbol
 _atom_site_label
 _atom_site_symmetry_multiplicity
 _atom_site_fract_x
 _atom_site_fract_y
 _atom_site_fract_z
 _atom_site_occupancy
  Ti  Ti0  1  0.306585  0.803864  0.828576  1
  Ti  Ti1  1  0.000595  0.999640  0.000488  1
  V  V2  1  0.499407  0.500878  0.000980  1
  Si  Si3  1  0.248249  0.246818  0.999159  1
  Si  Si4  1  0.749162  0.750655  0.999651  1
  B  B5  1  0.622117  0.124789  0.748324  1
  B  B6  1  0.124149  0.380741  0.503393  1
  B  B7  1  0.878556  0.621233  0.498038  1
  B  B8  1  0.377087  0.874250  0.252070  1
  W  W9  1  0.525817  0.693238  0.497387  1
  W  W10  1  0.030475  0.527844  0.833371  1
  W  W11  1  0.694811  0.198064  0.169229  1
  W  W12  1  0.969776  0.472347  0.165232  1
  W  W13  1  0.196190  0.028873  0.502839  1
  W  W14  1  0.474119  0.305973  0.503738  1
  W  W15  1  0.802902  0.970791  0.497525  1
