# generated using pymatgen
data_KTa(SO4)3
_symmetry_space_group_name_H-M   'P 1'
_cell_length_a   8.88631590
_cell_length_b   8.61111099
_cell_length_c   9.14432600
_cell_angle_alpha   107.53049020
_cell_angle_beta   109.77994206
_cell_angle_gamma   108.13381631
_symmetry_Int_Tables_number   1
_chemical_formula_structural   KTa(SO4)3
_chemical_formula_sum   'K2 Ta2 S6 O24'
_cell_volume   557.34580749
_cell_formula_units_Z   2
loop_
 _symmetry_equiv_pos_site_id
 _symmetry_equiv_pos_as_xyz
  1  'x, y, z'
loop_
 _atom_site_type_symbol
 _atom_site_label
 _atom_site_symmetry_multiplicity
 _atom_site_fract_x
 _atom_site_fract_y
 _atom_site_fract_z
 _atom_site_occupancy
  K  K0  1  0.846293  0.215510  0.377342  1
  K  K1  1  0.153707  0.784490  0.622658  1
  Ta  Ta2  1  0.000000  0.000000  0.000000  1
  Ta  Ta3  1  0.500000  0.500000  0.500000  1
  S  S4  1  0.899105  0.549697  0.768573  1
  S  S5  1  0.443690  0.254230  0.102346  1
  S  S6  1  0.774551  0.921497  0.580941  1
  S  S7  1  0.225449  0.078503  0.419059  1
  S  S8  1  0.556310  0.745770  0.897654  1
  S  S9  1  0.100895  0.450303  0.231427  1
  O  O10  1  0.011188  0.235375  0.136984  1
  O  O11  1  0.976823  0.497749  0.280202  1
  O  O12  1  0.886536  0.018721  0.782187  1
  O  O13  1  0.715963  0.041265  0.526646  1
  O  O14  1  0.871712  0.848186  0.507384  1
  O  O15  1  0.763939  0.867827  0.977058  1
  O  O16  1  0.531850  0.155359  0.165135  1
  O  O17  1  0.741102  0.508161  0.594134  1
  O  O18  1  0.829169  0.474343  0.864087  1
  O  O19  1  0.481112  0.420700  0.264369  1
  O  O20  1  0.526797  0.688879  0.020517  1
  O  O21  1  0.392416  0.240868  0.451323  1
  O  O22  1  0.607584  0.759132  0.548677  1
  O  O23  1  0.473203  0.311121  0.979483  1
  O  O24  1  0.518888  0.579300  0.735631  1
  O  O25  1  0.170831  0.525657  0.135913  1
  O  O26  1  0.258898  0.491839  0.405866  1
  O  O27  1  0.468150  0.844641  0.834865  1
  O  O28  1  0.236061  0.132173  0.022942  1
  O  O29  1  0.128288  0.151814  0.492616  1
  O  O30  1  0.284037  0.958735  0.473354  1
  O  O31  1  0.113464  0.981279  0.217813  1
  O  O32  1  0.023177  0.502251  0.719798  1
  O  O33  1  0.988812  0.764625  0.863016  1
