# generated using pymatgen
data_Er5In4PdAu
_symmetry_space_group_name_H-M   'P 1'
_cell_length_a   3.62564000
_cell_length_b   8.13541702
_cell_length_c   18.25218604
_cell_angle_alpha   89.99244413
_cell_angle_beta   90.00000000
_cell_angle_gamma   90.00000000
_symmetry_Int_Tables_number   1
_chemical_formula_structural   Er5In4PdAu
_chemical_formula_sum   'Er10 In8 Pd2 Au2'
_cell_volume   538.36817870
_cell_formula_units_Z   2
loop_
 _symmetry_equiv_pos_site_id
 _symmetry_equiv_pos_as_xyz
  1  'x, y, z'
loop_
 _atom_site_type_symbol
 _atom_site_label
 _atom_site_symmetry_multiplicity
 _atom_site_fract_x
 _atom_site_fract_y
 _atom_site_fract_z
 _atom_site_occupancy
  Er  Er0  1  0.000000  0.500000  0.500000  1
  Er  Er1  1  0.000000  0.000000  0.000000  1
  Er  Er2  1  0.000000  0.745200  0.281929  1
  Er  Er3  1  0.000000  0.254800  0.718071  1
  Er  Er4  1  0.000000  0.766919  0.779087  1
  Er  Er5  1  0.000000  0.233081  0.220913  1
  Er  Er6  1  0.000000  0.617045  0.079901  1
  Er  Er7  1  0.000000  0.382955  0.920099  1
  Er  Er8  1  0.000000  0.886759  0.582502  1
  Er  Er9  1  0.000000  0.113241  0.417498  1
  In  In10  1  0.500000  0.713917  0.932327  1
  In  In11  1  0.500000  0.286083  0.067673  1
  In  In12  1  0.500000  0.788313  0.432007  1
  In  In13  1  0.500000  0.211687  0.567993  1
  In  In14  1  0.500000  0.583962  0.647185  1
  In  In15  1  0.500000  0.416038  0.352815  1
  In  In16  1  0.500000  0.920207  0.148329  1
  In  In17  1  0.500000  0.079793  0.851671  1
  Pd  Pd18  1  0.500000  0.975371  0.696088  1
  Pd  Pd19  1  0.500000  0.024629  0.303912  1
  Au  Au20  1  0.500000  0.525477  0.196736  1
  Au  Au21  1  0.500000  0.474523  0.803264  1
