# generated using pymatgen
data_Y6Zn18Au5Se
_symmetry_space_group_name_H-M   'P 1'
_cell_length_a   9.07888351
_cell_length_b   9.12111280
_cell_length_c   9.12111300
_cell_angle_alpha   59.99999565
_cell_angle_beta   59.84600972
_cell_angle_gamma   59.84601213
_symmetry_Int_Tables_number   1
_chemical_formula_structural   Y6Zn18Au5Se
_chemical_formula_sum   'Y6 Zn18 Au5 Se1'
_cell_volume   532.84184549
_cell_formula_units_Z   1
loop_
 _symmetry_equiv_pos_site_id
 _symmetry_equiv_pos_as_xyz
  1  'x, y, z'
loop_
 _atom_site_type_symbol
 _atom_site_label
 _atom_site_symmetry_multiplicity
 _atom_site_fract_x
 _atom_site_fract_y
 _atom_site_fract_z
 _atom_site_occupancy
  Y  Y0  1  0.715196  0.283759  0.283759  1
  Y  Y1  1  0.715196  0.283759  0.717287  1
  Y  Y2  1  0.715196  0.717287  0.283759  1
  Y  Y3  1  0.285260  0.717300  0.717300  1
  Y  Y4  1  0.285260  0.717300  0.280140  1
  Y  Y5  1  0.285260  0.280140  0.717300  1
  Zn  Zn6  1  0.876070  0.371916  0.876006  1
  Zn  Zn7  1  0.876070  0.876006  0.371916  1
  Zn  Zn8  1  0.876070  0.876006  0.876006  1
  Zn  Zn9  1  0.504093  0.999296  0.999296  1
  Zn  Zn10  1  0.504093  0.999296  0.497315  1
  Zn  Zn11  1  0.504093  0.497315  0.999296  1
  Zn  Zn12  1  0.998972  0.502593  0.502593  1
  Zn  Zn13  1  0.998972  0.502593  0.995842  1
  Zn  Zn14  1  0.998972  0.995842  0.502593  1
  Zn  Zn15  1  0.000209  0.999931  0.999931  1
  Zn  Zn16  1  0.009831  0.330055  0.330055  1
  Zn  Zn17  1  0.331003  0.008815  0.330090  1
  Zn  Zn18  1  0.331003  0.330090  0.008815  1
  Zn  Zn19  1  0.331003  0.330090  0.330090  1
  Zn  Zn20  1  0.989359  0.670214  0.670214  1
  Zn  Zn21  1  0.669481  0.990567  0.669977  1
  Zn  Zn22  1  0.669481  0.669977  0.990567  1
  Zn  Zn23  1  0.669481  0.669977  0.669977  1
  Au  Au24  1  0.641266  0.119579  0.119579  1
  Au  Au25  1  0.117555  0.636901  0.122773  1
  Au  Au26  1  0.117555  0.122773  0.636901  1
  Au  Au27  1  0.117555  0.122773  0.122773  1
  Au  Au28  1  0.367629  0.877457  0.877457  1
  Se  Se29  1  0.498823  0.500392  0.500392  1
