# generated using pymatgen
data_Dy3Y(Al8Pt3)3
_symmetry_space_group_name_H-M   'P 1'
_cell_length_a   7.52415882
_cell_length_b   7.54576773
_cell_length_c   13.17097265
_cell_angle_alpha   84.57246248
_cell_angle_beta   79.11927825
_cell_angle_gamma   59.97323371
_symmetry_Int_Tables_number   1
_chemical_formula_structural   Dy3Y(Al8Pt3)3
_chemical_formula_sum   'Dy3 Y1 Al24 Pt9'
_cell_volume   635.79045649
_cell_formula_units_Z   1
loop_
 _symmetry_equiv_pos_site_id
 _symmetry_equiv_pos_as_xyz
  1  'x, y, z'
loop_
 _atom_site_type_symbol
 _atom_site_label
 _atom_site_symmetry_multiplicity
 _atom_site_fract_x
 _atom_site_fract_y
 _atom_site_fract_z
 _atom_site_occupancy
  Dy  Dy0  1  0.606588  0.831559  0.192125  1
  Dy  Dy1  1  0.734158  0.498441  0.807541  1
  Dy  Dy2  1  0.265848  0.501542  0.192459  1
  Y  Y3  1  0.393382  0.168448  0.807978  1
  Al  Al4  1  0.684564  0.833552  0.944562  1
  Al  Al5  1  0.315480  0.166380  0.055556  1
  Al  Al6  1  0.146984  0.832296  0.561151  1
  Al  Al7  1  0.853017  0.167700  0.438840  1
  Al  Al8  1  0.479756  0.166848  0.558621  1
  Al  Al9  1  0.520256  0.833159  0.441331  1
  Al  Al10  1  0.217160  0.165261  0.330003  1
  Al  Al11  1  0.782892  0.834703  0.669946  1
  Al  Al12  1  0.437964  0.506171  0.669941  1
  Al  Al13  1  0.562039  0.493865  0.330015  1
  Al  Al14  1  0.109783  0.160022  0.669206  1
  Al  Al15  1  0.890202  0.839977  0.330755  1
  Al  Al16  1  0.353256  0.499043  0.944729  1
  Al  Al17  1  0.646716  0.501033  0.055333  1
  Al  Al18  1  0.014674  0.167912  0.953179  1
  Al  Al19  1  0.985240  0.832077  0.046880  1
  Al  Al20  1  0.186801  0.498855  0.441243  1
  Al  Al21  1  0.813209  0.501144  0.558745  1
  Al  Al22  1  0.734266  0.163940  0.183267  1
  Al  Al23  1  0.265741  0.835971  0.816727  1
  Al  Al24  1  0.061772  0.631661  0.815478  1
  Al  Al25  1  0.938146  0.368414  0.184515  1
  Al  Al26  1  0.854828  0.041711  0.815972  1
  Al  Al27  1  0.145262  0.958309  0.184023  1
  Pt  Pt28  1  0.120062  0.492335  0.638729  1
  Pt  Pt29  1  0.879869  0.507753  0.361221  1
  Pt  Pt30  1  0.657318  0.171139  0.999936  1
  Pt  Pt31  1  0.342686  0.828847  0.000077  1
  Pt  Pt32  1  0.538177  0.166714  0.361222  1
  Pt  Pt33  1  0.461841  0.833213  0.638732  1
  Pt  Pt34  1  0.779232  0.174797  0.637175  1
  Pt  Pt35  1  0.220847  0.825197  0.362777  1
  Pt  Pt36  1  0.999987  0.500012  0.000011  1
