# generated using pymatgen
data_CeEr(Si2Rh3)2
_symmetry_space_group_name_H-M   'P 1'
_cell_length_a   6.64106662
_cell_length_b   6.64106654
_cell_length_c   6.64106655
_cell_angle_alpha   130.41521946
_cell_angle_beta   114.32911063
_cell_angle_gamma   86.54299390
_symmetry_Int_Tables_number   1
_chemical_formula_structural   CeEr(Si2Rh3)2
_chemical_formula_sum   'Ce1 Er1 Si4 Rh6'
_cell_volume   193.96005745
_cell_formula_units_Z   1
loop_
 _symmetry_equiv_pos_site_id
 _symmetry_equiv_pos_as_xyz
  1  'x, y, z'
loop_
 _atom_site_type_symbol
 _atom_site_label
 _atom_site_symmetry_multiplicity
 _atom_site_fract_x
 _atom_site_fract_y
 _atom_site_fract_z
 _atom_site_occupancy
  Ce  Ce0  1  0.750000  0.039285  0.289285  1
  Er  Er1  1  0.250000  0.952059  0.702059  1
  Si  Si2  1  0.079971  0.273729  0.193759  1
  Si  Si3  1  0.922143  0.727943  0.805799  1
  Si  Si4  1  0.420029  0.613788  0.193759  1
  Si  Si5  1  0.577857  0.383656  0.805799  1
  Rh  Rh6  1  0.498413  0.498577  0.496990  1
  Rh  Rh7  1  0.001587  0.498577  0.000164  1
  Rh  Rh8  1  0.283550  0.000869  0.288875  1
  Rh  Rh9  1  0.711994  0.000869  0.717319  1
  Rh  Rh10  1  0.216450  0.505324  0.717319  1
  Rh  Rh11  1  0.788006  0.505324  0.288875  1
