# generated using pymatgen
data_Ho3TmSc4In3Co
_symmetry_space_group_name_H-M   'P 1'
_cell_length_a   9.90577300
_cell_length_b   9.90577270
_cell_length_c   6.94171300
_cell_angle_alpha   90.00000000
_cell_angle_beta   90.00000000
_cell_angle_gamma   119.99999768
_symmetry_Int_Tables_number   1
_chemical_formula_structural   Ho3TmSc4In3Co
_chemical_formula_sum   'Ho6 Tm2 Sc8 In6 Co2'
_cell_volume   589.89406360
_cell_formula_units_Z   2
loop_
 _symmetry_equiv_pos_site_id
 _symmetry_equiv_pos_as_xyz
  1  'x, y, z'
loop_
 _atom_site_type_symbol
 _atom_site_label
 _atom_site_symmetry_multiplicity
 _atom_site_fract_x
 _atom_site_fract_y
 _atom_site_fract_z
 _atom_site_occupancy
  Ho  Ho0  1  0.533231  0.066464  0.509360  1
  Ho  Ho1  1  0.933536  0.466769  0.509360  1
  Ho  Ho2  1  0.533231  0.466769  0.509360  1
  Ho  Ho3  1  0.466769  0.933536  0.009360  1
  Ho  Ho4  1  0.066464  0.533231  0.009360  1
  Ho  Ho5  1  0.466769  0.533231  0.009360  1
  Tm  Tm6  1  0.000000  0.000000  0.504728  1
  Tm  Tm7  1  0.000000  0.000000  0.004728  1
  Sc  Sc8  1  0.179514  0.359028  0.717540  1
  Sc  Sc9  1  0.640972  0.820486  0.717540  1
  Sc  Sc10  1  0.179514  0.820486  0.717540  1
  Sc  Sc11  1  0.820486  0.640972  0.217540  1
  Sc  Sc12  1  0.359028  0.179514  0.217540  1
  Sc  Sc13  1  0.820486  0.179514  0.217540  1
  Sc  Sc14  1  0.666667  0.333333  0.910415  1
  Sc  Sc15  1  0.333333  0.666667  0.410415  1
  In  In16  1  0.836686  0.673372  0.770078  1
  In  In17  1  0.326628  0.163314  0.770078  1
  In  In18  1  0.836686  0.163314  0.770078  1
  In  In19  1  0.163314  0.326628  0.270078  1
  In  In20  1  0.673372  0.836686  0.270078  1
  In  In21  1  0.163314  0.836686  0.270078  1
  Co  Co22  1  0.666667  0.333333  0.272926  1
  Co  Co23  1  0.333333  0.666667  0.772926  1
