# generated using pymatgen
data_Nd4Ga8Ge2(IrRh)3
_symmetry_space_group_name_H-M   'P 1'
_cell_length_a   8.61544425
_cell_length_b   8.71597522
_cell_length_c   8.71597415
_cell_angle_alpha   141.08897396
_cell_angle_beta   108.33095185
_cell_angle_gamma   84.83416908
_symmetry_Int_Tables_number   1
_chemical_formula_structural   Nd4Ga8Ge2(IrRh)3
_chemical_formula_sum   'Nd4 Ga8 Ge2 Ir3 Rh3'
_cell_volume   376.87735557
_cell_formula_units_Z   1
loop_
 _symmetry_equiv_pos_site_id
 _symmetry_equiv_pos_as_xyz
  1  'x, y, z'
loop_
 _atom_site_type_symbol
 _atom_site_label
 _atom_site_symmetry_multiplicity
 _atom_site_fract_x
 _atom_site_fract_y
 _atom_site_fract_z
 _atom_site_occupancy
  Nd  Nd0  1  0.861876  0.634472  0.227405  1
  Nd  Nd1  1  0.135974  0.364785  0.771189  1
  Nd  Nd2  1  0.410303  0.138291  0.272012  1
  Nd  Nd3  1  0.590238  0.861544  0.728694  1
  Ga  Ga4  1  0.499994  0.751670  0.251601  1
  Ga  Ga5  1  0.499994  0.248393  0.748325  1
  Ga  Ga6  1  0.209567  0.957872  0.747502  1
  Ga  Ga7  1  0.791115  0.540333  0.750708  1
  Ga  Ga8  1  0.791115  0.040407  0.250782  1
  Ga  Ga9  1  0.209567  0.462064  0.251695  1
  Ga  Ga10  1  0.079528  0.909636  0.169893  1
  Ga  Ga11  1  0.921877  0.090552  0.831323  1
  Ge  Ge12  1  0.739213  0.407794  0.331420  1
  Ge  Ge13  1  0.259466  0.591740  0.667725  1
  Ir  Ir14  1  0.746232  0.147499  0.598732  1
  Ir  Ir15  1  0.451008  0.353970  0.097037  1
  Ir  Ir16  1  0.547038  0.646066  0.900973  1
  Rh  Rh17  1  0.999657  0.748823  0.748831  1
  Rh  Rh18  1  0.999657  0.250826  0.250834  1
  Rh  Rh19  1  0.256580  0.853264  0.403317  1
