# generated using pymatgen
data_Na(Rh2Pb3)2
_symmetry_space_group_name_H-M   'P 1'
_cell_length_a   7.16686665
_cell_length_b   7.16686659
_cell_length_c   7.16686677
_cell_angle_alpha   119.59130208
_cell_angle_beta   119.59130173
_cell_angle_gamma   90.70935831
_symmetry_Int_Tables_number   1
_chemical_formula_structural   Na(Rh2Pb3)2
_chemical_formula_sum   'Na1 Rh4 Pb6'
_cell_volume   261.88553985
_cell_formula_units_Z   1
loop_
 _symmetry_equiv_pos_site_id
 _symmetry_equiv_pos_as_xyz
  1  'x, y, z'
loop_
 _atom_site_type_symbol
 _atom_site_label
 _atom_site_symmetry_multiplicity
 _atom_site_fract_x
 _atom_site_fract_y
 _atom_site_fract_z
 _atom_site_occupancy
  Na  Na0  1  0.000000  0.000000  0.000000  1
  Rh  Rh1  1  0.748256  0.405048  0.000000  1
  Rh  Rh2  1  0.405048  0.748256  0.000000  1
  Rh  Rh3  1  0.594953  0.594953  0.343209  1
  Rh  Rh4  1  0.251744  0.251744  0.656791  1
  Pb  Pb5  1  0.458376  0.120584  0.000000  1
  Pb  Pb6  1  0.120584  0.458376  0.000000  1
  Pb  Pb7  1  0.879416  0.879416  0.337792  1
  Pb  Pb8  1  0.500000  0.000000  0.500000  1
  Pb  Pb9  1  0.000000  0.500000  0.500000  1
  Pb  Pb10  1  0.541624  0.541624  0.662208  1
