# generated using pymatgen
data_Li2CaThSi3
_symmetry_space_group_name_H-M   'P 1'
_cell_length_a   9.48144994
_cell_length_b   9.48144999
_cell_length_c   6.82375400
_cell_angle_alpha   90.00000000
_cell_angle_beta   90.00000000
_cell_angle_gamma   153.26341997
_symmetry_Int_Tables_number   1
_chemical_formula_structural   Li2CaThSi3
_chemical_formula_sum   'Li4 Ca2 Th2 Si6'
_cell_volume   275.98057499
_cell_formula_units_Z   2
loop_
 _symmetry_equiv_pos_site_id
 _symmetry_equiv_pos_as_xyz
  1  'x, y, z'
loop_
 _atom_site_type_symbol
 _atom_site_label
 _atom_site_symmetry_multiplicity
 _atom_site_fract_x
 _atom_site_fract_y
 _atom_site_fract_z
 _atom_site_occupancy
  Li  Li0  1  0.809283  0.190717  0.557163  1
  Li  Li1  1  0.190717  0.809283  0.442837  1
  Li  Li2  1  0.190717  0.809283  0.057163  1
  Li  Li3  1  0.809283  0.190717  0.942837  1
  Ca  Ca4  1  0.341057  0.658943  0.250000  1
  Ca  Ca5  1  0.658943  0.341057  0.750000  1
  Th  Th6  1  0.554263  0.445737  0.250000  1
  Th  Th7  1  0.445737  0.554263  0.750000  1
  Si  Si8  1  0.941619  0.058381  0.074057  1
  Si  Si9  1  0.058381  0.941619  0.925943  1
  Si  Si10  1  0.058381  0.941619  0.574057  1
  Si  Si11  1  0.941619  0.058381  0.425943  1
  Si  Si12  1  0.716931  0.283069  0.250000  1
  Si  Si13  1  0.283069  0.716931  0.750000  1
