# generated using pymatgen
data_Na4ErFe3(P3Ir4)4
_symmetry_space_group_name_H-M   'P 1'
_cell_length_a   12.51892494
_cell_length_b   12.53098632
_cell_length_c   3.89672000
_cell_angle_alpha   90.00000000
_cell_angle_beta   90.00000000
_cell_angle_gamma   120.03188139
_symmetry_Int_Tables_number   1
_chemical_formula_structural   Na4ErFe3(P3Ir4)4
_chemical_formula_sum   'Na4 Er1 Fe3 P12 Ir16'
_cell_volume   529.22763415
_cell_formula_units_Z   1
loop_
 _symmetry_equiv_pos_site_id
 _symmetry_equiv_pos_as_xyz
  1  'x, y, z'
loop_
 _atom_site_type_symbol
 _atom_site_label
 _atom_site_symmetry_multiplicity
 _atom_site_fract_x
 _atom_site_fract_y
 _atom_site_fract_z
 _atom_site_occupancy
  Na  Na0  1  0.667590  0.333772  0.000000  1
  Na  Na1  1  0.332410  0.666183  0.000000  1
  Na  Na2  1  0.821113  0.819505  0.500000  1
  Na  Na3  1  0.178887  0.998392  0.500000  1
  Er  Er4  1  0.000000  0.173217  0.500000  1
  Fe  Fe5  1  0.292421  0.294355  0.500000  1
  Fe  Fe6  1  0.707579  0.001934  0.500000  1
  Fe  Fe7  1  0.000000  0.706291  0.500000  1
  P  P8  1  0.684651  0.165490  0.500000  1
  P  P9  1  0.833968  0.520103  0.500000  1
  P  P10  1  0.480099  0.315422  0.500000  1
  P  P11  1  0.166032  0.686135  0.500000  1
  P  P12  1  0.519901  0.835323  0.500000  1
  P  P13  1  0.315349  0.480840  0.500000  1
  P  P14  1  0.639084  0.639770  0.000000  1
  P  P15  1  0.360916  0.000686  0.000000  1
  P  P16  1  0.000000  0.360993  0.000000  1
  P  P17  1  0.184857  0.181368  0.000000  1
  P  P18  1  0.815143  0.996511  0.000000  1
  P  P19  1  0.000000  0.815645  0.000000  1
  Ir  Ir20  1  0.807046  0.177065  0.000000  1
  Ir  Ir21  1  0.821297  0.623581  0.000000  1
  Ir  Ir22  1  0.376942  0.199265  0.000000  1
  Ir  Ir23  1  0.178703  0.802284  0.000000  1
  Ir  Ir24  1  0.623058  0.822323  0.000000  1
  Ir  Ir25  1  0.192954  0.370018  0.000000  1
  Ir  Ir26  1  0.451456  0.456394  0.000000  1
  Ir  Ir27  1  0.548544  0.004939  0.000000  1
  Ir  Ir28  1  0.000000  0.545078  0.000000  1
  Ir  Ir29  1  0.869327  0.356845  0.500000  1
  Ir  Ir30  1  0.641201  0.513353  0.500000  1
  Ir  Ir31  1  0.487547  0.131386  0.500000  1
  Ir  Ir32  1  0.358799  0.872151  0.500000  1
  Ir  Ir33  1  0.512453  0.643839  0.500000  1
  Ir  Ir34  1  0.130673  0.487517  0.500000  1
  Ir  Ir35  1  0.000000  0.002028  0.000000  1
