# generated using pymatgen
data_Tm3CoSn4Ir
_symmetry_space_group_name_H-M   'P 1'
_cell_length_a   7.46119700
_cell_length_b   7.46119662
_cell_length_c   4.10306300
_cell_angle_alpha   90.00000000
_cell_angle_beta   90.00000000
_cell_angle_gamma   119.99999723
_symmetry_Int_Tables_number   1
_chemical_formula_structural   Tm3CoSn4Ir
_chemical_formula_sum   'Tm3 Co1 Sn4 Ir1'
_cell_volume   197.81345172
_cell_formula_units_Z   1
loop_
 _symmetry_equiv_pos_site_id
 _symmetry_equiv_pos_as_xyz
  1  'x, y, z'
loop_
 _atom_site_type_symbol
 _atom_site_label
 _atom_site_symmetry_multiplicity
 _atom_site_fract_x
 _atom_site_fract_y
 _atom_site_fract_z
 _atom_site_occupancy
  Tm  Tm0  1  0.309207  0.251536  0.500000  1
  Tm  Tm1  1  0.748464  0.057671  0.500000  1
  Tm  Tm2  1  0.942329  0.690793  0.500000  1
  Co  Co3  1  0.333333  0.666667  0.500000  1
  Sn  Sn4  1  0.100297  0.415893  0.000000  1
  Sn  Sn5  1  0.584107  0.684405  0.000000  1
  Sn  Sn6  1  0.315595  0.899703  0.000000  1
  Sn  Sn7  1  0.666667  0.333333  0.000000  1
  Ir  Ir8  1  0.000000  0.000000  0.000000  1
