# generated using pymatgen
data_Zr2Mn9CoAs6
_symmetry_space_group_name_H-M   'P 1'
_cell_length_a   3.65037800
_cell_length_b   12.63086429
_cell_length_c   11.09978944
_cell_angle_alpha   90.11391207
_cell_angle_beta   90.00000000
_cell_angle_gamma   90.00000000
_symmetry_Int_Tables_number   1
_chemical_formula_structural   Zr2Mn9CoAs6
_chemical_formula_sum   'Zr4 Mn18 Co2 As12'
_cell_volume   511.78174350
_cell_formula_units_Z   2
loop_
 _symmetry_equiv_pos_site_id
 _symmetry_equiv_pos_as_xyz
  1  'x, y, z'
loop_
 _atom_site_type_symbol
 _atom_site_label
 _atom_site_symmetry_multiplicity
 _atom_site_fract_x
 _atom_site_fract_y
 _atom_site_fract_z
 _atom_site_occupancy
  Zr  Zr0  1  0.750000  0.702550  0.080293  1
  Zr  Zr1  1  0.250000  0.297450  0.919707  1
  Zr  Zr2  1  0.250000  0.792069  0.582847  1
  Zr  Zr3  1  0.750000  0.207931  0.417153  1
  Mn  Mn4  1  0.750000  0.688947  0.380150  1
  Mn  Mn5  1  0.250000  0.311053  0.619850  1
  Mn  Mn6  1  0.250000  0.804172  0.882285  1
  Mn  Mn7  1  0.750000  0.195828  0.117715  1
  Mn  Mn8  1  0.750000  0.978644  0.217036  1
  Mn  Mn9  1  0.250000  0.021356  0.782964  1
  Mn  Mn10  1  0.250000  0.528132  0.712346  1
  Mn  Mn11  1  0.750000  0.471868  0.287654  1
  Mn  Mn12  1  0.750000  0.682507  0.792026  1
  Mn  Mn13  1  0.250000  0.317493  0.207974  1
  Mn  Mn14  1  0.250000  0.810708  0.289322  1
  Mn  Mn15  1  0.750000  0.189292  0.710678  1
  Mn  Mn16  1  0.750000  0.933986  0.963663  1
  Mn  Mn17  1  0.250000  0.066014  0.036337  1
  Mn  Mn18  1  0.250000  0.565150  0.462592  1
  Mn  Mn19  1  0.750000  0.434850  0.537408  1
  Mn  Mn20  1  0.750000  0.995179  0.587450  1
  Mn  Mn21  1  0.250000  0.004821  0.412550  1
  Co  Co22  1  0.250000  0.509963  0.090254  1
  Co  Co23  1  0.750000  0.490036  0.909746  1
  As  As24  1  0.750000  0.621501  0.589639  1
  As  As25  1  0.250000  0.378499  0.410361  1
  As  As26  1  0.250000  0.877724  0.090241  1
  As  As27  1  0.750000  0.122276  0.909759  1
  As  As28  1  0.750000  0.877251  0.413676  1
  As  As29  1  0.250000  0.122749  0.586324  1
  As  As30  1  0.250000  0.610826  0.915439  1
  As  As31  1  0.750000  0.389174  0.084561  1
  As  As32  1  0.750000  0.874731  0.757246  1
  As  As33  1  0.250000  0.125269  0.242754  1
  As  As34  1  0.250000  0.619789  0.255553  1
  As  As35  1  0.750000  0.380211  0.744447  1
