# generated using pymatgen
data_Tb3Ho9Ga2(NiRu)2
_symmetry_space_group_name_H-M   'P 1'
_cell_length_a   8.33054803
_cell_length_b   8.32821030
_cell_length_c   8.32847513
_cell_angle_alpha   113.01907190
_cell_angle_beta   110.14220560
_cell_angle_gamma   105.33251455
_symmetry_Int_Tables_number   1
_chemical_formula_structural   Tb3Ho9Ga2(NiRu)2
_chemical_formula_sum   'Tb3 Ho9 Ga2 Ni2 Ru2'
_cell_volume   442.84467728
_cell_formula_units_Z   1
loop_
 _symmetry_equiv_pos_site_id
 _symmetry_equiv_pos_as_xyz
  1  'x, y, z'
loop_
 _atom_site_type_symbol
 _atom_site_label
 _atom_site_symmetry_multiplicity
 _atom_site_fract_x
 _atom_site_fract_y
 _atom_site_fract_z
 _atom_site_occupancy
  Tb  Tb0  1  0.435813  0.242241  0.193594  1
  Tb  Tb1  1  0.564269  0.757519  0.806727  1
  Tb  Tb2  1  0.049190  0.242538  0.806673  1
  Ho  Ho3  1  0.951967  0.758089  0.193858  1
  Ho  Ho4  1  0.179195  0.278554  0.458288  1
  Ho  Ho5  1  0.820527  0.720843  0.540750  1
  Ho  Ho6  1  0.179212  0.720919  0.900657  1
  Ho  Ho7  1  0.820505  0.279759  0.099667  1
  Ho  Ho8  1  0.328958  0.641697  0.311786  1
  Ho  Ho9  1  0.670959  0.358970  0.688713  1
  Ho  Ho10  1  0.328974  0.017176  0.687259  1
  Ho  Ho11  1  0.670940  0.982243  0.311986  1
  Ga  Ga12  1  0.501171  0.500524  0.000647  1
  Ga  Ga13  1  0.999577  0.999144  0.000435  1
  Ni  Ni14  1  0.116880  0.617727  0.499148  1
  Ni  Ni15  1  0.882475  0.382400  0.500086  1
  Ru  Ru16  1  0.329363  0.999660  0.329684  1
  Ru  Ru17  1  0.670026  0.999996  0.670041  1
