# generated using pymatgen
data_Li2Y3AgPb3
_symmetry_space_group_name_H-M   'P 1'
_cell_length_a   7.43381790
_cell_length_b   7.44858863
_cell_length_c   4.63714100
_cell_angle_alpha   90.00000000
_cell_angle_beta   90.00000000
_cell_angle_gamma   120.06576725
_symmetry_Int_Tables_number   1
_chemical_formula_structural   Li2Y3AgPb3
_chemical_formula_sum   'Li2 Y3 Ag1 Pb3'
_cell_volume   222.21769887
_cell_formula_units_Z   1
loop_
 _symmetry_equiv_pos_site_id
 _symmetry_equiv_pos_as_xyz
  1  'x, y, z'
loop_
 _atom_site_type_symbol
 _atom_site_label
 _atom_site_symmetry_multiplicity
 _atom_site_fract_x
 _atom_site_fract_y
 _atom_site_fract_z
 _atom_site_occupancy
  Li  Li0  1  0.233941  0.003619  0.000000  1
  Li  Li1  1  0.766059  0.769679  0.000000  1
  Y  Y2  1  0.573803  0.003914  0.500000  1
  Y  Y3  1  0.426197  0.430111  0.500000  1
  Y  Y4  1  0.000000  0.555723  0.500000  1
  Ag  Ag5  1  0.000000  0.237773  0.000000  1
  Pb  Pb6  1  0.000000  0.987063  0.500000  1
  Pb  Pb7  1  0.341222  0.676672  0.000000  1
  Pb  Pb8  1  0.658778  0.335448  0.000000  1
