# generated using pymatgen
data_Nd5Co19(Si5P)2
_symmetry_space_group_name_H-M   'P 1'
_cell_length_a   12.28671500
_cell_length_b   12.30778358
_cell_length_c   3.77414800
_cell_angle_alpha   90.00000000
_cell_angle_beta   90.00000000
_cell_angle_gamma   119.94339261
_symmetry_Int_Tables_number   1
_chemical_formula_structural   Nd5Co19(Si5P)2
_chemical_formula_sum   'Nd5 Co19 Si10 P2'
_cell_volume   494.55277042
_cell_formula_units_Z   1
loop_
 _symmetry_equiv_pos_site_id
 _symmetry_equiv_pos_as_xyz
  1  'x, y, z'
loop_
 _atom_site_type_symbol
 _atom_site_label
 _atom_site_symmetry_multiplicity
 _atom_site_fract_x
 _atom_site_fract_y
 _atom_site_fract_z
 _atom_site_occupancy
  Nd  Nd0  1  0.332748  0.666128  0.000000  1
  Nd  Nd1  1  0.666620  0.333872  0.000000  1
  Nd  Nd2  1  0.185572  0.000000  0.500000  1
  Nd  Nd3  1  0.000776  0.186236  0.500000  1
  Nd  Nd4  1  0.814539  0.813764  0.500000  1
  Co  Co5  1  0.198562  0.374232  0.000000  1
  Co  Co6  1  0.621787  0.819949  0.000000  1
  Co  Co7  1  0.175965  0.801563  0.000000  1
  Co  Co8  1  0.824330  0.625768  0.000000  1
  Co  Co9  1  0.801838  0.180051  0.000000  1
  Co  Co10  1  0.374401  0.198437  0.000000  1
  Co  Co11  1  0.559409  0.000000  0.000000  1
  Co  Co12  1  0.000697  0.559699  0.000000  1
  Co  Co13  1  0.440998  0.440301  0.000000  1
  Co  Co14  1  0.122363  0.478991  0.500000  1
  Co  Co15  1  0.520460  0.641906  0.500000  1
  Co  Co16  1  0.356461  0.877819  0.500000  1
  Co  Co17  1  0.643373  0.521009  0.500000  1
  Co  Co18  1  0.878553  0.358094  0.500000  1
  Co  Co19  1  0.478642  0.122181  0.500000  1
  Co  Co20  1  0.717232  0.000000  0.500000  1
  Co  Co21  1  0.000046  0.720946  0.500000  1
  Co  Co22  1  0.279100  0.279054  0.500000  1
  Co  Co23  1  0.004222  0.000000  0.000000  1
  Si  Si24  1  0.374367  0.000000  0.000000  1
  Si  Si25  1  0.000258  0.374344  0.000000  1
  Si  Si26  1  0.625914  0.625656  0.000000  1
  Si  Si27  1  0.317425  0.475214  0.500000  1
  Si  Si28  1  0.524207  0.840928  0.500000  1
  Si  Si29  1  0.158113  0.682631  0.500000  1
  Si  Si30  1  0.842211  0.524786  0.500000  1
  Si  Si31  1  0.683280  0.159072  0.500000  1
  Si  Si32  1  0.475482  0.317369  0.500000  1
  Si  Si33  1  0.813736  0.000000  0.000000  1
  P  P34  1  0.000240  0.814166  0.000000  1
  P  P35  1  0.186074  0.185834  0.000000  1
