# generated using pymatgen
data_Dy5HfUO12
_symmetry_space_group_name_H-M   'P 1'
_cell_length_a   6.67950914
_cell_length_b   6.53968014
_cell_length_c   6.46511800
_cell_angle_alpha   99.41741907
_cell_angle_beta   98.78476435
_cell_angle_gamma   99.73619317
_symmetry_Int_Tables_number   1
_chemical_formula_structural   Dy5HfUO12
_chemical_formula_sum   'Dy5 Hf1 U1 O12'
_cell_volume   269.82211346
_cell_formula_units_Z   1
loop_
 _symmetry_equiv_pos_site_id
 _symmetry_equiv_pos_as_xyz
  1  'x, y, z'
loop_
 _atom_site_type_symbol
 _atom_site_label
 _atom_site_symmetry_multiplicity
 _atom_site_fract_x
 _atom_site_fract_y
 _atom_site_fract_z
 _atom_site_occupancy
  Dy  Dy0  1  0.858391  0.685304  0.387417  1
  Dy  Dy1  1  0.391561  0.861550  0.692129  1
  Dy  Dy2  1  0.327871  0.605761  0.152754  1
  Dy  Dy3  1  0.137862  0.311035  0.610322  1
  Dy  Dy4  1  0.608308  0.138006  0.313705  1
  Hf  Hf5  1  0.663151  0.394087  0.849514  1
  U  U6  1  0.997412  0.998304  0.994434  1
  O  O7  1  0.432843  0.188034  0.594541  1
  O  O8  1  0.593199  0.425506  0.167965  1
  O  O9  1  0.172758  0.585649  0.432834  1
  O  O10  1  0.574301  0.820072  0.422238  1
  O  O11  1  0.435525  0.568283  0.821136  1
  O  O12  1  0.814353  0.412947  0.592278  1
  O  O13  1  0.104186  0.310744  0.956954  1
  O  O14  1  0.689133  0.086784  0.916183  1
  O  O15  1  0.056878  0.929802  0.681445  1
  O  O16  1  0.890455  0.672731  0.026985  1
  O  O17  1  0.311206  0.934264  0.074805  1
  O  O18  1  0.940606  0.071136  0.312359  1
