# generated using pymatgen
data_Nd3Ho3(BiO7)2
_symmetry_space_group_name_H-M   'P 1'
_cell_length_a   6.64764510
_cell_length_b   6.65083792
_cell_length_c   7.80422519
_cell_angle_alpha   106.95754835
_cell_angle_beta   89.85889067
_cell_angle_gamma   99.04919414
_symmetry_Int_Tables_number   1
_chemical_formula_structural   Nd3Ho3(BiO7)2
_chemical_formula_sum   'Nd3 Ho3 Bi2 O14'
_cell_volume   325.58932786
_cell_formula_units_Z   1
loop_
 _symmetry_equiv_pos_site_id
 _symmetry_equiv_pos_as_xyz
  1  'x, y, z'
loop_
 _atom_site_type_symbol
 _atom_site_label
 _atom_site_symmetry_multiplicity
 _atom_site_fract_x
 _atom_site_fract_y
 _atom_site_fract_z
 _atom_site_occupancy
  Nd  Nd0  1  0.728955  0.460911  0.114533  1
  Nd  Nd1  1  0.737786  0.480054  0.619316  1
  Nd  Nd2  1  0.259879  0.521118  0.384140  1
  Ho  Ho3  1  0.462631  0.004890  0.251994  1
  Ho  Ho4  1  0.534962  0.993327  0.747467  1
  Ho  Ho5  1  0.272328  0.539560  0.883813  1
  Bi  Bi6  1  0.001687  0.002889  0.502253  1
  Bi  Bi7  1  0.003449  0.000248  0.998299  1
  O  O8  1  0.441181  0.654258  0.161344  1
  O  O9  1  0.541018  0.343558  0.831430  1
  O  O10  1  0.304324  0.927216  0.953558  1
  O  O11  1  0.699800  0.066941  0.047467  1
  O  O12  1  0.301157  0.932223  0.513673  1
  O  O13  1  0.701274  0.067308  0.484759  1
  O  O14  1  0.543407  0.355924  0.343396  1
  O  O15  1  0.451142  0.643986  0.663829  1
  O  O16  1  0.934370  0.665921  0.949303  1
  O  O17  1  0.079665  0.331626  0.038699  1
  O  O18  1  0.075475  0.344588  0.624395  1
  O  O19  1  0.928281  0.659209  0.385300  1
  O  O20  1  0.873115  0.912931  0.727571  1
  O  O21  1  0.124113  0.091315  0.273461  1
