# generated using pymatgen
data_Tb4Cu2Ru5W
_symmetry_space_group_name_H-M   'P 1'
_cell_length_a   5.25972556
_cell_length_b   5.14692202
_cell_length_c   8.92396000
_cell_angle_alpha   90.00000000
_cell_angle_beta   90.00000000
_cell_angle_gamma   115.95944362
_symmetry_Int_Tables_number   1
_chemical_formula_structural   Tb4Cu2Ru5W
_chemical_formula_sum   'Tb4 Cu2 Ru5 W1'
_cell_volume   217.20922944
_cell_formula_units_Z   1
loop_
 _symmetry_equiv_pos_site_id
 _symmetry_equiv_pos_as_xyz
  1  'x, y, z'
loop_
 _atom_site_type_symbol
 _atom_site_label
 _atom_site_symmetry_multiplicity
 _atom_site_fract_x
 _atom_site_fract_y
 _atom_site_fract_z
 _atom_site_occupancy
  Tb  Tb0  1  0.321161  0.668933  0.439040  1
  Tb  Tb1  1  0.661803  0.332539  0.566676  1
  Tb  Tb2  1  0.661803  0.332539  0.933324  1
  Tb  Tb3  1  0.321161  0.668933  0.060960  1
  Cu  Cu4  1  0.187319  0.840723  0.750000  1
  Cu  Cu5  1  0.179796  0.340658  0.750000  1
  Ru  Ru6  1  0.979275  0.000188  0.503465  1
  Ru  Ru7  1  0.979275  0.000188  0.996535  1
  Ru  Ru8  1  0.827841  0.647186  0.250000  1
  Ru  Ru9  1  0.349404  0.166361  0.250000  1
  Ru  Ru10  1  0.690213  0.845033  0.750000  1
  W  W11  1  0.840949  0.156719  0.250000  1
