# generated using pymatgen
data_SmY3(AgO3)4
_symmetry_space_group_name_H-M   'P 1'
_cell_length_a   3.86889260
_cell_length_b   5.61610800
_cell_length_c   12.98459500
_cell_angle_alpha   90.00002040
_cell_angle_beta   89.74077628
_cell_angle_gamma   90.00007151
_symmetry_Int_Tables_number   1
_chemical_formula_structural   SmY3(AgO3)4
_chemical_formula_sum   'Sm1 Y3 Ag4 O12'
_cell_volume   282.12793345
_cell_formula_units_Z   1
loop_
 _symmetry_equiv_pos_site_id
 _symmetry_equiv_pos_as_xyz
  1  'x, y, z'
loop_
 _atom_site_type_symbol
 _atom_site_label
 _atom_site_symmetry_multiplicity
 _atom_site_fract_x
 _atom_site_fract_y
 _atom_site_fract_z
 _atom_site_occupancy
  Sm  Sm0  1  0.737298  0.749999  0.575617  1
  Y  Y1  1  0.261359  0.749999  0.076255  1
  Y  Y2  1  0.256580  0.250001  0.422471  1
  Y  Y3  1  0.743114  0.250001  0.925191  1
  Ag  Ag4  1  0.074205  0.749999  0.830682  1
  Ag  Ag5  1  0.068158  0.250000  0.672321  1
  Ag  Ag6  1  0.929551  0.250001  0.170822  1
  Ag  Ag7  1  0.927696  0.750000  0.326746  1
  O  O8  1  0.200549  0.500379  0.248588  1
  O  O9  1  0.802688  0.001983  0.753743  1
  O  O10  1  0.802691  0.498013  0.753744  1
  O  O11  1  0.200549  0.999623  0.248589  1
  O  O12  1  0.745680  0.501446  0.074629  1
  O  O13  1  0.742606  0.497132  0.422664  1
  O  O14  1  0.258292  0.001047  0.927077  1
  O  O15  1  0.251205  0.004173  0.573244  1
  O  O16  1  0.742607  0.002866  0.422664  1
  O  O17  1  0.745678  0.998557  0.074630  1
  O  O18  1  0.251203  0.495830  0.573244  1
  O  O19  1  0.258292  0.498951  0.927077  1
