# generated using pymatgen
data_LaPrU(BiO3)4
_symmetry_space_group_name_H-M   'P 1'
_cell_length_a   7.00000889
_cell_length_b   6.95038317
_cell_length_c   6.78380266
_cell_angle_alpha   98.38035296
_cell_angle_beta   99.12140067
_cell_angle_gamma   101.84567208
_symmetry_Int_Tables_number   1
_chemical_formula_structural   LaPrU(BiO3)4
_chemical_formula_sum   'La1 Pr1 U1 Bi4 O12'
_cell_volume   313.46192827
_cell_formula_units_Z   1
loop_
 _symmetry_equiv_pos_site_id
 _symmetry_equiv_pos_as_xyz
  1  'x, y, z'
loop_
 _atom_site_type_symbol
 _atom_site_label
 _atom_site_symmetry_multiplicity
 _atom_site_fract_x
 _atom_site_fract_y
 _atom_site_fract_z
 _atom_site_occupancy
  La  La0  1  0.138273  0.299643  0.605354  1
  Pr  Pr1  1  0.861465  0.701232  0.391850  1
  U  U2  1  0.999592  0.999056  0.999695  1
  Bi  Bi3  1  0.316050  0.597833  0.153610  1
  Bi  Bi4  1  0.586758  0.151686  0.314810  1
  Bi  Bi5  1  0.413716  0.848581  0.684631  1
  Bi  Bi6  1  0.685031  0.402972  0.846475  1
  O  O7  1  0.431213  0.178243  0.568585  1
  O  O8  1  0.904766  0.694623  0.037245  1
  O  O9  1  0.172837  0.581222  0.421586  1
  O  O10  1  0.826396  0.422134  0.577793  1
  O  O11  1  0.569347  0.821494  0.431279  1
  O  O12  1  0.556858  0.437680  0.202287  1
  O  O13  1  0.445288  0.564120  0.799272  1
  O  O14  1  0.958741  0.058044  0.299382  1
  O  O15  1  0.038829  0.937916  0.700159  1
  O  O16  1  0.710051  0.017658  0.899641  1
  O  O17  1  0.094810  0.303501  0.965623  1
  O  O18  1  0.289978  0.982362  0.100724  1
