# generated using pymatgen
data_Dy3Y(CoOs)4
_symmetry_space_group_name_H-M   'P 1'
_cell_length_a   5.21212060
_cell_length_b   5.08436049
_cell_length_c   9.03032328
_cell_angle_alpha   73.64931026
_cell_angle_beta   89.67154746
_cell_angle_gamma   119.19239891
_symmetry_Int_Tables_number   1
_chemical_formula_structural   Dy3Y(CoOs)4
_chemical_formula_sum   'Dy3 Y1 Co4 Os4'
_cell_volume   197.51797267
_cell_formula_units_Z   1
loop_
 _symmetry_equiv_pos_site_id
 _symmetry_equiv_pos_as_xyz
  1  'x, y, z'
loop_
 _atom_site_type_symbol
 _atom_site_label
 _atom_site_symmetry_multiplicity
 _atom_site_fract_x
 _atom_site_fract_y
 _atom_site_fract_z
 _atom_site_occupancy
  Dy  Dy0  1  0.378250  0.752123  0.874004  1
  Dy  Dy1  1  0.996817  0.997992  0.000833  1
  Dy  Dy2  1  0.496512  0.997661  0.501189  1
  Y  Y3  1  0.877944  0.751906  0.374131  1
  Co  Co4  1  0.187637  0.375006  0.437624  1
  Co  Co5  1  0.687495  0.375026  0.937443  1
  Co  Co6  1  0.937696  0.375416  0.186863  1
  Co  Co7  1  0.437255  0.374606  0.688044  1
  Os  Os8  1  0.437550  0.375205  0.187148  1
  Os  Os9  1  0.937646  0.374743  0.687786  1
  Os  Os10  1  0.437550  0.875198  0.187148  1
  Os  Os11  1  0.937646  0.875117  0.687786  1
