# generated using pymatgen
data_LaTh2Sn3IrRh2
_symmetry_space_group_name_H-M   'P 1'
_cell_length_a   7.60177479
_cell_length_b   7.63419011
_cell_length_c   4.12270600
_cell_angle_alpha   90.00000000
_cell_angle_beta   90.00000000
_cell_angle_gamma   119.78098324
_symmetry_Int_Tables_number   1
_chemical_formula_structural   LaTh2Sn3IrRh2
_chemical_formula_sum   'La1 Th2 Sn3 Ir1 Rh2'
_cell_volume   207.65634804
_cell_formula_units_Z   1
loop_
 _symmetry_equiv_pos_site_id
 _symmetry_equiv_pos_as_xyz
  1  'x, y, z'
loop_
 _atom_site_type_symbol
 _atom_site_label
 _atom_site_symmetry_multiplicity
 _atom_site_fract_x
 _atom_site_fract_y
 _atom_site_fract_z
 _atom_site_occupancy
  La  La0  1  0.586654  0.999529  0.000000  1
  Th  Th1  1  0.000598  0.586302  0.000000  1
  Th  Th2  1  0.412987  0.414907  0.000000  1
  Sn  Sn3  1  0.751418  0.754723  0.500000  1
  Sn  Sn4  1  0.994829  0.244034  0.500000  1
  Sn  Sn5  1  0.254753  0.000784  0.500000  1
  Ir  Ir6  1  0.319306  0.649996  0.500000  1
  Rh  Rh7  1  0.669145  0.349657  0.500000  1
  Rh  Rh8  1  0.010310  0.000069  0.000000  1
