# generated using pymatgen
data_Yb8CoRhO12
_symmetry_space_group_name_H-M   'P 1'
_cell_length_a   6.39217649
_cell_length_b   6.39217617
_cell_length_c   6.39217564
_cell_angle_alpha   90.34352033
_cell_angle_beta   90.34351090
_cell_angle_gamma   90.34352688
_symmetry_Int_Tables_number   1
_chemical_formula_structural   Yb8CoRhO12
_chemical_formula_sum   'Yb8 Co1 Rh1 O12'
_cell_volume   261.16963480
_cell_formula_units_Z   1
loop_
 _symmetry_equiv_pos_site_id
 _symmetry_equiv_pos_as_xyz
  1  'x, y, z'
loop_
 _atom_site_type_symbol
 _atom_site_label
 _atom_site_symmetry_multiplicity
 _atom_site_fract_x
 _atom_site_fract_y
 _atom_site_fract_z
 _atom_site_occupancy
  Yb  Yb0  1  0.884816  0.622809  0.240370  1
  Yb  Yb1  1  0.115184  0.377191  0.759630  1
  Yb  Yb2  1  0.240370  0.884816  0.622809  1
  Yb  Yb3  1  0.622809  0.240370  0.884816  1
  Yb  Yb4  1  0.753629  0.753629  0.753629  1
  Yb  Yb5  1  0.377191  0.759630  0.115184  1
  Yb  Yb6  1  0.246371  0.246371  0.246371  1
  Yb  Yb7  1  0.759630  0.115184  0.377191  1
  Co  Co8  1  0.000000  0.000000  0.000000  1
  Rh  Rh9  1  0.500000  0.500000  0.500000  1
  O  O10  1  0.442308  0.574102  0.799222  1
  O  O11  1  0.574102  0.799222  0.442308  1
  O  O12  1  0.941711  0.290952  0.076262  1
  O  O13  1  0.557692  0.425898  0.200778  1
  O  O14  1  0.200778  0.557692  0.425898  1
  O  O15  1  0.058289  0.709048  0.923738  1
  O  O16  1  0.799222  0.442308  0.574102  1
  O  O17  1  0.709048  0.923738  0.058289  1
  O  O18  1  0.076262  0.941711  0.290952  1
  O  O19  1  0.923738  0.058289  0.709048  1
  O  O20  1  0.425898  0.200778  0.557692  1
  O  O21  1  0.290952  0.076262  0.941711  1
