# generated using pymatgen
data_Nb12Al9Ru3C4
_symmetry_space_group_name_H-M   'P 1'
_cell_length_a   8.35102873
_cell_length_b   8.35102933
_cell_length_c   8.35102775
_cell_angle_alpha   60.14781541
_cell_angle_beta   60.14782164
_cell_angle_gamma   60.14781831
_symmetry_Int_Tables_number   1
_chemical_formula_structural   Nb12Al9Ru3C4
_chemical_formula_sum   'Nb12 Al9 Ru3 C4'
_cell_volume   413.19649113
_cell_formula_units_Z   1
loop_
 _symmetry_equiv_pos_site_id
 _symmetry_equiv_pos_as_xyz
  1  'x, y, z'
loop_
 _atom_site_type_symbol
 _atom_site_label
 _atom_site_symmetry_multiplicity
 _atom_site_fract_x
 _atom_site_fract_y
 _atom_site_fract_z
 _atom_site_occupancy
  Nb  Nb0  1  0.686754  0.313274  0.686754  1
  Nb  Nb1  1  0.936726  0.563246  0.563246  1
  Nb  Nb2  1  0.559343  0.940542  0.940542  1
  Nb  Nb3  1  0.940542  0.559343  0.940542  1
  Nb  Nb4  1  0.563246  0.563246  0.936726  1
  Nb  Nb5  1  0.940542  0.940542  0.559343  1
  Nb  Nb6  1  0.686754  0.686754  0.313274  1
  Nb  Nb7  1  0.313274  0.686754  0.686754  1
  Nb  Nb8  1  0.690657  0.309458  0.309458  1
  Nb  Nb9  1  0.309458  0.309458  0.690657  1
  Nb  Nb10  1  0.563246  0.936726  0.563246  1
  Nb  Nb11  1  0.309458  0.690657  0.309458  1
  Al  Al12  1  0.125000  0.125000  0.125000  1
  Al  Al13  1  0.334706  0.334706  0.334706  1
  Al  Al14  1  0.252446  0.910860  0.910860  1
  Al  Al15  1  0.910860  0.252446  0.910860  1
  Al  Al16  1  0.910860  0.910860  0.252446  1
  Al  Al17  1  0.339140  0.997554  0.339140  1
  Al  Al18  1  0.339140  0.339140  0.997554  1
  Al  Al19  1  0.997554  0.339140  0.339140  1
  Al  Al20  1  0.915294  0.915294  0.915294  1
  Ru  Ru21  1  0.625000  0.125000  0.125000  1
  Ru  Ru22  1  0.125000  0.625000  0.125000  1
  Ru  Ru23  1  0.125000  0.125000  0.625000  1
  C  C24  1  0.625000  0.625000  0.625000  1
  C  C25  1  0.125000  0.625000  0.625000  1
  C  C26  1  0.625000  0.125000  0.625000  1
  C  C27  1  0.625000  0.625000  0.125000  1
