# generated using pymatgen
data_Sc12Ru3Br16
_symmetry_space_group_name_H-M   'P 1'
_cell_length_a   9.07652569
_cell_length_b   10.91131140
_cell_length_c   11.50140521
_cell_angle_alpha   117.03297972
_cell_angle_beta   102.07081755
_cell_angle_gamma   101.69764239
_symmetry_Int_Tables_number   1
_chemical_formula_structural   Sc12Ru3Br16
_chemical_formula_sum   'Sc12 Ru3 Br16'
_cell_volume   932.39642381
_cell_formula_units_Z   1
loop_
 _symmetry_equiv_pos_site_id
 _symmetry_equiv_pos_as_xyz
  1  'x, y, z'
loop_
 _atom_site_type_symbol
 _atom_site_label
 _atom_site_symmetry_multiplicity
 _atom_site_fract_x
 _atom_site_fract_y
 _atom_site_fract_z
 _atom_site_occupancy
  Sc  Sc0  1  0.075847  0.253298  0.348268  1
  Sc  Sc1  1  0.924153  0.746702  0.651732  1
  Sc  Sc2  1  0.782086  0.537439  0.317684  1
  Sc  Sc3  1  0.217914  0.462561  0.682316  1
  Sc  Sc4  1  0.278264  0.747437  0.651864  1
  Sc  Sc5  1  0.721736  0.252563  0.348136  1
  Sc  Sc6  1  0.136227  0.537530  0.317799  1
  Sc  Sc7  1  0.863773  0.462470  0.682201  1
  Sc  Sc8  1  0.399731  0.348853  0.259345  1
  Sc  Sc9  1  0.600269  0.651147  0.740655  1
  Sc  Sc10  1  0.455471  0.296044  0.521584  1
  Sc  Sc11  1  0.544529  0.703956  0.478416  1
  Ru  Ru12  1  0.000000  0.500000  0.500000  1
  Ru  Ru13  1  0.338177  0.500232  0.499301  1
  Ru  Ru14  1  0.661824  0.499768  0.500699  1
  Br  Br15  1  0.401188  0.747597  0.893549  1
  Br  Br16  1  0.598812  0.252403  0.106451  1
  Br  Br17  1  0.194946  0.982229  0.791828  1
  Br  Br18  1  0.805054  0.017771  0.208172  1
  Br  Br19  1  0.333357  0.082153  0.243176  1
  Br  Br20  1  0.666643  0.917847  0.756824  1
  Br  Br21  1  0.556742  0.436496  0.807479  1
  Br  Br22  1  0.443258  0.563504  0.192521  1
  Br  Br23  1  0.313171  0.834422  0.461992  1
  Br  Br24  1  0.686829  0.165578  0.538008  1
  Br  Br25  1  0.167137  0.164575  0.533955  1
  Br  Br26  1  0.832863  0.835425  0.466045  1
  Br  Br27  1  0.925384  0.582222  0.152271  1
  Br  Br28  1  0.074616  0.417778  0.847729  1
  Br  Br29  1  0.925955  0.746061  0.893506  1
  Br  Br30  1  0.074045  0.253939  0.106494  1
