# generated using pymatgen
data_YHoSc2(Al3Rh)6
_symmetry_space_group_name_H-M   'P 1'
_cell_length_a   7.50944015
_cell_length_b   7.51130673
_cell_length_c   9.39548700
_cell_angle_alpha   90.00000000
_cell_angle_beta   90.00000000
_cell_angle_gamma   119.47273508
_symmetry_Int_Tables_number   1
_chemical_formula_structural   YHoSc2(Al3Rh)6
_chemical_formula_sum   'Y1 Ho1 Sc2 Al18 Rh6'
_cell_volume   461.37705166
_cell_formula_units_Z   1
loop_
 _symmetry_equiv_pos_site_id
 _symmetry_equiv_pos_as_xyz
  1  'x, y, z'
loop_
 _atom_site_type_symbol
 _atom_site_label
 _atom_site_symmetry_multiplicity
 _atom_site_fract_x
 _atom_site_fract_y
 _atom_site_fract_z
 _atom_site_occupancy
  Y  Y0  1  0.993547  0.671646  0.250000  1
  Ho  Ho1  1  0.672078  0.993795  0.250000  1
  Sc  Sc2  1  0.004226  0.326467  0.750000  1
  Sc  Sc3  1  0.326657  0.004549  0.750000  1
  Al  Al4  1  0.129748  0.130369  0.250000  1
  Al  Al5  1  0.878641  0.878993  0.750000  1
  Al  Al6  1  0.001414  0.334976  0.070047  1
  Al  Al7  1  0.003430  0.664094  0.916814  1
  Al  Al8  1  0.003430  0.664094  0.583186  1
  Al  Al9  1  0.336010  0.001866  0.429922  1
  Al  Al10  1  0.001414  0.334976  0.429953  1
  Al  Al11  1  0.664089  0.003452  0.582310  1
  Al  Al12  1  0.664089  0.003452  0.917690  1
  Al  Al13  1  0.336010  0.001866  0.070078  1
  Al  Al14  1  0.329904  0.329926  0.559821  1
  Al  Al15  1  0.666473  0.666963  0.455862  1
  Al  Al16  1  0.666473  0.666963  0.044138  1
  Al  Al17  1  0.329904  0.329926  0.940179  1
  Al  Al18  1  0.340247  0.549377  0.250000  1
  Al  Al19  1  0.658654  0.441868  0.750000  1
  Al  Al20  1  0.548503  0.338228  0.250000  1
  Al  Al21  1  0.441974  0.659020  0.750000  1
  Rh  Rh22  1  0.672702  0.327875  0.998752  1
  Rh  Rh23  1  0.328246  0.672833  0.998726  1
  Rh  Rh24  1  0.328246  0.672833  0.501274  1
  Rh  Rh25  1  0.672702  0.327875  0.501248  1
  Rh  Rh26  1  0.000595  0.000860  0.998465  1
  Rh  Rh27  1  0.000595  0.000860  0.501535  1
