# generated using pymatgen
data_Ho4TmLu7Co4
_symmetry_space_group_name_H-M   'P 1'
_cell_length_a   6.11502068
_cell_length_b   6.85693625
_cell_length_c   9.18414842
_cell_angle_alpha   89.96900808
_cell_angle_beta   90.04223951
_cell_angle_gamma   89.98013012
_symmetry_Int_Tables_number   1
_chemical_formula_structural   Ho4TmLu7Co4
_chemical_formula_sum   'Ho4 Tm1 Lu7 Co4'
_cell_volume   385.09397826
_cell_formula_units_Z   1
loop_
 _symmetry_equiv_pos_site_id
 _symmetry_equiv_pos_as_xyz
  1  'x, y, z'
loop_
 _atom_site_type_symbol
 _atom_site_label
 _atom_site_symmetry_multiplicity
 _atom_site_fract_x
 _atom_site_fract_y
 _atom_site_fract_z
 _atom_site_occupancy
  Ho  Ho0  1  0.865265  0.541010  0.250469  1
  Ho  Ho1  1  0.634465  0.041666  0.250196  1
  Ho  Ho2  1  0.133849  0.458514  0.749617  1
  Ho  Ho3  1  0.366207  0.958770  0.749515  1
  Tm  Tm4  1  0.324269  0.674951  0.066396  1
  Lu  Lu5  1  0.175756  0.175036  0.433195  1
  Lu  Lu6  1  0.675103  0.324906  0.566482  1
  Lu  Lu7  1  0.824871  0.825048  0.933201  1
  Lu  Lu8  1  0.675434  0.324585  0.933210  1
  Lu  Lu9  1  0.825213  0.825331  0.566088  1
  Lu  Lu10  1  0.324964  0.675022  0.434039  1
  Lu  Lu11  1  0.175283  0.174989  0.066647  1
  Co  Co12  1  0.047675  0.887713  0.250853  1
  Co  Co13  1  0.451215  0.387380  0.250639  1
  Co  Co14  1  0.951883  0.112667  0.750188  1
  Co  Co15  1  0.548548  0.612413  0.749264  1
