# generated using pymatgen
data_Tb2ErGa6(Co2Ni)3
_symmetry_space_group_name_H-M   'P 1'
_cell_length_a   8.71067200
_cell_length_b   8.71067266
_cell_length_c   4.07228000
_cell_angle_alpha   90.00000000
_cell_angle_beta   90.00000000
_cell_angle_gamma   119.99999749
_symmetry_Int_Tables_number   1
_chemical_formula_structural   Tb2ErGa6(Co2Ni)3
_chemical_formula_sum   'Tb2 Er1 Ga6 Co6 Ni3'
_cell_volume   267.59107760
_cell_formula_units_Z   1
loop_
 _symmetry_equiv_pos_site_id
 _symmetry_equiv_pos_as_xyz
  1  'x, y, z'
loop_
 _atom_site_type_symbol
 _atom_site_label
 _atom_site_symmetry_multiplicity
 _atom_site_fract_x
 _atom_site_fract_y
 _atom_site_fract_z
 _atom_site_occupancy
  Tb  Tb0  1  0.666667  0.333333  0.500000  1
  Tb  Tb1  1  0.333333  0.666667  0.500000  1
  Er  Er2  1  0.000000  0.000000  0.000000  1
  Ga  Ga3  1  0.490728  0.490728  0.000000  1
  Ga  Ga4  1  0.509272  0.000000  0.000000  1
  Ga  Ga5  1  0.000000  0.509272  0.000000  1
  Ga  Ga6  1  0.727201  0.727201  0.500000  1
  Ga  Ga7  1  0.272799  0.000000  0.500000  1
  Ga  Ga8  1  0.000000  0.272799  0.500000  1
  Co  Co9  1  0.823266  0.186272  0.000000  1
  Co  Co10  1  0.813728  0.636994  0.000000  1
  Co  Co11  1  0.363006  0.176734  0.000000  1
  Co  Co12  1  0.186272  0.823266  0.000000  1
  Co  Co13  1  0.636994  0.813728  0.000000  1
  Co  Co14  1  0.176734  0.363006  0.000000  1
  Ni  Ni15  1  0.295133  0.295133  0.500000  1
  Ni  Ni16  1  0.704867  0.000000  0.500000  1
  Ni  Ni17  1  0.000000  0.704867  0.500000  1
