# generated using pymatgen
data_Li8Dy2Y6Sn7Sb
_symmetry_space_group_name_H-M   'P 1'
_cell_length_a   9.38620000
_cell_length_b   9.38493338
_cell_length_c   7.28627502
_cell_angle_alpha   90.07766511
_cell_angle_beta   90.00002795
_cell_angle_gamma   120.00402633
_symmetry_Int_Tables_number   1
_chemical_formula_structural   Li8Dy2Y6Sn7Sb
_chemical_formula_sum   'Li8 Dy2 Y6 Sn7 Sb1'
_cell_volume   555.82622744
_cell_formula_units_Z   1
loop_
 _symmetry_equiv_pos_site_id
 _symmetry_equiv_pos_as_xyz
  1  'x, y, z'
loop_
 _atom_site_type_symbol
 _atom_site_label
 _atom_site_symmetry_multiplicity
 _atom_site_fract_x
 _atom_site_fract_y
 _atom_site_fract_z
 _atom_site_occupancy
  Li  Li0  1  0.166732  0.333474  0.288483  1
  Li  Li1  1  0.166911  0.833250  0.288930  1
  Li  Li2  1  0.666336  0.833255  0.288927  1
  Li  Li3  1  0.833345  0.666679  0.788510  1
  Li  Li4  1  0.832440  0.166265  0.789480  1
  Li  Li5  1  0.333827  0.166264  0.789477  1
  Li  Li6  1  0.333668  0.667338  0.668970  1
  Li  Li7  1  0.666665  0.333330  0.170002  1
  Dy  Dy8  1  0.998958  0.997917  0.498567  1
  Dy  Dy9  1  0.998996  0.997990  0.001533  1
  Y  Y10  1  0.512492  0.024977  0.493650  1
  Y  Y11  1  0.514905  0.489393  0.491967  1
  Y  Y12  1  0.974500  0.489394  0.491959  1
  Y  Y13  1  0.487569  0.975145  0.994169  1
  Y  Y14  1  0.489811  0.512840  0.995016  1
  Y  Y15  1  0.023016  0.512837  0.995012  1
  Sn  Sn16  1  0.166411  0.832973  0.729993  1
  Sn  Sn17  1  0.666559  0.832969  0.729986  1
  Sn  Sn18  1  0.833378  0.666765  0.230422  1
  Sn  Sn19  1  0.833933  0.167092  0.230246  1
  Sn  Sn20  1  0.333160  0.167096  0.230241  1
  Sn  Sn21  1  0.332833  0.665666  0.261931  1
  Sn  Sn22  1  0.666909  0.333818  0.762500  1
  Sb  Sb23  1  0.166643  0.333276  0.732025  1
