# generated using pymatgen
data_ThGe4IrRh5
_symmetry_space_group_name_H-M   'P 1'
_cell_length_a   7.23547209
_cell_length_b   7.23547253
_cell_length_c   3.91016100
_cell_angle_alpha   90.00000000
_cell_angle_beta   90.00000000
_cell_angle_gamma   119.93709479
_symmetry_Int_Tables_number   1
_chemical_formula_structural   ThGe4IrRh5
_chemical_formula_sum   'Th1 Ge4 Ir1 Rh5'
_cell_volume   177.39198056
_cell_formula_units_Z   1
loop_
 _symmetry_equiv_pos_site_id
 _symmetry_equiv_pos_as_xyz
  1  'x, y, z'
loop_
 _atom_site_type_symbol
 _atom_site_label
 _atom_site_symmetry_multiplicity
 _atom_site_fract_x
 _atom_site_fract_y
 _atom_site_fract_z
 _atom_site_occupancy
  Th  Th0  1  0.999500  0.000500  0.000000  1
  Ge  Ge1  1  0.666245  0.333755  0.000000  1
  Ge  Ge2  1  0.199569  0.800431  0.500000  1
  Ge  Ge3  1  0.199619  0.398570  0.500000  1
  Ge  Ge4  1  0.601430  0.800381  0.500000  1
  Ir  Ir5  1  0.801845  0.198155  0.500000  1
  Rh  Rh6  1  0.467165  0.532835  0.000000  1
  Rh  Rh7  1  0.467032  0.934623  0.000000  1
  Rh  Rh8  1  0.065377  0.532968  0.000000  1
  Rh  Rh9  1  0.801627  0.602741  0.500000  1
  Rh  Rh10  1  0.397259  0.198373  0.500000  1
