# generated using pymatgen
data_Sc5UH18
_symmetry_space_group_name_H-M   'P 1'
_cell_length_a   5.95023100
_cell_length_b   5.95138978
_cell_length_c   6.16186763
_cell_angle_alpha   89.92395788
_cell_angle_beta   90.00000000
_cell_angle_gamma   119.99357602
_symmetry_Int_Tables_number   1
_chemical_formula_structural   Sc5UH18
_chemical_formula_sum   'Sc5 U1 H18'
_cell_volume   188.98303384
_cell_formula_units_Z   1
loop_
 _symmetry_equiv_pos_site_id
 _symmetry_equiv_pos_as_xyz
  1  'x, y, z'
loop_
 _atom_site_type_symbol
 _atom_site_label
 _atom_site_symmetry_multiplicity
 _atom_site_fract_x
 _atom_site_fract_y
 _atom_site_fract_z
 _atom_site_occupancy
  Sc  Sc0  1  0.668392  0.000000  0.750000  1
  Sc  Sc1  1  0.336625  0.341716  0.749364  1
  Sc  Sc2  1  0.994909  0.658284  0.750636  1
  Sc  Sc3  1  0.663995  0.664849  0.250149  1
  Sc  Sc4  1  0.999147  0.335151  0.249851  1
  U  U5  1  0.333670  0.000000  0.250000  1
  H  H6  1  0.322416  0.960414  0.899860  1
  H  H7  1  0.648839  0.677598  0.909399  1
  H  H8  1  0.028747  0.353719  0.909263  1
  H  H9  1  0.319742  0.337257  0.405647  1
  H  H10  1  0.015159  0.669394  0.416216  1
  H  H11  1  0.654016  0.973119  0.410770  1
  H  H12  1  0.680898  0.026881  0.089230  1
  H  H13  1  0.345765  0.330606  0.083784  1
  H  H14  1  0.982484  0.662743  0.094353  1
  H  H15  1  0.675028  0.646281  0.590737  1
  H  H16  1  0.971241  0.322402  0.590601  1
  H  H17  1  0.362002  0.039586  0.600140  1
  H  H18  1  0.662351  0.329206  0.813827  1
  H  H19  1  0.682394  0.349408  0.303734  1
  H  H20  1  0.332985  0.650592  0.196266  1
  H  H21  1  0.333143  0.670794  0.686173  1
  H  H22  1  0.004119  0.000000  0.750000  1
  H  H23  1  0.981934  0.000000  0.250000  1
