# generated using pymatgen
data_GdBi3(SbO4)4
_symmetry_space_group_name_H-M   'P 1'
_cell_length_a   5.23097335
_cell_length_b   5.24504870
_cell_length_c   13.76821000
_cell_angle_alpha   68.13304510
_cell_angle_beta   90.05434967
_cell_angle_gamma   89.93786644
_symmetry_Int_Tables_number   1
_chemical_formula_structural   GdBi3(SbO4)4
_chemical_formula_sum   'Gd1 Bi3 Sb4 O16'
_cell_volume   350.57483900
_cell_formula_units_Z   1
loop_
 _symmetry_equiv_pos_site_id
 _symmetry_equiv_pos_as_xyz
  1  'x, y, z'
loop_
 _atom_site_type_symbol
 _atom_site_label
 _atom_site_symmetry_multiplicity
 _atom_site_fract_x
 _atom_site_fract_y
 _atom_site_fract_z
 _atom_site_occupancy
  Gd  Gd0  1  0.251857  0.334246  0.167435  1
  Bi  Bi1  1  0.754799  0.671736  0.328417  1
  Bi  Bi2  1  0.747240  0.668965  0.827422  1
  Bi  Bi3  1  0.247885  0.327924  0.671027  1
  Sb  Sb4  1  0.748101  0.930043  0.069728  1
  Sb  Sb5  1  0.752343  0.929718  0.566941  1
  Sb  Sb6  1  0.248105  0.067593  0.933654  1
  Sb  Sb7  1  0.250714  0.072845  0.429590  1
  O  O8  1  0.431271  0.739244  0.045495  1
  O  O9  1  0.065871  0.745212  0.540547  1
  O  O10  1  0.560080  0.252570  0.960859  1
  O  O11  1  0.939396  0.256584  0.459730  1
  O  O12  1  0.600252  0.031412  0.182249  1
  O  O13  1  0.894757  0.023250  0.683649  1
  O  O14  1  0.392094  0.970083  0.818853  1
  O  O15  1  0.102299  0.980074  0.315002  1
  O  O16  1  0.063792  0.168473  0.047237  1
  O  O17  1  0.438113  0.164252  0.545077  1
  O  O18  1  0.933614  0.834853  0.956287  1
  O  O19  1  0.564249  0.834109  0.454264  1
  O  O20  1  0.897582  0.602787  0.178651  1
  O  O21  1  0.612084  0.597921  0.679769  1
  O  O22  1  0.109476  0.397951  0.820753  1
  O  O23  1  0.394027  0.398157  0.317364  1
