# generated using pymatgen
data_PrNd4HfRuO12
_symmetry_space_group_name_H-M   'P 1'
_cell_length_a   7.14551002
_cell_length_b   7.14551040
_cell_length_c   7.64161134
_cell_angle_alpha   74.53724701
_cell_angle_beta   74.53723772
_cell_angle_gamma   50.59418481
_symmetry_Int_Tables_number   1
_chemical_formula_structural   PrNd4HfRuO12
_chemical_formula_sum   'Pr1 Nd4 Hf1 Ru1 O12'
_cell_volume   288.06452485
_cell_formula_units_Z   1
loop_
 _symmetry_equiv_pos_site_id
 _symmetry_equiv_pos_as_xyz
  1  'x, y, z'
loop_
 _atom_site_type_symbol
 _atom_site_label
 _atom_site_symmetry_multiplicity
 _atom_site_fract_x
 _atom_site_fract_y
 _atom_site_fract_z
 _atom_site_occupancy
  Pr  Pr0  1  0.005247  0.994753  0.500000  1
  Nd  Nd1  1  0.299828  0.305430  0.359680  1
  Nd  Nd2  1  0.694570  0.700172  0.640320  1
  Nd  Nd3  1  0.687995  0.701634  0.166029  1
  Nd  Nd4  1  0.298366  0.312005  0.833971  1
  Hf  Hf5  1  0.766994  0.233006  0.000000  1
  Ru  Ru6  1  0.252841  0.747159  0.000000  1
  O  O7  1  0.093228  0.596800  0.575216  1
  O  O8  1  0.017120  0.982204  0.180861  1
  O  O9  1  0.403200  0.906772  0.424784  1
  O  O10  1  0.496095  0.505548  0.179161  1
  O  O11  1  0.099170  0.583814  0.080721  1
  O  O12  1  0.902406  0.407020  0.421770  1
  O  O13  1  0.017796  0.982880  0.819139  1
  O  O14  1  0.592980  0.097593  0.578230  1
  O  O15  1  0.494452  0.503905  0.820839  1
  O  O16  1  0.565702  0.104176  0.081486  1
  O  O17  1  0.416186  0.900830  0.919279  1
  O  O18  1  0.895824  0.434298  0.918514  1
