# generated using pymatgen
data_CePr2SnRh3Pb2
_symmetry_space_group_name_H-M   'P 1'
_cell_length_a   7.81462500
_cell_length_b   7.77164497
_cell_length_c   4.00846800
_cell_angle_alpha   90.00000000
_cell_angle_beta   90.00000000
_cell_angle_gamma   120.18312505
_symmetry_Int_Tables_number   1
_chemical_formula_structural   CePr2SnRh3Pb2
_chemical_formula_sum   'Ce1 Pr2 Sn1 Rh3 Pb2'
_cell_volume   210.43878568
_cell_formula_units_Z   1
loop_
 _symmetry_equiv_pos_site_id
 _symmetry_equiv_pos_as_xyz
  1  'x, y, z'
loop_
 _atom_site_type_symbol
 _atom_site_label
 _atom_site_symmetry_multiplicity
 _atom_site_fract_x
 _atom_site_fract_y
 _atom_site_fract_z
 _atom_site_occupancy
  Ce  Ce0  1  0.417210  0.000000  0.000000  1
  Pr  Pr1  1  0.993228  0.403067  0.000000  1
  Pr  Pr2  1  0.590160  0.596933  0.000000  1
  Sn  Sn3  1  0.749744  0.000000  0.500000  1
  Rh  Rh4  1  0.650579  0.301994  0.500000  1
  Rh  Rh5  1  0.348583  0.698006  0.500000  1
  Rh  Rh6  1  0.995834  0.000000  0.000000  1
  Pb  Pb7  1  0.258184  0.261702  0.500000  1
  Pb  Pb8  1  0.996480  0.738298  0.500000  1
