# generated using pymatgen
data_NdHoU2As6Ru7
_symmetry_space_group_name_H-M   'P 1'
_cell_length_a   7.23250769
_cell_length_b   7.21631666
_cell_length_c   7.28597883
_cell_angle_alpha   109.28252802
_cell_angle_beta   109.37242761
_cell_angle_gamma   109.41604081
_symmetry_Int_Tables_number   1
_chemical_formula_structural   NdHoU2As6Ru7
_chemical_formula_sum   'Nd1 Ho1 U2 As6 Ru7'
_cell_volume   293.96332390
_cell_formula_units_Z   1
loop_
 _symmetry_equiv_pos_site_id
 _symmetry_equiv_pos_as_xyz
  1  'x, y, z'
loop_
 _atom_site_type_symbol
 _atom_site_label
 _atom_site_symmetry_multiplicity
 _atom_site_fract_x
 _atom_site_fract_y
 _atom_site_fract_z
 _atom_site_occupancy
  Nd  Nd0  1  0.000000  0.500000  0.000000  1
  Ho  Ho1  1  0.500000  0.000000  0.000000  1
  U  U2  1  0.000000  0.000000  0.500000  1
  U  U3  1  0.500000  0.500000  0.500000  1
  As  As4  1  0.316427  0.000199  0.312426  1
  As  As5  1  0.995999  0.312227  0.312426  1
  As  As6  1  0.004001  0.687773  0.687574  1
  As  As7  1  0.316541  0.312435  0.000000  1
  As  As8  1  0.683459  0.687565  0.000000  1
  As  As9  1  0.683573  0.999801  0.687574  1
  Ru  Ru10  1  0.748655  0.507372  0.260508  1
  Ru  Ru11  1  0.511852  0.753135  0.260508  1
  Ru  Ru12  1  0.488148  0.246865  0.739492  1
  Ru  Ru13  1  0.747610  0.247610  0.495220  1
  Ru  Ru14  1  0.252390  0.752390  0.504780  1
  Ru  Ru15  1  0.251345  0.492628  0.739492  1
  Ru  Ru16  1  0.000000  0.000000  0.000000  1
