# generated using pymatgen
data_HoLu7Tl3Ir
_symmetry_space_group_name_H-M   'P 1'
_cell_length_a   10.11018400
_cell_length_b   10.11018384
_cell_length_c   7.05980000
_cell_angle_alpha   90.00000000
_cell_angle_beta   90.00000000
_cell_angle_gamma   120.00000051
_symmetry_Int_Tables_number   1
_chemical_formula_structural   HoLu7Tl3Ir
_chemical_formula_sum   'Ho2 Lu14 Tl6 Ir2'
_cell_volume   624.94405326
_cell_formula_units_Z   2
loop_
 _symmetry_equiv_pos_site_id
 _symmetry_equiv_pos_as_xyz
  1  'x, y, z'
loop_
 _atom_site_type_symbol
 _atom_site_label
 _atom_site_symmetry_multiplicity
 _atom_site_fract_x
 _atom_site_fract_y
 _atom_site_fract_z
 _atom_site_occupancy
  Ho  Ho0  1  0.000000  0.000000  0.230607  1
  Ho  Ho1  1  0.000000  0.000000  0.730607  1
  Lu  Lu2  1  0.176747  0.823253  0.509387  1
  Lu  Lu3  1  0.646505  0.823253  0.509387  1
  Lu  Lu4  1  0.176747  0.353495  0.509387  1
  Lu  Lu5  1  0.823253  0.176747  0.009387  1
  Lu  Lu6  1  0.353495  0.176747  0.009387  1
  Lu  Lu7  1  0.823253  0.646505  0.009387  1
  Lu  Lu8  1  0.333333  0.666667  0.829208  1
  Lu  Lu9  1  0.666667  0.333333  0.329208  1
  Lu  Lu10  1  0.464496  0.535504  0.210685  1
  Lu  Lu11  1  0.071008  0.535504  0.210685  1
  Lu  Lu12  1  0.464496  0.928992  0.210685  1
  Lu  Lu13  1  0.535504  0.464496  0.710685  1
  Lu  Lu14  1  0.928992  0.464496  0.710685  1
  Lu  Lu15  1  0.535504  0.071008  0.710685  1
  Tl  Tl16  1  0.163683  0.836317  0.958837  1
  Tl  Tl17  1  0.672630  0.836317  0.958837  1
  Tl  Tl18  1  0.163683  0.327370  0.958837  1
  Tl  Tl19  1  0.836317  0.163683  0.458837  1
  Tl  Tl20  1  0.327370  0.163683  0.458837  1
  Tl  Tl21  1  0.836317  0.672630  0.458837  1
  Ir  Ir22  1  0.333333  0.666667  0.440477  1
  Ir  Ir23  1  0.666667  0.333333  0.940477  1
