# generated using pymatgen
data_Ho16Cd4CuOs3
_symmetry_space_group_name_H-M   'P 1'
_cell_length_a   9.53338193
_cell_length_b   9.53338228
_cell_length_c   9.53338241
_cell_angle_alpha   60.65481550
_cell_angle_beta   60.65481943
_cell_angle_gamma   60.65481388
_symmetry_Int_Tables_number   1
_chemical_formula_structural   Ho16Cd4CuOs3
_chemical_formula_sum   'Ho16 Cd4 Cu1 Os3'
_cell_volume   621.72669496
_cell_formula_units_Z   1
loop_
 _symmetry_equiv_pos_site_id
 _symmetry_equiv_pos_as_xyz
  1  'x, y, z'
loop_
 _atom_site_type_symbol
 _atom_site_label
 _atom_site_symmetry_multiplicity
 _atom_site_fract_x
 _atom_site_fract_y
 _atom_site_fract_z
 _atom_site_occupancy
  Ho  Ho0  1  0.596872  0.596872  0.596872  1
  Ho  Ho1  1  0.601293  0.601293  0.199099  1
  Ho  Ho2  1  0.601293  0.199099  0.601293  1
  Ho  Ho3  1  0.199099  0.601293  0.601293  1
  Ho  Ho4  1  0.054444  0.440746  0.440746  1
  Ho  Ho5  1  0.439140  0.060624  0.060624  1
  Ho  Ho6  1  0.440746  0.054444  0.440746  1
  Ho  Ho7  1  0.060624  0.439140  0.060624  1
  Ho  Ho8  1  0.440746  0.440746  0.054444  1
  Ho  Ho9  1  0.060624  0.060624  0.439140  1
  Ho  Ho10  1  0.190944  0.810529  0.810529  1
  Ho  Ho11  1  0.816799  0.189640  0.189640  1
  Ho  Ho12  1  0.810529  0.190944  0.810529  1
  Ho  Ho13  1  0.189640  0.816799  0.189640  1
  Ho  Ho14  1  0.810529  0.810529  0.190944  1
  Ho  Ho15  1  0.189640  0.189640  0.816799  1
  Cd  Cd16  1  0.830822  0.830822  0.830822  1
  Cd  Cd17  1  0.831098  0.831098  0.507617  1
  Cd  Cd18  1  0.831098  0.507617  0.831098  1
  Cd  Cd19  1  0.507617  0.831098  0.831098  1
  Cu  Cu20  1  0.392003  0.392003  0.392003  1
  Os  Os21  1  0.389503  0.389503  0.825395  1
  Os  Os22  1  0.389503  0.825395  0.389503  1
  Os  Os23  1  0.825395  0.389503  0.389503  1
