# generated using pymatgen
data_K4TaNbV2(PO5)4
_symmetry_space_group_name_H-M   'P 1'
_cell_length_a   6.55366600
_cell_length_b   10.94595500
_cell_length_c   13.15462500
_cell_angle_alpha   90.00000000
_cell_angle_beta   90.00000000
_cell_angle_gamma   90.00000000
_symmetry_Int_Tables_number   1
_chemical_formula_structural   K4TaNbV2(PO5)4
_chemical_formula_sum   'K8 Ta2 Nb2 V4 P8 O40'
_cell_volume   943.66193016
_cell_formula_units_Z   2
loop_
 _symmetry_equiv_pos_site_id
 _symmetry_equiv_pos_as_xyz
  1  'x, y, z'
loop_
 _atom_site_type_symbol
 _atom_site_label
 _atom_site_symmetry_multiplicity
 _atom_site_fract_x
 _atom_site_fract_y
 _atom_site_fract_z
 _atom_site_occupancy
  K  K0  1  0.721775  0.302471  0.872055  1
  K  K1  1  0.278225  0.802471  0.127945  1
  K  K2  1  0.221420  0.802980  0.626087  1
  K  K3  1  0.778580  0.302980  0.373913  1
  K  K4  1  0.808495  0.066059  0.604307  1
  K  K5  1  0.191505  0.566059  0.395693  1
  K  K6  1  0.307746  0.566314  0.893961  1
  K  K7  1  0.692254  0.066314  0.106039  1
  Ta  Ta8  1  0.004675  0.002864  0.870468  1
  Ta  Ta9  1  0.995325  0.502864  0.129532  1
  Nb  Nb10  1  0.505338  0.502774  0.630588  1
  Nb  Nb11  1  0.494662  0.002774  0.369412  1
  V  V12  1  0.245975  0.250672  0.746184  1
  V  V13  1  0.754025  0.750672  0.253816  1
  V  V14  1  0.749827  0.752117  0.753411  1
  V  V15  1  0.250173  0.252117  0.246589  1
  P  P16  1  0.001337  0.504561  0.683501  1
  P  P17  1  0.998663  0.004561  0.316499  1
  P  P18  1  0.501073  0.004370  0.816899  1
  P  P19  1  0.498927  0.504370  0.183101  1
  P  P20  1  0.163550  0.254922  0.998515  1
  P  P21  1  0.836450  0.754922  0.001485  1
  P  P22  1  0.663987  0.755036  0.501616  1
  P  P23  1  0.336013  0.255036  0.498384  1
  O  O24  1  0.458173  0.380391  0.724978  1
  O  O25  1  0.541827  0.880391  0.275022  1
  O  O26  1  0.962094  0.880910  0.775092  1
  O  O27  1  0.037906  0.380910  0.224908  1
  O  O28  1  0.028781  0.373223  0.011047  1
  O  O29  1  0.971219  0.873223  0.988953  1
  O  O30  1  0.530650  0.873577  0.490155  1
  O  O31  1  0.469350  0.373577  0.509845  1
  O  O32  1  0.298693  0.232835  0.092535  1
  O  O33  1  0.701307  0.732835  0.907465  1
  O  O34  1  0.800199  0.733209  0.407578  1
  O  O35  1  0.199801  0.233209  0.592422  1
  O  O36  1  0.036063  0.391294  0.750787  1
  O  O37  1  0.963937  0.891294  0.249213  1
  O  O38  1  0.535344  0.890853  0.750176  1
  O  O39  1  0.464656  0.390853  0.249824  1
  O  O40  1  0.534699  0.627551  0.726054  1
  O  O41  1  0.465301  0.127551  0.273946  1
  O  O42  1  0.030552  0.127523  0.774373  1
  O  O43  1  0.969448  0.627523  0.225627  1
  O  O44  1  0.969360  0.617185  0.752325  1
  O  O45  1  0.030640  0.117185  0.247675  1
  O  O46  1  0.470287  0.117535  0.748906  1
  O  O47  1  0.529713  0.617535  0.251094  1
  O  O48  1  0.813122  0.481718  0.612426  1
  O  O49  1  0.186878  0.981718  0.387574  1
  O  O50  1  0.310882  0.983020  0.887559  1
  O  O51  1  0.689118  0.483020  0.112441  1
  O  O52  1  0.298199  0.272662  0.902997  1
  O  O53  1  0.701801  0.772662  0.097003  1
  O  O54  1  0.799989  0.771914  0.597101  1
  O  O55  1  0.200011  0.271914  0.402899  1
  O  O56  1  0.187625  0.530428  0.612161  1
  O  O57  1  0.812375  0.030428  0.387839  1
  O  O58  1  0.689177  0.028664  0.888326  1
  O  O59  1  0.310823  0.528664  0.111674  1
  O  O60  1  0.011954  0.145131  0.984027  1
  O  O61  1  0.988046  0.645131  0.015973  1
  O  O62  1  0.511715  0.646044  0.515131  1
  O  O63  1  0.488285  0.146044  0.484869  1
