# generated using pymatgen
data_La3Pr13Cd4(PdRu)2
_symmetry_space_group_name_H-M   'P 1'
_cell_length_a   10.05850410
_cell_length_b   10.06032486
_cell_length_c   10.14460900
_cell_angle_alpha   59.72247629
_cell_angle_beta   59.71642094
_cell_angle_gamma   59.88662240
_symmetry_Int_Tables_number   1
_chemical_formula_structural   La3Pr13Cd4(PdRu)2
_chemical_formula_sum   'La3 Pr13 Cd4 Pd2 Ru2'
_cell_volume   722.17205053
_cell_formula_units_Z   1
loop_
 _symmetry_equiv_pos_site_id
 _symmetry_equiv_pos_as_xyz
  1  'x, y, z'
loop_
 _atom_site_type_symbol
 _atom_site_label
 _atom_site_symmetry_multiplicity
 _atom_site_fract_x
 _atom_site_fract_y
 _atom_site_fract_z
 _atom_site_occupancy
  La  La0  1  0.345202  0.345502  0.358655  1
  La  La1  1  0.345202  0.345502  0.950641  1
  La  La2  1  0.341286  0.958937  0.349889  1
  Pr  Pr3  1  0.952444  0.345608  0.350975  1
  Pr  Pr4  1  0.817310  0.189128  0.190937  1
  Pr  Pr5  1  0.189319  0.816077  0.803454  1
  Pr  Pr6  1  0.189319  0.816077  0.191150  1
  Pr  Pr7  1  0.817310  0.189128  0.802625  1
  Pr  Pr8  1  0.189036  0.188509  0.811227  1
  Pr  Pr9  1  0.806457  0.807338  0.193102  1
  Pr  Pr10  1  0.935405  0.559649  0.566213  1
  Pr  Pr11  1  0.559698  0.935156  0.938466  1
  Pr  Pr12  1  0.559698  0.935156  0.566679  1
  Pr  Pr13  1  0.935405  0.559649  0.938733  1
  Pr  Pr14  1  0.562804  0.562102  0.937547  1
  Pr  Pr15  1  0.936682  0.937266  0.563026  1
  Cd  Cd16  1  0.580633  0.579346  0.579441  1
  Cd  Cd17  1  0.580633  0.579346  0.260579  1
  Cd  Cd18  1  0.582106  0.258307  0.579793  1
  Cd  Cd19  1  0.257691  0.581342  0.580483  1
  Pd  Pd20  1  0.146955  0.573032  0.140007  1
  Pd  Pd21  1  0.573428  0.148019  0.139277  1
  Ru  Ru22  1  0.147989  0.144910  0.135555  1
  Ru  Ru23  1  0.147989  0.144910  0.571547  1
