# generated using pymatgen
data_Tb4Mg3(Ga5Rh2)3
_symmetry_space_group_name_H-M   'P 1'
_cell_length_a   7.67853622
_cell_length_b   7.67860318
_cell_length_c   9.52803913
_cell_angle_alpha   90.05732365
_cell_angle_beta   90.05669607
_cell_angle_gamma   119.79817653
_symmetry_Int_Tables_number   1
_chemical_formula_structural   Tb4Mg3(Ga5Rh2)3
_chemical_formula_sum   'Tb4 Mg3 Ga15 Rh6'
_cell_volume   487.49886644
_cell_formula_units_Z   1
loop_
 _symmetry_equiv_pos_site_id
 _symmetry_equiv_pos_as_xyz
  1  'x, y, z'
loop_
 _atom_site_type_symbol
 _atom_site_label
 _atom_site_symmetry_multiplicity
 _atom_site_fract_x
 _atom_site_fract_y
 _atom_site_fract_z
 _atom_site_occupancy
  Tb  Tb0  1  0.012490  0.665723  0.249424  1
  Tb  Tb1  1  0.993630  0.333674  0.753725  1
  Tb  Tb2  1  0.665723  0.012489  0.249423  1
  Tb  Tb3  1  0.333675  0.993632  0.753725  1
  Mg  Mg4  1  0.332343  0.332347  0.553307  1
  Mg  Mg5  1  0.668354  0.668353  0.446628  1
  Mg  Mg6  1  0.664157  0.664157  0.050263  1
  Ga  Ga7  1  0.332056  0.332054  0.934537  1
  Ga  Ga8  1  0.343839  0.551040  0.251383  1
  Ga  Ga9  1  0.659062  0.449466  0.748756  1
  Ga  Ga10  1  0.551041  0.343836  0.251382  1
  Ga  Ga11  1  0.449466  0.659067  0.748757  1
  Ga  Ga12  1  0.006537  0.335288  0.080346  1
  Ga  Ga13  1  0.991298  0.664531  0.922863  1
  Ga  Ga14  1  0.992432  0.663938  0.577559  1
  Ga  Ga15  1  0.336152  0.008653  0.423529  1
  Ga  Ga16  1  0.008652  0.336148  0.423530  1
  Ga  Ga17  1  0.663939  0.992433  0.577555  1
  Ga  Ga18  1  0.664530  0.991298  0.922868  1
  Ga  Ga19  1  0.335293  0.006538  0.080344  1
  Ga  Ga20  1  0.117256  0.117257  0.250906  1
  Ga  Ga21  1  0.879089  0.879090  0.750370  1
  Rh  Rh22  1  0.008252  0.008251  0.997147  1
  Rh  Rh23  1  0.999642  0.999645  0.501204  1
  Rh  Rh24  1  0.671814  0.319415  0.999473  1
  Rh  Rh25  1  0.319403  0.671806  0.999474  1
  Rh  Rh26  1  0.320182  0.679700  0.500760  1
  Rh  Rh27  1  0.679690  0.320172  0.500764  1
