# generated using pymatgen
data_HoTm3(Si4Tc3)2
_symmetry_space_group_name_H-M   'P 1'
_cell_length_a   6.76546838
_cell_length_b   6.72663013
_cell_length_c   6.75878626
_cell_angle_alpha   69.92985105
_cell_angle_beta   90.02825032
_cell_angle_gamma   89.98517670
_symmetry_Int_Tables_number   1
_chemical_formula_structural   HoTm3(Si4Tc3)2
_chemical_formula_sum   'Ho1 Tm3 Si8 Tc6'
_cell_volume   288.90559242
_cell_formula_units_Z   1
loop_
 _symmetry_equiv_pos_site_id
 _symmetry_equiv_pos_as_xyz
  1  'x, y, z'
loop_
 _atom_site_type_symbol
 _atom_site_label
 _atom_site_symmetry_multiplicity
 _atom_site_fract_x
 _atom_site_fract_y
 _atom_site_fract_z
 _atom_site_occupancy
  Ho  Ho0  1  0.332367  0.557628  0.808583  1
  Tm  Tm1  1  0.831859  0.942541  0.191908  1
  Tm  Tm2  1  0.668226  0.442495  0.192047  1
  Tm  Tm3  1  0.168007  0.057516  0.808030  1
  Si  Si4  1  0.550777  0.877362  0.898100  1
  Si  Si5  1  0.050224  0.623157  0.102478  1
  Si  Si6  1  0.449579  0.122700  0.102406  1
  Si  Si7  1  0.948812  0.376618  0.898062  1
  Si  Si8  1  0.141245  0.868381  0.487109  1
  Si  Si9  1  0.642104  0.632200  0.512034  1
  Si  Si10  1  0.858388  0.132213  0.512285  1
  Si  Si11  1  0.358406  0.367501  0.487031  1
  Tc  Tc12  1  0.500253  0.000613  0.499650  1
  Tc  Tc13  1  0.999613  0.499916  0.499710  1
  Tc  Tc14  1  0.850308  0.757914  0.762543  1
  Tc  Tc15  1  0.350421  0.742248  0.237933  1
  Tc  Tc16  1  0.149278  0.241890  0.237733  1
  Tc  Tc17  1  0.650132  0.257105  0.762359  1
