# generated using pymatgen
data_Na3Bi(PS4)2
_symmetry_space_group_name_H-M   'P 1'
_cell_length_a   10.31100055
_cell_length_b   10.31100128
_cell_length_c   9.32084365
_cell_angle_alpha   65.68292270
_cell_angle_beta   65.68291792
_cell_angle_gamma   55.96374162
_symmetry_Int_Tables_number   1
_chemical_formula_structural   Na3Bi(PS4)2
_chemical_formula_sum   'Na6 Bi2 P4 S16'
_cell_volume   726.45061387
_cell_formula_units_Z   2
loop_
 _symmetry_equiv_pos_site_id
 _symmetry_equiv_pos_as_xyz
  1  'x, y, z'
loop_
 _atom_site_type_symbol
 _atom_site_label
 _atom_site_symmetry_multiplicity
 _atom_site_fract_x
 _atom_site_fract_y
 _atom_site_fract_z
 _atom_site_occupancy
  Na  Na0  1  0.813144  0.530615  0.206175  1
  Na  Na1  1  0.469385  0.186856  0.293825  1
  Na  Na2  1  0.186856  0.469385  0.793825  1
  Na  Na3  1  0.530615  0.813144  0.706175  1
  Na  Na4  1  0.419510  0.580490  0.250000  1
  Na  Na5  1  0.580490  0.419510  0.750000  1
  Bi  Bi6  1  0.022249  0.977751  0.250000  1
  Bi  Bi7  1  0.977751  0.022249  0.750000  1
  P  P8  1  0.852824  0.336973  0.935624  1
  P  P9  1  0.663027  0.147176  0.564376  1
  P  P10  1  0.147176  0.663027  0.064376  1
  P  P11  1  0.336973  0.852824  0.435624  1
  S  S12  1  0.214291  0.846701  0.939674  1
  S  S13  1  0.649961  0.094347  0.805612  1
  S  S14  1  0.324873  0.442844  0.022062  1
  S  S15  1  0.094347  0.649961  0.305612  1
  S  S16  1  0.737195  0.948898  0.490705  1
  S  S17  1  0.785709  0.153299  0.060326  1
  S  S18  1  0.051102  0.262805  0.009295  1
  S  S19  1  0.262805  0.051102  0.509295  1
  S  S20  1  0.948898  0.737195  0.990705  1
  S  S21  1  0.846701  0.214291  0.439674  1
  S  S22  1  0.905653  0.350039  0.694388  1
  S  S23  1  0.350039  0.905653  0.194388  1
  S  S24  1  0.675127  0.557156  0.977938  1
  S  S25  1  0.442844  0.324873  0.522062  1
  S  S26  1  0.153299  0.785709  0.560326  1
  S  S27  1  0.557156  0.675127  0.477938  1
