# generated using pymatgen
data_Pr7Sm(Si3Pt)4
_symmetry_space_group_name_H-M   'P 1'
_cell_length_a   8.25332569
_cell_length_b   8.25332696
_cell_length_c   8.67674000
_cell_angle_alpha   90.00000000
_cell_angle_beta   90.00000000
_cell_angle_gamma   120.01000125
_symmetry_Int_Tables_number   1
_chemical_formula_structural   Pr7Sm(Si3Pt)4
_chemical_formula_sum   'Pr7 Sm1 Si12 Pt4'
_cell_volume   511.80140361
_cell_formula_units_Z   1
loop_
 _symmetry_equiv_pos_site_id
 _symmetry_equiv_pos_as_xyz
  1  'x, y, z'
loop_
 _atom_site_type_symbol
 _atom_site_label
 _atom_site_symmetry_multiplicity
 _atom_site_fract_x
 _atom_site_fract_y
 _atom_site_fract_z
 _atom_site_occupancy
  Pr  Pr0  1  0.500253  0.499747  0.250000  1
  Pr  Pr1  1  0.000616  0.500299  0.750000  1
  Pr  Pr2  1  0.999494  0.499763  0.250000  1
  Pr  Pr3  1  0.499701  0.999384  0.750000  1
  Pr  Pr4  1  0.500237  0.000506  0.250000  1
  Pr  Pr5  1  0.000014  0.999986  0.750000  1
  Pr  Pr6  1  0.999979  0.000021  0.250000  1
  Sm  Sm7  1  0.499812  0.500188  0.750000  1
  Si  Si8  1  0.833920  0.166080  0.000031  1
  Si  Si9  1  0.166064  0.833936  0.000180  1
  Si  Si10  1  0.332028  0.166539  0.998786  1
  Si  Si11  1  0.166064  0.833936  0.499820  1
  Si  Si12  1  0.667951  0.833445  0.998752  1
  Si  Si13  1  0.833920  0.166080  0.499969  1
  Si  Si14  1  0.833461  0.667972  0.998786  1
  Si  Si15  1  0.667951  0.833445  0.501248  1
  Si  Si16  1  0.166555  0.332049  0.998752  1
  Si  Si17  1  0.332028  0.166539  0.501214  1
  Si  Si18  1  0.166555  0.332049  0.501248  1
  Si  Si19  1  0.833461  0.667972  0.501214  1
  Pt  Pt20  1  0.666127  0.333873  0.996725  1
  Pt  Pt21  1  0.333841  0.666159  0.998226  1
  Pt  Pt22  1  0.333841  0.666159  0.501774  1
  Pt  Pt23  1  0.666127  0.333873  0.503275  1
