# generated using pymatgen
data_Y8NbW3C8
_symmetry_space_group_name_H-M   'P 1'
_cell_length_a   5.78989449
_cell_length_b   5.78989373
_cell_length_c   9.92274800
_cell_angle_alpha   90.00000000
_cell_angle_beta   90.00000000
_cell_angle_gamma   90.54370290
_symmetry_Int_Tables_number   1
_chemical_formula_structural   Y8NbW3C8
_chemical_formula_sum   'Y8 Nb1 W3 C8'
_cell_volume   332.62405237
_cell_formula_units_Z   1
loop_
 _symmetry_equiv_pos_site_id
 _symmetry_equiv_pos_as_xyz
  1  'x, y, z'
loop_
 _atom_site_type_symbol
 _atom_site_label
 _atom_site_symmetry_multiplicity
 _atom_site_fract_x
 _atom_site_fract_y
 _atom_site_fract_z
 _atom_site_occupancy
  Y  Y0  1  0.198751  0.198751  0.343205  1
  Y  Y1  1  0.799181  0.799181  0.656395  1
  Y  Y2  1  0.298709  0.702057  0.840889  1
  Y  Y3  1  0.799181  0.799181  0.343605  1
  Y  Y4  1  0.198751  0.198751  0.656795  1
  Y  Y5  1  0.702057  0.298709  0.159111  1
  Y  Y6  1  0.702057  0.298709  0.840889  1
  Y  Y7  1  0.298709  0.702057  0.159111  1
  Nb  Nb8  1  0.183543  0.183543  0.000000  1
  W  W9  1  0.826240  0.826240  0.000000  1
  W  W10  1  0.322383  0.676159  0.500000  1
  W  W11  1  0.676159  0.322383  0.500000  1
  C  C12  1  0.997405  0.997405  0.154573  1
  C  C13  1  0.499758  0.499758  0.347200  1
  C  C14  1  0.499758  0.499758  0.652800  1
  C  C15  1  0.508240  0.991686  0.000000  1
  C  C16  1  0.991686  0.508240  0.000000  1
  C  C17  1  0.997405  0.997405  0.845427  1
  C  C18  1  0.500222  0.999806  0.500000  1
  C  C19  1  0.999806  0.500222  0.500000  1
