# generated using pymatgen
data_Lu2Ni3BIr3
_symmetry_space_group_name_H-M   'P 1'
_cell_length_a   5.70355415
_cell_length_b   5.70355346
_cell_length_c   5.59462929
_cell_angle_alpha   59.35384226
_cell_angle_beta   59.35384698
_cell_angle_gamma   59.99999463
_symmetry_Int_Tables_number   1
_chemical_formula_structural   Lu2Ni3BIr3
_chemical_formula_sum   'Lu2 Ni3 B1 Ir3'
_cell_volume   127.41953458
_cell_formula_units_Z   1
loop_
 _symmetry_equiv_pos_site_id
 _symmetry_equiv_pos_as_xyz
  1  'x, y, z'
loop_
 _atom_site_type_symbol
 _atom_site_label
 _atom_site_symmetry_multiplicity
 _atom_site_fract_x
 _atom_site_fract_y
 _atom_site_fract_z
 _atom_site_occupancy
  Lu  Lu0  1  0.753614  0.753614  0.739157  1
  Lu  Lu1  1  0.249780  0.249780  0.250660  1
  Ni  Ni2  1  0.740074  0.740074  0.253920  1
  Ni  Ni3  1  0.265931  0.740074  0.253920  1
  Ni  Ni4  1  0.740074  0.265931  0.253920  1
  B  B5  1  0.992189  0.992189  0.023432  1
  Ir  Ir6  1  0.257923  0.257923  0.741665  1
  Ir  Ir7  1  0.742489  0.257923  0.741665  1
  Ir  Ir8  1  0.257923  0.742489  0.741665  1
