# generated using pymatgen
data_Tb3Ho2P12Ru16Pt3
_symmetry_space_group_name_H-M   'P 1'
_cell_length_a   3.98583200
_cell_length_b   12.58860513
_cell_length_c   12.58917100
_cell_angle_alpha   119.99851936
_cell_angle_beta   90.00000000
_cell_angle_gamma   90.00000000
_symmetry_Int_Tables_number   1
_chemical_formula_structural   Tb3Ho2P12Ru16Pt3
_chemical_formula_sum   'Tb3 Ho2 P12 Ru16 Pt3'
_cell_volume   547.05481460
_cell_formula_units_Z   1
loop_
 _symmetry_equiv_pos_site_id
 _symmetry_equiv_pos_as_xyz
  1  'x, y, z'
loop_
 _atom_site_type_symbol
 _atom_site_label
 _atom_site_symmetry_multiplicity
 _atom_site_fract_x
 _atom_site_fract_y
 _atom_site_fract_z
 _atom_site_occupancy
  Tb  Tb0  1  0.500000  0.000022  0.182079  1
  Tb  Tb1  1  0.500000  0.182078  0.000000  1
  Tb  Tb2  1  0.500000  0.817944  0.817921  1
  Ho  Ho3  1  0.000000  0.333327  0.666679  1
  Ho  Ho4  1  0.000000  0.666648  0.333321  1
  P  P5  1  0.000000  0.999982  0.814672  1
  P  P6  1  0.000000  0.814663  0.000000  1
  P  P7  1  0.000000  0.185309  0.185328  1
  P  P8  1  0.500000  0.300072  0.480650  1
  P  P9  1  0.500000  0.180566  0.699931  1
  P  P10  1  0.500000  0.519367  0.819432  1
  P  P11  1  0.500000  0.819422  0.519350  1
  P  P12  1  0.500000  0.480633  0.300069  1
  P  P13  1  0.500000  0.699936  0.180568  1
  P  P14  1  0.000000  0.999983  0.365564  1
  P  P15  1  0.000000  0.365553  0.000000  1
  P  P16  1  0.000000  0.634419  0.634436  1
  Ru  Ru17  1  0.500000  0.999992  0.710726  1
  Ru  Ru18  1  0.500000  0.710770  0.000000  1
  Ru  Ru19  1  0.500000  0.289266  0.289274  1
  Ru  Ru20  1  0.000000  0.193834  0.378908  1
  Ru  Ru21  1  0.000000  0.185057  0.806155  1
  Ru  Ru22  1  0.000000  0.621096  0.814937  1
  Ru  Ru23  1  0.000000  0.814926  0.621092  1
  Ru  Ru24  1  0.000000  0.378902  0.193845  1
  Ru  Ru25  1  0.000000  0.806158  0.185063  1
  Ru  Ru26  1  0.500000  0.124845  0.494407  1
  Ru  Ru27  1  0.500000  0.369558  0.875158  1
  Ru  Ru28  1  0.500000  0.505605  0.630433  1
  Ru  Ru29  1  0.500000  0.630438  0.505593  1
  Ru  Ru30  1  0.500000  0.494400  0.124842  1
  Ru  Ru31  1  0.500000  0.875173  0.369567  1
  Ru  Ru32  1  0.000000  0.999979  0.000000  1
  Pt  Pt33  1  0.000000  0.999994  0.551531  1
  Pt  Pt34  1  0.000000  0.551519  0.000000  1
  Pt  Pt35  1  0.000000  0.448464  0.448469  1
