# generated using pymatgen
data_Tb16CdNi2Hg3Ir2
_symmetry_space_group_name_H-M   'P 1'
_cell_length_a   9.60051213
_cell_length_b   9.60830516
_cell_length_c   9.66038900
_cell_angle_alpha   59.82051831
_cell_angle_beta   59.79346815
_cell_angle_gamma   59.61291839
_symmetry_Int_Tables_number   1
_chemical_formula_structural   Tb16CdNi2Hg3Ir2
_chemical_formula_sum   'Tb16 Cd1 Ni2 Hg3 Ir2'
_cell_volume   626.42405717
_cell_formula_units_Z   1
loop_
 _symmetry_equiv_pos_site_id
 _symmetry_equiv_pos_as_xyz
  1  'x, y, z'
loop_
 _atom_site_type_symbol
 _atom_site_label
 _atom_site_symmetry_multiplicity
 _atom_site_fract_x
 _atom_site_fract_y
 _atom_site_fract_z
 _atom_site_occupancy
  Tb  Tb0  1  0.351328  0.350981  0.345197  1
  Tb  Tb1  1  0.351328  0.350981  0.952494  1
  Tb  Tb2  1  0.354422  0.949026  0.348276  1
  Tb  Tb3  1  0.947170  0.354690  0.349070  1
  Tb  Tb4  1  0.808425  0.188048  0.191880  1
  Tb  Tb5  1  0.187132  0.808994  0.812205  1
  Tb  Tb6  1  0.187132  0.808994  0.191670  1
  Tb  Tb7  1  0.808425  0.188048  0.811648  1
  Tb  Tb8  1  0.189047  0.189852  0.810551  1
  Tb  Tb9  1  0.810100  0.810272  0.189814  1
  Tb  Tb10  1  0.936950  0.560632  0.565763  1
  Tb  Tb11  1  0.559887  0.938398  0.936210  1
  Tb  Tb12  1  0.559887  0.938398  0.565506  1
  Tb  Tb13  1  0.936950  0.560632  0.936655  1
  Tb  Tb14  1  0.564750  0.565280  0.934985  1
  Tb  Tb15  1  0.938310  0.940000  0.560845  1
  Cd  Cd16  1  0.257379  0.579408  0.581606  1
  Ni  Ni17  1  0.142428  0.574477  0.141547  1
  Ni  Ni18  1  0.574604  0.142491  0.141452  1
  Hg  Hg19  1  0.582654  0.584245  0.586859  1
  Hg  Hg20  1  0.582654  0.584245  0.246241  1
  Hg  Hg21  1  0.582575  0.244673  0.586375  1
  Ir  Ir22  1  0.143231  0.143616  0.141918  1
  Ir  Ir23  1  0.143231  0.143616  0.571234  1
