# generated using pymatgen
data_NaScP7Ru11Rh
_symmetry_space_group_name_H-M   'P 1'
_cell_length_a   9.34900426
_cell_length_b   9.42214570
_cell_length_c   3.92991900
_cell_angle_alpha   90.00000000
_cell_angle_beta   90.00000000
_cell_angle_gamma   119.67805415
_symmetry_Int_Tables_number   1
_chemical_formula_structural   NaScP7Ru11Rh
_chemical_formula_sum   'Na1 Sc1 P7 Ru11 Rh1'
_cell_volume   300.76631465
_cell_formula_units_Z   1
loop_
 _symmetry_equiv_pos_site_id
 _symmetry_equiv_pos_as_xyz
  1  'x, y, z'
loop_
 _atom_site_type_symbol
 _atom_site_label
 _atom_site_symmetry_multiplicity
 _atom_site_fract_x
 _atom_site_fract_y
 _atom_site_fract_z
 _atom_site_occupancy
  Na  Na0  1  0.332708  0.665283  0.000000  1
  Sc  Sc1  1  0.667546  0.334286  0.500000  1
  P  P2  1  0.601906  0.715051  0.500000  1
  P  P3  1  0.997362  0.999268  0.000000  1
  P  P4  1  0.276746  0.880911  0.500000  1
  P  P5  1  0.116601  0.396613  0.500000  1
  P  P6  1  0.886259  0.572456  0.000000  1
  P  P7  1  0.430601  0.314518  0.000000  1
  P  P8  1  0.691380  0.118828  0.000000  1
  Ru  Ru9  1  0.398051  0.438008  0.500000  1
  Ru  Ru10  1  0.913289  0.121611  0.500000  1
  Ru  Ru11  1  0.207731  0.085319  0.500000  1
  Ru  Ru12  1  0.880081  0.798047  0.500000  1
  Ru  Ru13  1  0.723881  0.890283  0.000000  1
  Ru  Ru14  1  0.110732  0.838630  0.000000  1
  Ru  Ru15  1  0.163078  0.269710  0.000000  1
  Ru  Ru16  1  0.426951  0.071522  0.000000  1
  Ru  Ru17  1  0.932253  0.356126  0.000000  1
  Ru  Ru18  1  0.646875  0.577129  0.000000  1
  Ru  Ru19  1  0.041217  0.602354  0.500000  1
  Rh  Rh20  1  0.554752  0.954046  0.500000  1
