# generated using pymatgen
data_Ru(Se4I)2
_symmetry_space_group_name_H-M   'P 1'
_cell_length_a   9.23551255
_cell_length_b   9.23551246
_cell_length_c   9.80896985
_cell_angle_alpha   78.71937608
_cell_angle_beta   78.71937569
_cell_angle_gamma   119.40382627
_symmetry_Int_Tables_number   1
_chemical_formula_structural   Ru(Se4I)2
_chemical_formula_sum   'Ru2 Se16 I4'
_cell_volume   671.85529728
_cell_formula_units_Z   2
loop_
 _symmetry_equiv_pos_site_id
 _symmetry_equiv_pos_as_xyz
  1  'x, y, z'
loop_
 _atom_site_type_symbol
 _atom_site_label
 _atom_site_symmetry_multiplicity
 _atom_site_fract_x
 _atom_site_fract_y
 _atom_site_fract_z
 _atom_site_occupancy
  Ru  Ru0  1  0.000000  0.000000  0.000000  1
  Ru  Ru1  1  0.000000  0.000000  0.500000  1
  Se  Se2  1  0.801777  0.060795  0.154262  1
  Se  Se3  1  0.939205  0.198223  0.345738  1
  Se  Se4  1  0.198223  0.939205  0.845738  1
  Se  Se5  1  0.060795  0.801777  0.654262  1
  Se  Se6  1  0.979376  0.790742  0.214403  1
  Se  Se7  1  0.209258  0.020624  0.285597  1
  Se  Se8  1  0.020624  0.209258  0.785597  1
  Se  Se9  1  0.790742  0.979376  0.714403  1
  Se  Se10  1  0.765299  0.736516  0.459763  1
  Se  Se11  1  0.263484  0.234701  0.040237  1
  Se  Se12  1  0.234701  0.263484  0.540237  1
  Se  Se13  1  0.736516  0.765299  0.959763  1
  Se  Se14  1  0.578224  0.804670  0.360897  1
  Se  Se15  1  0.195330  0.421776  0.139103  1
  Se  Se16  1  0.421776  0.195330  0.639103  1
  Se  Se17  1  0.804670  0.578224  0.860897  1
  I  I18  1  0.594058  0.405942  0.250000  1
  I  I19  1  0.405942  0.594058  0.750000  1
  I  I20  1  0.000000  0.500000  0.500000  1
  I  I21  1  0.500000  0.000000  0.000000  1
