# generated using pymatgen
data_HoErMn5(PIr)7
_symmetry_space_group_name_H-M   'P 1'
_cell_length_a   9.39527002
_cell_length_b   9.35262264
_cell_length_c   3.87528700
_cell_angle_alpha   90.00000000
_cell_angle_beta   90.00000000
_cell_angle_gamma   119.82955989
_symmetry_Int_Tables_number   1
_chemical_formula_structural   HoErMn5(PIr)7
_chemical_formula_sum   'Ho1 Er1 Mn5 P7 Ir7'
_cell_volume   295.40681367
_cell_formula_units_Z   1
loop_
 _symmetry_equiv_pos_site_id
 _symmetry_equiv_pos_as_xyz
  1  'x, y, z'
loop_
 _atom_site_type_symbol
 _atom_site_label
 _atom_site_symmetry_multiplicity
 _atom_site_fract_x
 _atom_site_fract_y
 _atom_site_fract_z
 _atom_site_occupancy
  Ho  Ho0  1  0.666033  0.333643  0.000000  1
  Er  Er1  1  0.334990  0.668976  0.500000  1
  Mn  Mn2  1  0.265294  0.159593  0.000000  1
  Mn  Mn3  1  0.841034  0.111674  0.000000  1
  Mn  Mn4  1  0.892260  0.729324  0.000000  1
  Mn  Mn5  1  0.779867  0.875779  0.500000  1
  Mn  Mn6  1  0.123928  0.903830  0.500000  1
  P  P7  1  0.305538  0.414557  0.000000  1
  P  P8  1  0.592109  0.890867  0.000000  1
  P  P9  1  0.113108  0.701549  0.000000  1
  P  P10  1  0.394425  0.116419  0.500000  1
  P  P11  1  0.875575  0.275004  0.500000  1
  P  P12  1  0.724861  0.606706  0.500000  1
  P  P13  1  0.995484  0.997136  0.000000  1
  Ir  Ir14  1  0.069405  0.429268  0.000000  1
  Ir  Ir15  1  0.574232  0.638939  0.000000  1
  Ir  Ir16  1  0.362860  0.936327  0.000000  1
  Ir  Ir17  1  0.444354  0.387269  0.500000  1
  Ir  Ir18  1  0.611765  0.054708  0.500000  1
  Ir  Ir19  1  0.944538  0.554113  0.500000  1
  Ir  Ir20  1  0.088337  0.214319  0.500000  1
