# generated using pymatgen
data_Er4TmZr3(Co4As3)4
_symmetry_space_group_name_H-M   'P 1'
_cell_length_a   12.72298803
_cell_length_b   12.72298849
_cell_length_c   3.82364600
_cell_angle_alpha   90.00000000
_cell_angle_beta   90.00000000
_cell_angle_gamma   120.00763512
_symmetry_Int_Tables_number   1
_chemical_formula_structural   Er4TmZr3(Co4As3)4
_chemical_formula_sum   'Er4 Tm1 Zr3 Co16 As12'
_cell_volume   535.98562720
_cell_formula_units_Z   1
loop_
 _symmetry_equiv_pos_site_id
 _symmetry_equiv_pos_as_xyz
  1  'x, y, z'
loop_
 _atom_site_type_symbol
 _atom_site_label
 _atom_site_symmetry_multiplicity
 _atom_site_fract_x
 _atom_site_fract_y
 _atom_site_fract_z
 _atom_site_occupancy
  Er  Er0  1  0.817682  0.000183  0.500000  1
  Er  Er1  1  0.000183  0.817682  0.500000  1
  Er  Er2  1  0.333263  0.666668  0.000000  1
  Er  Er3  1  0.666668  0.333263  0.000000  1
  Tm  Tm4  1  0.182459  0.182459  0.500000  1
  Zr  Zr5  1  0.560509  0.560509  0.000000  1
  Zr  Zr6  1  0.439258  0.999992  0.000000  1
  Zr  Zr7  1  0.999992  0.439258  0.000000  1
  Co  Co8  1  0.720268  0.720268  0.500000  1
  Co  Co9  1  0.279658  0.000109  0.500000  1
  Co  Co10  1  0.000109  0.279658  0.500000  1
  Co  Co11  1  0.177773  0.373151  0.000000  1
  Co  Co12  1  0.626637  0.804425  0.000000  1
  Co  Co13  1  0.195583  0.822282  0.000000  1
  Co  Co14  1  0.804425  0.626637  0.000000  1
  Co  Co15  1  0.822282  0.195583  0.000000  1
  Co  Co16  1  0.373151  0.177773  0.000000  1
  Co  Co17  1  0.357106  0.479866  0.500000  1
  Co  Co18  1  0.520025  0.877219  0.500000  1
  Co  Co19  1  0.122791  0.642844  0.500000  1
  Co  Co20  1  0.877219  0.520025  0.500000  1
  Co  Co21  1  0.642844  0.122791  0.500000  1
  Co  Co22  1  0.479866  0.357106  0.500000  1
  Co  Co23  1  0.000218  0.000218  0.000000  1
  As  As24  1  0.823222  0.823222  0.000000  1
  As  As25  1  0.176907  0.000261  0.000000  1
  As  As26  1  0.000261  0.176907  0.000000  1
  As  As27  1  0.173911  0.482206  0.500000  1
  As  As28  1  0.517765  0.691678  0.500000  1
  As  As29  1  0.308281  0.826127  0.500000  1
  As  As30  1  0.691678  0.517765  0.500000  1
  As  As31  1  0.826127  0.308281  0.500000  1
  As  As32  1  0.482206  0.173911  0.500000  1
  As  As33  1  0.350747  0.350747  0.000000  1
  As  As34  1  0.648943  0.999985  0.000000  1
  As  As35  1  0.999985  0.648943  0.000000  1
