# generated using pymatgen
data_CoNi(BMo)6
_symmetry_space_group_name_H-M   'P 1'
_cell_length_a   3.17650400
_cell_length_b   4.51631016
_cell_length_c   10.77980911
_cell_angle_alpha   89.98496879
_cell_angle_beta   90.00000000
_cell_angle_gamma   110.58951019
_symmetry_Int_Tables_number   1
_chemical_formula_structural   CoNi(BMo)6
_chemical_formula_sum   'Co1 Ni1 B6 Mo6'
_cell_volume   144.76966492
_cell_formula_units_Z   1
loop_
 _symmetry_equiv_pos_site_id
 _symmetry_equiv_pos_as_xyz
  1  'x, y, z'
loop_
 _atom_site_type_symbol
 _atom_site_label
 _atom_site_symmetry_multiplicity
 _atom_site_fract_x
 _atom_site_fract_y
 _atom_site_fract_z
 _atom_site_occupancy
  Co  Co0  1  0.500000  0.000000  0.000000  1
  Ni  Ni1  1  0.500000  0.000000  0.500000  1
  B  B2  1  0.911725  0.823450  0.395224  1
  B  B3  1  0.088275  0.176550  0.604776  1
  B  B4  1  0.913623  0.827245  0.102539  1
  B  B5  1  0.086377  0.172755  0.897461  1
  B  B6  1  0.793127  0.586255  0.249325  1
  B  B7  1  0.206873  0.413745  0.750675  1
  Mo  Mo8  1  0.212904  0.425808  0.391641  1
  Mo  Mo9  1  0.787096  0.574192  0.608359  1
  Mo  Mo10  1  0.212887  0.425775  0.107705  1
  Mo  Mo11  1  0.787113  0.574225  0.892295  1
  Mo  Mo12  1  0.499087  0.998172  0.248800  1
  Mo  Mo13  1  0.500913  0.001828  0.751200  1
