# generated using pymatgen
data_YPa2Ga8Tc3
_symmetry_space_group_name_H-M   'P 1'
_cell_length_a   8.15138665
_cell_length_b   8.15138744
_cell_length_c   8.15138700
_cell_angle_alpha   149.27500708
_cell_angle_beta   105.27463278
_cell_angle_gamma   82.93035843
_symmetry_Int_Tables_number   1
_chemical_formula_structural   YPa2Ga8Tc3
_chemical_formula_sum   'Y1 Pa2 Ga8 Tc3'
_cell_volume   261.00828733
_cell_formula_units_Z   1
loop_
 _symmetry_equiv_pos_site_id
 _symmetry_equiv_pos_as_xyz
  1  'x, y, z'
loop_
 _atom_site_type_symbol
 _atom_site_label
 _atom_site_symmetry_multiplicity
 _atom_site_fract_x
 _atom_site_fract_y
 _atom_site_fract_z
 _atom_site_occupancy
  Y  Y0  1  0.500000  0.500000  0.000000  1
  Pa  Pa1  1  0.158065  0.158065  0.000000  1
  Pa  Pa2  1  0.841935  0.841935  0.000000  1
  Ga  Ga3  1  0.097657  0.375758  0.721877  1
  Ga  Ga4  1  0.902343  0.624242  0.278123  1
  Ga  Ga5  1  0.653880  0.375780  0.278123  1
  Ga  Ga6  1  0.346120  0.624220  0.721877  1
  Ga  Ga7  1  0.796177  0.167643  0.628530  1
  Ga  Ga8  1  0.203823  0.832357  0.371470  1
  Ga  Ga9  1  0.539113  0.167647  0.371470  1
  Ga  Ga10  1  0.460887  0.832353  0.628530  1
  Tc  Tc11  1  0.000000  0.500000  0.500000  1
  Tc  Tc12  1  0.788661  0.000033  0.788694  1
  Tc  Tc13  1  0.211339  0.999967  0.211306  1
