# generated using pymatgen
data_Np2TaSbO10
_symmetry_space_group_name_H-M   'P 1'
_cell_length_a   5.50647162
_cell_length_b   5.50001557
_cell_length_c   7.63339735
_cell_angle_alpha   69.82837092
_cell_angle_beta   69.61169532
_cell_angle_gamma   72.88738957
_symmetry_Int_Tables_number   1
_chemical_formula_structural   Np2TaSbO10
_chemical_formula_sum   'Np2 Ta1 Sb1 O10'
_cell_volume   199.38559098
_cell_formula_units_Z   1
loop_
 _symmetry_equiv_pos_site_id
 _symmetry_equiv_pos_as_xyz
  1  'x, y, z'
loop_
 _atom_site_type_symbol
 _atom_site_label
 _atom_site_symmetry_multiplicity
 _atom_site_fract_x
 _atom_site_fract_y
 _atom_site_fract_z
 _atom_site_occupancy
  Np  Np0  1  0.965145  0.033154  0.251149  1
  Np  Np1  1  0.034855  0.966846  0.748851  1
  Ta  Ta2  1  0.500000  0.500000  0.500000  1
  Sb  Sb3  1  0.500000  0.500000  0.000000  1
  O  O4  1  0.419321  0.577522  0.750010  1
  O  O5  1  0.270763  0.221392  0.628802  1
  O  O6  1  0.729237  0.778608  0.371198  1
  O  O7  1  0.219698  0.270345  0.133074  1
  O  O8  1  0.580679  0.422478  0.249990  1
  O  O9  1  0.780302  0.729655  0.866926  1
  O  O10  1  0.212793  0.811944  0.028358  1
  O  O11  1  0.805806  0.212117  0.534994  1
  O  O12  1  0.787207  0.188056  0.971642  1
  O  O13  1  0.194194  0.787883  0.465006  1
