# generated using pymatgen
data_Y10FeHg3
_symmetry_space_group_name_H-M   'P 1'
_cell_length_a   9.61831800
_cell_length_b   9.61831860
_cell_length_c   9.65146300
_cell_angle_alpha   90.00000000
_cell_angle_beta   90.00000000
_cell_angle_gamma   119.99999106
_symmetry_Int_Tables_number   1
_chemical_formula_structural   Y10FeHg3
_chemical_formula_sum   'Y20 Fe2 Hg6'
_cell_volume   773.25388592
_cell_formula_units_Z   2
loop_
 _symmetry_equiv_pos_site_id
 _symmetry_equiv_pos_as_xyz
  1  'x, y, z'
loop_
 _atom_site_type_symbol
 _atom_site_label
 _atom_site_symmetry_multiplicity
 _atom_site_fract_x
 _atom_site_fract_y
 _atom_site_fract_z
 _atom_site_occupancy
  Y  Y0  1  0.000000  0.000000  0.500000  1
  Y  Y1  1  0.000000  0.000000  0.000000  1
  Y  Y2  1  0.541817  0.458183  0.250000  1
  Y  Y3  1  0.541817  0.083634  0.250000  1
  Y  Y4  1  0.916366  0.458183  0.250000  1
  Y  Y5  1  0.458183  0.541817  0.750000  1
  Y  Y6  1  0.458183  0.916366  0.750000  1
  Y  Y7  1  0.083634  0.541817  0.750000  1
  Y  Y8  1  0.211977  0.788023  0.435536  1
  Y  Y9  1  0.211977  0.423955  0.435536  1
  Y  Y10  1  0.576045  0.788023  0.435536  1
  Y  Y11  1  0.788023  0.211977  0.564464  1
  Y  Y12  1  0.788023  0.576045  0.564464  1
  Y  Y13  1  0.423955  0.211977  0.564464  1
  Y  Y14  1  0.788023  0.211977  0.935536  1
  Y  Y15  1  0.788023  0.576045  0.935536  1
  Y  Y16  1  0.423955  0.211977  0.935536  1
  Y  Y17  1  0.211977  0.788023  0.064464  1
  Y  Y18  1  0.211977  0.423955  0.064464  1
  Y  Y19  1  0.576045  0.788023  0.064464  1
  Fe  Fe20  1  0.333333  0.666667  0.250000  1
  Fe  Fe21  1  0.666667  0.333333  0.750000  1
  Hg  Hg22  1  0.881916  0.118084  0.250000  1
  Hg  Hg23  1  0.881916  0.763833  0.250000  1
  Hg  Hg24  1  0.236167  0.118084  0.250000  1
  Hg  Hg25  1  0.118084  0.881916  0.750000  1
  Hg  Hg26  1  0.118084  0.236167  0.750000  1
  Hg  Hg27  1  0.763833  0.881916  0.750000  1
