# generated using pymatgen
data_Ti12Ga7RhO4
_symmetry_space_group_name_H-M   'P 1'
_cell_length_a   6.87834220
_cell_length_b   6.87834220
_cell_length_c   6.87834220
_cell_angle_alpha   89.76363823
_cell_angle_beta   90.23636177
_cell_angle_gamma   90.23636177
_symmetry_Int_Tables_number   1
_chemical_formula_structural   Ti12Ga7RhO4
_chemical_formula_sum   'Ti12 Ga7 Rh1 O4'
_cell_volume   325.41703201
_cell_formula_units_Z   1
loop_
 _symmetry_equiv_pos_site_id
 _symmetry_equiv_pos_as_xyz
  1  'x, y, z'
loop_
 _atom_site_type_symbol
 _atom_site_label
 _atom_site_symmetry_multiplicity
 _atom_site_fract_x
 _atom_site_fract_y
 _atom_site_fract_z
 _atom_site_occupancy
  Ti  Ti0  1  0.792608  0.960087  0.375249  1
  Ti  Ti1  1  0.705969  0.041842  0.873570  1
  Ti  Ti2  1  0.210403  0.459562  0.128352  1
  Ti  Ti3  1  0.288298  0.545055  0.618045  1
  Ti  Ti4  1  0.958158  0.373570  0.794031  1
  Ti  Ti5  1  0.039913  0.875249  0.707392  1
  Ti  Ti6  1  0.454945  0.118045  0.211702  1
  Ti  Ti7  1  0.540438  0.628352  0.289597  1
  Ti  Ti8  1  0.371648  0.789597  0.959562  1
  Ti  Ti9  1  0.881955  0.711702  0.045055  1
  Ti  Ti10  1  0.124751  0.207392  0.460087  1
  Ti  Ti11  1  0.626430  0.294031  0.541842  1
  Ga  Ga12  1  0.319381  0.179299  0.819433  1
  Ga  Ga13  1  0.820701  0.319433  0.180619  1
  Ga  Ga14  1  0.680567  0.680619  0.679299  1
  Ga  Ga15  1  0.569207  0.430793  0.930793  1
  Ga  Ga16  1  0.427216  0.929023  0.567690  1
  Ga  Ga17  1  0.932310  0.572784  0.429023  1
  Ga  Ga18  1  0.070977  0.067690  0.072784  1
  Rh  Rh19  1  0.178099  0.821901  0.321901  1
  O  O20  1  0.875794  0.124206  0.624206  1
  O  O21  1  0.626660  0.872906  0.123522  1
  O  O22  1  0.127094  0.623522  0.873340  1
  O  O23  1  0.376478  0.373340  0.372906  1
