# generated using pymatgen
data_Hf2Mg2Ge6Ir7
_symmetry_space_group_name_H-M   'P 1'
_cell_length_a   7.13080758
_cell_length_b   7.03985510
_cell_length_c   7.03985525
_cell_angle_alpha   108.98103005
_cell_angle_beta   109.45518334
_cell_angle_gamma   109.45517774
_symmetry_Int_Tables_number   1
_chemical_formula_structural   Hf2Mg2Ge6Ir7
_chemical_formula_sum   'Hf2 Mg2 Ge6 Ir7'
_cell_volume   273.78196540
_cell_formula_units_Z   1
loop_
 _symmetry_equiv_pos_site_id
 _symmetry_equiv_pos_as_xyz
  1  'x, y, z'
loop_
 _atom_site_type_symbol
 _atom_site_label
 _atom_site_symmetry_multiplicity
 _atom_site_fract_x
 _atom_site_fract_y
 _atom_site_fract_z
 _atom_site_occupancy
  Hf  Hf0  1  0.000000  0.000000  0.500000  1
  Hf  Hf1  1  0.000000  0.500000  0.000000  1
  Mg  Mg2  1  0.500000  0.000000  0.000000  1
  Mg  Mg3  1  0.500000  0.500000  0.500000  1
  Ge  Ge4  1  0.682705  0.689210  0.993495  1
  Ge  Ge5  1  0.317295  0.006505  0.310790  1
  Ge  Ge6  1  0.000000  0.310461  0.310461  1
  Ge  Ge7  1  0.317295  0.310790  0.006505  1
  Ge  Ge8  1  0.682705  0.993495  0.689210  1
  Ge  Ge9  1  0.000000  0.689539  0.689539  1
  Ir  Ir10  1  0.752755  0.250527  0.502228  1
  Ir  Ir11  1  0.752755  0.502228  0.250527  1
  Ir  Ir12  1  0.500000  0.250000  0.750000  1
  Ir  Ir13  1  0.247245  0.497772  0.749473  1
  Ir  Ir14  1  0.247245  0.749473  0.497772  1
  Ir  Ir15  1  0.500000  0.750000  0.250000  1
  Ir  Ir16  1  0.000000  0.000000  0.000000  1
