# generated using pymatgen
data_Ca3DyTi4O12
_symmetry_space_group_name_H-M   'P 1'
_cell_length_a   5.39585661
_cell_length_b   5.53366361
_cell_length_c   7.69932600
_cell_angle_alpha   90.00000000
_cell_angle_beta   90.00000000
_cell_angle_gamma   89.80871456
_symmetry_Int_Tables_number   1
_chemical_formula_structural   Ca3DyTi4O12
_chemical_formula_sum   'Ca3 Dy1 Ti4 O12'
_cell_volume   229.89178051
_cell_formula_units_Z   1
loop_
 _symmetry_equiv_pos_site_id
 _symmetry_equiv_pos_as_xyz
  1  'x, y, z'
loop_
 _atom_site_type_symbol
 _atom_site_label
 _atom_site_symmetry_multiplicity
 _atom_site_fract_x
 _atom_site_fract_y
 _atom_site_fract_z
 _atom_site_occupancy
  Ca  Ca0  1  0.491640  0.456134  0.250000  1
  Ca  Ca1  1  0.989910  0.047039  0.750000  1
  Ca  Ca2  1  0.010832  0.953808  0.250000  1
  Dy  Dy3  1  0.512607  0.559081  0.750000  1
  Ti  Ti4  1  0.003061  0.498910  0.498476  1
  Ti  Ti5  1  0.003061  0.498910  0.001524  1
  Ti  Ti6  1  0.498005  0.003044  0.498521  1
  Ti  Ti7  1  0.498005  0.003044  0.001479  1
  O  O8  1  0.096706  0.476788  0.750000  1
  O  O9  1  0.922121  0.521575  0.250000  1
  O  O10  1  0.417313  0.971515  0.750000  1
  O  O11  1  0.582364  0.023231  0.250000  1
  O  O12  1  0.787376  0.785438  0.950621  1
  O  O13  1  0.203537  0.205223  0.458126  1
  O  O14  1  0.203537  0.205223  0.041874  1
  O  O15  1  0.787376  0.785438  0.549379  1
  O  O16  1  0.699806  0.298122  0.949594  1
  O  O17  1  0.296469  0.704677  0.462358  1
  O  O18  1  0.296469  0.704677  0.037642  1
  O  O19  1  0.699806  0.298122  0.550406  1
