# generated using pymatgen
data_Tb9Sc(Zn2Bi)2
_symmetry_space_group_name_H-M   'P 1'
_cell_length_a   8.58227785
_cell_length_b   8.58227912
_cell_length_c   8.58227881
_cell_angle_alpha   122.94597070
_cell_angle_beta   122.94596177
_cell_angle_gamma   84.96893977
_symmetry_Int_Tables_number   1
_chemical_formula_structural   Tb9Sc(Zn2Bi)2
_chemical_formula_sum   'Tb9 Sc1 Zn4 Bi2'
_cell_volume   425.29105558
_cell_formula_units_Z   1
loop_
 _symmetry_equiv_pos_site_id
 _symmetry_equiv_pos_as_xyz
  1  'x, y, z'
loop_
 _atom_site_type_symbol
 _atom_site_label
 _atom_site_symmetry_multiplicity
 _atom_site_fract_x
 _atom_site_fract_y
 _atom_site_fract_z
 _atom_site_occupancy
  Tb  Tb0  1  0.000000  0.000000  0.000000  1
  Tb  Tb1  1  0.508908  0.012738  0.805061  1
  Tb  Tb2  1  0.207678  0.703847  0.194939  1
  Tb  Tb3  1  0.012738  0.207678  0.503830  1
  Tb  Tb4  1  0.703847  0.508908  0.496170  1
  Tb  Tb5  1  0.491092  0.987262  0.194939  1
  Tb  Tb6  1  0.792322  0.296153  0.805061  1
  Tb  Tb7  1  0.987262  0.792322  0.496170  1
  Tb  Tb8  1  0.296153  0.491092  0.503830  1
  Sc  Sc9  1  0.500000  0.500000  0.000000  1
  Zn  Zn10  1  0.145642  0.639963  0.785604  1
  Zn  Zn11  1  0.854358  0.360037  0.214396  1
  Zn  Zn12  1  0.639963  0.854358  0.494321  1
  Zn  Zn13  1  0.360037  0.145642  0.505679  1
  Bi  Bi14  1  0.254573  0.254573  0.000000  1
  Bi  Bi15  1  0.745427  0.745427  0.000000  1
