# generated using pymatgen
data_Nd4Mn3Cu4RhO20
_symmetry_space_group_name_H-M   'P 1'
_cell_length_a   5.72469200
_cell_length_b   7.83858487
_cell_length_c   8.63051304
_cell_angle_alpha   89.59493415
_cell_angle_beta   90.00000000
_cell_angle_gamma   90.00000000
_symmetry_Int_Tables_number   1
_chemical_formula_structural   Nd4Mn3Cu4RhO20
_chemical_formula_sum   'Nd4 Mn3 Cu4 Rh1 O20'
_cell_volume   387.27151102
_cell_formula_units_Z   1
loop_
 _symmetry_equiv_pos_site_id
 _symmetry_equiv_pos_as_xyz
  1  'x, y, z'
loop_
 _atom_site_type_symbol
 _atom_site_label
 _atom_site_symmetry_multiplicity
 _atom_site_fract_x
 _atom_site_fract_y
 _atom_site_fract_z
 _atom_site_occupancy
  Nd  Nd0  1  0.998440  0.347820  0.671092  1
  Nd  Nd1  1  0.998440  0.652180  0.328908  1
  Nd  Nd2  1  0.996117  0.851207  0.824825  1
  Nd  Nd3  1  0.996117  0.148793  0.175175  1
  Mn  Mn4  1  0.738056  0.000000  0.500000  1
  Mn  Mn5  1  0.744016  0.500000  0.000000  1
  Mn  Mn6  1  0.261259  0.000000  0.500000  1
  Cu  Cu7  1  0.499123  0.065898  0.847572  1
  Cu  Cu8  1  0.499123  0.934102  0.152428  1
  Cu  Cu9  1  0.502165  0.569602  0.650802  1
  Cu  Cu10  1  0.502165  0.430398  0.349198  1
  Rh  Rh11  1  0.261958  0.500000  0.000000  1
  O  O12  1  0.246418  0.911018  0.288385  1
  O  O13  1  0.246418  0.088982  0.711615  1
  O  O14  1  0.754604  0.410314  0.210619  1
  O  O15  1  0.754604  0.589686  0.789381  1
  O  O16  1  0.752536  0.088265  0.711600  1
  O  O17  1  0.752536  0.911735  0.288400  1
  O  O18  1  0.245978  0.590684  0.785399  1
  O  O19  1  0.245978  0.409316  0.214601  1
  O  O20  1  0.510027  0.345282  0.939333  1
  O  O21  1  0.510027  0.654718  0.060667  1
  O  O22  1  0.499823  0.850729  0.558363  1
  O  O23  1  0.499823  0.149271  0.441637  1
  O  O24  1  0.278099  0.000000  0.000000  1
  O  O25  1  0.724700  0.500000  0.500000  1
  O  O26  1  0.719066  0.000000  0.000000  1
  O  O27  1  0.280335  0.500000  0.500000  1
  O  O28  1  0.999526  0.157274  0.450795  1
  O  O29  1  0.999526  0.842726  0.549205  1
  O  O30  1  0.991499  0.662778  0.051434  1
  O  O31  1  0.991499  0.337222  0.948566  1
