# generated using pymatgen
data_Dy6Er2Ta11TiSi16
_symmetry_space_group_name_H-M   'P 1'
_cell_length_a   7.04414510
_cell_length_b   7.04031903
_cell_length_c   12.98205700
_cell_angle_alpha   89.95752584
_cell_angle_beta   90.00976857
_cell_angle_gamma   90.00645083
_symmetry_Int_Tables_number   1
_chemical_formula_structural   Dy6Er2Ta11TiSi16
_chemical_formula_sum   'Dy6 Er2 Ta11 Ti1 Si16'
_cell_volume   643.81933607
_cell_formula_units_Z   1
loop_
 _symmetry_equiv_pos_site_id
 _symmetry_equiv_pos_as_xyz
  1  'x, y, z'
loop_
 _atom_site_type_symbol
 _atom_site_label
 _atom_site_symmetry_multiplicity
 _atom_site_fract_x
 _atom_site_fract_y
 _atom_site_fract_z
 _atom_site_occupancy
  Dy  Dy0  1  0.342210  0.001987  0.467916  1
  Dy  Dy1  1  0.498231  0.842014  0.717744  1
  Dy  Dy2  1  0.501950  0.158498  0.218015  1
  Dy  Dy3  1  0.841596  0.497774  0.282077  1
  Dy  Dy4  1  0.157877  0.501763  0.782343  1
  Dy  Dy5  1  0.658614  0.997493  0.968080  1
  Er  Er6  1  0.001874  0.341669  0.531960  1
  Er  Er7  1  0.998295  0.658936  0.031696  1
  Ta  Ta8  1  0.328623  0.329241  0.999783  1
  Ta  Ta9  1  0.171265  0.828148  0.249976  1
  Ta  Ta10  1  0.827458  0.172766  0.749952  1
  Ta  Ta11  1  0.671060  0.670863  0.499797  1
  Ta  Ta12  1  0.151946  0.007331  0.873809  1
  Ta  Ta13  1  0.492697  0.652789  0.123805  1
  Ta  Ta14  1  0.507518  0.346872  0.623605  1
  Ta  Ta15  1  0.653300  0.491929  0.876648  1
  Ta  Ta16  1  0.347442  0.507080  0.376372  1
  Ta  Ta17  1  0.846310  0.991473  0.373940  1
  Ta  Ta18  1  0.008148  0.152988  0.126013  1
  Ti  Ti19  1  0.992412  0.846242  0.626499  1
  Si  Si20  1  0.202010  0.132364  0.681414  1
  Si  Si21  1  0.365621  0.704543  0.931602  1
  Si  Si22  1  0.634819  0.295759  0.432325  1
  Si  Si23  1  0.704652  0.366649  0.068470  1
  Si  Si24  1  0.294604  0.634490  0.568316  1
  Si  Si25  1  0.796872  0.865447  0.181129  1
  Si  Si26  1  0.133711  0.204007  0.318917  1
  Si  Si27  1  0.865979  0.796728  0.817655  1
  Si  Si28  1  0.293684  0.953842  0.063489  1
  Si  Si29  1  0.545276  0.794007  0.313667  1
  Si  Si30  1  0.453814  0.206227  0.813390  1
  Si  Si31  1  0.795565  0.546630  0.685153  1
  Si  Si32  1  0.205542  0.455055  0.186139  1
  Si  Si33  1  0.709364  0.045132  0.564312  1
  Si  Si34  1  0.954262  0.294979  0.936398  1
  Si  Si35  1  0.045393  0.706287  0.437595  1
