# generated using pymatgen
data_BaZr2H7
_symmetry_space_group_name_H-M   'P 1'
_cell_length_a   6.92362067
_cell_length_b   6.92362129
_cell_length_c   6.92362000
_cell_angle_alpha   59.99999660
_cell_angle_beta   59.99999364
_cell_angle_gamma   59.99999872
_symmetry_Int_Tables_number   1
_chemical_formula_structural   BaZr2H7
_chemical_formula_sum   'Ba2 Zr4 H14'
_cell_volume   234.68469069
_cell_formula_units_Z   2
loop_
 _symmetry_equiv_pos_site_id
 _symmetry_equiv_pos_as_xyz
  1  'x, y, z'
loop_
 _atom_site_type_symbol
 _atom_site_label
 _atom_site_symmetry_multiplicity
 _atom_site_fract_x
 _atom_site_fract_y
 _atom_site_fract_z
 _atom_site_occupancy
  Ba  Ba0  1  0.250000  0.250000  0.250000  1
  Ba  Ba1  1  0.000000  0.000000  0.000000  1
  Zr  Zr2  1  0.625000  0.625000  0.125000  1
  Zr  Zr3  1  0.625000  0.125000  0.625000  1
  Zr  Zr4  1  0.125000  0.625000  0.625000  1
  Zr  Zr5  1  0.625000  0.625000  0.625000  1
  H  H6  1  0.734775  0.265225  0.734775  1
  H  H7  1  0.984775  0.515225  0.984775  1
  H  H8  1  0.734775  0.734775  0.265225  1
  H  H9  1  0.265225  0.734775  0.734775  1
  H  H10  1  0.734775  0.265225  0.265225  1
  H  H11  1  0.265225  0.265225  0.734775  1
  H  H12  1  0.500000  0.500000  0.500000  1
  H  H13  1  0.750000  0.750000  0.750000  1
  H  H14  1  0.265225  0.734775  0.265225  1
  H  H15  1  0.515225  0.984775  0.984775  1
  H  H16  1  0.984775  0.515225  0.515225  1
  H  H17  1  0.515225  0.984775  0.515225  1
  H  H18  1  0.984775  0.984775  0.515225  1
  H  H19  1  0.515225  0.515225  0.984775  1
