# generated using pymatgen
data_Sc24CuPt3Se8
_symmetry_space_group_name_H-M   'P 1'
_cell_length_a   3.69292300
_cell_length_b   10.34089502
_cell_length_c   19.74339903
_cell_angle_alpha   89.99361185
_cell_angle_beta   90.00000000
_cell_angle_gamma   90.00000000
_symmetry_Int_Tables_number   1
_chemical_formula_structural   Sc24CuPt3Se8
_chemical_formula_sum   'Sc24 Cu1 Pt3 Se8'
_cell_volume   753.96346529
_cell_formula_units_Z   1
loop_
 _symmetry_equiv_pos_site_id
 _symmetry_equiv_pos_as_xyz
  1  'x, y, z'
loop_
 _atom_site_type_symbol
 _atom_site_label
 _atom_site_symmetry_multiplicity
 _atom_site_fract_x
 _atom_site_fract_y
 _atom_site_fract_z
 _atom_site_occupancy
  Sc  Sc0  1  0.250000  0.384990  0.987768  1
  Sc  Sc1  1  0.750000  0.615038  0.011927  1
  Sc  Sc2  1  0.750000  0.883294  0.512357  1
  Sc  Sc3  1  0.250000  0.112054  0.488373  1
  Sc  Sc4  1  0.250000  0.924753  0.645770  1
  Sc  Sc5  1  0.750000  0.077082  0.353763  1
  Sc  Sc6  1  0.750000  0.423814  0.853761  1
  Sc  Sc7  1  0.250000  0.576583  0.146261  1
  Sc  Sc8  1  0.250000  0.879849  0.030168  1
  Sc  Sc9  1  0.750000  0.120482  0.969663  1
  Sc  Sc10  1  0.750000  0.379873  0.469557  1
  Sc  Sc11  1  0.250000  0.622098  0.529728  1
  Sc  Sc12  1  0.250000  0.823248  0.390171  1
  Sc  Sc13  1  0.750000  0.179186  0.609533  1
  Sc  Sc14  1  0.750000  0.322860  0.109966  1
  Sc  Sc15  1  0.250000  0.677221  0.889816  1
  Sc  Sc16  1  0.250000  0.530867  0.337831  1
  Sc  Sc17  1  0.750000  0.469324  0.662737  1
  Sc  Sc18  1  0.750000  0.030746  0.162624  1
  Sc  Sc19  1  0.250000  0.969228  0.837212  1
  Sc  Sc20  1  0.250000  0.250050  0.236228  1
  Sc  Sc21  1  0.750000  0.749515  0.763876  1
  Sc  Sc22  1  0.750000  0.749523  0.263760  1
  Sc  Sc23  1  0.250000  0.248374  0.735480  1
  Cu  Cu24  1  0.250000  0.361008  0.577785  1
  Pt  Pt25  1  0.250000  0.141231  0.076735  1
  Pt  Pt26  1  0.750000  0.858932  0.923524  1
  Pt  Pt27  1  0.750000  0.640757  0.423584  1
  Se  Se28  1  0.250000  0.228002  0.873324  1
  Se  Se29  1  0.750000  0.772299  0.126356  1
  Se  Se30  1  0.750000  0.726887  0.626269  1
  Se  Se31  1  0.250000  0.272583  0.374902  1
  Se  Se32  1  0.250000  0.535930  0.764717  1
  Se  Se33  1  0.750000  0.463169  0.234730  1
  Se  Se34  1  0.750000  0.036110  0.734296  1
  Se  Se35  1  0.250000  0.963041  0.265447  1
