# generated using pymatgen
data_Pr8Er12Sn5Bi11
_symmetry_space_group_name_H-M   'P 1'
_cell_length_a   8.33507903
_cell_length_b   8.31512219
_cell_length_c   15.59660700
_cell_angle_alpha   90.00000000
_cell_angle_beta   90.00000000
_cell_angle_gamma   90.51967931
_symmetry_Int_Tables_number   1
_chemical_formula_structural   Pr8Er12Sn5Bi11
_chemical_formula_sum   'Pr8 Er12 Sn5 Bi11'
_cell_volume   1080.91270689
_cell_formula_units_Z   1
loop_
 _symmetry_equiv_pos_site_id
 _symmetry_equiv_pos_as_xyz
  1  'x, y, z'
loop_
 _atom_site_type_symbol
 _atom_site_label
 _atom_site_symmetry_multiplicity
 _atom_site_fract_x
 _atom_site_fract_y
 _atom_site_fract_z
 _atom_site_occupancy
  Pr  Pr0  1  0.524735  0.317594  0.901804  1
  Pr  Pr1  1  0.024204  0.180646  0.597681  1
  Pr  Pr2  1  0.474766  0.682202  0.400049  1
  Pr  Pr3  1  0.977096  0.823510  0.098277  1
  Pr  Pr4  1  0.474766  0.682202  0.099951  1
  Pr  Pr5  1  0.977096  0.823510  0.401723  1
  Pr  Pr6  1  0.524735  0.317594  0.598196  1
  Pr  Pr7  1  0.024204  0.180646  0.902319  1
  Er  Er8  1  0.354970  0.850911  0.875275  1
  Er  Er9  1  0.859819  0.648187  0.625124  1
  Er  Er10  1  0.648462  0.150121  0.374060  1
  Er  Er11  1  0.134259  0.345318  0.127559  1
  Er  Er12  1  0.648462  0.150121  0.125940  1
  Er  Er13  1  0.134259  0.345318  0.372441  1
  Er  Er14  1  0.354970  0.850911  0.624725  1
  Er  Er15  1  0.859819  0.648187  0.874876  1
  Er  Er16  1  0.187529  0.492640  0.750000  1
  Er  Er17  1  0.686803  0.005926  0.750000  1
  Er  Er18  1  0.812239  0.504394  0.250000  1
  Er  Er19  1  0.308785  0.995393  0.250000  1
  Sn  Sn20  1  0.944495  0.126120  0.250000  1
  Sn  Sn21  1  0.337413  0.152635  0.750000  1
  Sn  Sn22  1  0.838205  0.346902  0.750000  1
  Sn  Sn23  1  0.668734  0.852570  0.250000  1
  Sn  Sn24  1  0.160701  0.652349  0.250000  1
  Bi  Bi25  1  0.297507  0.045915  0.045786  1
  Bi  Bi26  1  0.791831  0.458536  0.454449  1
  Bi  Bi27  1  0.706405  0.954743  0.546463  1
  Bi  Bi28  1  0.207515  0.542651  0.955329  1
  Bi  Bi29  1  0.706405  0.954743  0.953537  1
  Bi  Bi30  1  0.207515  0.542651  0.544671  1
  Bi  Bi31  1  0.297507  0.045915  0.454214  1
  Bi  Bi32  1  0.791831  0.458536  0.045551  1
  Bi  Bi33  1  0.552838  0.630649  0.750000  1
  Bi  Bi34  1  0.052897  0.870622  0.750000  1
  Bi  Bi35  1  0.446219  0.369135  0.250000  1
