# generated using pymatgen
data_NdHo3HfZr(AlPt2)2
_symmetry_space_group_name_H-M   'P 1'
_cell_length_a   4.48888900
_cell_length_b   7.20778329
_cell_length_c   7.99696222
_cell_angle_alpha   90.35245256
_cell_angle_beta   90.00000000
_cell_angle_gamma   90.00000000
_symmetry_Int_Tables_number   1
_chemical_formula_structural   NdHo3HfZr(AlPt2)2
_chemical_formula_sum   'Nd1 Ho3 Hf1 Zr1 Al2 Pt4'
_cell_volume   258.73633041
_cell_formula_units_Z   1
loop_
 _symmetry_equiv_pos_site_id
 _symmetry_equiv_pos_as_xyz
  1  'x, y, z'
loop_
 _atom_site_type_symbol
 _atom_site_label
 _atom_site_symmetry_multiplicity
 _atom_site_fract_x
 _atom_site_fract_y
 _atom_site_fract_z
 _atom_site_occupancy
  Nd  Nd0  1  0.250000  0.512413  0.827524  1
  Ho  Ho1  1  0.750000  0.450562  0.180021  1
  Ho  Ho2  1  0.250000  0.046563  0.676274  1
  Ho  Ho3  1  0.750000  0.987852  0.326679  1
  Hf  Hf4  1  0.750000  0.868664  0.934672  1
  Zr  Zr5  1  0.250000  0.633117  0.433377  1
  Al  Al6  1  0.750000  0.357548  0.563915  1
  Al  Al7  1  0.250000  0.140184  0.067401  1
  Pt  Pt8  1  0.750000  0.733512  0.612761  1
  Pt  Pt9  1  0.750000  0.227800  0.882468  1
  Pt  Pt10  1  0.250000  0.262306  0.379838  1
  Pt  Pt11  1  0.250000  0.779477  0.115069  1
