# generated using pymatgen
data_TmTh3(ZnRu)4
_symmetry_space_group_name_H-M   'P 1'
_cell_length_a   4.00033200
_cell_length_b   6.99131069
_cell_length_c   8.43242542
_cell_angle_alpha   90.39399737
_cell_angle_beta   90.00000000
_cell_angle_gamma   90.00000000
_symmetry_Int_Tables_number   1
_chemical_formula_structural   TmTh3(ZnRu)4
_chemical_formula_sum   'Tm1 Th3 Zn4 Ru4'
_cell_volume   235.82882075
_cell_formula_units_Z   1
loop_
 _symmetry_equiv_pos_site_id
 _symmetry_equiv_pos_as_xyz
  1  'x, y, z'
loop_
 _atom_site_type_symbol
 _atom_site_label
 _atom_site_symmetry_multiplicity
 _atom_site_fract_x
 _atom_site_fract_y
 _atom_site_fract_z
 _atom_site_occupancy
  Tm  Tm0  1  0.250000  0.042956  0.315154  1
  Th  Th1  1  0.250000  0.541245  0.188327  1
  Th  Th2  1  0.750000  0.463275  0.815580  1
  Th  Th3  1  0.750000  0.959008  0.677359  1
  Zn  Zn4  1  0.250000  0.625921  0.553497  1
  Zn  Zn5  1  0.750000  0.358862  0.442448  1
  Zn  Zn6  1  0.750000  0.882666  0.063429  1
  Zn  Zn7  1  0.250000  0.125625  0.949293  1
  Ru  Ru8  1  0.250000  0.746165  0.866216  1
  Ru  Ru9  1  0.750000  0.265847  0.128222  1
  Ru  Ru10  1  0.750000  0.747041  0.365955  1
  Ru  Ru11  1  0.250000  0.241390  0.634519  1
