# generated using pymatgen
data_CePRu2
_symmetry_space_group_name_H-M   'P 1'
_cell_length_a   9.05795025
_cell_length_b   9.05795107
_cell_length_c   3.99842300
_cell_angle_alpha   90.00000000
_cell_angle_beta   90.00000000
_cell_angle_gamma   154.45432752
_symmetry_Int_Tables_number   1
_chemical_formula_structural   CePRu2
_chemical_formula_sum   'Ce2 P2 Ru4'
_cell_volume   141.46794679
_cell_formula_units_Z   2
loop_
 _symmetry_equiv_pos_site_id
 _symmetry_equiv_pos_as_xyz
  1  'x, y, z'
loop_
 _atom_site_type_symbol
 _atom_site_label
 _atom_site_symmetry_multiplicity
 _atom_site_fract_x
 _atom_site_fract_y
 _atom_site_fract_z
 _atom_site_occupancy
  Ce  Ce0  1  0.100118  0.899882  0.750000  1
  Ce  Ce1  1  0.899882  0.100118  0.250000  1
  P  P2  1  0.319953  0.680047  0.750000  1
  P  P3  1  0.680047  0.319953  0.250000  1
  Ru  Ru4  1  0.546798  0.453202  0.250000  1
  Ru  Ru5  1  0.453202  0.546798  0.750000  1
  Ru  Ru6  1  0.249599  0.750401  0.250000  1
  Ru  Ru7  1  0.750401  0.249599  0.750000  1
