# generated using pymatgen
data_Y6Al24FeRu4Pt3
_symmetry_space_group_name_H-M   'P 1'
_cell_length_a   8.82696850
_cell_length_b   8.80741741
_cell_length_c   9.51906209
_cell_angle_alpha   89.86203040
_cell_angle_beta   90.05517573
_cell_angle_gamma   119.55658592
_symmetry_Int_Tables_number   1
_chemical_formula_structural   Y6Al24FeRu4Pt3
_chemical_formula_sum   'Y6 Al24 Fe1 Ru4 Pt3'
_cell_volume   643.73462693
_cell_formula_units_Z   1
loop_
 _symmetry_equiv_pos_site_id
 _symmetry_equiv_pos_as_xyz
  1  'x, y, z'
loop_
 _atom_site_type_symbol
 _atom_site_label
 _atom_site_symmetry_multiplicity
 _atom_site_fract_x
 _atom_site_fract_y
 _atom_site_fract_z
 _atom_site_occupancy
  Y  Y0  1  0.191513  0.806998  0.249818  1
  Y  Y1  1  0.189184  0.385550  0.248439  1
  Y  Y2  1  0.615967  0.810127  0.250255  1
  Y  Y3  1  0.808487  0.193002  0.750182  1
  Y  Y4  1  0.810816  0.614450  0.751561  1
  Y  Y5  1  0.384033  0.189873  0.749745  1
  Al  Al6  1  0.564731  0.436223  0.249881  1
  Al  Al7  1  0.562052  0.125675  0.245954  1
  Al  Al8  1  0.877226  0.440006  0.249772  1
  Al  Al9  1  0.435269  0.563777  0.750119  1
  Al  Al10  1  0.437948  0.874325  0.754046  1
  Al  Al11  1  0.122774  0.559994  0.750228  1
  Al  Al12  1  0.322881  0.162316  0.422308  1
  Al  Al13  1  0.841767  0.167880  0.421806  1
  Al  Al14  1  0.842038  0.675329  0.423585  1
  Al  Al15  1  0.677119  0.837684  0.577692  1
  Al  Al16  1  0.158233  0.832120  0.578194  1
  Al  Al17  1  0.157962  0.324671  0.576415  1
  Al  Al18  1  0.680626  0.845012  0.926292  1
  Al  Al19  1  0.161404  0.839006  0.924365  1
  Al  Al20  1  0.155468  0.320147  0.925376  1
  Al  Al21  1  0.319374  0.154988  0.073708  1
  Al  Al22  1  0.838596  0.160994  0.075635  1
  Al  Al23  1  0.844532  0.679853  0.074624  1
  Al  Al24  1  0.672721  0.335875  0.528677  1
  Al  Al25  1  0.327279  0.664125  0.471323  1
  Al  Al26  1  0.330292  0.669774  0.026302  1
  Al  Al27  1  0.669708  0.330226  0.973698  1
  Al  Al28  1  0.997067  0.000898  0.243699  1
  Al  Al29  1  0.002933  0.999102  0.756301  1
  Fe  Fe30  1  0.000000  0.000000  0.000000  1
  Ru  Ru31  1  0.000000  0.000000  0.500000  1
  Ru  Ru32  1  0.000000  0.500000  0.500000  1
  Ru  Ru33  1  0.500000  0.000000  0.000000  1
  Ru  Ru34  1  0.000000  0.500000  0.000000  1
  Pt  Pt35  1  0.500000  0.500000  0.500000  1
  Pt  Pt36  1  0.500000  0.000000  0.500000  1
  Pt  Pt37  1  0.500000  0.500000  0.000000  1
