# generated using pymatgen
data_ErMg2Ti(B4Ru5)2
_symmetry_space_group_name_H-M   'P 1'
_cell_length_a   2.99117600
_cell_length_b   8.48077951
_cell_length_c   10.09669656
_cell_angle_alpha   90.73366686
_cell_angle_beta   90.00000000
_cell_angle_gamma   90.00000000
_symmetry_Int_Tables_number   1
_chemical_formula_structural   ErMg2Ti(B4Ru5)2
_chemical_formula_sum   'Er1 Mg2 Ti1 B8 Ru10'
_cell_volume   256.10699383
_cell_formula_units_Z   1
loop_
 _symmetry_equiv_pos_site_id
 _symmetry_equiv_pos_as_xyz
  1  'x, y, z'
loop_
 _atom_site_type_symbol
 _atom_site_label
 _atom_site_symmetry_multiplicity
 _atom_site_fract_x
 _atom_site_fract_y
 _atom_site_fract_z
 _atom_site_occupancy
  Er  Er0  1  0.500000  0.655815  0.817904  1
  Mg  Mg1  1  0.500000  0.151650  0.675137  1
  Mg  Mg2  1  0.500000  0.848004  0.317216  1
  Ti  Ti3  1  0.500000  0.348279  0.188075  1
  B  B4  1  0.500000  0.857450  0.599001  1
  B  B5  1  0.500000  0.145808  0.399288  1
  B  B6  1  0.500000  0.345491  0.895641  1
  B  B7  1  0.500000  0.648888  0.103698  1
  B  B8  1  0.500000  0.966280  0.911237  1
  B  B9  1  0.500000  0.039596  0.090305  1
  B  B10  1  0.500000  0.460852  0.588446  1
  B  B11  1  0.500000  0.538097  0.411644  1
  Ru  Ru12  1  0.000000  0.391132  0.737477  1
  Ru  Ru13  1  0.000000  0.595744  0.261811  1
  Ru  Ru14  1  0.000000  0.912218  0.760062  1
  Ru  Ru15  1  0.000000  0.109422  0.236693  1
  Ru  Ru16  1  0.000000  0.999752  0.495201  1
  Ru  Ru17  1  0.000000  0.487147  0.008569  1
  Ru  Ru18  1  0.000000  0.657140  0.547804  1
  Ru  Ru19  1  0.000000  0.343370  0.448335  1
  Ru  Ru20  1  0.000000  0.157344  0.958016  1
  Ru  Ru21  1  0.000000  0.840519  0.048440  1
