# generated using pymatgen
data_MgFe3(NO3)8
_symmetry_space_group_name_H-M   'P 1'
_cell_length_a   7.63994495
_cell_length_b   7.64673089
_cell_length_c   7.64091899
_cell_angle_alpha   90.45006884
_cell_angle_beta   90.43169953
_cell_angle_gamma   90.43057453
_symmetry_Int_Tables_number   1
_chemical_formula_structural   MgFe3(NO3)8
_chemical_formula_sum   'Mg1 Fe3 N8 O24'
_cell_volume   446.34784832
_cell_formula_units_Z   1
loop_
 _symmetry_equiv_pos_site_id
 _symmetry_equiv_pos_as_xyz
  1  'x, y, z'
loop_
 _atom_site_type_symbol
 _atom_site_label
 _atom_site_symmetry_multiplicity
 _atom_site_fract_x
 _atom_site_fract_y
 _atom_site_fract_z
 _atom_site_occupancy
  Mg  Mg0  1  0.000000  0.000000  0.000000  1
  Fe  Fe1  1  0.000000  0.500000  0.500000  1
  Fe  Fe2  1  0.500000  0.500000  0.000000  1
  Fe  Fe3  1  0.500000  0.000000  0.500000  1
  N  N4  1  0.336462  0.336418  0.336551  1
  N  N5  1  0.845236  0.159635  0.654361  1
  N  N6  1  0.159685  0.654271  0.845143  1
  N  N7  1  0.654339  0.845173  0.159758  1
  N  N8  1  0.154764  0.840365  0.345639  1
  N  N9  1  0.663538  0.663582  0.663449  1
  N  N10  1  0.345661  0.154827  0.840242  1
  N  N11  1  0.840315  0.345729  0.154857  1
  O  O12  1  0.983227  0.250618  0.635291  1
  O  O13  1  0.016773  0.749382  0.364709  1
  O  O14  1  0.635258  0.983106  0.250864  1
  O  O15  1  0.251061  0.635163  0.982995  1
  O  O16  1  0.330109  0.223696  0.456450  1
  O  O17  1  0.456240  0.329932  0.223527  1
  O  O18  1  0.223608  0.456369  0.330180  1
  O  O19  1  0.669891  0.776304  0.543550  1
  O  O20  1  0.543760  0.670068  0.776473  1
  O  O21  1  0.776392  0.543631  0.669820  1
  O  O22  1  0.721564  0.172527  0.544683  1
  O  O23  1  0.544785  0.721563  0.172681  1
  O  O24  1  0.172367  0.544516  0.721491  1
  O  O25  1  0.278436  0.827473  0.455317  1
  O  O26  1  0.455215  0.278437  0.827319  1
  O  O27  1  0.827633  0.455484  0.278509  1
  O  O28  1  0.167245  0.943373  0.217947  1
  O  O29  1  0.217871  0.167165  0.943270  1
  O  O30  1  0.943260  0.218104  0.167151  1
  O  O31  1  0.832755  0.056627  0.782053  1
  O  O32  1  0.782129  0.832835  0.056730  1
  O  O33  1  0.056740  0.781896  0.832849  1
  O  O34  1  0.364742  0.016894  0.749136  1
  O  O35  1  0.748939  0.364837  0.017005  1
