# generated using pymatgen
data_Pu7WO24
_symmetry_space_group_name_H-M   'P 1'
_cell_length_a   8.19872780
_cell_length_b   8.27709841
_cell_length_c   8.26544561
_cell_angle_alpha   89.94565113
_cell_angle_beta   89.73325405
_cell_angle_gamma   89.63975056
_symmetry_Int_Tables_number   1
_chemical_formula_structural   Pu7WO24
_chemical_formula_sum   'Pu7 W1 O24'
_cell_volume   560.88959584
_cell_formula_units_Z   1
loop_
 _symmetry_equiv_pos_site_id
 _symmetry_equiv_pos_as_xyz
  1  'x, y, z'
loop_
 _atom_site_type_symbol
 _atom_site_label
 _atom_site_symmetry_multiplicity
 _atom_site_fract_x
 _atom_site_fract_y
 _atom_site_fract_z
 _atom_site_occupancy
  Pu  Pu0  1  0.749997  0.499260  0.249959  1
  Pu  Pu1  1  0.250081  0.500864  0.250043  1
  Pu  Pu2  1  0.750010  0.999353  0.249094  1
  Pu  Pu3  1  0.249939  0.000843  0.250141  1
  Pu  Pu4  1  0.250008  0.500655  0.750049  1
  Pu  Pu5  1  0.749988  0.499313  0.750051  1
  Pu  Pu6  1  0.249953  0.000623  0.750234  1
  W  W7  1  0.750010  0.999378  0.748372  1
  O  O8  1  0.764144  0.499320  0.526064  1
  O  O9  1  0.264806  0.501252  0.025814  1
  O  O10  1  0.746013  0.999287  0.997422  1
  O  O11  1  0.245748  0.001148  0.522295  1
  O  O12  1  0.235363  0.501014  0.474272  1
  O  O13  1  0.735786  0.499028  0.974021  1
  O  O14  1  0.254120  0.000629  0.978161  1
  O  O15  1  0.754078  0.999166  0.503323  1
  O  O16  1  0.510914  0.994035  0.746912  1
  O  O17  1  0.989034  0.005761  0.753835  1
  O  O18  1  0.016912  0.488974  0.764697  1
  O  O19  1  0.483122  0.511926  0.735424  1
  O  O20  1  0.517779  0.020260  0.254946  1
  O  O21  1  0.982320  0.979139  0.244269  1
  O  O22  1  0.998582  0.518198  0.236456  1
  O  O23  1  0.501397  0.480240  0.263518  1
  O  O24  1  0.770135  0.273664  0.249267  1
  O  O25  1  0.261729  0.270580  0.749823  1
  O  O26  1  0.743571  0.231114  0.749876  1
  O  O27  1  0.238297  0.730722  0.750385  1
  O  O28  1  0.229807  0.223867  0.249329  1
  O  O29  1  0.729862  0.724836  0.250473  1
  O  O30  1  0.270079  0.777694  0.251013  1
  O  O31  1  0.756415  0.767856  0.750461  1
