# generated using pymatgen
data_Cr3AgBi4F28
_symmetry_space_group_name_H-M   'P 1'
_cell_length_a   5.59847160
_cell_length_b   9.09401975
_cell_length_c   12.00239400
_cell_angle_alpha   62.13411392
_cell_angle_beta   90.13953298
_cell_angle_gamma   89.95418057
_symmetry_Int_Tables_number   1
_chemical_formula_structural   Cr3AgBi4F28
_chemical_formula_sum   'Cr3 Ag1 Bi4 F28'
_cell_volume   540.21276271
_cell_formula_units_Z   1
loop_
 _symmetry_equiv_pos_site_id
 _symmetry_equiv_pos_as_xyz
  1  'x, y, z'
loop_
 _atom_site_type_symbol
 _atom_site_label
 _atom_site_symmetry_multiplicity
 _atom_site_fract_x
 _atom_site_fract_y
 _atom_site_fract_z
 _atom_site_occupancy
  Cr  Cr0  1  0.757245  0.272550  0.958684  1
  Cr  Cr1  1  0.259728  0.726407  0.542249  1
  Cr  Cr2  1  0.239501  0.726935  0.042117  1
  Ag  Ag3  1  0.742733  0.272352  0.459193  1
  Bi  Bi4  1  0.773396  0.813956  0.759700  1
  Bi  Bi5  1  0.265365  0.186212  0.739241  1
  Bi  Bi6  1  0.231872  0.184831  0.237195  1
  Bi  Bi7  1  0.727860  0.808731  0.262493  1
  F  F8  1  0.422055  0.712055  0.921872  1
  F  F9  1  0.932462  0.293699  0.593504  1
  F  F10  1  0.574908  0.288446  0.078819  1
  F  F11  1  0.076752  0.711765  0.421409  1
  F  F12  1  0.420836  0.279619  0.547557  1
  F  F13  1  0.953159  0.722587  0.957119  1
  F  F14  1  0.546509  0.724816  0.455230  1
  F  F15  1  0.047352  0.277970  0.044568  1
  F  F16  1  0.769600  0.498892  0.866373  1
  F  F17  1  0.274420  0.500101  0.634918  1
  F  F18  1  0.230395  0.500345  0.134078  1
  F  F19  1  0.734479  0.524022  0.357461  1
  F  F20  1  0.757036  0.042264  0.048748  1
  F  F21  1  0.256176  0.957343  0.451244  1
  F  F22  1  0.241183  0.957792  0.952353  1
  F  F23  1  0.738252  0.018344  0.554071  1
  F  F24  1  0.981431  0.726695  0.633414  1
  F  F25  1  0.478034  0.269661  0.869323  1
  F  F26  1  0.051155  0.271770  0.360094  1
  F  F27  1  0.521086  0.732914  0.130825  1
  F  F28  1  0.059311  0.747766  0.164267  1
  F  F29  1  0.555612  0.253203  0.322891  1
  F  F30  1  0.939119  0.253560  0.837699  1
  F  F31  1  0.440504  0.744805  0.664879  1
  F  F32  1  0.397347  0.969239  0.223048  1
  F  F33  1  0.903214  0.028919  0.275311  1
  F  F34  1  0.597551  0.029954  0.772833  1
  F  F35  1  0.102359  0.969480  0.725223  1
