# generated using pymatgen
data_Ho2Tm13Lu5(CoSb2)4
_symmetry_space_group_name_H-M   'P 1'
_cell_length_a   7.75109321
_cell_length_b   8.71172510
_cell_length_c   12.03708332
_cell_angle_alpha   90.01147896
_cell_angle_beta   89.97618707
_cell_angle_gamma   89.98738044
_symmetry_Int_Tables_number   1
_chemical_formula_structural   Ho2Tm13Lu5(CoSb2)4
_chemical_formula_sum   'Ho2 Tm13 Lu5 Co4 Sb8'
_cell_volume   812.80867892
_cell_formula_units_Z   1
loop_
 _symmetry_equiv_pos_site_id
 _symmetry_equiv_pos_as_xyz
  1  'x, y, z'
loop_
 _atom_site_type_symbol
 _atom_site_label
 _atom_site_symmetry_multiplicity
 _atom_site_fract_x
 _atom_site_fract_y
 _atom_site_fract_z
 _atom_site_occupancy
  Ho  Ho0  1  0.377450  0.249937  0.692091  1
  Ho  Ho1  1  0.877720  0.750154  0.808015  1
  Tm  Tm2  1  0.156593  0.750103  0.203621  1
  Tm  Tm3  1  0.656615  0.249915  0.296295  1
  Tm  Tm4  1  0.843748  0.250000  0.796366  1
  Tm  Tm5  1  0.343516  0.749959  0.703744  1
  Tm  Tm6  1  0.449835  0.750064  0.998028  1
  Tm  Tm7  1  0.950126  0.250047  0.501934  1
  Tm  Tm8  1  0.549336  0.249854  0.002119  1
  Tm  Tm9  1  0.049415  0.750062  0.497901  1
  Tm  Tm10  1  0.621874  0.749945  0.308620  1
  Tm  Tm11  1  0.121914  0.249952  0.191230  1
  Tm  Tm12  1  0.676284  0.962323  0.565069  1
  Tm  Tm13  1  0.824084  0.536442  0.065574  1
  Tm  Tm14  1  0.324078  0.463404  0.434409  1
  Lu  Lu15  1  0.824894  0.963519  0.065442  1
  Lu  Lu16  1  0.324622  0.036583  0.434451  1
  Lu  Lu17  1  0.175605  0.462282  0.935005  1
  Lu  Lu18  1  0.675698  0.537651  0.565009  1
  Lu  Lu19  1  0.175404  0.037718  0.935066  1
  Co  Co20  1  0.432037  0.749963  0.490569  1
  Co  Co21  1  0.932502  0.249747  0.009293  1
  Co  Co22  1  0.568251  0.249977  0.508955  1
  Co  Co23  1  0.068440  0.750294  0.991046  1
  Sb  Sb24  1  0.931163  0.991634  0.327448  1
  Sb  Sb25  1  0.431251  0.008410  0.172539  1
  Sb  Sb26  1  0.068837  0.491513  0.672317  1
  Sb  Sb27  1  0.568825  0.508484  0.827696  1
  Sb  Sb28  1  0.069003  0.008532  0.672389  1
  Sb  Sb29  1  0.568715  0.991540  0.827784  1
  Sb  Sb30  1  0.931079  0.508411  0.327439  1
  Sb  Sb31  1  0.431086  0.491582  0.172535  1
