# generated using pymatgen
data_K2ScFeF7
_symmetry_space_group_name_H-M   'P 1'
_cell_length_a   7.89943535
_cell_length_b   7.89943432
_cell_length_c   7.89943577
_cell_angle_alpha   120.20300822
_cell_angle_beta   117.12822423
_cell_angle_gamma   92.34699145
_symmetry_Int_Tables_number   1
_chemical_formula_structural   K2ScFeF7
_chemical_formula_sum   'K4 Sc2 Fe2 F14'
_cell_volume   354.95981153
_cell_formula_units_Z   2
loop_
 _symmetry_equiv_pos_site_id
 _symmetry_equiv_pos_as_xyz
  1  'x, y, z'
loop_
 _atom_site_type_symbol
 _atom_site_label
 _atom_site_symmetry_multiplicity
 _atom_site_fract_x
 _atom_site_fract_y
 _atom_site_fract_z
 _atom_site_occupancy
  K  K0  1  0.500000  0.500000  0.000000  1
  K  K1  1  0.000000  0.000000  0.000000  1
  K  K2  1  0.000000  0.500000  0.000000  1
  K  K3  1  0.000000  0.000000  0.500000  1
  Sc  Sc4  1  0.000000  0.500000  0.500000  1
  Sc  Sc5  1  0.500000  0.000000  0.500000  1
  Fe  Fe6  1  0.500000  0.500000  0.500000  1
  Fe  Fe7  1  0.500000  0.000000  0.000000  1
  F  F8  1  0.875929  0.590368  0.285562  1
  F  F9  1  0.195193  0.909632  0.285562  1
  F  F10  1  0.189552  0.806552  0.762231  1
  F  F11  1  0.455679  0.693448  0.382999  1
  F  F12  1  0.455679  0.072680  0.762231  1
  F  F13  1  0.189552  0.427320  0.382999  1
  F  F14  1  0.810448  0.572680  0.617001  1
  F  F15  1  0.544321  0.927320  0.237769  1
  F  F16  1  0.544321  0.306552  0.617001  1
  F  F17  1  0.810448  0.193448  0.237769  1
  F  F18  1  0.404404  0.250000  0.154404  1
  F  F19  1  0.124071  0.409632  0.714438  1
  F  F20  1  0.804807  0.090368  0.714438  1
  F  F21  1  0.595596  0.750000  0.845596  1
