# generated using pymatgen
data_La16Tb3YbIr12
_symmetry_space_group_name_H-M   'P 1'
_cell_length_a   11.39625500
_cell_length_b   11.39625500
_cell_length_c   6.53375800
_cell_angle_alpha   90.00000000
_cell_angle_beta   90.00000000
_cell_angle_gamma   90.00000000
_symmetry_Int_Tables_number   1
_chemical_formula_structural   La16Tb3YbIr12
_chemical_formula_sum   'La16 Tb3 Yb1 Ir12'
_cell_volume   848.56938986
_cell_formula_units_Z   1
loop_
 _symmetry_equiv_pos_site_id
 _symmetry_equiv_pos_as_xyz
  1  'x, y, z'
loop_
 _atom_site_type_symbol
 _atom_site_label
 _atom_site_symmetry_multiplicity
 _atom_site_fract_x
 _atom_site_fract_y
 _atom_site_fract_z
 _atom_site_occupancy
  La  La0  1  0.286095  0.088050  0.388647  1
  La  La1  1  0.288077  0.911074  0.889300  1
  La  La2  1  0.711923  0.088926  0.889300  1
  La  La3  1  0.713905  0.911950  0.388647  1
  La  La4  1  0.589152  0.788380  0.887535  1
  La  La5  1  0.588550  0.211270  0.387273  1
  La  La6  1  0.411450  0.788730  0.387273  1
  La  La7  1  0.410848  0.211620  0.887535  1
  La  La8  1  0.211270  0.411450  0.612727  1
  La  La9  1  0.211620  0.589152  0.112465  1
  La  La10  1  0.788380  0.410848  0.112465  1
  La  La11  1  0.788730  0.588550  0.612727  1
  La  La12  1  0.911074  0.711923  0.110700  1
  La  La13  1  0.911950  0.286095  0.611353  1
  La  La14  1  0.088050  0.713905  0.611353  1
  La  La15  1  0.088926  0.288077  0.110700  1
  Tb  Tb16  1  0.000000  0.000000  0.000000  1
  Tb  Tb17  1  0.500000  0.500000  0.000000  1
  Tb  Tb18  1  0.500000  0.500000  0.500000  1
  Yb  Yb19  1  0.000000  0.000000  0.500000  1
  Ir  Ir20  1  0.847708  0.152167  0.244934  1
  Ir  Ir21  1  0.847833  0.847708  0.755066  1
  Ir  Ir22  1  0.152167  0.152292  0.755066  1
  Ir  Ir23  1  0.152292  0.847833  0.244934  1
  Ir  Ir24  1  0.649865  0.350367  0.749338  1
  Ir  Ir25  1  0.649633  0.649865  0.250662  1
  Ir  Ir26  1  0.350367  0.350135  0.250662  1
  Ir  Ir27  1  0.350135  0.649633  0.749338  1
  Ir  Ir28  1  0.500000  0.000000  0.118509  1
  Ir  Ir29  1  0.500000  0.000000  0.617412  1
  Ir  Ir30  1  0.000000  0.500000  0.881491  1
  Ir  Ir31  1  0.000000  0.500000  0.382588  1
