# generated using pymatgen
data_Th5Sc3(Co4P3)4
_symmetry_space_group_name_H-M   'P 1'
_cell_length_a   12.39910500
_cell_length_b   12.39910446
_cell_length_c   3.81538200
_cell_angle_alpha   90.00000000
_cell_angle_beta   90.00000000
_cell_angle_gamma   120.00000411
_symmetry_Int_Tables_number   1
_chemical_formula_structural   Th5Sc3(Co4P3)4
_chemical_formula_sum   'Th5 Sc3 Co16 P12'
_cell_volume   507.98313824
_cell_formula_units_Z   1
loop_
 _symmetry_equiv_pos_site_id
 _symmetry_equiv_pos_as_xyz
  1  'x, y, z'
loop_
 _atom_site_type_symbol
 _atom_site_label
 _atom_site_symmetry_multiplicity
 _atom_site_fract_x
 _atom_site_fract_y
 _atom_site_fract_z
 _atom_site_occupancy
  Th  Th0  1  0.666667  0.333333  0.000000  1
  Th  Th1  1  0.333333  0.666667  0.000000  1
  Th  Th2  1  0.815755  0.815755  0.500000  1
  Th  Th3  1  0.184245  0.000000  0.500000  1
  Th  Th4  1  0.000000  0.184245  0.500000  1
  Sc  Sc5  1  0.435773  0.435773  0.000000  1
  Sc  Sc6  1  0.564227  0.000000  0.000000  1
  Sc  Sc7  1  0.000000  0.564227  0.000000  1
  Co  Co8  1  0.874804  0.354709  0.500000  1
  Co  Co9  1  0.645291  0.520096  0.500000  1
  Co  Co10  1  0.479904  0.125196  0.500000  1
  Co  Co11  1  0.354709  0.874804  0.500000  1
  Co  Co12  1  0.520096  0.645291  0.500000  1
  Co  Co13  1  0.125196  0.479904  0.500000  1
  Co  Co14  1  0.805130  0.180088  0.000000  1
  Co  Co15  1  0.819912  0.625042  0.000000  1
  Co  Co16  1  0.374958  0.194870  0.000000  1
  Co  Co17  1  0.180088  0.805130  0.000000  1
  Co  Co18  1  0.625042  0.819912  0.000000  1
  Co  Co19  1  0.194870  0.374958  0.000000  1
  Co  Co20  1  0.279369  0.279369  0.500000  1
  Co  Co21  1  0.720631  0.000000  0.500000  1
  Co  Co22  1  0.000000  0.720631  0.500000  1
  Co  Co23  1  0.000000  0.000000  0.000000  1
  P  P24  1  0.693209  0.167302  0.500000  1
  P  P25  1  0.832698  0.525907  0.500000  1
  P  P26  1  0.474093  0.306791  0.500000  1
  P  P27  1  0.167302  0.693209  0.500000  1
  P  P28  1  0.525907  0.832698  0.500000  1
  P  P29  1  0.306791  0.474093  0.500000  1
  P  P30  1  0.182502  0.182502  0.000000  1
  P  P31  1  0.817498  0.000000  0.000000  1
  P  P32  1  0.000000  0.817498  0.000000  1
  P  P33  1  0.639209  0.639209  0.000000  1
  P  P34  1  0.360791  0.000000  0.000000  1
  P  P35  1  0.000000  0.360791  0.000000  1
