# generated using pymatgen
data_LaNdY(Ga2Ni3)3
_symmetry_space_group_name_H-M   'P 1'
_cell_length_a   8.88109600
_cell_length_b   8.88109622
_cell_length_c   4.13392200
_cell_angle_alpha   90.00000000
_cell_angle_beta   90.00000000
_cell_angle_gamma   119.99999919
_symmetry_Int_Tables_number   1
_chemical_formula_structural   LaNdY(Ga2Ni3)3
_chemical_formula_sum   'La1 Nd1 Y1 Ga6 Ni9'
_cell_volume   282.37487585
_cell_formula_units_Z   1
loop_
 _symmetry_equiv_pos_site_id
 _symmetry_equiv_pos_as_xyz
  1  'x, y, z'
loop_
 _atom_site_type_symbol
 _atom_site_label
 _atom_site_symmetry_multiplicity
 _atom_site_fract_x
 _atom_site_fract_y
 _atom_site_fract_z
 _atom_site_occupancy
  La  La0  1  0.333333  0.666667  0.500000  1
  Nd  Nd1  1  0.666667  0.333333  0.500000  1
  Y  Y2  1  0.000000  0.000000  0.000000  1
  Ga  Ga3  1  0.480467  0.002538  0.000000  1
  Ga  Ga4  1  0.997462  0.477929  0.000000  1
  Ga  Ga5  1  0.522071  0.519533  0.000000  1
  Ga  Ga6  1  0.733641  0.000798  0.500000  1
  Ga  Ga7  1  0.999202  0.732843  0.500000  1
  Ga  Ga8  1  0.267157  0.266359  0.500000  1
  Ni  Ni9  1  0.195859  0.366881  0.000000  1
  Ni  Ni10  1  0.633119  0.828978  0.000000  1
  Ni  Ni11  1  0.171022  0.804141  0.000000  1
  Ni  Ni12  1  0.829311  0.631564  0.000000  1
  Ni  Ni13  1  0.802254  0.170689  0.000000  1
  Ni  Ni14  1  0.368436  0.197746  0.000000  1
  Ni  Ni15  1  0.288847  0.999920  0.500000  1
  Ni  Ni16  1  0.000080  0.288927  0.500000  1
  Ni  Ni17  1  0.711073  0.711153  0.500000  1
