# generated using pymatgen
data_Th3Be(SiPd4)5
_symmetry_space_group_name_H-M   'P 1'
_cell_length_a   8.78235119
_cell_length_b   8.73820770
_cell_length_c   8.73820607
_cell_angle_alpha   60.33450852
_cell_angle_beta   59.83274399
_cell_angle_gamma   59.83274233
_symmetry_Int_Tables_number   1
_chemical_formula_structural   Th3Be(SiPd4)5
_chemical_formula_sum   'Th3 Be1 Si5 Pd20'
_cell_volume   474.15261466
_cell_formula_units_Z   1
loop_
 _symmetry_equiv_pos_site_id
 _symmetry_equiv_pos_as_xyz
  1  'x, y, z'
loop_
 _atom_site_type_symbol
 _atom_site_label
 _atom_site_symmetry_multiplicity
 _atom_site_fract_x
 _atom_site_fract_y
 _atom_site_fract_z
 _atom_site_occupancy
  Th  Th0  1  0.248677  0.251323  0.251323  1
  Th  Th1  1  0.748677  0.751323  0.751323  1
  Th  Th2  1  0.995184  0.004816  0.004816  1
  Be  Be3  1  0.729286  0.270714  0.270714  1
  Si  Si4  1  0.267447  0.732553  0.732553  1
  Si  Si5  1  0.269814  0.730186  0.268993  1
  Si  Si6  1  0.731007  0.268993  0.730186  1
  Si  Si7  1  0.269814  0.268993  0.730186  1
  Si  Si8  1  0.731007  0.730186  0.268993  1
  Pd  Pd9  1  0.388436  0.381347  0.381347  1
  Pd  Pd10  1  0.616614  0.615824  0.615824  1
  Pd  Pd11  1  0.384176  0.383386  0.848263  1
  Pd  Pd12  1  0.384176  0.848263  0.383386  1
  Pd  Pd13  1  0.618653  0.611564  0.151128  1
  Pd  Pd14  1  0.618653  0.151128  0.611564  1
  Pd  Pd15  1  0.848872  0.381347  0.381347  1
  Pd  Pd16  1  0.151737  0.615824  0.615824  1
  Pd  Pd17  1  0.346060  0.000198  0.000198  1
  Pd  Pd18  1  0.653545  0.000198  0.000198  1
  Pd  Pd19  1  0.999802  0.346455  0.653940  1
  Pd  Pd20  1  0.999802  0.653940  0.346455  1
  Pd  Pd21  1  0.995855  0.343560  0.004145  1
  Pd  Pd22  1  0.656440  0.004145  0.343560  1
  Pd  Pd23  1  0.000119  0.653134  0.999881  1
  Pd  Pd24  1  0.346866  0.999881  0.653134  1
  Pd  Pd25  1  0.995855  0.004145  0.343560  1
  Pd  Pd26  1  0.000119  0.999881  0.653134  1
  Pd  Pd27  1  0.656440  0.343560  0.004145  1
  Pd  Pd28  1  0.346866  0.653134  0.999881  1
