# generated using pymatgen
data_Na(TbB9)2
_symmetry_space_group_name_H-M   'P 1'
_cell_length_a   4.12050600
_cell_length_b   4.12050600
_cell_length_c   12.37874200
_cell_angle_alpha   90.00000000
_cell_angle_beta   90.00000000
_cell_angle_gamma   90.00000000
_symmetry_Int_Tables_number   1
_chemical_formula_structural   Na(TbB9)2
_chemical_formula_sum   'Na1 Tb2 B18'
_cell_volume   210.17333380
_cell_formula_units_Z   1
loop_
 _symmetry_equiv_pos_site_id
 _symmetry_equiv_pos_as_xyz
  1  'x, y, z'
loop_
 _atom_site_type_symbol
 _atom_site_label
 _atom_site_symmetry_multiplicity
 _atom_site_fract_x
 _atom_site_fract_y
 _atom_site_fract_z
 _atom_site_occupancy
  Na  Na0  1  0.000000  0.000000  0.000000  1
  Tb  Tb1  1  0.000000  0.000000  0.326795  1
  Tb  Tb2  1  0.000000  0.000000  0.673205  1
  B  B3  1  0.200853  0.500000  0.169329  1
  B  B4  1  0.199354  0.500000  0.500000  1
  B  B5  1  0.200853  0.500000  0.830671  1
  B  B6  1  0.500000  0.500000  0.268752  1
  B  B7  1  0.500000  0.500000  0.599188  1
  B  B8  1  0.500000  0.500000  0.931967  1
  B  B9  1  0.500000  0.200853  0.169329  1
  B  B10  1  0.500000  0.199354  0.500000  1
  B  B11  1  0.500000  0.200853  0.830671  1
  B  B12  1  0.500000  0.500000  0.068033  1
  B  B13  1  0.500000  0.500000  0.400812  1
  B  B14  1  0.500000  0.500000  0.731248  1
  B  B15  1  0.500000  0.799147  0.169329  1
  B  B16  1  0.500000  0.800646  0.500000  1
  B  B17  1  0.500000  0.799147  0.830671  1
  B  B18  1  0.799147  0.500000  0.169329  1
  B  B19  1  0.800646  0.500000  0.500000  1
  B  B20  1  0.799147  0.500000  0.830671  1
