# generated using pymatgen
data_LaY12Th3(CdIr)4
_symmetry_space_group_name_H-M   'P 1'
_cell_length_a   9.78662593
_cell_length_b   9.78662603
_cell_length_c   9.78662633
_cell_angle_alpha   59.93548346
_cell_angle_beta   59.93548224
_cell_angle_gamma   59.93548211
_symmetry_Int_Tables_number   1
_chemical_formula_structural   LaY12Th3(CdIr)4
_chemical_formula_sum   'La1 Y12 Th3 Cd4 Ir4'
_cell_volume   661.83235424
_cell_formula_units_Z   1
loop_
 _symmetry_equiv_pos_site_id
 _symmetry_equiv_pos_as_xyz
  1  'x, y, z'
loop_
 _atom_site_type_symbol
 _atom_site_label
 _atom_site_symmetry_multiplicity
 _atom_site_fract_x
 _atom_site_fract_y
 _atom_site_fract_z
 _atom_site_occupancy
  La  La0  1  0.350422  0.350422  0.350422  1
  Y  Y1  1  0.811431  0.188547  0.188547  1
  Y  Y2  1  0.186977  0.812172  0.812172  1
  Y  Y3  1  0.188547  0.811431  0.188547  1
  Y  Y4  1  0.812172  0.186977  0.812172  1
  Y  Y5  1  0.188547  0.188547  0.811431  1
  Y  Y6  1  0.812172  0.812172  0.186977  1
  Y  Y7  1  0.936043  0.564284  0.564284  1
  Y  Y8  1  0.563889  0.936179  0.936179  1
  Y  Y9  1  0.564284  0.936043  0.564284  1
  Y  Y10  1  0.936179  0.563889  0.936179  1
  Y  Y11  1  0.564284  0.564284  0.936043  1
  Y  Y12  1  0.936179  0.936179  0.563889  1
  Th  Th13  1  0.349831  0.349831  0.952090  1
  Th  Th14  1  0.349831  0.952090  0.349831  1
  Th  Th15  1  0.952090  0.349831  0.349831  1
  Cd  Cd16  1  0.582495  0.582495  0.582495  1
  Cd  Cd17  1  0.582940  0.582940  0.251960  1
  Cd  Cd18  1  0.582940  0.251960  0.582940  1
  Cd  Cd19  1  0.251960  0.582940  0.582940  1
  Ir  Ir20  1  0.143765  0.143765  0.143765  1
  Ir  Ir21  1  0.140726  0.140726  0.571570  1
  Ir  Ir22  1  0.140726  0.571570  0.140726  1
  Ir  Ir23  1  0.571570  0.140726  0.140726  1
