# generated using pymatgen
data_EuTh2(SnIr)3
_symmetry_space_group_name_H-M   'P 1'
_cell_length_a   7.55973800
_cell_length_b   7.54455623
_cell_length_c   4.08062700
_cell_angle_alpha   90.00000000
_cell_angle_beta   90.00000000
_cell_angle_gamma   119.93359476
_symmetry_Int_Tables_number   1
_chemical_formula_structural   EuTh2(SnIr)3
_chemical_formula_sum   'Eu1 Th2 Sn3 Ir3'
_cell_volume   201.69177640
_cell_formula_units_Z   1
loop_
 _symmetry_equiv_pos_site_id
 _symmetry_equiv_pos_as_xyz
  1  'x, y, z'
loop_
 _atom_site_type_symbol
 _atom_site_label
 _atom_site_symmetry_multiplicity
 _atom_site_fract_x
 _atom_site_fract_y
 _atom_site_fract_z
 _atom_site_occupancy
  Eu  Eu0  1  0.000000  0.590257  0.500000  1
  Th  Th1  1  0.413248  0.411837  0.500000  1
  Th  Th2  1  0.586752  0.998590  0.500000  1
  Sn  Sn3  1  0.759971  0.748613  0.000000  1
  Sn  Sn4  1  0.240029  0.988642  0.000000  1
  Sn  Sn5  1  0.000000  0.262605  0.000000  1
  Ir  Ir6  1  0.644911  0.314505  0.000000  1
  Ir  Ir7  1  0.355089  0.669596  0.000000  1
  Ir  Ir8  1  0.000000  0.015354  0.500000  1
