# generated using pymatgen
data_Sc3Ti2(Co2Si5)2
_symmetry_space_group_name_H-M   'P 1'
_cell_length_a   11.89509700
_cell_length_b   11.89509700
_cell_length_c   3.88406200
_cell_angle_alpha   90.00000000
_cell_angle_beta   90.00000000
_cell_angle_gamma   90.00000000
_symmetry_Int_Tables_number   1
_chemical_formula_structural   Sc3Ti2(Co2Si5)2
_chemical_formula_sum   'Sc6 Ti4 Co8 Si20'
_cell_volume   549.56887656
_cell_formula_units_Z   2
loop_
 _symmetry_equiv_pos_site_id
 _symmetry_equiv_pos_as_xyz
  1  'x, y, z'
loop_
 _atom_site_type_symbol
 _atom_site_label
 _atom_site_symmetry_multiplicity
 _atom_site_fract_x
 _atom_site_fract_y
 _atom_site_fract_z
 _atom_site_occupancy
  Sc  Sc0  1  0.000000  0.000000  0.000000  1
  Sc  Sc1  1  0.500000  0.500000  0.000000  1
  Sc  Sc2  1  0.887274  0.387274  0.500000  1
  Sc  Sc3  1  0.387274  0.112726  0.500000  1
  Sc  Sc4  1  0.612726  0.887274  0.500000  1
  Sc  Sc5  1  0.112726  0.612726  0.500000  1
  Ti  Ti6  1  0.674752  0.174752  0.500000  1
  Ti  Ti7  1  0.174752  0.325248  0.500000  1
  Ti  Ti8  1  0.825248  0.674752  0.500000  1
  Ti  Ti9  1  0.325248  0.825248  0.500000  1
  Co  Co10  1  0.522271  0.253002  0.000000  1
  Co  Co11  1  0.253002  0.477729  0.000000  1
  Co  Co12  1  0.746998  0.522271  0.000000  1
  Co  Co13  1  0.477729  0.746998  0.000000  1
  Co  Co14  1  0.977729  0.753002  0.000000  1
  Co  Co15  1  0.022271  0.246998  0.000000  1
  Co  Co16  1  0.753002  0.022271  0.000000  1
  Co  Co17  1  0.246998  0.977729  0.000000  1
  Si  Si18  1  0.569526  0.069526  0.000000  1
  Si  Si19  1  0.069526  0.430474  0.000000  1
  Si  Si20  1  0.930474  0.569526  0.000000  1
  Si  Si21  1  0.430474  0.930474  0.000000  1
  Si  Si22  1  0.195903  0.160110  0.000000  1
  Si  Si23  1  0.160110  0.804097  0.000000  1
  Si  Si24  1  0.839890  0.195903  0.000000  1
  Si  Si25  1  0.804097  0.839890  0.000000  1
  Si  Si26  1  0.304097  0.660110  0.000000  1
  Si  Si27  1  0.695903  0.339890  0.000000  1
  Si  Si28  1  0.660110  0.695903  0.000000  1
  Si  Si29  1  0.339890  0.304097  0.000000  1
  Si  Si30  1  0.011155  0.164073  0.500000  1
  Si  Si31  1  0.164073  0.988845  0.500000  1
  Si  Si32  1  0.835927  0.011155  0.500000  1
  Si  Si33  1  0.988845  0.835927  0.500000  1
  Si  Si34  1  0.488845  0.664073  0.500000  1
  Si  Si35  1  0.511155  0.335927  0.500000  1
  Si  Si36  1  0.664073  0.511155  0.500000  1
  Si  Si37  1  0.335927  0.488845  0.500000  1
