# generated using pymatgen
data_Eu4Ga18PdPt3Rh2
_symmetry_space_group_name_H-M   'P 1'
_cell_length_a   7.69135532
_cell_length_b   7.69135518
_cell_length_c   9.69480502
_cell_angle_alpha   90.02884268
_cell_angle_beta   90.02883554
_cell_angle_gamma   119.60150583
_symmetry_Int_Tables_number   1
_chemical_formula_structural   Eu4Ga18PdPt3Rh2
_chemical_formula_sum   'Eu4 Ga18 Pd1 Pt3 Rh2'
_cell_volume   498.66073574
_cell_formula_units_Z   1
loop_
 _symmetry_equiv_pos_site_id
 _symmetry_equiv_pos_as_xyz
  1  'x, y, z'
loop_
 _atom_site_type_symbol
 _atom_site_label
 _atom_site_symmetry_multiplicity
 _atom_site_fract_x
 _atom_site_fract_y
 _atom_site_fract_z
 _atom_site_occupancy
  Eu  Eu0  1  0.670139  0.996710  0.250104  1
  Eu  Eu1  1  0.003290  0.329861  0.749896  1
  Eu  Eu2  1  0.000117  0.672671  0.250081  1
  Eu  Eu3  1  0.327329  0.999883  0.749919  1
  Ga  Ga4  1  0.664828  0.002883  0.921953  1
  Ga  Ga5  1  0.132309  0.133837  0.249443  1
  Ga  Ga6  1  0.996176  0.335229  0.422143  1
  Ga  Ga7  1  0.336667  0.332809  0.561786  1
  Ga  Ga8  1  0.338697  0.542645  0.250039  1
  Ga  Ga9  1  0.457355  0.661303  0.749961  1
  Ga  Ga10  1  0.866163  0.867691  0.750557  1
  Ga  Ga11  1  0.666543  0.662725  0.062901  1
  Ga  Ga12  1  0.667191  0.663333  0.438214  1
  Ga  Ga13  1  0.994631  0.660842  0.578119  1
  Ga  Ga14  1  0.993827  0.661035  0.921629  1
  Ga  Ga15  1  0.339158  0.005369  0.421881  1
  Ga  Ga16  1  0.660516  0.450449  0.749943  1
  Ga  Ga17  1  0.549551  0.339484  0.250057  1
  Ga  Ga18  1  0.337275  0.333457  0.937099  1
  Ga  Ga19  1  0.338965  0.006173  0.078371  1
  Ga  Ga20  1  0.664771  0.003824  0.577857  1
  Ga  Ga21  1  0.997117  0.335172  0.078047  1
  Pd  Pd22  1  0.999962  0.000038  0.000000  1
  Pt  Pt23  1  0.329608  0.670392  0.500000  1
  Pt  Pt24  1  0.329225  0.670775  0.000000  1
  Pt  Pt25  1  0.000012  0.999988  0.500000  1
  Rh  Rh26  1  0.669096  0.330904  0.500000  1
  Rh  Rh27  1  0.669481  0.330519  0.000000  1
