# generated using pymatgen
data_Rb5ZnAu5
_symmetry_space_group_name_H-M   'P 1'
_cell_length_a   16.43018145
_cell_length_b   16.43018211
_cell_length_c   5.27940400
_cell_angle_alpha   90.00000000
_cell_angle_beta   90.00000000
_cell_angle_gamma   163.30052766
_symmetry_Int_Tables_number   1
_chemical_formula_structural   Rb5ZnAu5
_chemical_formula_sum   'Rb5 Zn1 Au5'
_cell_volume   409.52781375
_cell_formula_units_Z   1
loop_
 _symmetry_equiv_pos_site_id
 _symmetry_equiv_pos_as_xyz
  1  'x, y, z'
loop_
 _atom_site_type_symbol
 _atom_site_label
 _atom_site_symmetry_multiplicity
 _atom_site_fract_x
 _atom_site_fract_y
 _atom_site_fract_z
 _atom_site_occupancy
  Rb  Rb0  1  0.993033  0.006967  0.000000  1
  Rb  Rb1  1  0.619374  0.380624  0.000000  1
  Rb  Rb2  1  0.383220  0.616778  0.000000  1
  Rb  Rb3  1  0.805572  0.194426  0.500001  1
  Rb  Rb4  1  0.201199  0.798799  0.500001  1
  Zn  Zn5  1  0.072605  0.927394  0.500001  1
  Au  Au6  1  0.730679  0.269319  0.000000  1
  Au  Au7  1  0.272236  0.727762  0.000000  1
  Au  Au8  1  0.919394  0.080605  0.500001  1
  Au  Au9  1  0.544435  0.455563  0.500001  1
  Au  Au10  1  0.458245  0.541753  0.500001  1
