# generated using pymatgen
data_TbDyCo2(Ni4P3)2
_symmetry_space_group_name_H-M   'P 1'
_cell_length_a   3.70859700
_cell_length_b   10.34565000
_cell_length_c   11.84693400
_cell_angle_alpha   90.00000000
_cell_angle_beta   90.00000000
_cell_angle_gamma   90.00000000
_symmetry_Int_Tables_number   1
_chemical_formula_structural   TbDyCo2(Ni4P3)2
_chemical_formula_sum   'Tb2 Dy2 Co4 Ni16 P12'
_cell_volume   454.54134584
_cell_formula_units_Z   2
loop_
 _symmetry_equiv_pos_site_id
 _symmetry_equiv_pos_as_xyz
  1  'x, y, z'
loop_
 _atom_site_type_symbol
 _atom_site_label
 _atom_site_symmetry_multiplicity
 _atom_site_fract_x
 _atom_site_fract_y
 _atom_site_fract_z
 _atom_site_occupancy
  Tb  Tb0  1  0.250000  0.582217  0.703027  1
  Tb  Tb1  1  0.250000  0.917783  0.203027  1
  Dy  Dy2  1  0.750000  0.418573  0.296917  1
  Dy  Dy3  1  0.750000  0.081427  0.796917  1
  Co  Co4  1  0.250000  0.468260  0.932407  1
  Co  Co5  1  0.250000  0.031740  0.432407  1
  Co  Co6  1  0.750000  0.531097  0.068154  1
  Co  Co7  1  0.750000  0.968903  0.568154  1
  Ni  Ni8  1  0.250000  0.712480  0.991489  1
  Ni  Ni9  1  0.250000  0.787520  0.491489  1
  Ni  Ni10  1  0.750000  0.287108  0.008119  1
  Ni  Ni11  1  0.750000  0.212892  0.508119  1
  Ni  Ni12  1  0.250000  0.404049  0.488104  1
  Ni  Ni13  1  0.250000  0.095951  0.988104  1
  Ni  Ni14  1  0.750000  0.595985  0.511323  1
  Ni  Ni15  1  0.750000  0.904015  0.011323  1
  Ni  Ni16  1  0.250000  0.223174  0.178404  1
  Ni  Ni17  1  0.250000  0.276826  0.678404  1
  Ni  Ni18  1  0.750000  0.777057  0.821842  1
  Ni  Ni19  1  0.750000  0.722943  0.321842  1
  Ni  Ni20  1  0.250000  0.882377  0.699386  1
  Ni  Ni21  1  0.250000  0.617623  0.199386  1
  Ni  Ni22  1  0.750000  0.118073  0.300559  1
  Ni  Ni23  1  0.750000  0.381927  0.800559  1
  P  P24  1  0.250000  0.420538  0.112192  1
  P  P25  1  0.250000  0.079462  0.612192  1
  P  P26  1  0.750000  0.579335  0.888459  1
  P  P27  1  0.750000  0.920665  0.388459  1
  P  P28  1  0.250000  0.271318  0.870017  1
  P  P29  1  0.250000  0.228682  0.370017  1
  P  P30  1  0.750000  0.728101  0.129753  1
  P  P31  1  0.750000  0.771899  0.629753  1
  P  P32  1  0.250000  0.601976  0.393094  1
  P  P33  1  0.250000  0.898024  0.893094  1
  P  P34  1  0.750000  0.397934  0.606757  1
  P  P35  1  0.750000  0.102066  0.106757  1
