# generated using pymatgen
data_YbCoIrO6
_symmetry_space_group_name_H-M   'P 1'
_cell_length_a   5.05106200
_cell_length_b   5.05111480
_cell_length_c   4.93445600
_cell_angle_alpha   89.99705856
_cell_angle_beta   90.00090997
_cell_angle_gamma   120.00008478
_symmetry_Int_Tables_number   1
_chemical_formula_structural   YbCoIrO6
_chemical_formula_sum   'Yb1 Co1 Ir1 O6'
_cell_volume   109.02836012
_cell_formula_units_Z   1
loop_
 _symmetry_equiv_pos_site_id
 _symmetry_equiv_pos_as_xyz
  1  'x, y, z'
loop_
 _atom_site_type_symbol
 _atom_site_label
 _atom_site_symmetry_multiplicity
 _atom_site_fract_x
 _atom_site_fract_y
 _atom_site_fract_z
 _atom_site_occupancy
  Yb  Yb0  1  0.666643  0.333321  0.999972  1
  Co  Co1  1  0.000004  0.000010  0.500021  1
  Ir  Ir2  1  0.333290  0.666621  0.500079  1
  O  O3  1  0.293760  0.328542  0.287659  1
  O  O4  1  0.034822  0.706263  0.287638  1
  O  O5  1  0.671445  0.965205  0.287650  1
  O  O6  1  0.034852  0.328591  0.712332  1
  O  O7  1  0.671420  0.706257  0.712327  1
  O  O8  1  0.293767  0.965194  0.712319  1
