# generated using pymatgen
data_NdN8
_symmetry_space_group_name_H-M   'P 1'
_cell_length_a   3.94847083
_cell_length_b   3.92054305
_cell_length_c   13.05095250
_cell_angle_alpha   91.39470759
_cell_angle_beta   104.80820439
_cell_angle_gamma   101.02448791
_symmetry_Int_Tables_number   1
_chemical_formula_structural   NdN8
_chemical_formula_sum   'Nd1 N8'
_cell_volume   191.14461106
_cell_formula_units_Z   1
loop_
 _symmetry_equiv_pos_site_id
 _symmetry_equiv_pos_as_xyz
  1  'x, y, z'
loop_
 _atom_site_type_symbol
 _atom_site_label
 _atom_site_symmetry_multiplicity
 _atom_site_fract_x
 _atom_site_fract_y
 _atom_site_fract_z
 _atom_site_occupancy
  Nd  Nd0  1  0.678398  0.775510  0.619883  1
  N  N1  1  0.878182  0.938398  0.912366  1
  N  N2  1  0.273753  0.631508  0.328956  1
  N  N3  1  0.834064  0.883493  0.824292  1
  N  N4  1  0.617658  0.113857  0.168644  1
  N  N5  1  0.078291  0.378004  0.620500  1
  N  N6  1  0.282844  0.171733  0.619311  1
  N  N7  1  0.533894  0.283282  0.103656  1
  N  N8  1  0.412219  0.675799  0.416494  1
