# generated using pymatgen
data_Ca3HoTi4O12
_symmetry_space_group_name_H-M   'P 1'
_cell_length_a   5.38934361
_cell_length_b   5.53562653
_cell_length_c   7.69493900
_cell_angle_alpha   90.00000000
_cell_angle_beta   90.00000000
_cell_angle_gamma   89.77456661
_symmetry_Int_Tables_number   1
_chemical_formula_structural   Ca3HoTi4O12
_chemical_formula_sum   'Ca3 Ho1 Ti4 O12'
_cell_volume   229.56436586
_cell_formula_units_Z   1
loop_
 _symmetry_equiv_pos_site_id
 _symmetry_equiv_pos_as_xyz
  1  'x, y, z'
loop_
 _atom_site_type_symbol
 _atom_site_label
 _atom_site_symmetry_multiplicity
 _atom_site_fract_x
 _atom_site_fract_y
 _atom_site_fract_z
 _atom_site_occupancy
  Ca  Ca0  1  0.491941  0.455894  0.250000  1
  Ca  Ca1  1  0.989458  0.048405  0.750000  1
  Ca  Ca2  1  0.011135  0.951990  0.250000  1
  Ho  Ho3  1  0.513384  0.560807  0.750000  1
  Ti  Ti4  1  0.003496  0.498965  0.498742  1
  Ti  Ti5  1  0.003496  0.498965  0.001258  1
  Ti  Ti6  1  0.497770  0.003105  0.498889  1
  Ti  Ti7  1  0.497770  0.003105  0.001111  1
  O  O8  1  0.099310  0.476227  0.750000  1
  O  O9  1  0.922060  0.521670  0.250000  1
  O  O10  1  0.416643  0.970539  0.750000  1
  O  O11  1  0.582617  0.024013  0.250000  1
  O  O12  1  0.787459  0.785437  0.949988  1
  O  O13  1  0.202422  0.204305  0.458129  1
  O  O14  1  0.202422  0.204305  0.041871  1
  O  O15  1  0.787459  0.785437  0.550012  1
  O  O16  1  0.698650  0.299121  0.948449  1
  O  O17  1  0.296929  0.704293  0.462221  1
  O  O18  1  0.296929  0.704293  0.037779  1
  O  O19  1  0.698650  0.299121  0.551551  1
