# generated using pymatgen
data_Na4DyUSe6
_symmetry_space_group_name_H-M   'P 1'
_cell_length_a   7.26386731
_cell_length_b   7.26386756
_cell_length_c   7.32004013
_cell_angle_alpha   80.39588024
_cell_angle_beta   80.39588407
_cell_angle_gamma   120.03201032
_symmetry_Int_Tables_number   1
_chemical_formula_structural   Na4DyUSe6
_chemical_formula_sum   'Na4 Dy1 U1 Se6'
_cell_volume   315.19604453
_cell_formula_units_Z   1
loop_
 _symmetry_equiv_pos_site_id
 _symmetry_equiv_pos_as_xyz
  1  'x, y, z'
loop_
 _atom_site_type_symbol
 _atom_site_label
 _atom_site_symmetry_multiplicity
 _atom_site_fract_x
 _atom_site_fract_y
 _atom_site_fract_z
 _atom_site_occupancy
  Na  Na0  1  0.000020  0.999980  0.000000  1
  Na  Na1  1  0.501121  0.498879  0.500000  1
  Na  Na2  1  0.838983  0.161017  0.500000  1
  Na  Na3  1  0.159875  0.840125  0.500000  1
  Dy  Dy4  1  0.667712  0.332288  0.000000  1
  U  U5  1  0.332805  0.667195  0.000000  1
  Se  Se6  1  0.272435  0.282514  0.230179  1
  Se  Se7  1  0.426688  0.066942  0.770819  1
  Se  Se8  1  0.086864  0.437046  0.772404  1
  Se  Se9  1  0.717486  0.727565  0.769821  1
  Se  Se10  1  0.562954  0.913136  0.227596  1
  Se  Se11  1  0.933058  0.573312  0.229181  1
