# generated using pymatgen
data_YbLu2(BPt2)3
_symmetry_space_group_name_H-M   'P 1'
_cell_length_a   5.34994117
_cell_length_b   5.34994092
_cell_length_c   7.78505000
_cell_angle_alpha   90.00000000
_cell_angle_beta   90.00000000
_cell_angle_gamma   119.74572872
_symmetry_Int_Tables_number   1
_chemical_formula_structural   YbLu2(BPt2)3
_chemical_formula_sum   'Yb1 Lu2 B3 Pt6'
_cell_volume   193.46263092
_cell_formula_units_Z   1
loop_
 _symmetry_equiv_pos_site_id
 _symmetry_equiv_pos_as_xyz
  1  'x, y, z'
loop_
 _atom_site_type_symbol
 _atom_site_label
 _atom_site_symmetry_multiplicity
 _atom_site_fract_x
 _atom_site_fract_y
 _atom_site_fract_z
 _atom_site_occupancy
  Yb  Yb0  1  0.500000  0.500000  0.833333  1
  Lu  Lu1  1  0.500000  0.000000  0.502525  1
  Lu  Lu2  1  0.000000  0.500000  0.164142  1
  B  B3  1  0.500000  0.500000  0.333333  1
  B  B4  1  0.500000  0.000000  0.998639  1
  B  B5  1  0.000000  0.500000  0.668028  1
  Pt  Pt6  1  0.149219  0.850781  0.833333  1
  Pt  Pt7  1  0.146344  0.300116  0.497816  1
  Pt  Pt8  1  0.699884  0.853656  0.168851  1
  Pt  Pt9  1  0.850781  0.149219  0.833333  1
  Pt  Pt10  1  0.853656  0.699884  0.497816  1
  Pt  Pt11  1  0.300116  0.146344  0.168851  1
