# generated using pymatgen
data_Nd5FeIrO12
_symmetry_space_group_name_H-M   'P 1'
_cell_length_a   7.05851086
_cell_length_b   7.05851079
_cell_length_c   7.59318317
_cell_angle_alpha   74.44605259
_cell_angle_beta   74.44605385
_cell_angle_gamma   51.07798954
_symmetry_Int_Tables_number   1
_chemical_formula_structural   Nd5FeIrO12
_chemical_formula_sum   'Nd5 Fe1 Ir1 O12'
_cell_volume   281.02986862
_cell_formula_units_Z   1
loop_
 _symmetry_equiv_pos_site_id
 _symmetry_equiv_pos_as_xyz
  1  'x, y, z'
loop_
 _atom_site_type_symbol
 _atom_site_label
 _atom_site_symmetry_multiplicity
 _atom_site_fract_x
 _atom_site_fract_y
 _atom_site_fract_z
 _atom_site_occupancy
  Nd  Nd0  1  0.310487  0.300625  0.357998  1
  Nd  Nd1  1  0.699375  0.689513  0.642002  1
  Nd  Nd2  1  0.691189  0.694820  0.166567  1
  Nd  Nd3  1  0.305180  0.308811  0.833433  1
  Nd  Nd4  1  0.004881  0.995119  0.500000  1
  Fe  Fe5  1  0.755919  0.244081  0.000000  1
  Ir  Ir6  1  0.241333  0.758667  0.000000  1
  O  O7  1  0.097507  0.593975  0.576860  1
  O  O8  1  0.007062  0.991231  0.177677  1
  O  O9  1  0.406025  0.902493  0.423140  1
  O  O10  1  0.487390  0.513502  0.176281  1
  O  O11  1  0.098129  0.582027  0.079422  1
  O  O12  1  0.906764  0.401596  0.421655  1
  O  O13  1  0.008769  0.992938  0.822323  1
  O  O14  1  0.598404  0.093235  0.578345  1
  O  O15  1  0.486498  0.512610  0.823719  1
  O  O16  1  0.580635  0.103520  0.077636  1
  O  O17  1  0.417973  0.901871  0.920578  1
  O  O18  1  0.896480  0.419365  0.922364  1
