# generated using pymatgen
data_Ho2Mn2Te
_symmetry_space_group_name_H-M   'P 1'
_cell_length_a   3.87495000
_cell_length_b   3.87495161
_cell_length_c   16.89927500
_cell_angle_alpha   90.00000000
_cell_angle_beta   90.00000000
_cell_angle_gamma   119.99998624
_symmetry_Int_Tables_number   1
_chemical_formula_structural   Ho2Mn2Te
_chemical_formula_sum   'Ho4 Mn4 Te2'
_cell_volume   219.75114766
_cell_formula_units_Z   2
loop_
 _symmetry_equiv_pos_site_id
 _symmetry_equiv_pos_as_xyz
  1  'x, y, z'
loop_
 _atom_site_type_symbol
 _atom_site_label
 _atom_site_symmetry_multiplicity
 _atom_site_fract_x
 _atom_site_fract_y
 _atom_site_fract_z
 _atom_site_occupancy
  Ho  Ho0  1  0.000000  0.000000  0.120586  1
  Ho  Ho1  1  0.000000  0.000000  0.879414  1
  Ho  Ho2  1  0.000000  0.000000  0.620586  1
  Ho  Ho3  1  0.000000  0.000000  0.379414  1
  Mn  Mn4  1  0.333333  0.666667  0.503471  1
  Mn  Mn5  1  0.666667  0.333333  0.496529  1
  Mn  Mn6  1  0.666667  0.333333  0.003471  1
  Mn  Mn7  1  0.333333  0.666667  0.996529  1
  Te  Te8  1  0.333333  0.666667  0.250000  1
  Te  Te9  1  0.666667  0.333333  0.750000  1
