# generated using pymatgen
data_Y2UMnRu2
_symmetry_space_group_name_H-M   'P 1'
_cell_length_a   5.27847662
_cell_length_b   5.27847622
_cell_length_c   5.06108132
_cell_angle_alpha   67.15513296
_cell_angle_beta   67.15513791
_cell_angle_gamma   67.98221257
_symmetry_Int_Tables_number   1
_chemical_formula_structural   Y2UMnRu2
_chemical_formula_sum   'Y2 U1 Mn1 Ru2'
_cell_volume   115.51161504
_cell_formula_units_Z   1
loop_
 _symmetry_equiv_pos_site_id
 _symmetry_equiv_pos_as_xyz
  1  'x, y, z'
loop_
 _atom_site_type_symbol
 _atom_site_label
 _atom_site_symmetry_multiplicity
 _atom_site_fract_x
 _atom_site_fract_y
 _atom_site_fract_z
 _atom_site_occupancy
  Y  Y0  1  0.128989  0.128989  0.123376  1
  Y  Y1  1  0.871011  0.871011  0.876624  1
  U  U2  1  0.500000  0.500000  0.500000  1
  Mn  Mn3  1  0.500000  0.500000  0.000000  1
  Ru  Ru4  1  0.500000  0.000000  0.500000  1
  Ru  Ru5  1  0.000000  0.500000  0.500000  1
