# generated using pymatgen
data_Dy7HoTc2(B12Rh)2
_symmetry_space_group_name_H-M   'P 1'
_cell_length_a   3.68532700
_cell_length_b   9.15019719
_cell_length_c   11.53962006
_cell_angle_alpha   90.39621226
_cell_angle_beta   90.00000000
_cell_angle_gamma   90.00000000
_symmetry_Int_Tables_number   1
_chemical_formula_structural   Dy7HoTc2(B12Rh)2
_chemical_formula_sum   'Dy7 Ho1 Tc2 B24 Rh2'
_cell_volume   389.12363313
_cell_formula_units_Z   1
loop_
 _symmetry_equiv_pos_site_id
 _symmetry_equiv_pos_as_xyz
  1  'x, y, z'
loop_
 _atom_site_type_symbol
 _atom_site_label
 _atom_site_symmetry_multiplicity
 _atom_site_fract_x
 _atom_site_fract_y
 _atom_site_fract_z
 _atom_site_occupancy
  Dy  Dy0  1  0.500000  0.319059  0.410895  1
  Dy  Dy1  1  0.500000  0.680886  0.589040  1
  Dy  Dy2  1  0.500000  0.173133  0.917164  1
  Dy  Dy3  1  0.500000  0.826872  0.082915  1
  Dy  Dy4  1  0.500000  0.441958  0.126961  1
  Dy  Dy5  1  0.500000  0.558025  0.873050  1
  Dy  Dy6  1  0.500000  0.054169  0.628435  1
  Ho  Ho7  1  0.500000  0.945870  0.371425  1
  Tc  Tc8  1  0.500000  0.138918  0.180006  1
  Tc  Tc9  1  0.500000  0.860889  0.820104  1
  B  B10  1  0.000000  0.108513  0.470570  1
  B  B11  1  0.000000  0.891327  0.529014  1
  B  B12  1  0.000000  0.392486  0.970172  1
  B  B13  1  0.000000  0.607521  0.029834  1
  B  B14  1  0.000000  0.132358  0.314706  1
  B  B15  1  0.000000  0.867437  0.685388  1
  B  B16  1  0.000000  0.367145  0.816258  1
  B  B17  1  0.000000  0.632892  0.183755  1
  B  B18  1  0.000000  0.053250  0.067658  1
  B  B19  1  0.000000  0.946740  0.932382  1
  B  B20  1  0.000000  0.445561  0.566161  1
  B  B21  1  0.000000  0.554485  0.433831  1
  B  B22  1  0.000000  0.484041  0.287744  1
  B  B23  1  0.000000  0.515964  0.712257  1
  B  B24  1  0.000000  0.016152  0.787118  1
  B  B25  1  0.000000  0.983702  0.213088  1
  B  B26  1  0.000000  0.247734  0.081289  1
  B  B27  1  0.000000  0.752247  0.918713  1
  B  B28  1  0.000000  0.251191  0.578831  1
  B  B29  1  0.000000  0.749063  0.421129  1
  B  B30  1  0.000000  0.292422  0.234540  1
  B  B31  1  0.000000  0.707511  0.765481  1
  B  B32  1  0.000000  0.208834  0.734608  1
  B  B33  1  0.000000  0.791408  0.265462  1
  Rh  Rh34  1  0.500000  0.361992  0.678412  1
  Rh  Rh35  1  0.500000  0.638247  0.321605  1
