# generated using pymatgen
data_Ce5GaSn3
_symmetry_space_group_name_H-M   'P 1'
_cell_length_a   9.51204100
_cell_length_b   9.51204062
_cell_length_c   6.48264700
_cell_angle_alpha   90.00000000
_cell_angle_beta   90.00000000
_cell_angle_gamma   119.99999784
_symmetry_Int_Tables_number   1
_chemical_formula_structural   Ce5GaSn3
_chemical_formula_sum   'Ce10 Ga2 Sn6'
_cell_volume   507.96106446
_cell_formula_units_Z   2
loop_
 _symmetry_equiv_pos_site_id
 _symmetry_equiv_pos_as_xyz
  1  'x, y, z'
loop_
 _atom_site_type_symbol
 _atom_site_label
 _atom_site_symmetry_multiplicity
 _atom_site_fract_x
 _atom_site_fract_y
 _atom_site_fract_z
 _atom_site_occupancy
  Ce  Ce0  1  0.000000  0.269773  0.250000  1
  Ce  Ce1  1  0.730227  0.000000  0.750000  1
  Ce  Ce2  1  0.730227  0.730227  0.250000  1
  Ce  Ce3  1  0.666667  0.333333  0.500000  1
  Ce  Ce4  1  0.000000  0.730227  0.750000  1
  Ce  Ce5  1  0.269773  0.269773  0.750000  1
  Ce  Ce6  1  0.333333  0.666667  0.000000  1
  Ce  Ce7  1  0.666667  0.333333  0.000000  1
  Ce  Ce8  1  0.333333  0.666667  0.500000  1
  Ce  Ce9  1  0.269773  0.000000  0.250000  1
  Ga  Ga10  1  0.000000  0.000000  0.000000  1
  Ga  Ga11  1  0.000000  0.000000  0.500000  1
  Sn  Sn12  1  0.622363  0.000000  0.250000  1
  Sn  Sn13  1  0.377637  0.000000  0.750000  1
  Sn  Sn14  1  0.377637  0.377637  0.250000  1
  Sn  Sn15  1  0.000000  0.622363  0.250000  1
  Sn  Sn16  1  0.000000  0.377637  0.750000  1
  Sn  Sn17  1  0.622363  0.622363  0.750000  1
