# generated using pymatgen
data_La17Pr3Ir11Ru
_symmetry_space_group_name_H-M   'P 1'
_cell_length_a   11.43487300
_cell_length_b   11.43097600
_cell_length_c   6.65296000
_cell_angle_alpha   90.00000000
_cell_angle_beta   90.00000000
_cell_angle_gamma   89.99737900
_symmetry_Int_Tables_number   1
_chemical_formula_structural   La17Pr3Ir11Ru
_chemical_formula_sum   'La17 Pr3 Ir11 Ru1'
_cell_volume   869.62010254
_cell_formula_units_Z   1
loop_
 _symmetry_equiv_pos_site_id
 _symmetry_equiv_pos_as_xyz
  1  'x, y, z'
loop_
 _atom_site_type_symbol
 _atom_site_label
 _atom_site_symmetry_multiplicity
 _atom_site_fract_x
 _atom_site_fract_y
 _atom_site_fract_z
 _atom_site_occupancy
  La  La0  1  0.292228  0.089674  0.383450  1
  La  La1  1  0.292322  0.910064  0.887452  1
  La  La2  1  0.707678  0.089936  0.887452  1
  La  La3  1  0.707772  0.910326  0.383450  1
  La  La4  1  0.589770  0.792152  0.887144  1
  La  La5  1  0.589405  0.208164  0.384185  1
  La  La6  1  0.410595  0.791836  0.384185  1
  La  La7  1  0.410230  0.207848  0.887144  1
  La  La8  1  0.209246  0.409243  0.616103  1
  La  La9  1  0.209117  0.590552  0.115862  1
  La  La10  1  0.790883  0.409448  0.115862  1
  La  La11  1  0.790754  0.590757  0.616103  1
  La  La12  1  0.909290  0.708885  0.115549  1
  La  La13  1  0.908951  0.291191  0.616751  1
  La  La14  1  0.091049  0.708809  0.616751  1
  La  La15  1  0.090710  0.291115  0.115549  1
  La  La16  1  0.000000  0.000000  0.498610  1
  Pr  Pr17  1  0.000000  0.000000  0.998287  1
  Pr  Pr18  1  0.500000  0.500000  0.998351  1
  Pr  Pr19  1  0.500000  0.500000  0.498607  1
  Ir  Ir20  1  0.846462  0.154599  0.250568  1
  Ir  Ir21  1  0.846501  0.845548  0.748487  1
  Ir  Ir22  1  0.153499  0.154452  0.748487  1
  Ir  Ir23  1  0.153538  0.845401  0.250568  1
  Ir  Ir24  1  0.654753  0.346025  0.749453  1
  Ir  Ir25  1  0.655106  0.653871  0.249589  1
  Ir  Ir26  1  0.344894  0.346129  0.249589  1
  Ir  Ir27  1  0.345247  0.653975  0.749453  1
  Ir  Ir28  1  0.500000  0.000000  0.616690  1
  Ir  Ir29  1  0.000000  0.500000  0.883132  1
  Ir  Ir30  1  0.000000  0.500000  0.383558  1
  Ru  Ru31  1  0.500000  0.000000  0.113584  1
