# generated using pymatgen
data_Zr16Fe4TcAu3
_symmetry_space_group_name_H-M   'P 1'
_cell_length_a   8.76205583
_cell_length_b   8.76205688
_cell_length_c   8.76205800
_cell_angle_alpha   60.43012831
_cell_angle_beta   60.43011689
_cell_angle_gamma   60.43013337
_symmetry_Int_Tables_number   1
_chemical_formula_structural   Zr16Fe4TcAu3
_chemical_formula_sum   'Zr16 Fe4 Tc1 Au3'
_cell_volume   480.29317878
_cell_formula_units_Z   1
loop_
 _symmetry_equiv_pos_site_id
 _symmetry_equiv_pos_as_xyz
  1  'x, y, z'
loop_
 _atom_site_type_symbol
 _atom_site_label
 _atom_site_symmetry_multiplicity
 _atom_site_fract_x
 _atom_site_fract_y
 _atom_site_fract_z
 _atom_site_occupancy
  Zr  Zr0  1  0.052304  0.649280  0.649280  1
  Zr  Zr1  1  0.649280  0.052304  0.649280  1
  Zr  Zr2  1  0.649280  0.649280  0.052304  1
  Zr  Zr3  1  0.647407  0.647407  0.647407  1
  Zr  Zr4  1  0.809973  0.809973  0.189947  1
  Zr  Zr5  1  0.193054  0.193054  0.803630  1
  Zr  Zr6  1  0.809973  0.189947  0.809973  1
  Zr  Zr7  1  0.193054  0.803630  0.193054  1
  Zr  Zr8  1  0.189947  0.809973  0.809973  1
  Zr  Zr9  1  0.803630  0.193054  0.193054  1
  Zr  Zr10  1  0.439918  0.439918  0.069366  1
  Zr  Zr11  1  0.061653  0.061653  0.439619  1
  Zr  Zr12  1  0.439918  0.069366  0.439918  1
  Zr  Zr13  1  0.061653  0.439619  0.061653  1
  Zr  Zr14  1  0.069366  0.439918  0.439918  1
  Zr  Zr15  1  0.439619  0.061653  0.061653  1
  Fe  Fe16  1  0.423902  0.857915  0.857915  1
  Fe  Fe17  1  0.857915  0.423902  0.857915  1
  Fe  Fe18  1  0.857915  0.857915  0.423902  1
  Fe  Fe19  1  0.859789  0.859789  0.859789  1
  Tc  Tc20  1  0.411998  0.411998  0.411998  1
  Au  Au21  1  0.751829  0.413308  0.413308  1
  Au  Au22  1  0.413308  0.751829  0.413308  1
  Au  Au23  1  0.413308  0.413308  0.751829  1
