# generated using pymatgen
data_Tb2YTh11Ru6
_symmetry_space_group_name_H-M   'P 1'
_cell_length_a   9.82194917
_cell_length_b   9.90111680
_cell_length_c   6.41080435
_cell_angle_alpha   90.09190052
_cell_angle_beta   89.95823081
_cell_angle_gamma   120.31281306
_symmetry_Int_Tables_number   1
_chemical_formula_structural   Tb2YTh11Ru6
_chemical_formula_sum   'Tb2 Y1 Th11 Ru6'
_cell_volume   538.20393283
_cell_formula_units_Z   1
loop_
 _symmetry_equiv_pos_site_id
 _symmetry_equiv_pos_as_xyz
  1  'x, y, z'
loop_
 _atom_site_type_symbol
 _atom_site_label
 _atom_site_symmetry_multiplicity
 _atom_site_fract_x
 _atom_site_fract_y
 _atom_site_fract_z
 _atom_site_occupancy
  Tb  Tb0  1  0.460509  0.536342  0.295679  1
  Tb  Tb1  1  0.073996  0.535906  0.300231  1
  Y  Y2  1  0.925948  0.462198  0.798528  1
  Th  Th3  1  0.249303  0.125992  0.510595  1
  Th  Th4  1  0.542642  0.083372  0.797003  1
  Th  Th5  1  0.748229  0.873826  0.012176  1
  Th  Th6  1  0.666358  0.333401  0.278382  1
  Th  Th7  1  0.125235  0.870711  0.008049  1
  Th  Th8  1  0.459782  0.918043  0.297485  1
  Th  Th9  1  0.539667  0.463114  0.797900  1
  Th  Th10  1  0.876427  0.128449  0.511477  1
  Th  Th11  1  0.123916  0.251444  0.012853  1
  Th  Th12  1  0.874182  0.748955  0.508357  1
  Th  Th13  1  0.334520  0.666357  0.774567  1
  Ru  Ru14  1  0.811251  0.631894  0.047397  1
  Ru  Ru15  1  0.813320  0.180301  0.047431  1
  Ru  Ru16  1  0.631947  0.816901  0.546121  1
  Ru  Ru17  1  0.370289  0.187565  0.042237  1
  Ru  Ru18  1  0.183625  0.365328  0.553378  1
  Ru  Ru19  1  0.188855  0.819904  0.544149  1
