# generated using pymatgen
data_Tb8ZnHgRh2
_symmetry_space_group_name_H-M   'P 1'
_cell_length_a   9.58798660
_cell_length_b   9.58798773
_cell_length_c   9.59697200
_cell_angle_alpha   59.96899831
_cell_angle_beta   59.96899442
_cell_angle_gamma   59.99702224
_symmetry_Int_Tables_number   1
_chemical_formula_structural   Tb8ZnHgRh2
_chemical_formula_sum   'Tb16 Zn2 Hg2 Rh4'
_cell_volume   623.53476777
_cell_formula_units_Z   2
loop_
 _symmetry_equiv_pos_site_id
 _symmetry_equiv_pos_as_xyz
  1  'x, y, z'
loop_
 _atom_site_type_symbol
 _atom_site_label
 _atom_site_symmetry_multiplicity
 _atom_site_fract_x
 _atom_site_fract_y
 _atom_site_fract_z
 _atom_site_occupancy
  Tb  Tb0  1  0.808657  0.808657  0.191343  1
  Tb  Tb1  1  0.810716  0.191342  0.807472  1
  Tb  Tb2  1  0.190699  0.190699  0.809301  1
  Tb  Tb3  1  0.647260  0.057592  0.647574  1
  Tb  Tb4  1  0.063606  0.063606  0.436394  1
  Tb  Tb5  1  0.437135  0.437135  0.062865  1
  Tb  Tb6  1  0.647864  0.647864  0.648147  1
  Tb  Tb7  1  0.810716  0.191342  0.190471  1
  Tb  Tb8  1  0.191342  0.810716  0.807472  1
  Tb  Tb9  1  0.057592  0.647260  0.647574  1
  Tb  Tb10  1  0.437192  0.059929  0.066614  1
  Tb  Tb11  1  0.437192  0.059929  0.436265  1
  Tb  Tb12  1  0.059929  0.437192  0.066614  1
  Tb  Tb13  1  0.647864  0.647864  0.056125  1
  Tb  Tb14  1  0.191342  0.810716  0.190471  1
  Tb  Tb15  1  0.059929  0.437192  0.436265  1
  Zn  Zn16  1  0.420413  0.744961  0.417313  1
  Zn  Zn17  1  0.744961  0.420413  0.417313  1
  Hg  Hg18  1  0.418580  0.418580  0.413934  1
  Hg  Hg19  1  0.418580  0.418580  0.748903  1
  Rh  Rh20  1  0.855851  0.428826  0.857662  1
  Rh  Rh21  1  0.856877  0.856877  0.858757  1
  Rh  Rh22  1  0.856877  0.856877  0.427491  1
  Rh  Rh23  1  0.428826  0.855851  0.857662  1
