# generated using pymatgen
data_Ca6NbIO12
_symmetry_space_group_name_H-M   'P 1'
_cell_length_a   5.90159707
_cell_length_b   5.63430238
_cell_length_c   9.89959685
_cell_angle_alpha   55.37085168
_cell_angle_beta   90.18021422
_cell_angle_gamma   89.93761594
_symmetry_Int_Tables_number   1
_chemical_formula_structural   Ca6NbIO12
_chemical_formula_sum   'Ca6 Nb1 I1 O12'
_cell_volume   270.85802288
_cell_formula_units_Z   1
loop_
 _symmetry_equiv_pos_site_id
 _symmetry_equiv_pos_as_xyz
  1  'x, y, z'
loop_
 _atom_site_type_symbol
 _atom_site_label
 _atom_site_symmetry_multiplicity
 _atom_site_fract_x
 _atom_site_fract_y
 _atom_site_fract_z
 _atom_site_occupancy
  Ca  Ca0  1  0.050276  0.720366  0.773724  1
  Ca  Ca1  1  0.949724  0.279634  0.226276  1
  Ca  Ca2  1  0.561915  0.261378  0.761507  1
  Ca  Ca3  1  0.438085  0.738622  0.238493  1
  Ca  Ca4  1  0.500000  0.500000  0.000000  1
  Ca  Ca5  1  0.000000  0.500000  0.500000  1
  Nb  Nb6  1  0.000000  0.000000  0.000000  1
  I  I7  1  0.500000  0.000000  0.500000  1
  O  O8  1  0.443876  0.906686  0.715620  1
  O  O9  1  0.556124  0.093314  0.284380  1
  O  O10  1  0.941638  0.122694  0.766071  1
  O  O11  1  0.058362  0.877306  0.233929  1
  O  O12  1  0.766281  0.760901  0.576357  1
  O  O13  1  0.233719  0.239099  0.423643  1
  O  O14  1  0.284989  0.243287  0.931493  1
  O  O15  1  0.715011  0.756713  0.068507  1
  O  O16  1  0.326432  0.671031  0.556341  1
  O  O17  1  0.673568  0.328969  0.443659  1
  O  O18  1  0.818750  0.341664  0.953348  1
  O  O19  1  0.181250  0.658336  0.046652  1
