# generated using pymatgen
data_Dy3Tm(MnC2)2
_symmetry_space_group_name_H-M   'P 1'
_cell_length_a   5.02609400
_cell_length_b   6.32738144
_cell_length_c   9.64229801
_cell_angle_alpha   89.97577734
_cell_angle_beta   90.00000000
_cell_angle_gamma   90.00000000
_symmetry_Int_Tables_number   1
_chemical_formula_structural   Dy3Tm(MnC2)2
_chemical_formula_sum   'Dy6 Tm2 Mn4 C8'
_cell_volume   306.64446810
_cell_formula_units_Z   2
loop_
 _symmetry_equiv_pos_site_id
 _symmetry_equiv_pos_as_xyz
  1  'x, y, z'
loop_
 _atom_site_type_symbol
 _atom_site_label
 _atom_site_symmetry_multiplicity
 _atom_site_fract_x
 _atom_site_fract_y
 _atom_site_fract_z
 _atom_site_occupancy
  Dy  Dy0  1  0.750000  0.815499  0.055121  1
  Dy  Dy1  1  0.250000  0.184501  0.944879  1
  Dy  Dy2  1  0.250000  0.523191  0.217020  1
  Dy  Dy3  1  0.750000  0.476809  0.782980  1
  Dy  Dy4  1  0.750000  0.975541  0.711190  1
  Dy  Dy5  1  0.250000  0.024459  0.288810  1
  Tm  Tm6  1  0.250000  0.680399  0.554640  1
  Tm  Tm7  1  0.750000  0.319601  0.445360  1
  Mn  Mn8  1  0.250000  0.729795  0.854398  1
  Mn  Mn9  1  0.750000  0.270205  0.145602  1
  Mn  Mn10  1  0.750000  0.770169  0.359354  1
  Mn  Mn11  1  0.250000  0.229831  0.640646  1
  C  C12  1  0.250000  0.463773  0.758131  1
  C  C13  1  0.750000  0.536227  0.241869  1
  C  C14  1  0.750000  0.035894  0.263006  1
  C  C15  1  0.250000  0.964106  0.736994  1
  C  C16  1  0.250000  0.807475  0.033116  1
  C  C17  1  0.750000  0.192525  0.966884  1
  C  C18  1  0.750000  0.685637  0.537344  1
  C  C19  1  0.250000  0.314363  0.462656  1
