# generated using pymatgen
data_Li3La2Cu9As7
_symmetry_space_group_name_H-M   'P 1'
_cell_length_a   4.09411100
_cell_length_b   9.96955571
_cell_length_c   9.96955400
_cell_angle_alpha   119.99999433
_cell_angle_beta   90.00000000
_cell_angle_gamma   90.00000000
_symmetry_Int_Tables_number   1
_chemical_formula_structural   Li3La2Cu9As7
_chemical_formula_sum   'Li3 La2 Cu9 As7'
_cell_volume   352.40479103
_cell_formula_units_Z   1
loop_
 _symmetry_equiv_pos_site_id
 _symmetry_equiv_pos_as_xyz
  1  'x, y, z'
loop_
 _atom_site_type_symbol
 _atom_site_label
 _atom_site_symmetry_multiplicity
 _atom_site_fract_x
 _atom_site_fract_y
 _atom_site_fract_z
 _atom_site_occupancy
  Li  Li0  1  0.500000  0.794995  0.897952  1
  Li  Li1  1  0.500000  0.102959  0.205005  1
  Li  Li2  1  0.500000  0.102048  0.897041  1
  La  La3  1  0.000000  0.666667  0.333333  1
  La  La4  1  0.500000  0.333333  0.666667  1
  Cu  Cu5  1  0.000000  0.582758  0.947739  1
  Cu  Cu6  1  0.000000  0.364980  0.417242  1
  Cu  Cu7  1  0.000000  0.052261  0.635020  1
  Cu  Cu8  1  0.000000  0.874462  0.153963  1
  Cu  Cu9  1  0.000000  0.279503  0.125538  1
  Cu  Cu10  1  0.000000  0.846037  0.720497  1
  Cu  Cu11  1  0.500000  0.954928  0.382350  1
  Cu  Cu12  1  0.500000  0.427420  0.045072  1
  Cu  Cu13  1  0.500000  0.617650  0.572580  1
  As  As14  1  0.500000  0.707735  0.116593  1
  As  As15  1  0.500000  0.408859  0.292265  1
  As  As16  1  0.500000  0.883407  0.591141  1
  As  As17  1  0.000000  0.000000  0.000000  1
  As  As18  1  0.000000  0.583141  0.691897  1
  As  As19  1  0.000000  0.108754  0.416859  1
  As  As20  1  0.000000  0.308103  0.891246  1
