# generated using pymatgen
data_Nd6Y10Cd4TcPd3
_symmetry_space_group_name_H-M   'P 1'
_cell_length_a   9.85946869
_cell_length_b   9.85946826
_cell_length_c   9.85946896
_cell_angle_alpha   59.36140616
_cell_angle_beta   59.36141064
_cell_angle_gamma   59.36140708
_symmetry_Int_Tables_number   1
_chemical_formula_structural   Nd6Y10Cd4TcPd3
_chemical_formula_sum   'Nd6 Y10 Cd4 Tc1 Pd3'
_cell_volume   667.86169999
_cell_formula_units_Z   1
loop_
 _symmetry_equiv_pos_site_id
 _symmetry_equiv_pos_as_xyz
  1  'x, y, z'
loop_
 _atom_site_type_symbol
 _atom_site_label
 _atom_site_symmetry_multiplicity
 _atom_site_fract_x
 _atom_site_fract_y
 _atom_site_fract_z
 _atom_site_occupancy
  Nd  Nd0  1  0.935525  0.563635  0.563635  1
  Nd  Nd1  1  0.554701  0.939506  0.939506  1
  Nd  Nd2  1  0.563635  0.935525  0.563635  1
  Nd  Nd3  1  0.939506  0.554701  0.939506  1
  Nd  Nd4  1  0.563635  0.563635  0.935525  1
  Nd  Nd5  1  0.939506  0.939506  0.554701  1
  Y  Y6  1  0.353195  0.353195  0.353195  1
  Y  Y7  1  0.349790  0.349790  0.948966  1
  Y  Y8  1  0.349790  0.948966  0.349790  1
  Y  Y9  1  0.948966  0.349790  0.349790  1
  Y  Y10  1  0.818322  0.185895  0.185895  1
  Y  Y11  1  0.184998  0.811627  0.811627  1
  Y  Y12  1  0.185895  0.818322  0.185895  1
  Y  Y13  1  0.811627  0.184998  0.811627  1
  Y  Y14  1  0.185895  0.185895  0.818322  1
  Y  Y15  1  0.811627  0.811627  0.184998  1
  Cd  Cd16  1  0.579149  0.579149  0.579149  1
  Cd  Cd17  1  0.579622  0.579622  0.258935  1
  Cd  Cd18  1  0.579622  0.258935  0.579622  1
  Cd  Cd19  1  0.258935  0.579622  0.579622  1
  Tc  Tc20  1  0.144275  0.144275  0.144275  1
  Pd  Pd21  1  0.145584  0.145584  0.570618  1
  Pd  Pd22  1  0.145584  0.570618  0.145584  1
  Pd  Pd23  1  0.570618  0.145584  0.145584  1
