# generated using pymatgen
data_HoZn3CdIr
_symmetry_space_group_name_H-M   'P 1'
_cell_length_a   5.28643140
_cell_length_b   5.28643061
_cell_length_c   5.28643099
_cell_angle_alpha   59.90378333
_cell_angle_beta   59.90380282
_cell_angle_gamma   59.90378570
_symmetry_Int_Tables_number   1
_chemical_formula_structural   HoZn3CdIr
_chemical_formula_sum   'Ho1 Zn3 Cd1 Ir1'
_cell_volume   104.23744760
_cell_formula_units_Z   1
loop_
 _symmetry_equiv_pos_site_id
 _symmetry_equiv_pos_as_xyz
  1  'x, y, z'
loop_
 _atom_site_type_symbol
 _atom_site_label
 _atom_site_symmetry_multiplicity
 _atom_site_fract_x
 _atom_site_fract_y
 _atom_site_fract_z
 _atom_site_occupancy
  Ho  Ho0  1  0.996272  0.996272  0.996272  1
  Zn  Zn1  1  0.624297  0.624297  0.128477  1
  Zn  Zn2  1  0.624297  0.128477  0.624297  1
  Zn  Zn3  1  0.128477  0.624297  0.624297  1
  Cd  Cd4  1  0.249931  0.249931  0.249931  1
  Ir  Ir5  1  0.626727  0.626727  0.626727  1
