# generated using pymatgen
data_CeNdTc2F14
_symmetry_space_group_name_H-M   'P 1'
_cell_length_a   5.68410661
_cell_length_b   9.06032519
_cell_length_c   12.19137700
_cell_angle_alpha   62.36659014
_cell_angle_beta   89.83140172
_cell_angle_gamma   90.02176845
_symmetry_Int_Tables_number   1
_chemical_formula_structural   CeNdTc2F14
_chemical_formula_sum   'Ce2 Nd2 Tc4 F28'
_cell_volume   556.23338668
_cell_formula_units_Z   2
loop_
 _symmetry_equiv_pos_site_id
 _symmetry_equiv_pos_as_xyz
  1  'x, y, z'
loop_
 _atom_site_type_symbol
 _atom_site_label
 _atom_site_symmetry_multiplicity
 _atom_site_fract_x
 _atom_site_fract_y
 _atom_site_fract_z
 _atom_site_occupancy
  Ce  Ce0  1  0.760484  0.188656  0.234927  1
  Ce  Ce1  1  0.239516  0.811344  0.765073  1
  Nd  Nd2  1  0.259294  0.809801  0.265136  1
  Nd  Nd3  1  0.740706  0.190199  0.734864  1
  Tc  Tc4  1  0.755204  0.726850  0.043427  1
  Tc  Tc5  1  0.244796  0.273150  0.956573  1
  Tc  Tc6  1  0.255785  0.273532  0.457165  1
  Tc  Tc7  1  0.744215  0.726468  0.542835  1
  F  F8  1  0.939876  0.708196  0.416893  1
  F  F9  1  0.060124  0.291804  0.583107  1
  F  F10  1  0.438861  0.292245  0.082184  1
  F  F11  1  0.561139  0.707755  0.917816  1
  F  F12  1  0.469421  0.727826  0.133765  1
  F  F13  1  0.530579  0.272174  0.866235  1
  F  F14  1  0.971826  0.274532  0.365176  1
  F  F15  1  0.028174  0.725468  0.634824  1
  F  F16  1  0.944051  0.743592  0.172276  1
  F  F17  1  0.055949  0.256408  0.827724  1
  F  F18  1  0.445429  0.256715  0.328026  1
  F  F19  1  0.554571  0.743285  0.671974  1
  F  F20  1  0.767085  0.483466  0.141420  1
  F  F21  1  0.232915  0.516534  0.858580  1
  F  F22  1  0.270693  0.516720  0.360442  1
  F  F23  1  0.729307  0.483280  0.639558  1
  F  F24  1  0.951008  0.282174  0.040953  1
  F  F25  1  0.048992  0.717826  0.959047  1
  F  F26  1  0.452799  0.720190  0.457193  1
  F  F27  1  0.547201  0.279810  0.542807  1
  F  F28  1  0.742168  0.970438  0.449264  1
  F  F29  1  0.257832  0.029562  0.550736  1
  F  F30  1  0.241685  0.029662  0.051910  1
  F  F31  1  0.758315  0.970338  0.948090  1
  F  F32  1  0.600787  0.966700  0.228251  1
  F  F33  1  0.399213  0.033300  0.771749  1
  F  F34  1  0.096729  0.037191  0.270908  1
  F  F35  1  0.903271  0.962809  0.729092  1
