# generated using pymatgen
data_ErSc9AlSb5
_symmetry_space_group_name_H-M   'P 1'
_cell_length_a   8.46563982
_cell_length_b   8.47700315
_cell_length_c   5.99144100
_cell_angle_alpha   90.00000000
_cell_angle_beta   90.00000000
_cell_angle_gamma   120.36356512
_symmetry_Int_Tables_number   1
_chemical_formula_structural   ErSc9AlSb5
_chemical_formula_sum   'Er1 Sc9 Al1 Sb5'
_cell_volume   370.98924199
_cell_formula_units_Z   1
loop_
 _symmetry_equiv_pos_site_id
 _symmetry_equiv_pos_as_xyz
  1  'x, y, z'
loop_
 _atom_site_type_symbol
 _atom_site_label
 _atom_site_symmetry_multiplicity
 _atom_site_fract_x
 _atom_site_fract_y
 _atom_site_fract_z
 _atom_site_occupancy
  Er  Er0  1  0.240745  0.231042  0.750000  1
  Sc  Sc1  1  0.010985  0.762935  0.750000  1
  Sc  Sc2  1  0.997626  0.243871  0.250000  1
  Sc  Sc3  1  0.757859  0.759413  0.250000  1
  Sc  Sc4  1  0.752420  0.000595  0.750000  1
  Sc  Sc5  1  0.242637  0.999318  0.250000  1
  Sc  Sc6  1  0.334742  0.672274  0.502263  1
  Sc  Sc7  1  0.661890  0.327921  0.998403  1
  Sc  Sc8  1  0.661890  0.327921  0.501597  1
  Sc  Sc9  1  0.334742  0.672274  0.997737  1
  Al  Al10  1  0.399014  0.995596  0.750000  1
  Sb  Sb11  1  0.389105  0.391766  0.250000  1
  Sb  Sb12  1  0.997245  0.609387  0.250000  1
  Sb  Sb13  1  0.996870  0.391441  0.750000  1
  Sb  Sb14  1  0.616099  0.614456  0.750000  1
  Sb  Sb15  1  0.606130  0.999791  0.250000  1
