# generated using pymatgen
data_HoLu(Si2Rh3)2
_symmetry_space_group_name_H-M   'P 1'
_cell_length_a   6.60637029
_cell_length_b   6.60636962
_cell_length_c   6.60636879
_cell_angle_alpha   130.42579759
_cell_angle_beta   113.89704322
_cell_angle_gamma   86.92992793
_symmetry_Int_Tables_number   1
_chemical_formula_structural   HoLu(Si2Rh3)2
_chemical_formula_sum   'Ho1 Lu1 Si4 Rh6'
_cell_volume   191.40019621
_cell_formula_units_Z   1
loop_
 _symmetry_equiv_pos_site_id
 _symmetry_equiv_pos_as_xyz
  1  'x, y, z'
loop_
 _atom_site_type_symbol
 _atom_site_label
 _atom_site_symmetry_multiplicity
 _atom_site_fract_x
 _atom_site_fract_y
 _atom_site_fract_z
 _atom_site_occupancy
  Ho  Ho0  1  0.250000  0.953549  0.703549  1
  Lu  Lu1  1  0.750000  0.050656  0.300656  1
  Si  Si2  1  0.578769  0.386110  0.807342  1
  Si  Si3  1  0.921231  0.728573  0.807342  1
  Si  Si4  1  0.421487  0.614761  0.193274  1
  Si  Si5  1  0.078513  0.271785  0.193274  1
  Rh  Rh6  1  0.212237  0.497724  0.711870  1
  Rh  Rh7  1  0.785854  0.497724  0.285487  1
  Rh  Rh8  1  0.500835  0.499925  0.500760  1
  Rh  Rh9  1  0.999165  0.499925  0.999091  1
  Rh  Rh10  1  0.714146  0.999633  0.711870  1
  Rh  Rh11  1  0.287763  0.999633  0.285487  1
