# generated using pymatgen
data_Ca2DyHo(NiSn)4
_symmetry_space_group_name_H-M   'P 1'
_cell_length_a   4.47155800
_cell_length_b   7.18710772
_cell_length_c   7.69893100
_cell_angle_alpha   90.19443889
_cell_angle_beta   90.00000000
_cell_angle_gamma   90.00000000
_symmetry_Int_Tables_number   1
_chemical_formula_structural   Ca2DyHo(NiSn)4
_chemical_formula_sum   'Ca2 Dy1 Ho1 Ni4 Sn4'
_cell_volume   247.42350187
_cell_formula_units_Z   1
loop_
 _symmetry_equiv_pos_site_id
 _symmetry_equiv_pos_as_xyz
  1  'x, y, z'
loop_
 _atom_site_type_symbol
 _atom_site_label
 _atom_site_symmetry_multiplicity
 _atom_site_fract_x
 _atom_site_fract_y
 _atom_site_fract_z
 _atom_site_occupancy
  Ca  Ca0  1  0.750000  0.015642  0.697346  1
  Ca  Ca1  1  0.250000  0.984388  0.302694  1
  Dy  Dy2  1  0.250000  0.485791  0.197003  1
  Ho  Ho3  1  0.750000  0.514357  0.802666  1
  Ni  Ni4  1  0.750000  0.781383  0.086699  1
  Ni  Ni5  1  0.250000  0.218546  0.912777  1
  Ni  Ni6  1  0.750000  0.311217  0.406767  1
  Ni  Ni7  1  0.250000  0.688641  0.593709  1
  Sn  Sn8  1  0.750000  0.684184  0.417976  1
  Sn  Sn9  1  0.250000  0.315955  0.582601  1
  Sn  Sn10  1  0.750000  0.184943  0.084803  1
  Sn  Sn11  1  0.250000  0.814953  0.914959  1
