# generated using pymatgen
data_Pr15Th(MgOs)4
_symmetry_space_group_name_H-M   'P 1'
_cell_length_a   10.13892786
_cell_length_b   10.13892769
_cell_length_c   10.13892757
_cell_angle_alpha   59.29580067
_cell_angle_beta   59.29580428
_cell_angle_gamma   59.29580418
_symmetry_Int_Tables_number   1
_chemical_formula_structural   Pr15Th(MgOs)4
_chemical_formula_sum   'Pr15 Th1 Mg4 Os4'
_cell_volume   725.17148727
_cell_formula_units_Z   1
loop_
 _symmetry_equiv_pos_site_id
 _symmetry_equiv_pos_as_xyz
  1  'x, y, z'
loop_
 _atom_site_type_symbol
 _atom_site_label
 _atom_site_symmetry_multiplicity
 _atom_site_fract_x
 _atom_site_fract_y
 _atom_site_fract_z
 _atom_site_occupancy
  Pr  Pr0  1  0.344383  0.344383  0.965393  1
  Pr  Pr1  1  0.344383  0.965393  0.344383  1
  Pr  Pr2  1  0.965393  0.344383  0.344383  1
  Pr  Pr3  1  0.810905  0.189584  0.189584  1
  Pr  Pr4  1  0.189970  0.811456  0.811456  1
  Pr  Pr5  1  0.189584  0.810905  0.189584  1
  Pr  Pr6  1  0.811456  0.189970  0.811456  1
  Pr  Pr7  1  0.189584  0.189584  0.810905  1
  Pr  Pr8  1  0.811456  0.811456  0.189970  1
  Pr  Pr9  1  0.940544  0.559803  0.559803  1
  Pr  Pr10  1  0.558860  0.940653  0.940653  1
  Pr  Pr11  1  0.559803  0.940544  0.559803  1
  Pr  Pr12  1  0.940653  0.558860  0.940653  1
  Pr  Pr13  1  0.559803  0.559803  0.940544  1
  Pr  Pr14  1  0.940653  0.940653  0.558860  1
  Th  Th15  1  0.340244  0.340244  0.340244  1
  Mg  Mg16  1  0.578387  0.578387  0.578387  1
  Mg  Mg17  1  0.577154  0.577154  0.263993  1
  Mg  Mg18  1  0.577154  0.263993  0.577154  1
  Mg  Mg19  1  0.263993  0.577154  0.577154  1
  Os  Os20  1  0.138666  0.138666  0.138666  1
  Os  Os21  1  0.144500  0.144500  0.577975  1
  Os  Os22  1  0.144500  0.577975  0.144500  1
  Os  Os23  1  0.577975  0.144500  0.144500  1
