# generated using pymatgen
data_DyTm2Fe7Co2
_symmetry_space_group_name_H-M   'P 1'
_cell_length_a   5.06771445
_cell_length_b   5.07066741
_cell_length_c   8.61121900
_cell_angle_alpha   72.87710745
_cell_angle_beta   72.98703381
_cell_angle_gamma   59.98071041
_symmetry_Int_Tables_number   1
_chemical_formula_structural   DyTm2Fe7Co2
_chemical_formula_sum   'Dy1 Tm2 Fe7 Co2'
_cell_volume   180.25969114
_cell_formula_units_Z   1
loop_
 _symmetry_equiv_pos_site_id
 _symmetry_equiv_pos_as_xyz
  1  'x, y, z'
loop_
 _atom_site_type_symbol
 _atom_site_label
 _atom_site_symmetry_multiplicity
 _atom_site_fract_x
 _atom_site_fract_y
 _atom_site_fract_z
 _atom_site_occupancy
  Dy  Dy0  1  0.999971  0.999818  0.000394  1
  Tm  Tm1  1  0.141597  0.141767  0.574869  1
  Tm  Tm2  1  0.858161  0.857285  0.427269  1
  Fe  Fe3  1  0.583042  0.582806  0.751545  1
  Fe  Fe4  1  0.583042  0.082605  0.751545  1
  Fe  Fe5  1  0.918505  0.416893  0.247711  1
  Fe  Fe6  1  0.417017  0.416989  0.247702  1
  Fe  Fe7  1  0.417017  0.918294  0.247702  1
  Fe  Fe8  1  0.332657  0.333261  0.000823  1
  Fe  Fe9  1  0.667440  0.666944  0.998670  1
  Co  Co10  1  0.081281  0.582985  0.752747  1
  Co  Co11  1  0.500270  0.500353  0.499024  1
