# generated using pymatgen
data_SrSb2RuPt
_symmetry_space_group_name_H-M   'P 1'
_cell_length_a   4.61072600
_cell_length_b   4.61072600
_cell_length_c   10.89029900
_cell_angle_alpha   90.00000000
_cell_angle_beta   90.00000000
_cell_angle_gamma   90.00000000
_symmetry_Int_Tables_number   1
_chemical_formula_structural   SrSb2RuPt
_chemical_formula_sum   'Sr2 Sb4 Ru2 Pt2'
_cell_volume   231.51462573
_cell_formula_units_Z   2
loop_
 _symmetry_equiv_pos_site_id
 _symmetry_equiv_pos_as_xyz
  1  'x, y, z'
loop_
 _atom_site_type_symbol
 _atom_site_label
 _atom_site_symmetry_multiplicity
 _atom_site_fract_x
 _atom_site_fract_y
 _atom_site_fract_z
 _atom_site_occupancy
  Sr  Sr0  1  0.500000  0.000000  0.757822  1
  Sr  Sr1  1  0.000000  0.500000  0.242178  1
  Sb  Sb2  1  0.000000  0.000000  0.500000  1
  Sb  Sb3  1  0.500000  0.500000  0.500000  1
  Sb  Sb4  1  0.500000  0.000000  0.120583  1
  Sb  Sb5  1  0.000000  0.500000  0.879417  1
  Ru  Ru6  1  0.000000  0.000000  0.000000  1
  Ru  Ru7  1  0.500000  0.500000  0.000000  1
  Pt  Pt8  1  0.500000  0.000000  0.368737  1
  Pt  Pt9  1  0.000000  0.500000  0.631263  1
