# generated using pymatgen
data_Gd3Lu(SeO3)6
_symmetry_space_group_name_H-M   'P 1'
_cell_length_a   7.14566808
_cell_length_b   8.17847363
_cell_length_c   9.11456731
_cell_angle_alpha   71.34274766
_cell_angle_beta   70.28199064
_cell_angle_gamma   66.25472130
_symmetry_Int_Tables_number   1
_chemical_formula_structural   Gd3Lu(SeO3)6
_chemical_formula_sum   'Gd3 Lu1 Se6 O18'
_cell_volume   448.38774054
_cell_formula_units_Z   1
loop_
 _symmetry_equiv_pos_site_id
 _symmetry_equiv_pos_as_xyz
  1  'x, y, z'
loop_
 _atom_site_type_symbol
 _atom_site_label
 _atom_site_symmetry_multiplicity
 _atom_site_fract_x
 _atom_site_fract_y
 _atom_site_fract_z
 _atom_site_occupancy
  Gd  Gd0  1  0.258375  0.266547  0.200119  1
  Gd  Gd1  1  0.335156  0.726701  0.590835  1
  Gd  Gd2  1  0.668255  0.269024  0.409774  1
  Lu  Lu3  1  0.741617  0.737212  0.799359  1
  Se  Se4  1  0.112885  0.241852  0.587596  1
  Se  Se5  1  0.429536  0.773981  0.194088  1
  Se  Se6  1  0.147600  0.755437  0.962907  1
  Se  Se7  1  0.850962  0.256741  0.029256  1
  Se  Se8  1  0.573979  0.217356  0.804381  1
  Se  Se9  1  0.885171  0.755635  0.420118  1
  O  O10  1  0.155101  0.015695  0.656833  1
  O  O11  1  0.164614  0.573682  0.120060  1
  O  O12  1  0.028291  0.705708  0.560754  1
  O  O13  1  0.342466  0.251887  0.439866  1
  O  O14  1  0.061286  0.698228  0.834090  1
  O  O15  1  0.594698  0.289647  0.145888  1
  O  O16  1  0.349941  0.204655  0.946457  1
  O  O17  1  0.366310  0.940895  0.299638  1
  O  O18  1  0.520597  0.593703  0.346790  1
  O  O19  1  0.487080  0.397997  0.650693  1
  O  O20  1  0.642506  0.046661  0.701455  1
  O  O21  1  0.648084  0.790436  0.045249  1
  O  O22  1  0.407177  0.712580  0.849362  1
  O  O23  1  0.932977  0.307656  0.163694  1
  O  O24  1  0.656571  0.749085  0.570368  1
  O  O25  1  0.965973  0.295884  0.448317  1
  O  O26  1  0.827360  0.444017  0.877878  1
  O  O27  1  0.845432  0.981096  0.344173  1
