# generated using pymatgen
data_K3SrOs2O9
_symmetry_space_group_name_H-M   'P 1'
_cell_length_a   6.12583700
_cell_length_b   6.12583672
_cell_length_c   15.44049500
_cell_angle_alpha   90.00000000
_cell_angle_beta   90.00000000
_cell_angle_gamma   119.99998533
_symmetry_Int_Tables_number   1
_chemical_formula_structural   K3SrOs2O9
_chemical_formula_sum   'K6 Sr2 Os4 O18'
_cell_volume   501.79088506
_cell_formula_units_Z   2
loop_
 _symmetry_equiv_pos_site_id
 _symmetry_equiv_pos_as_xyz
  1  'x, y, z'
loop_
 _atom_site_type_symbol
 _atom_site_label
 _atom_site_symmetry_multiplicity
 _atom_site_fract_x
 _atom_site_fract_y
 _atom_site_fract_z
 _atom_site_occupancy
  K  K0  1  0.000000  0.000000  0.250000  1
  K  K1  1  0.000000  0.000000  0.750000  1
  K  K2  1  0.333333  0.666667  0.377852  1
  K  K3  1  0.666667  0.333333  0.622148  1
  K  K4  1  0.666667  0.333333  0.877852  1
  K  K5  1  0.333333  0.666667  0.122148  1
  Sr  Sr6  1  0.000000  0.000000  0.500000  1
  Sr  Sr7  1  0.000000  0.000000  0.000000  1
  Os  Os8  1  0.666667  0.333333  0.343734  1
  Os  Os9  1  0.333333  0.666667  0.656266  1
  Os  Os10  1  0.333333  0.666667  0.843734  1
  Os  Os11  1  0.666667  0.333333  0.156266  1
  O  O12  1  0.532494  0.467506  0.250000  1
  O  O13  1  0.532494  0.064987  0.250000  1
  O  O14  1  0.935013  0.467506  0.250000  1
  O  O15  1  0.467506  0.532494  0.750000  1
  O  O16  1  0.467506  0.935013  0.750000  1
  O  O17  1  0.064987  0.532494  0.750000  1
  O  O18  1  0.364049  0.182025  0.401866  1
  O  O19  1  0.817975  0.182025  0.401866  1
  O  O20  1  0.817975  0.635951  0.401866  1
  O  O21  1  0.635951  0.817975  0.598134  1
  O  O22  1  0.182025  0.817975  0.598134  1
  O  O23  1  0.182025  0.364049  0.598134  1
  O  O24  1  0.635951  0.817975  0.901866  1
  O  O25  1  0.182025  0.817975  0.901866  1
  O  O26  1  0.182025  0.364049  0.901866  1
  O  O27  1  0.364049  0.182025  0.098134  1
  O  O28  1  0.817975  0.182025  0.098134  1
  O  O29  1  0.817975  0.635951  0.098134  1
