# generated using pymatgen
data_Dy6LuHf3(Si5Ir2)4
_symmetry_space_group_name_H-M   'P 1'
_cell_length_a   12.54942749
_cell_length_b   12.54942650
_cell_length_c   4.19386900
_cell_angle_alpha   90.00000000
_cell_angle_beta   90.00000000
_cell_angle_gamma   90.06455772
_symmetry_Int_Tables_number   1
_chemical_formula_structural   Dy6LuHf3(Si5Ir2)4
_chemical_formula_sum   'Dy6 Lu1 Hf3 Si20 Ir8'
_cell_volume   660.48411653
_cell_formula_units_Z   1
loop_
 _symmetry_equiv_pos_site_id
 _symmetry_equiv_pos_as_xyz
  1  'x, y, z'
loop_
 _atom_site_type_symbol
 _atom_site_label
 _atom_site_symmetry_multiplicity
 _atom_site_fract_x
 _atom_site_fract_y
 _atom_site_fract_z
 _atom_site_occupancy
  Dy  Dy0  1  0.499791  0.501441  0.000000  1
  Dy  Dy1  1  0.998559  0.000209  0.000000  1
  Dy  Dy2  1  0.884413  0.382208  0.500000  1
  Dy  Dy3  1  0.117792  0.615587  0.500000  1
  Dy  Dy4  1  0.384155  0.115845  0.500000  1
  Dy  Dy5  1  0.611929  0.888071  0.500000  1
  Lu  Lu6  1  0.825096  0.674904  0.500000  1
  Hf  Hf7  1  0.674039  0.174609  0.500000  1
  Hf  Hf8  1  0.325391  0.825961  0.500000  1
  Hf  Hf9  1  0.174530  0.325470  0.500000  1
  Si  Si10  1  0.565941  0.067745  0.000000  1
  Si  Si11  1  0.432255  0.934059  0.000000  1
  Si  Si12  1  0.067307  0.432693  0.000000  1
  Si  Si13  1  0.934054  0.565946  0.000000  1
  Si  Si14  1  0.662757  0.701745  0.000000  1
  Si  Si15  1  0.334873  0.299622  0.000000  1
  Si  Si16  1  0.165945  0.800220  0.000000  1
  Si  Si17  1  0.835023  0.200426  0.000000  1
  Si  Si18  1  0.299574  0.664977  0.000000  1
  Si  Si19  1  0.699780  0.334055  0.000000  1
  Si  Si20  1  0.200378  0.165127  0.000000  1
  Si  Si21  1  0.798255  0.837243  0.000000  1
  Si  Si22  1  0.657304  0.498868  0.500000  1
  Si  Si23  1  0.343301  0.490349  0.500000  1
  Si  Si24  1  0.156514  0.991815  0.500000  1
  Si  Si25  1  0.840594  0.004858  0.500000  1
  Si  Si26  1  0.495142  0.659406  0.500000  1
  Si  Si27  1  0.508185  0.343486  0.500000  1
  Si  Si28  1  0.009651  0.156699  0.500000  1
  Si  Si29  1  0.001132  0.842696  0.500000  1
  Ir  Ir30  1  0.744726  0.520164  0.000000  1
  Ir  Ir31  1  0.254132  0.478069  0.000000  1
  Ir  Ir32  1  0.245592  0.979228  0.000000  1
  Ir  Ir33  1  0.752907  0.023556  0.000000  1
  Ir  Ir34  1  0.476444  0.747093  0.000000  1
  Ir  Ir35  1  0.520772  0.254408  0.000000  1
  Ir  Ir36  1  0.021931  0.245868  0.000000  1
  Ir  Ir37  1  0.979836  0.755274  0.000000  1
