# generated using pymatgen
data_NaLuCo8(ReP3)2
_symmetry_space_group_name_H-M   'P 1'
_cell_length_a   3.66388300
_cell_length_b   10.30008600
_cell_length_c   11.74605500
_cell_angle_alpha   90.00000000
_cell_angle_beta   90.00000000
_cell_angle_gamma   90.00000000
_symmetry_Int_Tables_number   1
_chemical_formula_structural   NaLuCo8(ReP3)2
_chemical_formula_sum   'Na2 Lu2 Co16 Re4 P12'
_cell_volume   443.27626480
_cell_formula_units_Z   2
loop_
 _symmetry_equiv_pos_site_id
 _symmetry_equiv_pos_as_xyz
  1  'x, y, z'
loop_
 _atom_site_type_symbol
 _atom_site_label
 _atom_site_symmetry_multiplicity
 _atom_site_fract_x
 _atom_site_fract_y
 _atom_site_fract_z
 _atom_site_occupancy
  Na  Na0  1  0.250000  0.581572  0.703935  1
  Na  Na1  1  0.250000  0.918428  0.203935  1
  Lu  Lu2  1  0.750000  0.416199  0.296415  1
  Lu  Lu3  1  0.750000  0.083801  0.796415  1
  Co  Co4  1  0.250000  0.403397  0.487214  1
  Co  Co5  1  0.250000  0.096603  0.987214  1
  Co  Co6  1  0.750000  0.591263  0.509752  1
  Co  Co7  1  0.750000  0.908737  0.009752  1
  Co  Co8  1  0.250000  0.221932  0.177607  1
  Co  Co9  1  0.250000  0.278068  0.677607  1
  Co  Co10  1  0.750000  0.782061  0.822258  1
  Co  Co11  1  0.750000  0.717939  0.322258  1
  Co  Co12  1  0.250000  0.890012  0.700314  1
  Co  Co13  1  0.250000  0.609988  0.200314  1
  Co  Co14  1  0.750000  0.115083  0.300201  1
  Co  Co15  1  0.750000  0.384917  0.800201  1
  Co  Co16  1  0.250000  0.466311  0.934405  1
  Co  Co17  1  0.250000  0.033689  0.434405  1
  Co  Co18  1  0.750000  0.536584  0.065802  1
  Co  Co19  1  0.750000  0.963416  0.565802  1
  Re  Re20  1  0.250000  0.709329  0.989070  1
  Re  Re21  1  0.250000  0.790671  0.489070  1
  Re  Re22  1  0.750000  0.290484  0.014150  1
  Re  Re23  1  0.750000  0.209516  0.514150  1
  P  P24  1  0.250000  0.419026  0.115957  1
  P  P25  1  0.250000  0.080974  0.615957  1
  P  P26  1  0.750000  0.582632  0.880479  1
  P  P27  1  0.750000  0.917368  0.380479  1
  P  P28  1  0.250000  0.269210  0.865555  1
  P  P29  1  0.250000  0.230790  0.365555  1
  P  P30  1  0.750000  0.737341  0.134524  1
  P  P31  1  0.750000  0.762659  0.634524  1
  P  P32  1  0.250000  0.594611  0.390520  1
  P  P33  1  0.250000  0.905389  0.890520  1
  P  P34  1  0.750000  0.407259  0.611841  1
  P  P35  1  0.750000  0.092741  0.111841  1
