# generated using pymatgen
data_Ce4Re15Si8W
_symmetry_space_group_name_H-M   'P 1'
_cell_length_a   7.25354700
_cell_length_b   15.77525217
_cell_length_c   4.17752100
_cell_angle_alpha   90.00002906
_cell_angle_beta   90.00004739
_cell_angle_gamma   90.08453856
_symmetry_Int_Tables_number   1
_chemical_formula_structural   Ce4Re15Si8W
_chemical_formula_sum   'Ce4 Re15 Si8 W1'
_cell_volume   478.01872450
_cell_formula_units_Z   1
loop_
 _symmetry_equiv_pos_site_id
 _symmetry_equiv_pos_as_xyz
  1  'x, y, z'
loop_
 _atom_site_type_symbol
 _atom_site_label
 _atom_site_symmetry_multiplicity
 _atom_site_fract_x
 _atom_site_fract_y
 _atom_site_fract_z
 _atom_site_occupancy
  Ce  Ce0  1  0.586225  0.116828  0.000006  1
  Ce  Ce1  1  0.413584  0.882178  0.000104  1
  Ce  Ce2  1  0.084757  0.382040  0.499991  1
  Ce  Ce3  1  0.913245  0.618403  0.499952  1
  Re  Re4  1  0.261728  0.679818  0.999884  1
  Re  Re5  1  0.239799  0.178586  0.499935  1
  Re  Re6  1  0.760827  0.820955  0.499925  1
  Re  Re7  1  0.429085  0.421869  0.000035  1
  Re  Re8  1  0.569785  0.581447  0.999991  1
  Re  Re9  1  0.931747  0.078072  0.499919  1
  Re  Re10  1  0.070642  0.919059  0.499873  1
  Re  Re11  1  0.142047  0.049565  0.000131  1
  Re  Re12  1  0.857469  0.948290  0.000176  1
  Re  Re13  1  0.639900  0.451805  0.499953  1
  Re  Re14  1  0.355596  0.552233  0.499968  1
  Re  Re15  1  0.001049  0.204653  0.999989  1
  Re  Re16  1  0.002171  0.794470  0.000064  1
  Re  Re17  1  0.501459  0.293765  0.499978  1
  Re  Re18  1  0.501454  0.705811  0.500112  1
  Si  Si19  1  0.304421  0.274964  0.000019  1
  Si  Si20  1  0.698197  0.726759  0.999995  1
  Si  Si21  1  0.805579  0.223092  0.499981  1
  Si  Si22  1  0.198102  0.773821  0.500015  1
  Si  Si23  1  0.830878  0.476380  0.999949  1
  Si  Si24  1  0.167170  0.526002  0.000015  1
  Si  Si25  1  0.331229  0.024732  0.500029  1
  Si  Si26  1  0.668642  0.974525  0.500015  1
  W  W27  1  0.733211  0.319886  0.000010  1
