# generated using pymatgen
data_Pr3Tl2InHgRh2
_symmetry_space_group_name_H-M   'P 1'
_cell_length_a   8.07013090
_cell_length_b   8.08034836
_cell_length_c   3.96219500
_cell_angle_alpha   90.00000000
_cell_angle_beta   90.00000000
_cell_angle_gamma   120.03738891
_symmetry_Int_Tables_number   1
_chemical_formula_structural   Pr3Tl2InHgRh2
_chemical_formula_sum   'Pr3 Tl2 In1 Hg1 Rh2'
_cell_volume   223.67291356
_cell_formula_units_Z   1
loop_
 _symmetry_equiv_pos_site_id
 _symmetry_equiv_pos_as_xyz
  1  'x, y, z'
loop_
 _atom_site_type_symbol
 _atom_site_label
 _atom_site_symmetry_multiplicity
 _atom_site_fract_x
 _atom_site_fract_y
 _atom_site_fract_z
 _atom_site_occupancy
  Pr  Pr0  1  0.972526  0.581803  0.500000  1
  Pr  Pr1  1  0.416491  0.389919  0.500000  1
  Pr  Pr2  1  0.608217  0.027235  0.500000  1
  Tl  Tl3  1  0.748847  0.745601  0.000000  1
  Tl  Tl4  1  0.998072  0.252187  0.000000  1
  In  In5  1  0.252919  0.002773  0.000000  1
  Hg  Hg6  1  0.333067  0.671747  0.000000  1
  Rh  Rh7  1  0.009871  0.000482  0.500000  1
  Rh  Rh8  1  0.659990  0.328253  0.000000  1
