# generated using pymatgen
data_LiYb4FeC7N
_symmetry_space_group_name_H-M   'P 1'
_cell_length_a   6.74715766
_cell_length_b   6.66231188
_cell_length_c   6.78529074
_cell_angle_alpha   134.54492894
_cell_angle_beta   112.12996603
_cell_angle_gamma   85.09446737
_symmetry_Int_Tables_number   1
_chemical_formula_structural   LiYb4FeC7N
_chemical_formula_sum   'Li1 Yb4 Fe1 C7 N1'
_cell_volume   193.84677403
_cell_formula_units_Z   1
loop_
 _symmetry_equiv_pos_site_id
 _symmetry_equiv_pos_as_xyz
  1  'x, y, z'
loop_
 _atom_site_type_symbol
 _atom_site_label
 _atom_site_symmetry_multiplicity
 _atom_site_fract_x
 _atom_site_fract_y
 _atom_site_fract_z
 _atom_site_occupancy
  Li  Li0  1  0.004490  0.255691  0.269587  1
  Yb  Yb1  1  0.197926  0.346124  0.838217  1
  Yb  Yb2  1  0.803252  0.629919  0.145402  1
  Yb  Yb3  1  0.508569  0.854324  0.660086  1
  Yb  Yb4  1  0.490260  0.144413  0.346993  1
  Fe  Fe5  1  0.000322  0.769064  0.757185  1
  C  C6  1  0.197132  0.880677  0.333218  1
  C  C7  1  0.455365  0.613756  0.819878  1
  C  C8  1  0.550969  0.362240  0.161672  1
  C  C9  1  0.903914  0.021059  0.751676  1
  C  C10  1  0.089119  0.844299  0.102205  1
  C  C11  1  0.261104  0.657176  0.750415  1
  C  C12  1  0.743772  0.488840  0.396724  1
  N  N13  1  0.793808  0.132418  0.666742  1
