# generated using pymatgen
data_Tm4Co16Si11Tc4P
_symmetry_space_group_name_H-M   'P 1'
_cell_length_a   3.73339200
_cell_length_b   10.48445532
_cell_length_c   11.96250936
_cell_angle_alpha   89.97178446
_cell_angle_beta   90.00000000
_cell_angle_gamma   90.00000000
_symmetry_Int_Tables_number   1
_chemical_formula_structural   Tm4Co16Si11Tc4P
_chemical_formula_sum   'Tm4 Co16 Si11 Tc4 P1'
_cell_volume   468.24344219
_cell_formula_units_Z   1
loop_
 _symmetry_equiv_pos_site_id
 _symmetry_equiv_pos_as_xyz
  1  'x, y, z'
loop_
 _atom_site_type_symbol
 _atom_site_label
 _atom_site_symmetry_multiplicity
 _atom_site_fract_x
 _atom_site_fract_y
 _atom_site_fract_z
 _atom_site_occupancy
  Tm  Tm0  1  0.250000  0.579687  0.704194  1
  Tm  Tm1  1  0.250000  0.921247  0.202676  1
  Tm  Tm2  1  0.750000  0.420249  0.296258  1
  Tm  Tm3  1  0.750000  0.080991  0.794877  1
  Co  Co4  1  0.250000  0.406762  0.489393  1
  Co  Co5  1  0.250000  0.093564  0.992124  1
  Co  Co6  1  0.750000  0.592918  0.510784  1
  Co  Co7  1  0.750000  0.911166  0.012680  1
  Co  Co8  1  0.250000  0.213050  0.174354  1
  Co  Co9  1  0.250000  0.285129  0.675186  1
  Co  Co10  1  0.750000  0.786690  0.825610  1
  Co  Co11  1  0.750000  0.714337  0.324695  1
  Co  Co12  1  0.250000  0.884313  0.699308  1
  Co  Co13  1  0.250000  0.615982  0.199610  1
  Co  Co14  1  0.750000  0.115045  0.296791  1
  Co  Co15  1  0.750000  0.383443  0.801374  1
  Co  Co16  1  0.250000  0.466417  0.933309  1
  Co  Co17  1  0.250000  0.033052  0.431178  1
  Co  Co18  1  0.750000  0.532057  0.067322  1
  Co  Co19  1  0.750000  0.967242  0.566462  1
  Si  Si20  1  0.250000  0.416976  0.114845  1
  Si  Si21  1  0.250000  0.082888  0.613497  1
  Si  Si22  1  0.750000  0.582740  0.885780  1
  Si  Si23  1  0.750000  0.917052  0.384802  1
  Si  Si24  1  0.250000  0.267755  0.866238  1
  Si  Si25  1  0.250000  0.232475  0.365513  1
  Si  Si26  1  0.750000  0.731950  0.133971  1
  Si  Si27  1  0.750000  0.767810  0.634207  1
  Si  Si28  1  0.250000  0.598976  0.393104  1
  Si  Si29  1  0.250000  0.902245  0.892757  1
  Si  Si30  1  0.750000  0.400455  0.607562  1
  Tc  Tc31  1  0.250000  0.702556  0.991112  1
  Tc  Tc32  1  0.250000  0.798660  0.491318  1
  Tc  Tc33  1  0.750000  0.293964  0.011761  1
  Tc  Tc34  1  0.750000  0.201530  0.507527  1
  P  P35  1  0.750000  0.098625  0.107822  1
