# generated using pymatgen
data_Tb5Ta3(P3Ir4)4
_symmetry_space_group_name_H-M   'P 1'
_cell_length_a   12.76852100
_cell_length_b   12.76852114
_cell_length_c   3.99717000
_cell_angle_alpha   90.00000000
_cell_angle_beta   90.00000000
_cell_angle_gamma   119.99999706
_symmetry_Int_Tables_number   1
_chemical_formula_structural   Tb5Ta3(P3Ir4)4
_chemical_formula_sum   'Tb5 Ta3 P12 Ir16'
_cell_volume   564.37069983
_cell_formula_units_Z   1
loop_
 _symmetry_equiv_pos_site_id
 _symmetry_equiv_pos_as_xyz
  1  'x, y, z'
loop_
 _atom_site_type_symbol
 _atom_site_label
 _atom_site_symmetry_multiplicity
 _atom_site_fract_x
 _atom_site_fract_y
 _atom_site_fract_z
 _atom_site_occupancy
  Tb  Tb0  1  0.333333  0.666667  0.500000  1
  Tb  Tb1  1  0.666667  0.333333  0.500000  1
  Tb  Tb2  1  0.000000  0.813662  0.000000  1
  Tb  Tb3  1  0.186338  0.186338  0.000000  1
  Tb  Tb4  1  0.813662  0.000000  0.000000  1
  Ta  Ta5  1  0.000000  0.452892  0.500000  1
  Ta  Ta6  1  0.547108  0.547108  0.500000  1
  Ta  Ta7  1  0.452892  0.000000  0.500000  1
  P  P8  1  0.000000  0.643039  0.500000  1
  P  P9  1  0.356961  0.356961  0.500000  1
  P  P10  1  0.643039  0.000000  0.500000  1
  P  P11  1  0.517459  0.685005  0.000000  1
  P  P12  1  0.314995  0.832454  0.000000  1
  P  P13  1  0.167546  0.482541  0.000000  1
  P  P14  1  0.482541  0.167546  0.000000  1
  P  P15  1  0.685005  0.517459  0.000000  1
  P  P16  1  0.832454  0.314995  0.000000  1
  P  P17  1  0.000000  0.176454  0.500000  1
  P  P18  1  0.823546  0.823546  0.500000  1
  P  P19  1  0.176454  0.000000  0.500000  1
  Ir  Ir20  1  0.507009  0.864123  0.000000  1
  Ir  Ir21  1  0.135877  0.642888  0.000000  1
  Ir  Ir22  1  0.357112  0.492991  0.000000  1
  Ir  Ir23  1  0.492991  0.357112  0.000000  1
  Ir  Ir24  1  0.864123  0.507009  0.000000  1
  Ir  Ir25  1  0.642888  0.135877  0.000000  1
  Ir  Ir26  1  0.000000  0.283937  0.000000  1
  Ir  Ir27  1  0.716063  0.716063  0.000000  1
  Ir  Ir28  1  0.283937  0.000000  0.000000  1
  Ir  Ir29  1  0.626780  0.804303  0.500000  1
  Ir  Ir30  1  0.195697  0.822477  0.500000  1
  Ir  Ir31  1  0.177523  0.373220  0.500000  1
  Ir  Ir32  1  0.373220  0.177523  0.500000  1
  Ir  Ir33  1  0.804303  0.626780  0.500000  1
  Ir  Ir34  1  0.822477  0.195697  0.500000  1
  Ir  Ir35  1  0.000000  0.000000  0.500000  1
