# generated using pymatgen
data_Ca4LuU5O18
_symmetry_space_group_name_H-M   'P 1'
_cell_length_a   6.84909608
_cell_length_b   7.56707821
_cell_length_c   8.49184100
_cell_angle_alpha   99.50272426
_cell_angle_beta   98.48207835
_cell_angle_gamma   107.76204470
_symmetry_Int_Tables_number   1
_chemical_formula_structural   Ca4LuU5O18
_chemical_formula_sum   'Ca4 Lu1 U5 O18'
_cell_volume   404.10482543
_cell_formula_units_Z   1
loop_
 _symmetry_equiv_pos_site_id
 _symmetry_equiv_pos_as_xyz
  1  'x, y, z'
loop_
 _atom_site_type_symbol
 _atom_site_label
 _atom_site_symmetry_multiplicity
 _atom_site_fract_x
 _atom_site_fract_y
 _atom_site_fract_z
 _atom_site_occupancy
  Ca  Ca0  1  0.596492  0.701512  0.197197  1
  Ca  Ca1  1  0.406144  0.302092  0.802946  1
  Ca  Ca2  1  0.207891  0.898855  0.419424  1
  Ca  Ca3  1  0.001568  0.505976  0.003532  1
  Lu  Lu4  1  0.798393  0.111123  0.578558  1
  U  U5  1  0.996984  0.997782  0.998303  1
  U  U6  1  0.789729  0.582375  0.590193  1
  U  U7  1  0.627431  0.204400  0.191950  1
  U  U8  1  0.375842  0.795561  0.805252  1
  U  U9  1  0.210111  0.420953  0.410454  1
  O  O10  1  0.815880  0.813672  0.485058  1
  O  O11  1  0.001875  0.251194  0.165252  1
  O  O12  1  0.672661  0.415100  0.065247  1
  O  O13  1  0.482444  0.996775  0.672936  1
  O  O14  1  0.862058  0.336390  0.428601  1
  O  O15  1  0.508488  0.404114  0.347886  1
  O  O16  1  0.255914  0.621305  0.279470  1
  O  O17  1  0.988333  0.836317  0.166323  1
  O  O18  1  0.656897  0.928439  0.004316  1
  O  O19  1  0.339061  0.069897  0.994531  1
  O  O20  1  0.995027  0.150624  0.820321  1
  O  O21  1  0.746577  0.368906  0.714342  1
  O  O22  1  0.492945  0.589983  0.656007  1
  O  O23  1  0.137431  0.661393  0.574442  1
  O  O24  1  0.552822  0.005558  0.330769  1
  O  O25  1  0.324769  0.583922  0.932592  1
  O  O26  1  0.990651  0.744214  0.833027  1
  O  O27  1  0.165579  0.201565  0.531070  1
