# generated using pymatgen
data_CaSm3Lu4(B6Os)4
_symmetry_space_group_name_H-M   'P 1'
_cell_length_a   3.64214200
_cell_length_b   9.12887218
_cell_length_c   11.54817809
_cell_angle_alpha   89.93180596
_cell_angle_beta   90.00000000
_cell_angle_gamma   90.00000000
_symmetry_Int_Tables_number   1
_chemical_formula_structural   CaSm3Lu4(B6Os)4
_chemical_formula_sum   'Ca1 Sm3 Lu4 B24 Os4'
_cell_volume   383.96104532
_cell_formula_units_Z   1
loop_
 _symmetry_equiv_pos_site_id
 _symmetry_equiv_pos_as_xyz
  1  'x, y, z'
loop_
 _atom_site_type_symbol
 _atom_site_label
 _atom_site_symmetry_multiplicity
 _atom_site_fract_x
 _atom_site_fract_y
 _atom_site_fract_z
 _atom_site_occupancy
  Ca  Ca0  1  0.000000  0.322324  0.414037  1
  Sm  Sm1  1  0.000000  0.676492  0.584681  1
  Sm  Sm2  1  0.000000  0.821910  0.086465  1
  Sm  Sm3  1  0.000000  0.178595  0.914774  1
  Lu  Lu4  1  0.000000  0.944834  0.372145  1
  Lu  Lu5  1  0.000000  0.057476  0.626701  1
  Lu  Lu6  1  0.000000  0.443534  0.129170  1
  Lu  Lu7  1  0.000000  0.555323  0.872238  1
  B  B8  1  0.500000  0.554269  0.431212  1
  B  B9  1  0.500000  0.444285  0.567834  1
  B  B10  1  0.500000  0.055273  0.068912  1
  B  B11  1  0.500000  0.944417  0.930940  1
  B  B12  1  0.500000  0.749926  0.417424  1
  B  B13  1  0.500000  0.250171  0.581279  1
  B  B14  1  0.500000  0.250162  0.083119  1
  B  B15  1  0.500000  0.749319  0.917646  1
  B  B16  1  0.500000  0.791737  0.266466  1
  B  B17  1  0.500000  0.209029  0.733333  1
  B  B18  1  0.500000  0.291631  0.234929  1
  B  B19  1  0.500000  0.708438  0.765992  1
  B  B20  1  0.500000  0.629893  0.185821  1
  B  B21  1  0.500000  0.369826  0.815138  1
  B  B22  1  0.500000  0.130862  0.315612  1
  B  B23  1  0.500000  0.869993  0.684329  1
  B  B24  1  0.500000  0.984268  0.214102  1
  B  B25  1  0.500000  0.016372  0.785390  1
  B  B26  1  0.500000  0.482841  0.286929  1
  B  B27  1  0.500000  0.515737  0.713568  1
  B  B28  1  0.500000  0.601310  0.027990  1
  B  B29  1  0.500000  0.398558  0.972759  1
  B  B30  1  0.500000  0.101385  0.472198  1
  B  B31  1  0.500000  0.899333  0.527324  1
  Os  Os32  1  0.000000  0.640032  0.319256  1
  Os  Os33  1  0.000000  0.360707  0.680969  1
  Os  Os34  1  0.000000  0.138811  0.180341  1
  Os  Os35  1  0.000000  0.860927  0.818977  1
