# generated using pymatgen
data_Zn4CuIrRh2
_symmetry_space_group_name_H-M   'P 1'
_cell_length_a   6.01165500
_cell_length_b   6.08438300
_cell_length_c   6.00645700
_cell_angle_alpha   90.00000000
_cell_angle_beta   90.00005721
_cell_angle_gamma   90.00000000
_symmetry_Int_Tables_number   1
_chemical_formula_structural   Zn4CuIrRh2
_chemical_formula_sum   'Zn8 Cu2 Ir2 Rh4'
_cell_volume   219.69944796
_cell_formula_units_Z   2
loop_
 _symmetry_equiv_pos_site_id
 _symmetry_equiv_pos_as_xyz
  1  'x, y, z'
loop_
 _atom_site_type_symbol
 _atom_site_label
 _atom_site_symmetry_multiplicity
 _atom_site_fract_x
 _atom_site_fract_y
 _atom_site_fract_z
 _atom_site_occupancy
  Zn  Zn0  1  0.000006  0.999997  0.249976  1
  Zn  Zn1  1  0.000006  0.500003  0.249976  1
  Zn  Zn2  1  0.500023  0.499998  0.250022  1
  Zn  Zn3  1  0.500023  0.000001  0.250022  1
  Zn  Zn4  1  0.500006  0.000011  0.749997  1
  Zn  Zn5  1  0.500006  0.499989  0.749997  1
  Zn  Zn6  1  0.000021  0.500010  0.750003  1
  Zn  Zn7  1  0.000021  0.999989  0.750003  1
  Cu  Cu8  1  0.249906  0.750000  0.500249  1
  Cu  Cu9  1  0.749902  0.250000  0.999727  1
  Ir  Ir10  1  0.250021  0.750000  0.000038  1
  Ir  Ir11  1  0.750021  0.250000  0.499994  1
  Rh  Rh12  1  0.750026  0.750000  0.000008  1
  Rh  Rh13  1  0.250026  0.250000  0.499961  1
  Rh  Rh14  1  0.749991  0.750000  0.500082  1
  Rh  Rh15  1  0.249992  0.250000  0.999949  1
