# generated using pymatgen
data_Pr7Ho13Sn9Bi7
_symmetry_space_group_name_H-M   'P 1'
_cell_length_a   8.27483733
_cell_length_b   8.27644738
_cell_length_c   15.64605108
_cell_angle_alpha   90.07997657
_cell_angle_beta   90.18431530
_cell_angle_gamma   89.93648044
_symmetry_Int_Tables_number   1
_chemical_formula_structural   Pr7Ho13Sn9Bi7
_chemical_formula_sum   'Pr7 Ho13 Sn9 Bi7'
_cell_volume   1071.53221505
_cell_formula_units_Z   1
loop_
 _symmetry_equiv_pos_site_id
 _symmetry_equiv_pos_as_xyz
  1  'x, y, z'
loop_
 _atom_site_type_symbol
 _atom_site_label
 _atom_site_symmetry_multiplicity
 _atom_site_fract_x
 _atom_site_fract_y
 _atom_site_fract_z
 _atom_site_occupancy
  Pr  Pr0  1  0.026069  0.178066  0.603864  1
  Pr  Pr1  1  0.474621  0.677852  0.397571  1
  Pr  Pr2  1  0.972691  0.819620  0.101499  1
  Pr  Pr3  1  0.479764  0.673077  0.100656  1
  Pr  Pr4  1  0.974716  0.822192  0.397683  1
  Pr  Pr5  1  0.524604  0.322269  0.601496  1
  Pr  Pr6  1  0.022981  0.179424  0.899062  1
  Ho  Ho7  1  0.363440  0.839840  0.873767  1
  Ho  Ho8  1  0.862345  0.659142  0.627392  1
  Ho  Ho9  1  0.635312  0.160053  0.373183  1
  Ho  Ho10  1  0.129018  0.340135  0.125858  1
  Ho  Ho11  1  0.636882  0.165293  0.124798  1
  Ho  Ho12  1  0.136151  0.340188  0.373225  1
  Ho  Ho13  1  0.364000  0.840999  0.628778  1
  Ho  Ho14  1  0.863349  0.657635  0.875388  1
  Ho  Ho15  1  0.535383  0.328882  0.895817  1
  Ho  Ho16  1  0.194478  0.499682  0.750566  1
  Ho  Ho17  1  0.694649  0.001201  0.751004  1
  Ho  Ho18  1  0.805287  0.499797  0.246111  1
  Ho  Ho19  1  0.305372  0.999407  0.248920  1
  Sn  Sn20  1  0.790485  0.458693  0.040205  1
  Sn  Sn21  1  0.559407  0.624725  0.751204  1
  Sn  Sn22  1  0.058938  0.873069  0.751153  1
  Sn  Sn23  1  0.438516  0.372774  0.249873  1
  Sn  Sn24  1  0.939316  0.125874  0.250377  1
  Sn  Sn25  1  0.335451  0.147790  0.753653  1
  Sn  Sn26  1  0.828849  0.355554  0.750839  1
  Sn  Sn27  1  0.669277  0.857169  0.249626  1
  Sn  Sn28  1  0.169942  0.643663  0.249780  1
  Bi  Bi29  1  0.291469  0.038241  0.043149  1
  Bi  Bi30  1  0.792319  0.460493  0.456707  1
  Bi  Bi31  1  0.707610  0.960830  0.543279  1
  Bi  Bi32  1  0.213556  0.532566  0.956315  1
  Bi  Bi33  1  0.704665  0.963825  0.956201  1
  Bi  Bi34  1  0.206896  0.540726  0.543167  1
  Bi  Bi35  1  0.292192  0.039257  0.457833  1
