# generated using pymatgen
data_Ho3MnFe3Co5P6
_symmetry_space_group_name_H-M   'P 1'
_cell_length_a   3.70166400
_cell_length_b   10.52204500
_cell_length_c   12.12418200
_cell_angle_alpha   90.00000000
_cell_angle_beta   90.00000000
_cell_angle_gamma   90.00000000
_symmetry_Int_Tables_number   1
_chemical_formula_structural   Ho3MnFe3Co5P6
_chemical_formula_sum   'Ho6 Mn2 Fe6 Co10 P12'
_cell_volume   472.22567625
_cell_formula_units_Z   2
loop_
 _symmetry_equiv_pos_site_id
 _symmetry_equiv_pos_as_xyz
  1  'x, y, z'
loop_
 _atom_site_type_symbol
 _atom_site_label
 _atom_site_symmetry_multiplicity
 _atom_site_fract_x
 _atom_site_fract_y
 _atom_site_fract_z
 _atom_site_occupancy
  Ho  Ho0  1  0.000000  0.500000  0.523454  1
  Ho  Ho1  1  0.500000  0.000000  0.476546  1
  Ho  Ho2  1  0.500000  0.819784  0.205515  1
  Ho  Ho3  1  0.500000  0.180216  0.205515  1
  Ho  Ho4  1  0.000000  0.680216  0.794485  1
  Ho  Ho5  1  0.000000  0.319784  0.794485  1
  Mn  Mn6  1  0.500000  0.500000  0.153884  1
  Mn  Mn7  1  0.000000  0.000000  0.846116  1
  Fe  Fe8  1  0.000000  0.500000  0.987460  1
  Fe  Fe9  1  0.500000  0.000000  0.012540  1
  Fe  Fe10  1  0.500000  0.298120  0.428964  1
  Fe  Fe11  1  0.500000  0.701880  0.428964  1
  Fe  Fe12  1  0.000000  0.201880  0.571036  1
  Fe  Fe13  1  0.000000  0.798120  0.571036  1
  Co  Co14  1  0.500000  0.880392  0.711228  1
  Co  Co15  1  0.500000  0.119608  0.711228  1
  Co  Co16  1  0.000000  0.619608  0.288772  1
  Co  Co17  1  0.000000  0.380392  0.288772  1
  Co  Co18  1  0.500000  0.331890  0.994093  1
  Co  Co19  1  0.500000  0.668110  0.994093  1
  Co  Co20  1  0.000000  0.168110  0.005907  1
  Co  Co21  1  0.000000  0.831890  0.005907  1
  Co  Co22  1  0.500000  0.500000  0.700011  1
  Co  Co23  1  0.000000  0.000000  0.299989  1
  P  P24  1  0.500000  0.307896  0.614011  1
  P  P25  1  0.500000  0.692104  0.614011  1
  P  P26  1  0.000000  0.192104  0.385989  1
  P  P27  1  0.000000  0.807896  0.385989  1
  P  P28  1  0.500000  0.500000  0.882841  1
  P  P29  1  0.000000  0.000000  0.117159  1
  P  P30  1  0.500000  0.846426  0.894030  1
  P  P31  1  0.500000  0.153574  0.894030  1
  P  P32  1  0.000000  0.653574  0.105970  1
  P  P33  1  0.000000  0.346426  0.105970  1
  P  P34  1  0.500000  0.500000  0.346508  1
  P  P35  1  0.000000  0.000000  0.653492  1
