# generated using pymatgen
data_NdDy5(Ir7Rh2)2
_symmetry_space_group_name_H-M   'P 1'
_cell_length_a   5.31891300
_cell_length_b   5.31891258
_cell_length_c   17.48314500
_cell_angle_alpha   90.00000000
_cell_angle_beta   90.00000000
_cell_angle_gamma   120.00000886
_symmetry_Int_Tables_number   1
_chemical_formula_structural   NdDy5(Ir7Rh2)2
_chemical_formula_sum   'Nd1 Dy5 Ir14 Rh4'
_cell_volume   428.34715947
_cell_formula_units_Z   1
loop_
 _symmetry_equiv_pos_site_id
 _symmetry_equiv_pos_as_xyz
  1  'x, y, z'
loop_
 _atom_site_type_symbol
 _atom_site_label
 _atom_site_symmetry_multiplicity
 _atom_site_fract_x
 _atom_site_fract_y
 _atom_site_fract_z
 _atom_site_occupancy
  Nd  Nd0  1  0.666667  0.333333  0.250000  1
  Dy  Dy1  1  0.333333  0.666667  0.541564  1
  Dy  Dy2  1  0.666667  0.333333  0.040350  1
  Dy  Dy3  1  0.666667  0.333333  0.459650  1
  Dy  Dy4  1  0.333333  0.666667  0.958436  1
  Dy  Dy5  1  0.333333  0.666667  0.750000  1
  Ir  Ir6  1  0.167705  0.335408  0.124852  1
  Ir  Ir7  1  0.832394  0.664791  0.625933  1
  Ir  Ir8  1  0.664592  0.832295  0.124852  1
  Ir  Ir9  1  0.167705  0.832295  0.124852  1
  Ir  Ir10  1  0.832394  0.167606  0.625933  1
  Ir  Ir11  1  0.335209  0.167606  0.625933  1
  Ir  Ir12  1  0.832394  0.664791  0.874067  1
  Ir  Ir13  1  0.832394  0.167606  0.874067  1
  Ir  Ir14  1  0.335209  0.167606  0.874067  1
  Ir  Ir15  1  0.664592  0.832295  0.375148  1
  Ir  Ir16  1  0.167705  0.832295  0.375148  1
  Ir  Ir17  1  0.167705  0.335408  0.375148  1
  Ir  Ir18  1  0.000000  0.000000  0.999510  1
  Ir  Ir19  1  0.000000  0.000000  0.500490  1
  Rh  Rh20  1  0.000000  0.000000  0.250000  1
  Rh  Rh21  1  0.000000  0.000000  0.750000  1
  Rh  Rh22  1  0.333333  0.666667  0.250000  1
  Rh  Rh23  1  0.666667  0.333333  0.750000  1
