# generated using pymatgen
data_Nd3HoSn10(PtRh)3
_symmetry_space_group_name_H-M   'P 1'
_cell_length_a   13.66420449
_cell_length_b   13.66420500
_cell_length_c   7.44870026
_cell_angle_alpha   90.17839783
_cell_angle_beta   89.82160294
_cell_angle_gamma   161.18845107
_symmetry_Int_Tables_number   1
_chemical_formula_structural   Nd3HoSn10(PtRh)3
_chemical_formula_sum   'Nd3 Ho1 Sn10 Pt3 Rh3'
_cell_volume   448.45430291
_cell_formula_units_Z   1
loop_
 _symmetry_equiv_pos_site_id
 _symmetry_equiv_pos_as_xyz
  1  'x, y, z'
loop_
 _atom_site_type_symbol
 _atom_site_label
 _atom_site_symmetry_multiplicity
 _atom_site_fract_x
 _atom_site_fract_y
 _atom_site_fract_z
 _atom_site_occupancy
  Nd  Nd0  1  0.175013  0.824987  0.749323  1
  Nd  Nd1  1  0.826573  0.173427  0.250371  1
  Nd  Nd2  1  0.476623  0.523377  0.762179  1
  Ho  Ho3  1  0.524720  0.475280  0.261795  1
  Sn  Sn4  1  0.880566  0.119434  0.776550  1
  Sn  Sn5  1  0.120252  0.879748  0.273048  1
  Sn  Sn6  1  0.701057  0.298943  0.445829  1
  Sn  Sn7  1  0.296576  0.703424  0.955345  1
  Sn  Sn8  1  0.597738  0.402262  0.880951  1
  Sn  Sn9  1  0.402738  0.597262  0.381378  1
  Sn  Sn10  1  0.952158  0.047842  0.102447  1
  Sn  Sn11  1  0.048941  0.951059  0.599641  1
  Sn  Sn12  1  0.288731  0.711269  0.518497  1
  Sn  Sn13  1  0.709502  0.290498  0.029847  1
  Pt  Pt14  1  0.050500  0.949500  0.989298  1
  Pt  Pt15  1  0.950673  0.049327  0.478728  1
  Pt  Pt16  1  0.777008  0.222992  0.728677  1
  Rh  Rh17  1  0.222761  0.777239  0.229985  1
  Rh  Rh18  1  0.395404  0.604596  0.016463  1
  Rh  Rh19  1  0.602467  0.397533  0.513649  1
