# generated using pymatgen
data_ErLuGaB2Rh5
_symmetry_space_group_name_H-M   'P 1'
_cell_length_a   9.43362200
_cell_length_b   9.43350200
_cell_length_c   3.18741500
_cell_angle_alpha   90.00000000
_cell_angle_beta   90.00000000
_cell_angle_gamma   90.00000000
_symmetry_Int_Tables_number   1
_chemical_formula_structural   ErLuGaB2Rh5
_chemical_formula_sum   'Er2 Lu2 Ga2 B4 Rh10'
_cell_volume   283.65472894
_cell_formula_units_Z   2
loop_
 _symmetry_equiv_pos_site_id
 _symmetry_equiv_pos_as_xyz
  1  'x, y, z'
loop_
 _atom_site_type_symbol
 _atom_site_label
 _atom_site_symmetry_multiplicity
 _atom_site_fract_x
 _atom_site_fract_y
 _atom_site_fract_z
 _atom_site_occupancy
  Er  Er0  1  0.825561  0.325662  0.000000  1
  Er  Er1  1  0.325561  0.174338  0.000000  1
  Lu  Lu2  1  0.674513  0.825410  0.000000  1
  Lu  Lu3  1  0.174513  0.674590  0.000000  1
  Ga  Ga4  1  0.000035  0.000008  0.000000  1
  Ga  Ga5  1  0.500035  0.499992  0.000000  1
  B  B6  1  0.623119  0.122446  0.000000  1
  B  B7  1  0.123119  0.377554  0.000000  1
  B  B8  1  0.876835  0.623839  0.000000  1
  B  B9  1  0.376835  0.876161  0.000000  1
  Rh  Rh10  1  0.070664  0.218417  0.500000  1
  Rh  Rh11  1  0.218000  0.928182  0.500000  1
  Rh  Rh12  1  0.781584  0.069733  0.500000  1
  Rh  Rh13  1  0.929111  0.781995  0.500000  1
  Rh  Rh14  1  0.429111  0.718005  0.500000  1
  Rh  Rh15  1  0.570664  0.281583  0.500000  1
  Rh  Rh16  1  0.718000  0.571818  0.500000  1
  Rh  Rh17  1  0.281584  0.430267  0.500000  1
  Rh  Rh18  1  0.500578  0.999089  0.500000  1
  Rh  Rh19  1  0.000578  0.500911  0.500000  1
