# generated using pymatgen
data_Rb2Li14Sn3O14
_symmetry_space_group_name_H-M   'P 1'
_cell_length_a   7.25199368
_cell_length_b   7.89493283
_cell_length_c   8.28788208
_cell_angle_alpha   118.44362125
_cell_angle_beta   115.94486197
_cell_angle_gamma   89.99999515
_symmetry_Int_Tables_number   1
_chemical_formula_structural   Rb2Li14Sn3O14
_chemical_formula_sum   'Rb2 Li14 Sn3 O14'
_cell_volume   361.91883557
_cell_formula_units_Z   1
loop_
 _symmetry_equiv_pos_site_id
 _symmetry_equiv_pos_as_xyz
  1  'x, y, z'
loop_
 _atom_site_type_symbol
 _atom_site_label
 _atom_site_symmetry_multiplicity
 _atom_site_fract_x
 _atom_site_fract_y
 _atom_site_fract_z
 _atom_site_occupancy
  Rb  Rb0  1  0.234286  0.500000  0.000000  1
  Rb  Rb1  1  0.765714  0.500000  0.000000  1
  Li  Li2  1  0.499999  0.159479  0.000000  1
  Li  Li3  1  0.499999  0.840522  0.000000  1
  Li  Li4  1  0.407806  0.293310  0.271772  1
  Li  Li5  1  0.863966  0.293310  0.271772  1
  Li  Li6  1  0.407806  0.978461  0.271772  1
  Li  Li7  1  0.863966  0.978461  0.271772  1
  Li  Li8  1  0.229192  0.583563  0.458384  1
  Li  Li9  1  0.229192  0.874820  0.458384  1
  Li  Li10  1  0.770808  0.125180  0.541616  1
  Li  Li11  1  0.770808  0.416437  0.541616  1
  Li  Li12  1  0.136033  0.021539  0.728229  1
  Li  Li13  1  0.592195  0.021539  0.728229  1
  Li  Li14  1  0.136033  0.706689  0.728229  1
  Li  Li15  1  0.592195  0.706689  0.728229  1
  Sn  Sn16  1  0.000000  0.000000  0.000000  1
  Sn  Sn17  1  0.730347  0.730348  0.460697  1
  Sn  Sn18  1  0.269652  0.269652  0.539303  1
  O  O19  1  0.288386  0.000000  0.000000  1
  O  O20  1  0.711614  0.000000  0.000000  1
  O  O21  1  0.632451  0.421345  0.264902  1
  O  O22  1  0.632451  0.843557  0.264902  1
  O  O23  1  0.126397  0.305105  0.252794  1
  O  O24  1  0.126397  0.947690  0.252794  1
  O  O25  1  0.539131  0.253859  0.507720  1
  O  O26  1  0.968589  0.253859  0.507720  1
  O  O27  1  0.031410  0.746141  0.492280  1
  O  O28  1  0.460870  0.746141  0.492280  1
  O  O29  1  0.873602  0.052310  0.747206  1
  O  O30  1  0.873602  0.694895  0.747206  1
  O  O31  1  0.367548  0.156443  0.735098  1
  O  O32  1  0.367548  0.578654  0.735098  1
