# generated using pymatgen
data_Yb2Ce4CoCu5Sb8
_symmetry_space_group_name_H-M   'P 1'
_cell_length_a   8.33047975
_cell_length_b   8.33047977
_cell_length_c   8.33048075
_cell_angle_alpha   110.06723220
_cell_angle_beta   108.28567719
_cell_angle_gamma   110.06721562
_symmetry_Int_Tables_number   1
_chemical_formula_structural   Yb2Ce4CoCu5Sb8
_chemical_formula_sum   'Yb2 Ce4 Co1 Cu5 Sb8'
_cell_volume   444.88635509
_cell_formula_units_Z   1
loop_
 _symmetry_equiv_pos_site_id
 _symmetry_equiv_pos_as_xyz
  1  'x, y, z'
loop_
 _atom_site_type_symbol
 _atom_site_label
 _atom_site_symmetry_multiplicity
 _atom_site_fract_x
 _atom_site_fract_y
 _atom_site_fract_z
 _atom_site_occupancy
  Yb  Yb0  1  0.875000  0.250000  0.125000  1
  Yb  Yb1  1  0.625000  0.750000  0.375000  1
  Ce  Ce2  1  0.253779  0.131293  0.869727  1
  Ce  Ce3  1  0.738434  0.368707  0.622485  1
  Ce  Ce4  1  0.130273  0.884051  0.261566  1
  Ce  Ce5  1  0.377515  0.615949  0.746221  1
  Co  Co6  1  0.375000  0.250000  0.625000  1
  Cu  Cu7  1  0.125000  0.750000  0.875000  1
  Cu  Cu8  1  0.250577  0.618215  0.367957  1
  Cu  Cu9  1  0.749742  0.881785  0.132362  1
  Cu  Cu10  1  0.632043  0.382620  0.250258  1
  Cu  Cu11  1  0.867638  0.117380  0.749423  1
  Sb  Sb12  1  0.657587  0.500042  0.996150  1
  Sb  Sb13  1  0.496108  0.999958  0.657545  1
  Sb  Sb14  1  0.003581  0.657865  0.501836  1
  Sb  Sb15  1  0.843971  0.842135  0.845716  1
  Sb  Sb16  1  0.498164  0.001745  0.156029  1
  Sb  Sb17  1  0.154284  0.498255  0.996419  1
  Sb  Sb18  1  0.003850  0.161437  0.503892  1
  Sb  Sb19  1  0.342455  0.338563  0.342413  1
