# generated using pymatgen
data_Hf4Fe2SiNi2As3
_symmetry_space_group_name_H-M   'P 1'
_cell_length_a   3.83662500
_cell_length_b   6.44620488
_cell_length_c   7.25425024
_cell_angle_alpha   91.29726037
_cell_angle_beta   90.00000000
_cell_angle_gamma   90.00000000
_symmetry_Int_Tables_number   1
_chemical_formula_structural   Hf4Fe2SiNi2As3
_chemical_formula_sum   'Hf4 Fe2 Si1 Ni2 As3'
_cell_volume   179.36374477
_cell_formula_units_Z   1
loop_
 _symmetry_equiv_pos_site_id
 _symmetry_equiv_pos_as_xyz
  1  'x, y, z'
loop_
 _atom_site_type_symbol
 _atom_site_label
 _atom_site_symmetry_multiplicity
 _atom_site_fract_x
 _atom_site_fract_y
 _atom_site_fract_z
 _atom_site_occupancy
  Hf  Hf0  1  0.250000  0.485190  0.196702  1
  Hf  Hf1  1  0.750000  0.519156  0.804601  1
  Hf  Hf2  1  0.750000  0.014264  0.679525  1
  Hf  Hf3  1  0.250000  0.978618  0.320655  1
  Fe  Fe4  1  0.750000  0.645751  0.441296  1
  Fe  Fe5  1  0.250000  0.361947  0.564619  1
  Si  Si6  1  0.250000  0.722962  0.607600  1
  Ni  Ni7  1  0.250000  0.853483  0.927179  1
  Ni  Ni8  1  0.750000  0.143589  0.065473  1
  As  As9  1  0.750000  0.273366  0.391448  1
  As  As10  1  0.750000  0.767035  0.119021  1
  As  As11  1  0.250000  0.234639  0.881882  1
