# generated using pymatgen
data_Ba12Si15Ge
_symmetry_space_group_name_H-M   'P 1'
_cell_length_a   8.59614184
_cell_length_b   8.59614184
_cell_length_c   11.95480547
_cell_angle_alpha   89.97738182
_cell_angle_beta   89.97738182
_cell_angle_gamma   89.95460717
_symmetry_Int_Tables_number   1
_chemical_formula_structural   Ba12Si15Ge
_chemical_formula_sum   'Ba12 Si15 Ge1'
_cell_volume   883.38385066
_cell_formula_units_Z   1
loop_
 _symmetry_equiv_pos_site_id
 _symmetry_equiv_pos_as_xyz
  1  'x, y, z'
loop_
 _atom_site_type_symbol
 _atom_site_label
 _atom_site_symmetry_multiplicity
 _atom_site_fract_x
 _atom_site_fract_y
 _atom_site_fract_z
 _atom_site_occupancy
  Ba  Ba0  1  0.499122  0.000666  0.750316  1
  Ba  Ba1  1  0.499900  0.000044  0.249895  1
  Ba  Ba2  1  0.000666  0.499122  0.750316  1
  Ba  Ba3  1  0.000044  0.499900  0.249895  1
  Ba  Ba4  1  0.000699  0.000699  0.831487  1
  Ba  Ba5  1  0.499721  0.499721  0.330470  1
  Ba  Ba6  1  0.499672  0.499672  0.669173  1
  Ba  Ba7  1  0.000062  0.000062  0.169302  1
  Ba  Ba8  1  0.664072  0.664072  0.000060  1
  Ba  Ba9  1  0.835988  0.164696  0.499596  1
  Ba  Ba10  1  0.164696  0.835988  0.499596  1
  Ba  Ba11  1  0.335977  0.335977  0.000076  1
  Si  Si12  1  0.199309  0.199309  0.644391  1
  Si  Si13  1  0.800548  0.800548  0.355397  1
  Si  Si14  1  0.300571  0.699405  0.144347  1
  Si  Si15  1  0.699405  0.300571  0.144347  1
  Si  Si16  1  0.699411  0.300641  0.855628  1
  Si  Si17  1  0.300641  0.699411  0.855628  1
  Si  Si18  1  0.199468  0.199468  0.355683  1
  Si  Si19  1  0.699915  0.101391  0.000093  1
  Si  Si20  1  0.300096  0.898518  0.999882  1
  Si  Si21  1  0.101391  0.699915  0.000093  1
  Si  Si22  1  0.599923  0.798981  0.498157  1
  Si  Si23  1  0.898518  0.300096  0.999882  1
  Si  Si24  1  0.199809  0.398593  0.499945  1
  Si  Si25  1  0.798981  0.599923  0.498157  1
  Si  Si26  1  0.398593  0.199809  0.499945  1
  Ge  Ge27  1  0.802800  0.802800  0.648240  1
