# generated using pymatgen
data_Ba4MnInO7F
_symmetry_space_group_name_H-M   'P 1'
_cell_length_a   7.44325586
_cell_length_b   7.44325615
_cell_length_c   5.85749000
_cell_angle_alpha   90.00000000
_cell_angle_beta   90.00000000
_cell_angle_gamma   133.75233111
_symmetry_Int_Tables_number   1
_chemical_formula_structural   Ba4MnInO7F
_chemical_formula_sum   'Ba4 Mn1 In1 O7 F1'
_cell_volume   234.41026441
_cell_formula_units_Z   1
loop_
 _symmetry_equiv_pos_site_id
 _symmetry_equiv_pos_as_xyz
  1  'x, y, z'
loop_
 _atom_site_type_symbol
 _atom_site_label
 _atom_site_symmetry_multiplicity
 _atom_site_fract_x
 _atom_site_fract_y
 _atom_site_fract_z
 _atom_site_occupancy
  Ba  Ba0  1  0.355187  0.644813  0.000000  1
  Ba  Ba1  1  0.863774  0.136226  0.500000  1
  Ba  Ba2  1  0.139113  0.860887  0.500000  1
  Ba  Ba3  1  0.639964  0.360036  0.000000  1
  Mn  Mn4  1  0.483296  0.516704  0.500000  1
  In  In5  1  0.997813  0.002187  0.000000  1
  O  O6  1  0.270706  0.267863  0.728879  1
  O  O7  1  0.732137  0.729294  0.271121  1
  O  O8  1  0.732137  0.729294  0.728879  1
  O  O9  1  0.270706  0.267863  0.271121  1
  O  O10  1  0.156315  0.843685  0.000000  1
  O  O11  1  0.347066  0.652934  0.500000  1
  O  O12  1  0.839658  0.160342  0.000000  1
  F  F13  1  0.672127  0.327873  0.500000  1
