# generated using pymatgen
data_K2CaCd(H6Ir)2
_symmetry_space_group_name_H-M   'P 1'
_cell_length_a   7.51282000
_cell_length_b   7.51282000
_cell_length_c   7.62762700
_cell_angle_alpha   90.00000000
_cell_angle_beta   90.00000000
_cell_angle_gamma   90.00000000
_symmetry_Int_Tables_number   1
_chemical_formula_structural   K2CaCd(H6Ir)2
_chemical_formula_sum   'K4 Ca2 Cd2 H24 Ir4'
_cell_volume   430.52206504
_cell_formula_units_Z   2
loop_
 _symmetry_equiv_pos_site_id
 _symmetry_equiv_pos_as_xyz
  1  'x, y, z'
loop_
 _atom_site_type_symbol
 _atom_site_label
 _atom_site_symmetry_multiplicity
 _atom_site_fract_x
 _atom_site_fract_y
 _atom_site_fract_z
 _atom_site_occupancy
  K  K0  1  0.000000  0.000000  0.500000  1
  K  K1  1  0.000000  0.500000  0.000000  1
  K  K2  1  0.500000  0.000000  0.000000  1
  K  K3  1  0.000000  0.000000  0.000000  1
  Ca  Ca4  1  0.000000  0.500000  0.500000  1
  Ca  Ca5  1  0.500000  0.000000  0.500000  1
  Cd  Cd6  1  0.500000  0.500000  0.500000  1
  Cd  Cd7  1  0.500000  0.500000  0.000000  1
  H  H8  1  0.737870  0.737870  0.490032  1
  H  H9  1  0.262130  0.262130  0.490032  1
  H  H10  1  0.054122  0.722791  0.735540  1
  H  H11  1  0.277209  0.945878  0.735540  1
  H  H12  1  0.722791  0.054122  0.735540  1
  H  H13  1  0.945878  0.277209  0.735540  1
  H  H14  1  0.741729  0.500327  0.728481  1
  H  H15  1  0.500327  0.741729  0.728481  1
  H  H16  1  0.499673  0.258271  0.728481  1
  H  H17  1  0.258271  0.499673  0.728481  1
  H  H18  1  0.277363  0.722637  0.949187  1
  H  H19  1  0.722637  0.277363  0.949187  1
  H  H20  1  0.722637  0.722637  0.050813  1
  H  H21  1  0.277363  0.277363  0.050813  1
  H  H22  1  0.258271  0.500327  0.271519  1
  H  H23  1  0.499673  0.741729  0.271519  1
  H  H24  1  0.500327  0.258271  0.271519  1
  H  H25  1  0.741729  0.499673  0.271519  1
  H  H26  1  0.945878  0.722791  0.264460  1
  H  H27  1  0.722791  0.945878  0.264460  1
  H  H28  1  0.277209  0.054122  0.264460  1
  H  H29  1  0.054122  0.277209  0.264460  1
  H  H30  1  0.262130  0.737870  0.509968  1
  H  H31  1  0.737870  0.262130  0.509968  1
  Ir  Ir32  1  0.279250  0.720750  0.728145  1
  Ir  Ir33  1  0.720750  0.279250  0.728145  1
  Ir  Ir34  1  0.720750  0.720750  0.271855  1
  Ir  Ir35  1  0.279250  0.279250  0.271855  1
