# generated using pymatgen
data_PrY(PN3)2
_symmetry_space_group_name_H-M   'P 1'
_cell_length_a   7.27482817
_cell_length_b   7.27482911
_cell_length_c   4.86864000
_cell_angle_alpha   88.52235008
_cell_angle_beta   88.52234989
_cell_angle_gamma   102.41978639
_symmetry_Int_Tables_number   1
_chemical_formula_structural   PrY(PN3)2
_chemical_formula_sum   'Pr2 Y2 P4 N12'
_cell_volume   251.42057944
_cell_formula_units_Z   2
loop_
 _symmetry_equiv_pos_site_id
 _symmetry_equiv_pos_as_xyz
  1  'x, y, z'
loop_
 _atom_site_type_symbol
 _atom_site_label
 _atom_site_symmetry_multiplicity
 _atom_site_fract_x
 _atom_site_fract_y
 _atom_site_fract_z
 _atom_site_occupancy
  Pr  Pr0  1  0.098070  0.901930  0.250000  1
  Pr  Pr1  1  0.901930  0.098070  0.750000  1
  Y  Y2  1  0.296179  0.703821  0.750000  1
  Y  Y3  1  0.703821  0.296179  0.250000  1
  P  P4  1  0.376371  0.229848  0.810953  1
  P  P5  1  0.623629  0.770152  0.189047  1
  P  P6  1  0.770152  0.623629  0.689047  1
  P  P7  1  0.229848  0.376371  0.310953  1
  N  N8  1  0.974796  0.751104  0.736147  1
  N  N9  1  0.765586  0.396481  0.779192  1
  N  N10  1  0.751104  0.974796  0.236147  1
  N  N11  1  0.234414  0.603519  0.220808  1
  N  N12  1  0.025204  0.248896  0.263853  1
  N  N13  1  0.248896  0.025204  0.763853  1
  N  N14  1  0.603519  0.234414  0.720808  1
  N  N15  1  0.611170  0.712861  0.860532  1
  N  N16  1  0.388830  0.287139  0.139468  1
  N  N17  1  0.396481  0.765586  0.279192  1
  N  N18  1  0.712861  0.611170  0.360532  1
  N  N19  1  0.287139  0.388830  0.639468  1
