# generated using pymatgen
data_Sr8Yb9Er3Pt16
_symmetry_space_group_name_H-M   'P 1'
_cell_length_a   7.66401327
_cell_length_b   7.80774479
_cell_length_c   14.83088504
_cell_angle_alpha   90.00894857
_cell_angle_beta   89.92744028
_cell_angle_gamma   89.94929907
_symmetry_Int_Tables_number   1
_chemical_formula_structural   Sr8Yb9Er3Pt16
_chemical_formula_sum   'Sr8 Yb9 Er3 Pt16'
_cell_volume   887.45921303
_cell_formula_units_Z   1
loop_
 _symmetry_equiv_pos_site_id
 _symmetry_equiv_pos_as_xyz
  1  'x, y, z'
loop_
 _atom_site_type_symbol
 _atom_site_label
 _atom_site_symmetry_multiplicity
 _atom_site_fract_x
 _atom_site_fract_y
 _atom_site_fract_z
 _atom_site_occupancy
  Sr  Sr0  1  0.501775  0.324862  0.904412  1
  Sr  Sr1  1  0.001516  0.175528  0.595846  1
  Sr  Sr2  1  0.497975  0.674866  0.403647  1
  Sr  Sr3  1  0.998454  0.823951  0.095866  1
  Sr  Sr4  1  0.497665  0.674814  0.096567  1
  Sr  Sr5  1  0.998619  0.824492  0.402961  1
  Sr  Sr6  1  0.501922  0.324132  0.596502  1
  Sr  Sr7  1  0.002175  0.176389  0.904293  1
  Yb  Yb8  1  0.160399  0.333687  0.123109  1
  Yb  Yb9  1  0.661286  0.167490  0.123011  1
  Yb  Yb10  1  0.161120  0.332890  0.376892  1
  Yb  Yb11  1  0.339008  0.832506  0.623056  1
  Yb  Yb12  1  0.838942  0.667282  0.877270  1
  Yb  Yb13  1  0.178134  0.496559  0.750208  1
  Yb  Yb14  1  0.678242  0.003596  0.750414  1
  Yb  Yb15  1  0.822893  0.502893  0.249173  1
  Yb  Yb16  1  0.321038  0.996968  0.249646  1
  Er  Er17  1  0.339377  0.832655  0.876597  1
  Er  Er18  1  0.840048  0.666863  0.623911  1
  Er  Er19  1  0.660236  0.167728  0.375515  1
  Pt  Pt20  1  0.333328  0.036715  0.040703  1
  Pt  Pt21  1  0.831711  0.457138  0.458207  1
  Pt  Pt22  1  0.668493  0.957084  0.542034  1
  Pt  Pt23  1  0.167050  0.545160  0.956162  1
  Pt  Pt24  1  0.660900  0.959396  0.955754  1
  Pt  Pt25  1  0.159491  0.541229  0.543935  1
  Pt  Pt26  1  0.340659  0.041308  0.456250  1
  Pt  Pt27  1  0.837182  0.460923  0.042604  1
  Pt  Pt28  1  0.546168  0.633049  0.750990  1
  Pt  Pt29  1  0.045995  0.867342  0.748663  1
  Pt  Pt30  1  0.456112  0.367443  0.252572  1
  Pt  Pt31  1  0.951140  0.131369  0.251735  1
  Pt  Pt32  1  0.304057  0.122056  0.752196  1
  Pt  Pt33  1  0.804226  0.377979  0.747827  1
  Pt  Pt34  1  0.694819  0.876904  0.251718  1
  Pt  Pt35  1  0.197845  0.624755  0.249754  1
