# generated using pymatgen
data_Ho5Be3P9Ir19
_symmetry_space_group_name_H-M   'P 1'
_cell_length_a   12.62574000
_cell_length_b   12.62573950
_cell_length_c   3.94634800
_cell_angle_alpha   90.00000000
_cell_angle_beta   90.00000000
_cell_angle_gamma   120.00000132
_symmetry_Int_Tables_number   1
_chemical_formula_structural   Ho5Be3P9Ir19
_chemical_formula_sum   'Ho5 Be3 P9 Ir19'
_cell_volume   544.80322776
_cell_formula_units_Z   1
loop_
 _symmetry_equiv_pos_site_id
 _symmetry_equiv_pos_as_xyz
  1  'x, y, z'
loop_
 _atom_site_type_symbol
 _atom_site_label
 _atom_site_symmetry_multiplicity
 _atom_site_fract_x
 _atom_site_fract_y
 _atom_site_fract_z
 _atom_site_occupancy
  Ho  Ho0  1  0.666667  0.333333  0.000000  1
  Ho  Ho1  1  0.333333  0.666667  0.000000  1
  Ho  Ho2  1  0.815660  0.809221  0.500000  1
  Ho  Ho3  1  0.190779  0.006440  0.500000  1
  Ho  Ho4  1  0.993560  0.184340  0.500000  1
  Be  Be5  1  0.683153  0.162510  0.500000  1
  Be  Be6  1  0.837490  0.520643  0.500000  1
  Be  Be7  1  0.479357  0.316847  0.500000  1
  P  P8  1  0.177995  0.696455  0.500000  1
  P  P9  1  0.518461  0.822005  0.500000  1
  P  P10  1  0.303545  0.481539  0.500000  1
  P  P11  1  0.639828  0.626987  0.000000  1
  P  P12  1  0.373013  0.012839  0.000000  1
  P  P13  1  0.987161  0.360172  0.000000  1
  P  P14  1  0.178535  0.181217  0.000000  1
  P  P15  1  0.818783  0.997319  0.000000  1
  P  P16  1  0.002681  0.821465  0.000000  1
  Ir  Ir17  1  0.801833  0.175460  0.000000  1
  Ir  Ir18  1  0.824540  0.626373  0.000000  1
  Ir  Ir19  1  0.373627  0.198167  0.000000  1
  Ir  Ir20  1  0.190326  0.813123  0.000000  1
  Ir  Ir21  1  0.622797  0.809674  0.000000  1
  Ir  Ir22  1  0.186877  0.377203  0.000000  1
  Ir  Ir23  1  0.455212  0.446530  0.000000  1
  Ir  Ir24  1  0.553470  0.008683  0.000000  1
  Ir  Ir25  1  0.991317  0.544788  0.000000  1
  Ir  Ir26  1  0.280457  0.287722  0.500000  1
  Ir  Ir27  1  0.712278  0.992735  0.500000  1
  Ir  Ir28  1  0.007265  0.719543  0.500000  1
  Ir  Ir29  1  0.870681  0.354434  0.500000  1
  Ir  Ir30  1  0.645566  0.516248  0.500000  1
  Ir  Ir31  1  0.483752  0.129319  0.500000  1
  Ir  Ir32  1  0.369323  0.870553  0.500000  1
  Ir  Ir33  1  0.501233  0.630677  0.500000  1
  Ir  Ir34  1  0.129447  0.498767  0.500000  1
  Ir  Ir35  1  0.000000  0.000000  0.000000  1
