# generated using pymatgen
data_RbSrPSe4
_symmetry_space_group_name_H-M   'P 1'
_cell_length_a   6.88464300
_cell_length_b   7.19294800
_cell_length_c   18.39327300
_cell_angle_alpha   90.00000000
_cell_angle_beta   90.00000000
_cell_angle_gamma   90.00000000
_symmetry_Int_Tables_number   1
_chemical_formula_structural   RbSrPSe4
_chemical_formula_sum   'Rb4 Sr4 P4 Se16'
_cell_volume   910.85104844
_cell_formula_units_Z   4
loop_
 _symmetry_equiv_pos_site_id
 _symmetry_equiv_pos_as_xyz
  1  'x, y, z'
loop_
 _atom_site_type_symbol
 _atom_site_label
 _atom_site_symmetry_multiplicity
 _atom_site_fract_x
 _atom_site_fract_y
 _atom_site_fract_z
 _atom_site_occupancy
  Rb  Rb0  1  0.011301  0.002248  0.041204  1
  Rb  Rb1  1  0.511301  0.497752  0.958796  1
  Rb  Rb2  1  0.988699  0.502248  0.458796  1
  Rb  Rb3  1  0.488699  0.997752  0.541204  1
  Sr  Sr4  1  0.297221  0.483508  0.229352  1
  Sr  Sr5  1  0.797221  0.016492  0.770648  1
  Sr  Sr6  1  0.702779  0.983508  0.270648  1
  Sr  Sr7  1  0.202779  0.516492  0.729352  1
  P  P8  1  0.217415  0.008943  0.345523  1
  P  P9  1  0.282585  0.991057  0.845523  1
  P  P10  1  0.717415  0.491057  0.654477  1
  P  P11  1  0.782585  0.508943  0.154477  1
  Se  Se12  1  0.349098  0.963067  0.727347  1
  Se  Se13  1  0.150902  0.036933  0.227347  1
  Se  Se14  1  0.411463  0.247087  0.372741  1
  Se  Se15  1  0.911463  0.252913  0.627259  1
  Se  Se16  1  0.889660  0.749230  0.635489  1
  Se  Se17  1  0.953261  0.006384  0.413867  1
  Se  Se18  1  0.046739  0.506384  0.086133  1
  Se  Se19  1  0.110340  0.249230  0.864511  1
  Se  Se20  1  0.650902  0.463067  0.772653  1
  Se  Se21  1  0.088537  0.752913  0.872741  1
  Se  Se22  1  0.588537  0.747087  0.127259  1
  Se  Se23  1  0.849098  0.536933  0.272653  1
  Se  Se24  1  0.389660  0.750770  0.364511  1
  Se  Se25  1  0.453261  0.493616  0.586133  1
  Se  Se26  1  0.546739  0.993616  0.913867  1
  Se  Se27  1  0.610340  0.250770  0.135489  1
