# generated using pymatgen
data_Hf16Co4PdPt3
_symmetry_space_group_name_H-M   'P 1'
_cell_length_a   8.65289197
_cell_length_b   8.64740890
_cell_length_c   8.64679401
_cell_angle_alpha   59.99849820
_cell_angle_beta   60.01806961
_cell_angle_gamma   60.02095093
_symmetry_Int_Tables_number   1
_chemical_formula_structural   Hf16Co4PdPt3
_chemical_formula_sum   'Hf16 Co4 Pd1 Pt3'
_cell_volume   457.62576617
_cell_formula_units_Z   1
loop_
 _symmetry_equiv_pos_site_id
 _symmetry_equiv_pos_as_xyz
  1  'x, y, z'
loop_
 _atom_site_type_symbol
 _atom_site_label
 _atom_site_symmetry_multiplicity
 _atom_site_fract_x
 _atom_site_fract_y
 _atom_site_fract_z
 _atom_site_occupancy
  Hf  Hf0  1  0.069795  0.643333  0.643598  1
  Hf  Hf1  1  0.643006  0.068882  0.644210  1
  Hf  Hf2  1  0.643114  0.644055  0.068828  1
  Hf  Hf3  1  0.642968  0.643918  0.644171  1
  Hf  Hf4  1  0.810415  0.809533  0.189886  1
  Hf  Hf5  1  0.190604  0.191144  0.809132  1
  Hf  Hf6  1  0.810422  0.189985  0.809543  1
  Hf  Hf7  1  0.190735  0.809112  0.191054  1
  Hf  Hf8  1  0.190568  0.809127  0.809132  1
  Hf  Hf9  1  0.810405  0.190154  0.189929  1
  Hf  Hf10  1  0.438322  0.438093  0.061784  1
  Hf  Hf11  1  0.062375  0.062114  0.437758  1
  Hf  Hf12  1  0.438316  0.061809  0.438080  1
  Hf  Hf13  1  0.062391  0.437774  0.062083  1
  Hf  Hf14  1  0.062379  0.437771  0.437753  1
  Hf  Hf15  1  0.438332  0.061812  0.061779  1
  Co  Co16  1  0.432853  0.855699  0.855730  1
  Co  Co17  1  0.856575  0.432226  0.855599  1
  Co  Co18  1  0.856655  0.855644  0.432040  1
  Co  Co19  1  0.856565  0.855580  0.855596  1
  Pd  Pd20  1  0.762850  0.412361  0.412413  1
  Pt  Pt21  1  0.410100  0.775659  0.407140  1
  Pt  Pt22  1  0.410134  0.407121  0.775601  1
  Pt  Pt23  1  0.410124  0.407095  0.407162  1
