# generated using pymatgen
data_Er8Zn(Si4Pd)3
_symmetry_space_group_name_H-M   'P 1'
_cell_length_a   8.12348200
_cell_length_b   8.12348219
_cell_length_c   8.02444100
_cell_angle_alpha   90.00000000
_cell_angle_beta   90.00000000
_cell_angle_gamma   119.99999922
_symmetry_Int_Tables_number   1
_chemical_formula_structural   Er8Zn(Si4Pd)3
_chemical_formula_sum   'Er8 Zn1 Si12 Pd3'
_cell_volume   458.59559470
_cell_formula_units_Z   1
loop_
 _symmetry_equiv_pos_site_id
 _symmetry_equiv_pos_as_xyz
  1  'x, y, z'
loop_
 _atom_site_type_symbol
 _atom_site_label
 _atom_site_symmetry_multiplicity
 _atom_site_fract_x
 _atom_site_fract_y
 _atom_site_fract_z
 _atom_site_occupancy
  Er  Er0  1  0.502139  0.004279  0.251206  1
  Er  Er1  1  0.497880  0.995758  0.749000  1
  Er  Er2  1  0.995721  0.497861  0.251206  1
  Er  Er3  1  0.004242  0.502120  0.749000  1
  Er  Er4  1  0.502139  0.497861  0.251206  1
  Er  Er5  1  0.497880  0.502120  0.749000  1
  Er  Er6  1  0.000000  0.000000  0.250262  1
  Er  Er7  1  0.000000  0.000000  0.748564  1
  Zn  Zn8  1  0.333333  0.666667  0.011002  1
  Si  Si9  1  0.165428  0.330856  0.998072  1
  Si  Si10  1  0.833205  0.666409  0.000946  1
  Si  Si11  1  0.669144  0.834572  0.998072  1
  Si  Si12  1  0.834306  0.668612  0.501302  1
  Si  Si13  1  0.333591  0.166795  0.000946  1
  Si  Si14  1  0.165720  0.331440  0.498278  1
  Si  Si15  1  0.165428  0.834572  0.998072  1
  Si  Si16  1  0.331388  0.165694  0.501302  1
  Si  Si17  1  0.833205  0.166795  0.000946  1
  Si  Si18  1  0.668560  0.834280  0.498278  1
  Si  Si19  1  0.834306  0.165694  0.501302  1
  Si  Si20  1  0.165720  0.834280  0.498278  1
  Pd  Pd21  1  0.666667  0.333333  0.993790  1
  Pd  Pd22  1  0.666667  0.333333  0.505312  1
  Pd  Pd23  1  0.333333  0.666667  0.494658  1
