# generated using pymatgen
data_Dy8Mn(Si4Pt)3
_symmetry_space_group_name_H-M   'P 1'
_cell_length_a   8.15138300
_cell_length_b   8.15138383
_cell_length_c   8.05675700
_cell_angle_alpha   90.00000000
_cell_angle_beta   90.00000000
_cell_angle_gamma   119.99999258
_symmetry_Int_Tables_number   1
_chemical_formula_structural   Dy8Mn(Si4Pt)3
_chemical_formula_sum   'Dy8 Mn1 Si12 Pt3'
_cell_volume   463.61082948
_cell_formula_units_Z   1
loop_
 _symmetry_equiv_pos_site_id
 _symmetry_equiv_pos_as_xyz
  1  'x, y, z'
loop_
 _atom_site_type_symbol
 _atom_site_label
 _atom_site_symmetry_multiplicity
 _atom_site_fract_x
 _atom_site_fract_y
 _atom_site_fract_z
 _atom_site_occupancy
  Dy  Dy0  1  0.000000  0.000000  0.250871  1
  Dy  Dy1  1  0.000000  0.000000  0.748313  1
  Dy  Dy2  1  0.005995  0.502997  0.254154  1
  Dy  Dy3  1  0.497003  0.502997  0.254154  1
  Dy  Dy4  1  0.505722  0.011443  0.746180  1
  Dy  Dy5  1  0.497003  0.994005  0.254154  1
  Dy  Dy6  1  0.505722  0.494278  0.746180  1
  Dy  Dy7  1  0.988557  0.494278  0.746180  1
  Mn  Mn8  1  0.666667  0.333333  0.475750  1
  Si  Si9  1  0.165541  0.331081  0.999886  1
  Si  Si10  1  0.668919  0.834459  0.999886  1
  Si  Si11  1  0.164214  0.328428  0.500847  1
  Si  Si12  1  0.329693  0.164848  0.999168  1
  Si  Si13  1  0.165541  0.834459  0.999886  1
  Si  Si14  1  0.671572  0.835786  0.500847  1
  Si  Si15  1  0.835152  0.670307  0.999168  1
  Si  Si16  1  0.342508  0.171255  0.501140  1
  Si  Si17  1  0.164214  0.835786  0.500847  1
  Si  Si18  1  0.828745  0.657492  0.501140  1
  Si  Si19  1  0.835152  0.164848  0.999168  1
  Si  Si20  1  0.828745  0.171255  0.501140  1
  Pt  Pt21  1  0.333333  0.666667  0.991612  1
  Pt  Pt22  1  0.333333  0.666667  0.510770  1
  Pt  Pt23  1  0.666667  0.333333  0.018557  1
