# generated using pymatgen
data_Ba5TaHN4
_symmetry_space_group_name_H-M   'P 1'
_cell_length_a   8.23181434
_cell_length_b   8.23181460
_cell_length_c   9.90451122
_cell_angle_alpha   76.88746893
_cell_angle_beta   76.88746358
_cell_angle_gamma   96.45155812
_symmetry_Int_Tables_number   1
_chemical_formula_structural   Ba5TaHN4
_chemical_formula_sum   'Ba10 Ta2 H2 N8'
_cell_volume   627.04666837
_cell_formula_units_Z   2
loop_
 _symmetry_equiv_pos_site_id
 _symmetry_equiv_pos_as_xyz
  1  'x, y, z'
loop_
 _atom_site_type_symbol
 _atom_site_label
 _atom_site_symmetry_multiplicity
 _atom_site_fract_x
 _atom_site_fract_y
 _atom_site_fract_z
 _atom_site_occupancy
  Ba  Ba0  1  0.382697  0.382697  0.367086  1
  Ba  Ba1  1  0.617303  0.617303  0.632914  1
  Ba  Ba2  1  0.662291  0.662291  0.006277  1
  Ba  Ba3  1  0.337709  0.337709  0.993723  1
  Ba  Ba4  1  0.942811  0.942811  0.187046  1
  Ba  Ba5  1  0.057189  0.057189  0.812954  1
  Ba  Ba6  1  0.571804  0.074471  0.765180  1
  Ba  Ba7  1  0.925529  0.428196  0.234820  1
  Ba  Ba8  1  0.428196  0.925529  0.234820  1
  Ba  Ba9  1  0.074471  0.571804  0.765180  1
  Ta  Ta10  1  0.753234  0.246766  0.000000  1
  Ta  Ta11  1  0.246766  0.753234  0.000000  1
  H  H12  1  0.657294  0.657294  0.307073  1
  H  H13  1  0.342706  0.342706  0.692927  1
  N  N14  1  0.712798  0.007158  0.998116  1
  N  N15  1  0.992842  0.287202  0.001884  1
  N  N16  1  0.287202  0.992842  0.001884  1
  N  N17  1  0.007158  0.712798  0.998116  1
  N  N18  1  0.394728  0.711753  0.829708  1
  N  N19  1  0.288247  0.605272  0.170291  1
  N  N20  1  0.605272  0.288247  0.170291  1
  N  N21  1  0.711753  0.394728  0.829708  1
