# generated using pymatgen
data_Ho2Tm18(Ir3Rh)3
_symmetry_space_group_name_H-M   'P 1'
_cell_length_a   10.74228502
_cell_length_b   10.74091700
_cell_length_c   6.32609701
_cell_angle_alpha   90.00152360
_cell_angle_beta   90.00748480
_cell_angle_gamma   90.00015997
_symmetry_Int_Tables_number   1
_chemical_formula_structural   Ho2Tm18(Ir3Rh)3
_chemical_formula_sum   'Ho2 Tm18 Ir9 Rh3'
_cell_volume   729.91766751
_cell_formula_units_Z   1
loop_
 _symmetry_equiv_pos_site_id
 _symmetry_equiv_pos_as_xyz
  1  'x, y, z'
loop_
 _atom_site_type_symbol
 _atom_site_label
 _atom_site_symmetry_multiplicity
 _atom_site_fract_x
 _atom_site_fract_y
 _atom_site_fract_z
 _atom_site_occupancy
  Ho  Ho0  1  0.290388  0.088187  0.377574  1
  Ho  Ho1  1  0.290334  0.911572  0.877367  1
  Tm  Tm2  1  0.709408  0.088240  0.877760  1
  Tm  Tm3  1  0.709352  0.911982  0.377924  1
  Tm  Tm4  1  0.588449  0.790510  0.877666  1
  Tm  Tm5  1  0.588225  0.209436  0.377840  1
  Tm  Tm6  1  0.412181  0.790408  0.377884  1
  Tm  Tm7  1  0.411957  0.209646  0.877707  1
  Tm  Tm8  1  0.208671  0.412066  0.621178  1
  Tm  Tm9  1  0.208930  0.588124  0.123328  1
  Tm  Tm10  1  0.791028  0.411859  0.123253  1
  Tm  Tm11  1  0.791293  0.587951  0.621117  1
  Tm  Tm12  1  0.911823  0.708972  0.123239  1
  Tm  Tm13  1  0.912026  0.291296  0.621090  1
  Tm  Tm14  1  0.087790  0.708557  0.620974  1
  Tm  Tm15  1  0.087977  0.291175  0.123138  1
  Tm  Tm16  1  0.999744  0.999927  0.500459  1
  Tm  Tm17  1  0.999743  0.000077  0.000280  1
  Tm  Tm18  1  0.500051  0.499984  0.000258  1
  Tm  Tm19  1  0.500056  0.500017  0.500427  1
  Ir  Ir20  1  0.845670  0.153330  0.249735  1
  Ir  Ir21  1  0.845813  0.846427  0.749987  1
  Ir  Ir22  1  0.153853  0.153982  0.750445  1
  Ir  Ir23  1  0.154011  0.846266  0.250216  1
  Ir  Ir24  1  0.653543  0.345813  0.749967  1
  Ir  Ir25  1  0.653308  0.654326  0.249716  1
  Ir  Ir26  1  0.346773  0.346030  0.249547  1
  Ir  Ir27  1  0.346533  0.653828  0.749806  1
  Ir  Ir28  1  0.999970  0.500020  0.376778  1
  Rh  Rh29  1  0.500560  0.999992  0.122902  1
  Rh  Rh30  1  0.500566  0.000025  0.622967  1
  Rh  Rh31  1  0.999973  0.499973  0.877473  1
