# generated using pymatgen
data_Sr4Ni(IrO6)2
_symmetry_space_group_name_H-M   'P 1'
_cell_length_a   5.58947777
_cell_length_b   5.58939329
_cell_length_c   9.57263708
_cell_angle_alpha   73.02490362
_cell_angle_beta   106.97887975
_cell_angle_gamma   120.01777486
_symmetry_Int_Tables_number   1
_chemical_formula_structural   Sr4Ni(IrO6)2
_chemical_formula_sum   'Sr4 Ni1 Ir2 O12'
_cell_volume   243.79322597
_cell_formula_units_Z   1
loop_
 _symmetry_equiv_pos_site_id
 _symmetry_equiv_pos_as_xyz
  1  'x, y, z'
loop_
 _atom_site_type_symbol
 _atom_site_label
 _atom_site_symmetry_multiplicity
 _atom_site_fract_x
 _atom_site_fract_y
 _atom_site_fract_z
 _atom_site_occupancy
  Sr  Sr0  1  0.708346  0.291637  0.125216  1
  Sr  Sr1  1  0.131434  0.868592  0.394151  1
  Sr  Sr2  1  0.868565  0.131406  0.605849  1
  Sr  Sr3  1  0.291653  0.708362  0.874785  1
  Ni  Ni4  1  0.000000  0.000000  0.000000  1
  Ir  Ir5  1  0.420145  0.579870  0.260424  1
  Ir  Ir6  1  0.579856  0.420129  0.739576  1
  O  O7  1  0.215137  0.300125  0.130035  1
  O  O8  1  0.699851  0.784844  0.130042  1
  O  O9  1  0.215055  0.784941  0.130063  1
  O  O10  1  0.129611  0.378066  0.373399  1
  O  O11  1  0.621881  0.378139  0.373453  1
  O  O12  1  0.621959  0.870419  0.373402  1
  O  O13  1  0.378042  0.129583  0.626598  1
  O  O14  1  0.870390  0.621934  0.626601  1
  O  O15  1  0.378120  0.621863  0.626547  1
  O  O16  1  0.784944  0.215058  0.869936  1
  O  O17  1  0.300147  0.215155  0.869957  1
  O  O18  1  0.784862  0.699874  0.869964  1
