# generated using pymatgen
data_Dy7ErTe12
_symmetry_space_group_name_H-M   'P 1'
_cell_length_a   14.46494707
_cell_length_b   13.79609678
_cell_length_c   7.56804124
_cell_angle_alpha   79.41107381
_cell_angle_beta   69.63898172
_cell_angle_gamma   30.94223546
_symmetry_Int_Tables_number   1
_chemical_formula_structural   Dy7ErTe12
_chemical_formula_sum   'Dy7 Er1 Te12'
_cell_volume   707.13151719
_cell_formula_units_Z   1
loop_
 _symmetry_equiv_pos_site_id
 _symmetry_equiv_pos_as_xyz
  1  'x, y, z'
loop_
 _atom_site_type_symbol
 _atom_site_label
 _atom_site_symmetry_multiplicity
 _atom_site_fract_x
 _atom_site_fract_y
 _atom_site_fract_z
 _atom_site_occupancy
  Dy  Dy0  1  0.000507  0.000507  0.499493  1
  Dy  Dy1  1  0.499465  0.499465  0.000535  1
  Dy  Dy2  1  0.249522  0.249522  0.750478  1
  Dy  Dy3  1  0.750568  0.750568  0.249432  1
  Dy  Dy4  1  0.667236  0.667236  0.832764  1
  Dy  Dy5  1  0.832802  0.832802  0.667198  1
  Dy  Dy6  1  0.582758  0.582758  0.417242  1
  Er  Er7  1  0.417285  0.417285  0.582715  1
  Te  Te8  1  0.667825  0.166455  0.830104  1
  Te  Te9  1  0.334722  0.830954  0.165536  1
  Te  Te10  1  0.830954  0.334722  0.668788  1
  Te  Te11  1  0.166455  0.667825  0.335616  1
  Te  Te12  1  0.580695  0.085469  0.419505  1
  Te  Te13  1  0.915260  0.419088  0.084482  1
  Te  Te14  1  0.419088  0.915260  0.581170  1
  Te  Te15  1  0.085469  0.580695  0.914331  1
  Te  Te16  1  0.750610  0.248785  0.249444  1
  Te  Te17  1  0.248785  0.750610  0.751161  1
  Te  Te18  1  0.498343  0.001652  0.001657  1
  Te  Te19  1  0.001652  0.498343  0.498348  1
