# generated using pymatgen
data_Lu7Th(InCo)2
_symmetry_space_group_name_H-M   'P 1'
_cell_length_a   9.38960750
_cell_length_b   9.38960743
_cell_length_c   9.42627800
_cell_angle_alpha   59.87072470
_cell_angle_beta   59.87072493
_cell_angle_gamma   60.00269357
_symmetry_Int_Tables_number   1
_chemical_formula_structural   Lu7Th(InCo)2
_chemical_formula_sum   'Lu14 Th2 In4 Co4'
_cell_volume   586.51287038
_cell_formula_units_Z   2
loop_
 _symmetry_equiv_pos_site_id
 _symmetry_equiv_pos_as_xyz
  1  'x, y, z'
loop_
 _atom_site_type_symbol
 _atom_site_label
 _atom_site_symmetry_multiplicity
 _atom_site_fract_x
 _atom_site_fract_y
 _atom_site_fract_z
 _atom_site_occupancy
  Lu  Lu0  1  0.600662  0.202105  0.598617  1
  Lu  Lu1  1  0.202105  0.600662  0.598617  1
  Lu  Lu2  1  0.064099  0.438681  0.436882  1
  Lu  Lu3  1  0.438681  0.064099  0.060338  1
  Lu  Lu4  1  0.438681  0.064099  0.436882  1
  Lu  Lu5  1  0.064099  0.438681  0.060338  1
  Lu  Lu6  1  0.436229  0.436229  0.063771  1
  Lu  Lu7  1  0.062636  0.062636  0.437364  1
  Lu  Lu8  1  0.186109  0.814043  0.812951  1
  Lu  Lu9  1  0.814043  0.186109  0.186897  1
  Lu  Lu10  1  0.814043  0.186109  0.812951  1
  Lu  Lu11  1  0.186109  0.814043  0.186897  1
  Lu  Lu12  1  0.811502  0.811502  0.188498  1
  Lu  Lu13  1  0.191781  0.191781  0.808219  1
  Th  Th14  1  0.590444  0.590444  0.599028  1
  Th  Th15  1  0.590444  0.590444  0.220085  1
  In  In16  1  0.834225  0.834225  0.832708  1
  In  In17  1  0.834225  0.834225  0.498840  1
  In  In18  1  0.835311  0.498414  0.833137  1
  In  In19  1  0.498414  0.835311  0.833137  1
  Co  Co20  1  0.392482  0.392482  0.391227  1
  Co  Co21  1  0.392482  0.392482  0.823807  1
  Co  Co22  1  0.397697  0.823493  0.389405  1
  Co  Co23  1  0.823493  0.397697  0.389405  1
