# generated using pymatgen
data_La8SiPI12
_symmetry_space_group_name_H-M   'P 1'
_cell_length_a   4.44076800
_cell_length_b   14.57359413
_cell_length_c   15.41257220
_cell_angle_alpha   90.04517635
_cell_angle_beta   90.00000000
_cell_angle_gamma   90.00000000
_symmetry_Int_Tables_number   1
_chemical_formula_structural   La8SiPI12
_chemical_formula_sum   'La8 Si1 P1 I12'
_cell_volume   997.46977403
_cell_formula_units_Z   1
loop_
 _symmetry_equiv_pos_site_id
 _symmetry_equiv_pos_as_xyz
  1  'x, y, z'
loop_
 _atom_site_type_symbol
 _atom_site_label
 _atom_site_symmetry_multiplicity
 _atom_site_fract_x
 _atom_site_fract_y
 _atom_site_fract_z
 _atom_site_occupancy
  La  La0  1  0.500000  0.113875  0.347441  1
  La  La1  1  0.500000  0.886125  0.652559  1
  La  La2  1  0.500000  0.616564  0.156197  1
  La  La3  1  0.500000  0.383436  0.843803  1
  La  La4  1  0.000000  0.109025  0.572668  1
  La  La5  1  0.000000  0.890975  0.427332  1
  La  La6  1  0.000000  0.614965  0.923295  1
  La  La7  1  0.000000  0.385035  0.076705  1
  Si  Si8  1  0.500000  0.500000  0.000000  1
  P  P9  1  0.500000  0.000000  0.500000  1
  I  I10  1  0.500000  0.242392  0.163032  1
  I  I11  1  0.500000  0.757608  0.836968  1
  I  I12  1  0.500000  0.745305  0.339397  1
  I  I13  1  0.500000  0.254695  0.660603  1
  I  I14  1  0.000000  0.259474  0.414209  1
  I  I15  1  0.000000  0.740526  0.585791  1
  I  I16  1  0.000000  0.760537  0.086053  1
  I  I17  1  0.000000  0.239463  0.913947  1
  I  I18  1  0.000000  0.998412  0.239928  1
  I  I19  1  0.000000  0.001588  0.760072  1
  I  I20  1  0.000000  0.498425  0.261292  1
  I  I21  1  0.000000  0.501575  0.738708  1
