# generated using pymatgen
data_Ca10GeBi4As
_symmetry_space_group_name_H-M   'P 1'
_cell_length_a   8.21793251
_cell_length_b   9.56830400
_cell_length_c   12.80309243
_cell_angle_alpha   90.00000000
_cell_angle_beta   88.84818732
_cell_angle_gamma   90.00000000
_symmetry_Int_Tables_number   1
_chemical_formula_structural   Ca10GeBi4As
_chemical_formula_sum   'Ca20 Ge2 Bi8 As2'
_cell_volume   1006.52520586
_cell_formula_units_Z   2
loop_
 _symmetry_equiv_pos_site_id
 _symmetry_equiv_pos_as_xyz
  1  'x, y, z'
loop_
 _atom_site_type_symbol
 _atom_site_label
 _atom_site_symmetry_multiplicity
 _atom_site_fract_x
 _atom_site_fract_y
 _atom_site_fract_z
 _atom_site_occupancy
  Ca  Ca0  1  0.047153  0.750000  0.503404  1
  Ca  Ca1  1  0.952847  0.250000  0.496596  1
  Ca  Ca2  1  0.555156  0.250000  0.000562  1
  Ca  Ca3  1  0.444844  0.750000  0.999438  1
  Ca  Ca4  1  0.862526  0.750000  0.797559  1
  Ca  Ca5  1  0.137474  0.250000  0.202441  1
  Ca  Ca6  1  0.363270  0.250000  0.697260  1
  Ca  Ca7  1  0.636730  0.750000  0.302740  1
  Ca  Ca8  1  0.683051  0.536082  0.573180  1
  Ca  Ca9  1  0.316949  0.463918  0.426820  1
  Ca  Ca10  1  0.176213  0.468834  0.926028  1
  Ca  Ca11  1  0.316949  0.036082  0.426820  1
  Ca  Ca12  1  0.823787  0.531166  0.073972  1
  Ca  Ca13  1  0.683051  0.963918  0.573180  1
  Ca  Ca14  1  0.823787  0.968834  0.073972  1
  Ca  Ca15  1  0.176213  0.031166  0.926028  1
  Ca  Ca16  1  0.328971  0.750000  0.717401  1
  Ca  Ca17  1  0.671029  0.250000  0.282599  1
  Ca  Ca18  1  0.838566  0.250000  0.786634  1
  Ca  Ca19  1  0.161434  0.750000  0.213366  1
  Ge  Ge20  1  0.063539  0.750000  0.987476  1
  Ge  Ge21  1  0.936461  0.250000  0.012524  1
  Bi  Bi22  1  0.559694  0.506871  0.827780  1
  Bi  Bi23  1  0.440306  0.493129  0.172220  1
  Bi  Bi24  1  0.068313  0.486712  0.667285  1
  Bi  Bi25  1  0.440306  0.006871  0.172220  1
  Bi  Bi26  1  0.931687  0.513288  0.332715  1
  Bi  Bi27  1  0.559694  0.993129  0.827780  1
  Bi  Bi28  1  0.931687  0.986712  0.332715  1
  Bi  Bi29  1  0.068313  0.013288  0.667285  1
  As  As30  1  0.571949  0.250000  0.510909  1
  As  As31  1  0.428051  0.750000  0.489091  1
