# generated using pymatgen
data_Pr3Y(TmBi)6
_symmetry_space_group_name_H-M   'P 1'
_cell_length_a   8.33716900
_cell_length_b   9.48757000
_cell_length_c   12.26466100
_cell_angle_alpha   90.00000000
_cell_angle_beta   90.00000000
_cell_angle_gamma   90.00000000
_symmetry_Int_Tables_number   1
_chemical_formula_structural   Pr3Y(TmBi)6
_chemical_formula_sum   'Pr6 Y2 Tm12 Bi12'
_cell_volume   970.12823989
_cell_formula_units_Z   2
loop_
 _symmetry_equiv_pos_site_id
 _symmetry_equiv_pos_as_xyz
  1  'x, y, z'
loop_
 _atom_site_type_symbol
 _atom_site_label
 _atom_site_symmetry_multiplicity
 _atom_site_fract_x
 _atom_site_fract_y
 _atom_site_fract_z
 _atom_site_occupancy
  Pr  Pr0  1  0.185380  0.750000  0.720607  1
  Pr  Pr1  1  0.685380  0.750000  0.779393  1
  Pr  Pr2  1  0.816243  0.250000  0.279933  1
  Pr  Pr3  1  0.316243  0.250000  0.220067  1
  Pr  Pr4  1  0.352732  0.750000  0.215627  1
  Pr  Pr5  1  0.852732  0.750000  0.284373  1
  Y  Y6  1  0.646844  0.250000  0.783461  1
  Y  Y7  1  0.146844  0.250000  0.716539  1
  Tm  Tm8  1  0.024913  0.750000  0.987285  1
  Tm  Tm9  1  0.524913  0.750000  0.512715  1
  Tm  Tm10  1  0.975302  0.250000  0.009997  1
  Tm  Tm11  1  0.475302  0.250000  0.490003  1
  Tm  Tm12  1  0.307489  0.433790  0.939494  1
  Tm  Tm13  1  0.807489  0.066210  0.560506  1
  Tm  Tm14  1  0.692296  0.934056  0.057973  1
  Tm  Tm15  1  0.192296  0.565944  0.442027  1
  Tm  Tm16  1  0.692296  0.565944  0.057973  1
  Tm  Tm17  1  0.192296  0.934056  0.442027  1
  Tm  Tm18  1  0.307489  0.066210  0.939494  1
  Tm  Tm19  1  0.807489  0.433790  0.560506  1
  Bi  Bi20  1  0.435261  0.008980  0.670041  1
  Bi  Bi21  1  0.935261  0.491020  0.829959  1
  Bi  Bi22  1  0.564404  0.504187  0.333166  1
  Bi  Bi23  1  0.064404  0.995813  0.166834  1
  Bi  Bi24  1  0.564404  0.995813  0.333166  1
  Bi  Bi25  1  0.064404  0.504187  0.166834  1
  Bi  Bi26  1  0.435261  0.491020  0.670041  1
  Bi  Bi27  1  0.935261  0.008980  0.829959  1
  Bi  Bi28  1  0.405581  0.750000  0.957294  1
  Bi  Bi29  1  0.905581  0.750000  0.542706  1
  Bi  Bi30  1  0.594105  0.250000  0.037402  1
  Bi  Bi31  1  0.094105  0.250000  0.462598  1
