# generated using pymatgen
data_CdI28
_symmetry_space_group_name_H-M   'P 1'
_cell_length_a   10.67681737
_cell_length_b   14.33344904
_cell_length_c   12.98270300
_cell_angle_alpha   108.44914254
_cell_angle_beta   105.43469067
_cell_angle_gamma   86.57346759
_symmetry_Int_Tables_number   1
_chemical_formula_structural   CdI28
_chemical_formula_sum   'Cd1 I28'
_cell_volume   1816.08072199
_cell_formula_units_Z   1
loop_
 _symmetry_equiv_pos_site_id
 _symmetry_equiv_pos_as_xyz
  1  'x, y, z'
loop_
 _atom_site_type_symbol
 _atom_site_label
 _atom_site_symmetry_multiplicity
 _atom_site_fract_x
 _atom_site_fract_y
 _atom_site_fract_z
 _atom_site_occupancy
  Cd  Cd0  1  0.500000  0.000000  0.000000  1
  I  I1  1  0.081224  0.108200  0.407308  1
  I  I2  1  0.561039  0.140961  0.430122  1
  I  I3  1  0.302325  0.266823  0.848331  1
  I  I4  1  0.784429  0.277908  0.861565  1
  I  I5  1  0.193043  0.487612  0.630233  1
  I  I6  1  0.777325  0.576175  0.739404  1
  I  I7  1  0.438961  0.859039  0.569878  1
  I  I8  1  0.918776  0.891800  0.592692  1
  I  I9  1  0.215571  0.722092  0.138435  1
  I  I10  1  0.697675  0.733177  0.151669  1
  I  I11  1  0.222675  0.423825  0.260596  1
  I  I12  1  0.806957  0.512388  0.369767  1
  I  I13  1  0.857275  0.080464  0.734821  1
  I  I14  1  0.324421  0.939728  0.787594  1
  I  I15  1  0.998276  0.647224  0.946208  1
  I  I16  1  0.510794  0.782887  0.972059  1
  I  I17  1  0.726202  0.335307  0.384048  1
  I  I18  1  0.161459  0.264400  0.334579  1
  I  I19  1  0.675579  0.060272  0.212406  1
  I  I20  1  0.142725  0.919536  0.265179  1
  I  I21  1  0.489206  0.217113  0.027941  1
  I  I22  1  0.001724  0.352776  0.053792  1
  I  I23  1  0.838541  0.735600  0.665421  1
  I  I24  1  0.273798  0.664693  0.615952  1
  I  I25  1  0.085612  0.318349  0.676871  1
  I  I26  1  0.471124  0.202876  0.623122  1
  I  I27  1  0.528876  0.797124  0.376878  1
  I  I28  1  0.914388  0.681651  0.323129  1
