# generated using pymatgen
data_TbCe4IrPb3
_symmetry_space_group_name_H-M   'P 1'
_cell_length_a   9.61506800
_cell_length_b   9.61506948
_cell_length_c   6.42965200
_cell_angle_alpha   90.00000000
_cell_angle_beta   90.00000000
_cell_angle_gamma   119.48647383
_symmetry_Int_Tables_number   1
_chemical_formula_structural   TbCe4IrPb3
_chemical_formula_sum   'Tb2 Ce8 Ir2 Pb6'
_cell_volume   517.42453863
_cell_formula_units_Z   2
loop_
 _symmetry_equiv_pos_site_id
 _symmetry_equiv_pos_as_xyz
  1  'x, y, z'
loop_
 _atom_site_type_symbol
 _atom_site_label
 _atom_site_symmetry_multiplicity
 _atom_site_fract_x
 _atom_site_fract_y
 _atom_site_fract_z
 _atom_site_occupancy
  Tb  Tb0  1  0.247968  0.247968  0.750000  1
  Tb  Tb1  1  0.752032  0.752032  0.250000  1
  Ce  Ce2  1  0.240436  0.000906  0.250000  1
  Ce  Ce3  1  0.759564  0.999094  0.750000  1
  Ce  Ce4  1  0.331860  0.668140  0.500000  1
  Ce  Ce5  1  0.668140  0.331860  0.500000  1
  Ce  Ce6  1  0.000906  0.240436  0.250000  1
  Ce  Ce7  1  0.999094  0.759564  0.750000  1
  Ce  Ce8  1  0.331860  0.668140  0.000000  1
  Ce  Ce9  1  0.668140  0.331860  0.000000  1
  Ir  Ir10  1  0.000000  0.000000  0.000000  1
  Ir  Ir11  1  0.000000  0.000000  0.500000  1
  Pb  Pb12  1  0.399866  0.399866  0.250000  1
  Pb  Pb13  1  0.600134  0.600134  0.750000  1
  Pb  Pb14  1  0.002123  0.396872  0.750000  1
  Pb  Pb15  1  0.603128  0.997877  0.250000  1
  Pb  Pb16  1  0.396872  0.002123  0.750000  1
  Pb  Pb17  1  0.997877  0.603128  0.250000  1
