# generated using pymatgen
data_Ac4La5PrSn8
_symmetry_space_group_name_H-M   'P 1'
_cell_length_a   8.67398200
_cell_length_b   8.71045000
_cell_length_c   16.64053200
_cell_angle_alpha   90.00000000
_cell_angle_beta   90.00000000
_cell_angle_gamma   90.00000000
_symmetry_Int_Tables_number   1
_chemical_formula_structural   Ac4La5PrSn8
_chemical_formula_sum   'Ac8 La10 Pr2 Sn16'
_cell_volume   1257.26352244
_cell_formula_units_Z   2
loop_
 _symmetry_equiv_pos_site_id
 _symmetry_equiv_pos_as_xyz
  1  'x, y, z'
loop_
 _atom_site_type_symbol
 _atom_site_label
 _atom_site_symmetry_multiplicity
 _atom_site_fract_x
 _atom_site_fract_y
 _atom_site_fract_z
 _atom_site_occupancy
  Ac  Ac0  1  0.977269  0.819472  0.901125  1
  Ac  Ac1  1  0.477269  0.680528  0.598875  1
  Ac  Ac2  1  0.522822  0.319397  0.098775  1
  Ac  Ac3  1  0.022822  0.180603  0.401225  1
  Ac  Ac4  1  0.977269  0.819472  0.598875  1
  Ac  Ac5  1  0.477269  0.680528  0.901125  1
  Ac  Ac6  1  0.522822  0.319397  0.401225  1
  Ac  Ac7  1  0.022822  0.180603  0.098775  1
  La  La8  1  0.874908  0.657790  0.382549  1
  La  La9  1  0.374908  0.842210  0.117451  1
  La  La10  1  0.624924  0.157870  0.618232  1
  La  La11  1  0.124924  0.342130  0.881768  1
  La  La12  1  0.124924  0.342130  0.618232  1
  La  La13  1  0.624924  0.157870  0.881768  1
  La  La14  1  0.374908  0.842210  0.382549  1
  La  La15  1  0.874908  0.657790  0.117451  1
  La  La16  1  0.211120  0.503349  0.250000  1
  La  La17  1  0.711120  0.996651  0.250000  1
  Pr  Pr18  1  0.287787  0.003326  0.750000  1
  Pr  Pr19  1  0.787787  0.496674  0.750000  1
  Sn  Sn20  1  0.788419  0.461561  0.545100  1
  Sn  Sn21  1  0.288419  0.038439  0.954900  1
  Sn  Sn22  1  0.711802  0.961205  0.455004  1
  Sn  Sn23  1  0.211802  0.538795  0.044996  1
  Sn  Sn24  1  0.211802  0.538795  0.455004  1
  Sn  Sn25  1  0.711802  0.961205  0.044996  1
  Sn  Sn26  1  0.288419  0.038439  0.545100  1
  Sn  Sn27  1  0.788419  0.461561  0.954900  1
  Sn  Sn28  1  0.170641  0.637007  0.750000  1
  Sn  Sn29  1  0.670641  0.862993  0.750000  1
  Sn  Sn30  1  0.328002  0.135365  0.250000  1
  Sn  Sn31  1  0.828002  0.364635  0.250000  1
  Sn  Sn32  1  0.923663  0.123453  0.750000  1
  Sn  Sn33  1  0.423663  0.376547  0.750000  1
  Sn  Sn34  1  0.578497  0.621964  0.250000  1
  Sn  Sn35  1  0.078497  0.878036  0.250000  1
