# generated using pymatgen
data_Y2Pa2Pd11Pt
_symmetry_space_group_name_H-M   'P 1'
_cell_length_a   5.83344400
_cell_length_b   5.82889526
_cell_length_c   9.69645600
_cell_angle_alpha   90.00000000
_cell_angle_beta   90.00000000
_cell_angle_gamma   120.02582941
_symmetry_Int_Tables_number   1
_chemical_formula_structural   Y2Pa2Pd11Pt
_chemical_formula_sum   'Y2 Pa2 Pd11 Pt1'
_cell_volume   285.45775947
_cell_formula_units_Z   1
loop_
 _symmetry_equiv_pos_site_id
 _symmetry_equiv_pos_as_xyz
  1  'x, y, z'
loop_
 _atom_site_type_symbol
 _atom_site_label
 _atom_site_symmetry_multiplicity
 _atom_site_fract_x
 _atom_site_fract_y
 _atom_site_fract_z
 _atom_site_occupancy
  Y  Y0  1  0.999322  0.998646  0.499310  1
  Y  Y1  1  0.999322  0.998646  0.000690  1
  Pa  Pa2  1  0.334369  0.668738  0.250000  1
  Pa  Pa3  1  0.666599  0.333198  0.750000  1
  Pd  Pd4  1  0.499258  0.498689  0.500620  1
  Pd  Pd5  1  0.499665  0.999330  0.500878  1
  Pd  Pd6  1  0.999430  0.498689  0.500620  1
  Pd  Pd7  1  0.499258  0.498689  0.999380  1
  Pd  Pd8  1  0.499665  0.999330  0.999122  1
  Pd  Pd9  1  0.999430  0.498689  0.999380  1
  Pd  Pd10  1  0.346818  0.175068  0.250000  1
  Pd  Pd11  1  0.828248  0.175068  0.250000  1
  Pd  Pd12  1  0.172564  0.345127  0.750000  1
  Pd  Pd13  1  0.655418  0.827625  0.750000  1
  Pd  Pd14  1  0.172208  0.827625  0.750000  1
  Pt  Pt15  1  0.828422  0.656843  0.250000  1
