# generated using pymatgen
data_Tm4Lu8Fe3Sn2
_symmetry_space_group_name_H-M   'P 1'
_cell_length_a   8.19525127
_cell_length_b   8.19525174
_cell_length_c   8.19525193
_cell_angle_alpha   108.57063141
_cell_angle_beta   108.57063014
_cell_angle_gamma   111.28781373
_symmetry_Int_Tables_number   1
_chemical_formula_structural   Tm4Lu8Fe3Sn2
_chemical_formula_sum   'Tm4 Lu8 Fe3 Sn2'
_cell_volume   423.38579718
_cell_formula_units_Z   1
loop_
 _symmetry_equiv_pos_site_id
 _symmetry_equiv_pos_as_xyz
  1  'x, y, z'
loop_
 _atom_site_type_symbol
 _atom_site_label
 _atom_site_symmetry_multiplicity
 _atom_site_fract_x
 _atom_site_fract_y
 _atom_site_fract_z
 _atom_site_occupancy
  Tm  Tm0  1  0.307440  0.307440  0.614881  1
  Tm  Tm1  1  0.692560  0.692560  0.385119  1
  Tm  Tm2  1  0.692560  0.307440  0.000000  1
  Tm  Tm3  1  0.307440  0.692560  0.000000  1
  Lu  Lu4  1  0.191952  0.426846  0.234895  1
  Lu  Lu5  1  0.808048  0.573154  0.765105  1
  Lu  Lu6  1  0.191952  0.957056  0.765105  1
  Lu  Lu7  1  0.957056  0.191952  0.765105  1
  Lu  Lu8  1  0.808048  0.042944  0.234895  1
  Lu  Lu9  1  0.042944  0.808048  0.234895  1
  Lu  Lu10  1  0.426846  0.191952  0.234895  1
  Lu  Lu11  1  0.573154  0.808048  0.765105  1
  Fe  Fe12  1  0.383661  0.383661  0.000000  1
  Fe  Fe13  1  0.616339  0.616339  0.000000  1
  Fe  Fe14  1  0.000000  0.000000  0.000000  1
  Sn  Sn15  1  0.000000  0.500000  0.500000  1
  Sn  Sn16  1  0.500000  0.000000  0.500000  1
