# generated using pymatgen
data_ErMgPaPt2
_symmetry_space_group_name_H-M   'P 1'
_cell_length_a   7.73949000
_cell_length_b   7.91133300
_cell_length_c   3.63215200
_cell_angle_alpha   90.00000000
_cell_angle_beta   90.00000000
_cell_angle_gamma   90.00000000
_symmetry_Int_Tables_number   1
_chemical_formula_structural   ErMgPaPt2
_chemical_formula_sum   'Er2 Mg2 Pa2 Pt4'
_cell_volume   222.39551426
_cell_formula_units_Z   2
loop_
 _symmetry_equiv_pos_site_id
 _symmetry_equiv_pos_as_xyz
  1  'x, y, z'
loop_
 _atom_site_type_symbol
 _atom_site_label
 _atom_site_symmetry_multiplicity
 _atom_site_fract_x
 _atom_site_fract_y
 _atom_site_fract_z
 _atom_site_occupancy
  Er  Er0  1  0.833281  0.670080  0.500000  1
  Er  Er1  1  0.666719  0.170080  0.500000  1
  Mg  Mg2  1  0.507221  0.496267  0.000000  1
  Mg  Mg3  1  0.992779  0.996267  0.000000  1
  Pa  Pa4  1  0.162417  0.334065  0.500000  1
  Pa  Pa5  1  0.337583  0.834065  0.500000  1
  Pt  Pt6  1  0.622663  0.868051  0.000000  1
  Pt  Pt7  1  0.153237  0.631536  0.000000  1
  Pt  Pt8  1  0.877337  0.368051  0.000000  1
  Pt  Pt9  1  0.346763  0.131536  0.000000  1
