# generated using pymatgen
data_Tb3Dy4Lu13Sn16
_symmetry_space_group_name_H-M   'P 1'
_cell_length_a   7.93942075
_cell_length_b   8.06633244
_cell_length_c   15.23810600
_cell_angle_alpha   90.01550452
_cell_angle_beta   90.21341390
_cell_angle_gamma   89.90431641
_symmetry_Int_Tables_number   1
_chemical_formula_structural   Tb3Dy4Lu13Sn16
_chemical_formula_sum   'Tb3 Dy4 Lu13 Sn16'
_cell_volume   975.87072892
_cell_formula_units_Z   1
loop_
 _symmetry_equiv_pos_site_id
 _symmetry_equiv_pos_as_xyz
  1  'x, y, z'
loop_
 _atom_site_type_symbol
 _atom_site_label
 _atom_site_symmetry_multiplicity
 _atom_site_fract_x
 _atom_site_fract_y
 _atom_site_fract_z
 _atom_site_occupancy
  Tb  Tb0  1  0.019490  0.179192  0.596475  1
  Tb  Tb1  1  0.480678  0.678895  0.404464  1
  Tb  Tb2  1  0.979420  0.820868  0.095944  1
  Dy  Dy3  1  0.479313  0.678036  0.095839  1
  Dy  Dy4  1  0.980529  0.821323  0.404411  1
  Dy  Dy5  1  0.518538  0.321782  0.595426  1
  Dy  Dy6  1  0.020393  0.179154  0.903764  1
  Lu  Lu7  1  0.364940  0.838239  0.876410  1
  Lu  Lu8  1  0.863459  0.662222  0.624057  1
  Lu  Lu9  1  0.635753  0.162173  0.376069  1
  Lu  Lu10  1  0.134050  0.338176  0.123183  1
  Lu  Lu11  1  0.634197  0.161858  0.123183  1
  Lu  Lu12  1  0.135932  0.337945  0.376305  1
  Lu  Lu13  1  0.364278  0.838426  0.624519  1
  Lu  Lu14  1  0.865967  0.661333  0.876643  1
  Lu  Lu15  1  0.522783  0.321221  0.903100  1
  Lu  Lu16  1  0.195836  0.504826  0.750513  1
  Lu  Lu17  1  0.695282  0.995163  0.750559  1
  Lu  Lu18  1  0.804308  0.494722  0.249750  1
  Lu  Lu19  1  0.304382  0.005099  0.249809  1
  Sn  Sn20  1  0.295928  0.039406  0.041650  1
  Sn  Sn21  1  0.797465  0.459332  0.458658  1
  Sn  Sn22  1  0.701586  0.960631  0.541260  1
  Sn  Sn23  1  0.207296  0.537348  0.957703  1
  Sn  Sn24  1  0.702921  0.960850  0.958134  1
  Sn  Sn25  1  0.201838  0.541081  0.541471  1
  Sn  Sn26  1  0.297885  0.040311  0.458589  1
  Sn  Sn27  1  0.794873  0.458919  0.040434  1
  Sn  Sn28  1  0.561545  0.619676  0.750494  1
  Sn  Sn29  1  0.061148  0.879398  0.750290  1
  Sn  Sn30  1  0.438811  0.380029  0.249604  1
  Sn  Sn31  1  0.938647  0.120042  0.249834  1
  Sn  Sn32  1  0.331622  0.151587  0.750990  1
  Sn  Sn33  1  0.829002  0.350409  0.750203  1
  Sn  Sn34  1  0.669955  0.850388  0.250157  1
  Sn  Sn35  1  0.169950  0.649942  0.250104  1
