# generated using pymatgen
data_TbDy4Ho3(ReB6)4
_symmetry_space_group_name_H-M   'P 1'
_cell_length_a   3.68263900
_cell_length_b   9.17530100
_cell_length_c   11.56520200
_cell_angle_alpha   90.00009768
_cell_angle_beta   90.00000000
_cell_angle_gamma   90.00000000
_symmetry_Int_Tables_number   1
_chemical_formula_structural   TbDy4Ho3(ReB6)4
_chemical_formula_sum   'Tb1 Dy4 Ho3 Re4 B24'
_cell_volume   390.78032638
_cell_formula_units_Z   1
loop_
 _symmetry_equiv_pos_site_id
 _symmetry_equiv_pos_as_xyz
  1  'x, y, z'
loop_
 _atom_site_type_symbol
 _atom_site_label
 _atom_site_symmetry_multiplicity
 _atom_site_fract_x
 _atom_site_fract_y
 _atom_site_fract_z
 _atom_site_occupancy
  Tb  Tb0  1  0.000000  0.323218  0.413974  1
  Dy  Dy1  1  0.000000  0.676612  0.586069  1
  Dy  Dy2  1  0.000000  0.823265  0.085940  1
  Dy  Dy3  1  0.000000  0.176809  0.913954  1
  Dy  Dy4  1  0.000000  0.942582  0.370063  1
  Ho  Ho5  1  0.000000  0.057409  0.630280  1
  Ho  Ho6  1  0.000000  0.442669  0.129872  1
  Ho  Ho7  1  0.000000  0.557419  0.869990  1
  Re  Re8  1  0.000000  0.637946  0.320609  1
  Re  Re9  1  0.000000  0.361838  0.679606  1
  Re  Re10  1  0.000000  0.138324  0.178989  1
  Re  Re11  1  0.000000  0.861848  0.820765  1
  B  B12  1  0.500000  0.553003  0.432753  1
  B  B13  1  0.500000  0.446814  0.567438  1
  B  B14  1  0.500000  0.053238  0.067055  1
  B  B15  1  0.500000  0.946891  0.932775  1
  B  B16  1  0.500000  0.748469  0.418304  1
  B  B17  1  0.500000  0.251039  0.581961  1
  B  B18  1  0.500000  0.249111  0.081525  1
  B  B19  1  0.500000  0.751026  0.918336  1
  B  B20  1  0.500000  0.791179  0.265315  1
  B  B21  1  0.500000  0.208468  0.734657  1
  B  B22  1  0.500000  0.291634  0.234288  1
  B  B23  1  0.500000  0.708451  0.765502  1
  B  B24  1  0.500000  0.630125  0.185501  1
  B  B25  1  0.500000  0.369816  0.814411  1
  B  B26  1  0.500000  0.130486  0.314053  1
  B  B27  1  0.500000  0.869722  0.685740  1
  B  B28  1  0.500000  0.982075  0.211739  1
  B  B29  1  0.500000  0.018144  0.788048  1
  B  B30  1  0.500000  0.481913  0.287780  1
  B  B31  1  0.500000  0.518181  0.712058  1
  B  B32  1  0.500000  0.599373  0.027790  1
  B  B33  1  0.500000  0.400745  0.972108  1
  B  B34  1  0.500000  0.099757  0.472467  1
  B  B35  1  0.500000  0.900398  0.528285  1
