# generated using pymatgen
data_V5Cr3(OF5)4
_symmetry_space_group_name_H-M   'P 1'
_cell_length_a   5.27511790
_cell_length_b   5.43831715
_cell_length_c   17.36666400
_cell_angle_alpha   88.88090365
_cell_angle_beta   98.17072935
_cell_angle_gamma   118.78310596
_symmetry_Int_Tables_number   1
_chemical_formula_structural   V5Cr3(OF5)4
_chemical_formula_sum   'V5 Cr3 O4 F20'
_cell_volume   431.53647987
_cell_formula_units_Z   1
loop_
 _symmetry_equiv_pos_site_id
 _symmetry_equiv_pos_as_xyz
  1  'x, y, z'
loop_
 _atom_site_type_symbol
 _atom_site_label
 _atom_site_symmetry_multiplicity
 _atom_site_fract_x
 _atom_site_fract_y
 _atom_site_fract_z
 _atom_site_occupancy
  V  V0  1  0.506177  0.743402  0.244022  1
  V  V1  1  0.735912  0.843680  0.630072  1
  V  V2  1  0.746545  0.389332  0.124887  1
  V  V3  1  0.997434  0.028618  0.993430  1
  V  V4  1  0.004203  0.475682  0.493478  1
  Cr  Cr5  1  0.246764  0.619973  0.874972  1
  Cr  Cr6  1  0.248752  0.123227  0.375701  1
  Cr  Cr7  1  0.504884  0.252239  0.749544  1
  O  O8  1  0.046768  0.300741  0.938174  1
  O  O9  1  0.083239  0.323318  0.424336  1
  O  O10  1  0.569085  0.570315  0.685187  1
  O  O11  1  0.578358  0.593903  0.172122  1
  F  F12  1  0.060358  0.816739  0.914059  1
  F  F13  1  0.027394  0.795764  0.433744  1
  F  F14  1  0.465374  0.937393  0.813197  1
  F  F15  1  0.086710  0.050574  0.709773  1
  F  F16  1  0.079054  0.550433  0.211257  1
  F  F17  1  0.572580  0.794524  0.961658  1
  F  F18  1  0.434757  0.422867  0.836196  1
  F  F19  1  0.417979  0.918775  0.330896  1
  F  F20  1  0.419184  0.712786  0.540648  1
  F  F21  1  0.470060  0.453167  0.318244  1
  F  F22  1  0.573427  0.073652  0.664741  1
  F  F23  1  0.576663  0.275461  0.462003  1
  F  F24  1  0.415019  0.200161  0.039319  1
  F  F25  1  0.926547  0.675176  0.577735  1
  F  F26  1  0.926672  0.450216  0.788365  1
  F  F27  1  0.920778  0.979992  0.290247  1
  F  F28  1  0.529135  0.068923  0.188013  1
  F  F29  1  0.954899  0.701594  0.059810  1
  F  F30  1  0.952970  0.187259  0.568716  1
  F  F31  1  0.922315  0.170112  0.085452  1
