# generated using pymatgen
data_Sr6TiMn2Co2O15
_symmetry_space_group_name_H-M   'P 1'
_cell_length_a   7.00433952
_cell_length_b   7.00433945
_cell_length_c   7.00433991
_cell_angle_alpha   87.60542788
_cell_angle_beta   87.60542959
_cell_angle_gamma   87.60541883
_symmetry_Int_Tables_number   1
_chemical_formula_structural   Sr6TiMn2Co2O15
_chemical_formula_sum   'Sr6 Ti1 Mn2 Co2 O15'
_cell_volume   342.76245669
_cell_formula_units_Z   1
loop_
 _symmetry_equiv_pos_site_id
 _symmetry_equiv_pos_as_xyz
  1  'x, y, z'
loop_
 _atom_site_type_symbol
 _atom_site_label
 _atom_site_symmetry_multiplicity
 _atom_site_fract_x
 _atom_site_fract_y
 _atom_site_fract_z
 _atom_site_occupancy
  Sr  Sr0  1  0.500000  0.860502  0.139498  1
  Sr  Sr1  1  0.139498  0.500000  0.860502  1
  Sr  Sr2  1  0.860502  0.139498  0.500000  1
  Sr  Sr3  1  0.000000  0.689966  0.310034  1
  Sr  Sr4  1  0.310034  0.000000  0.689966  1
  Sr  Sr5  1  0.689966  0.310034  0.000000  1
  Ti  Ti6  1  0.500000  0.500000  0.500000  1
  Mn  Mn7  1  0.706590  0.706590  0.706590  1
  Mn  Mn8  1  0.293410  0.293410  0.293410  1
  Co  Co9  1  0.902464  0.902464  0.902464  1
  Co  Co10  1  0.097536  0.097536  0.097536  1
  O  O11  1  0.365174  0.556954  0.257867  1
  O  O12  1  0.257867  0.365174  0.556954  1
  O  O13  1  0.556954  0.257867  0.365174  1
  O  O14  1  0.634826  0.742133  0.443046  1
  O  O15  1  0.443046  0.634826  0.742133  1
  O  O16  1  0.742133  0.443046  0.634826  1
  O  O17  1  0.208036  0.034939  0.346490  1
  O  O18  1  0.346490  0.208036  0.034939  1
  O  O19  1  0.034939  0.346490  0.208036  1
  O  O20  1  0.791964  0.653510  0.965061  1
  O  O21  1  0.965061  0.791964  0.653510  1
  O  O22  1  0.152932  0.847068  0.000000  1
  O  O23  1  0.847068  0.000000  0.152932  1
  O  O24  1  0.000000  0.152932  0.847068  1
  O  O25  1  0.653510  0.965061  0.791964  1
