# generated using pymatgen
data_Hf2Mn7Nb2Ga
_symmetry_space_group_name_H-M   'P 1'
_cell_length_a   4.87634600
_cell_length_b   4.87634469
_cell_length_c   8.11113800
_cell_angle_alpha   90.00000000
_cell_angle_beta   90.00000000
_cell_angle_gamma   120.00000889
_symmetry_Int_Tables_number   1
_chemical_formula_structural   Hf2Mn7Nb2Ga
_chemical_formula_sum   'Hf2 Mn7 Nb2 Ga1'
_cell_volume   167.03261989
_cell_formula_units_Z   1
loop_
 _symmetry_equiv_pos_site_id
 _symmetry_equiv_pos_as_xyz
  1  'x, y, z'
loop_
 _atom_site_type_symbol
 _atom_site_label
 _atom_site_symmetry_multiplicity
 _atom_site_fract_x
 _atom_site_fract_y
 _atom_site_fract_z
 _atom_site_occupancy
  Hf  Hf0  1  0.333333  0.666667  0.437850  1
  Hf  Hf1  1  0.666667  0.333333  0.931440  1
  Mn  Mn2  1  0.173026  0.346051  0.744398  1
  Mn  Mn3  1  0.828104  0.171896  0.254390  1
  Mn  Mn4  1  0.343792  0.171896  0.254390  1
  Mn  Mn5  1  0.653949  0.826974  0.744398  1
  Mn  Mn6  1  0.000000  0.000000  0.499704  1
  Mn  Mn7  1  0.828104  0.656208  0.254390  1
  Mn  Mn8  1  0.173026  0.826974  0.744398  1
  Nb  Nb9  1  0.666667  0.333333  0.561563  1
  Nb  Nb10  1  0.333333  0.666667  0.073907  1
  Ga  Ga11  1  0.000000  0.000000  0.999172  1
