# generated using pymatgen
data_Tm16MgCd3Ir4
_symmetry_space_group_name_H-M   'P 1'
_cell_length_a   9.57764293
_cell_length_b   9.57764229
_cell_length_c   9.57764235
_cell_angle_alpha   59.43505486
_cell_angle_beta   59.43505802
_cell_angle_gamma   59.43505129
_symmetry_Int_Tables_number   1
_chemical_formula_structural   Tm16MgCd3Ir4
_chemical_formula_sum   'Tm16 Mg1 Cd3 Ir4'
_cell_volume   613.25700309
_cell_formula_units_Z   1
loop_
 _symmetry_equiv_pos_site_id
 _symmetry_equiv_pos_as_xyz
  1  'x, y, z'
loop_
 _atom_site_type_symbol
 _atom_site_label
 _atom_site_symmetry_multiplicity
 _atom_site_fract_x
 _atom_site_fract_y
 _atom_site_fract_z
 _atom_site_occupancy
  Tm  Tm0  1  0.599732  0.599732  0.599732  1
  Tm  Tm1  1  0.598607  0.598607  0.205296  1
  Tm  Tm2  1  0.598607  0.205296  0.598607  1
  Tm  Tm3  1  0.205296  0.598607  0.598607  1
  Tm  Tm4  1  0.058697  0.440161  0.440161  1
  Tm  Tm5  1  0.437301  0.061318  0.061318  1
  Tm  Tm6  1  0.440161  0.058697  0.440161  1
  Tm  Tm7  1  0.061318  0.437301  0.061318  1
  Tm  Tm8  1  0.440161  0.440161  0.058697  1
  Tm  Tm9  1  0.061318  0.061318  0.437301  1
  Tm  Tm10  1  0.189227  0.813152  0.813152  1
  Tm  Tm11  1  0.812636  0.187619  0.187619  1
  Tm  Tm12  1  0.813152  0.189227  0.813152  1
  Tm  Tm13  1  0.187619  0.812636  0.187619  1
  Tm  Tm14  1  0.813152  0.813152  0.189227  1
  Tm  Tm15  1  0.187619  0.187619  0.812636  1
  Mg  Mg16  1  0.825374  0.825374  0.825374  1
  Cd  Cd17  1  0.831351  0.831351  0.504762  1
  Cd  Cd18  1  0.831351  0.504762  0.831351  1
  Cd  Cd19  1  0.504762  0.831351  0.831351  1
  Ir  Ir20  1  0.391728  0.391728  0.391728  1
  Ir  Ir21  1  0.392909  0.392909  0.825012  1
  Ir  Ir22  1  0.392909  0.825012  0.392909  1
  Ir  Ir23  1  0.825012  0.392909  0.392909  1
