# generated using pymatgen
data_Hf5Al16GaIr2Pt5
_symmetry_space_group_name_H-M   'P 1'
_cell_length_a   8.71545739
_cell_length_b   8.77168839
_cell_length_c   8.78355890
_cell_angle_alpha   59.53193571
_cell_angle_beta   60.16629301
_cell_angle_gamma   60.27514959
_symmetry_Int_Tables_number   1
_chemical_formula_structural   Hf5Al16GaIr2Pt5
_chemical_formula_sum   'Hf5 Al16 Ga1 Ir2 Pt5'
_cell_volume   474.67794166
_cell_formula_units_Z   1
loop_
 _symmetry_equiv_pos_site_id
 _symmetry_equiv_pos_as_xyz
  1  'x, y, z'
loop_
 _atom_site_type_symbol
 _atom_site_label
 _atom_site_symmetry_multiplicity
 _atom_site_fract_x
 _atom_site_fract_y
 _atom_site_fract_z
 _atom_site_occupancy
  Hf  Hf0  1  0.324118  0.675882  0.677661  1
  Hf  Hf1  1  0.292844  0.707156  0.295893  1
  Hf  Hf2  1  0.702342  0.297658  0.707952  1
  Hf  Hf3  1  0.291800  0.295181  0.707570  1
  Hf  Hf4  1  0.704819  0.708200  0.294551  1
  Al  Al5  1  0.374828  0.339088  0.334061  1
  Al  Al6  1  0.674768  0.655055  0.655437  1
  Al  Al7  1  0.344945  0.325232  0.985260  1
  Al  Al8  1  0.346209  0.983998  0.324702  1
  Al  Al9  1  0.660912  0.625172  0.047976  1
  Al  Al10  1  0.662201  0.047106  0.627714  1
  Al  Al11  1  0.952894  0.337799  0.337023  1
  Al  Al12  1  0.016002  0.653791  0.654908  1
  Al  Al13  1  0.113858  0.118600  0.118107  1
  Al  Al14  1  0.884972  0.872745  0.873030  1
  Al  Al15  1  0.127255  0.115028  0.630748  1
  Al  Al16  1  0.132775  0.629098  0.112981  1
  Al  Al17  1  0.881400  0.886142  0.350564  1
  Al  Al18  1  0.876266  0.351752  0.889763  1
  Al  Al19  1  0.648248  0.123734  0.117781  1
  Al  Al20  1  0.370902  0.867225  0.874854  1
  Ga  Ga21  1  0.558598  0.441402  0.442036  1
  Ir  Ir22  1  0.502608  0.497392  0.986908  1
  Ir  Ir23  1  0.009149  0.990851  0.990900  1
  Pt  Pt24  1  0.511893  0.988487  0.987957  1
  Pt  Pt25  1  0.011513  0.488107  0.488337  1
  Pt  Pt26  1  0.009921  0.498386  0.989552  1
  Pt  Pt27  1  0.501614  0.990079  0.497858  1
  Pt  Pt28  1  0.010345  0.989655  0.497920  1
