# generated using pymatgen
data_NaSm(BIr)4
_symmetry_space_group_name_H-M   'P 1'
_cell_length_a   7.09514011
_cell_length_b   6.13895146
_cell_length_c   5.50910993
_cell_angle_alpha   74.83384750
_cell_angle_beta   56.62606946
_cell_angle_gamma   48.54008989
_symmetry_Int_Tables_number   1
_chemical_formula_structural   NaSm(BIr)4
_chemical_formula_sum   'Na1 Sm1 B4 Ir4'
_cell_volume   148.14362039
_cell_formula_units_Z   1
loop_
 _symmetry_equiv_pos_site_id
 _symmetry_equiv_pos_as_xyz
  1  'x, y, z'
loop_
 _atom_site_type_symbol
 _atom_site_label
 _atom_site_symmetry_multiplicity
 _atom_site_fract_x
 _atom_site_fract_y
 _atom_site_fract_z
 _atom_site_occupancy
  Na  Na0  1  0.500000  0.500000  0.500000  1
  Sm  Sm1  1  0.750000  0.750000  0.750000  1
  B  B2  1  0.179892  0.820108  0.179892  1
  B  B3  1  0.073683  0.426317  0.073683  1
  B  B4  1  0.820108  0.179892  0.820108  1
  B  B5  1  0.426317  0.073683  0.426317  1
  Ir  Ir6  1  0.871198  0.871198  0.128802  1
  Ir  Ir7  1  0.128802  0.128802  0.871198  1
  Ir  Ir8  1  0.381418  0.381418  0.118582  1
  Ir  Ir9  1  0.118582  0.118582  0.381418  1
