# generated using pymatgen
data_LiTi6Zn5Pt12
_symmetry_space_group_name_H-M   'P 1'
_cell_length_a   4.00235200
_cell_length_b   7.47837200
_cell_length_c   11.99227200
_cell_angle_alpha   90.00000000
_cell_angle_beta   90.00006673
_cell_angle_gamma   90.00000000
_symmetry_Int_Tables_number   1
_chemical_formula_structural   LiTi6Zn5Pt12
_chemical_formula_sum   'Li1 Ti6 Zn5 Pt12'
_cell_volume   358.94161821
_cell_formula_units_Z   1
loop_
 _symmetry_equiv_pos_site_id
 _symmetry_equiv_pos_as_xyz
  1  'x, y, z'
loop_
 _atom_site_type_symbol
 _atom_site_label
 _atom_site_symmetry_multiplicity
 _atom_site_fract_x
 _atom_site_fract_y
 _atom_site_fract_z
 _atom_site_occupancy
  Li  Li0  1  0.500009  0.000000  0.833305  1
  Ti  Ti1  1  0.000000  0.000000  0.997528  1
  Ti  Ti2  1  0.499999  0.500001  0.166099  1
  Ti  Ti3  1  0.999999  0.000000  0.333343  1
  Ti  Ti4  1  0.500000  0.500001  0.500561  1
  Ti  Ti5  1  0.000002  0.000000  0.669129  1
  Ti  Ti6  1  0.500001  0.500001  0.833340  1
  Zn  Zn7  1  0.999999  0.500001  0.999612  1
  Zn  Zn8  1  0.499996  0.000000  0.165615  1
  Zn  Zn9  1  0.999998  0.500001  0.333327  1
  Zn  Zn10  1  0.500000  0.000000  0.501067  1
  Zn  Zn11  1  0.000001  0.500001  0.667065  1
  Pt  Pt12  1  0.500000  0.248910  0.998678  1
  Pt  Pt13  1  0.500000  0.751090  0.998678  1
  Pt  Pt14  1  0.999998  0.250416  0.166607  1
  Pt  Pt15  1  0.999998  0.749584  0.166607  1
  Pt  Pt16  1  0.499999  0.250000  0.333336  1
  Pt  Pt17  1  0.499999  0.750000  0.333336  1
  Pt  Pt18  1  0.000001  0.250434  0.500062  1
  Pt  Pt19  1  0.000001  0.749566  0.500062  1
  Pt  Pt20  1  0.500001  0.248923  0.667988  1
  Pt  Pt21  1  0.500001  0.751077  0.667988  1
  Pt  Pt22  1  0.000001  0.247577  0.833333  1
  Pt  Pt23  1  0.000001  0.752423  0.833333  1
