# generated using pymatgen
data_Sr7CaThPt6
_symmetry_space_group_name_H-M   'P 1'
_cell_length_a   8.09876765
_cell_length_b   8.09876822
_cell_length_c   8.09876900
_cell_angle_alpha   68.88913847
_cell_angle_beta   68.88913693
_cell_angle_gamma   68.88913721
_symmetry_Int_Tables_number   1
_chemical_formula_structural   Sr7CaThPt6
_chemical_formula_sum   'Sr7 Ca1 Th1 Pt6'
_cell_volume   445.78668929
_cell_formula_units_Z   1
loop_
 _symmetry_equiv_pos_site_id
 _symmetry_equiv_pos_as_xyz
  1  'x, y, z'
loop_
 _atom_site_type_symbol
 _atom_site_label
 _atom_site_symmetry_multiplicity
 _atom_site_fract_x
 _atom_site_fract_y
 _atom_site_fract_z
 _atom_site_occupancy
  Sr  Sr0  1  0.194929  0.194929  0.194929  1
  Sr  Sr1  1  0.333718  0.603022  0.848217  1
  Sr  Sr2  1  0.848217  0.333718  0.603022  1
  Sr  Sr3  1  0.603022  0.848217  0.333718  1
  Sr  Sr4  1  0.670921  0.392715  0.152322  1
  Sr  Sr5  1  0.152322  0.670921  0.392715  1
  Sr  Sr6  1  0.392715  0.152322  0.670921  1
  Ca  Ca7  1  0.000980  0.000980  0.000980  1
  Th  Th8  1  0.810695  0.810695  0.810695  1
  Pt  Pt9  1  0.137620  0.949820  0.609095  1
  Pt  Pt10  1  0.609095  0.137620  0.949820  1
  Pt  Pt11  1  0.949820  0.609095  0.137620  1
  Pt  Pt12  1  0.826313  0.032862  0.436770  1
  Pt  Pt13  1  0.436770  0.826313  0.032862  1
  Pt  Pt14  1  0.032862  0.436770  0.826313  1
