# generated using pymatgen
data_LaY3(Si5Pt3)2
_symmetry_space_group_name_H-M   'P 1'
_cell_length_a   8.20469009
_cell_length_b   8.21194692
_cell_length_c   8.21194720
_cell_angle_alpha   136.32591201
_cell_angle_beta   105.02510938
_cell_angle_gamma   91.01549708
_symmetry_Int_Tables_number   1
_chemical_formula_structural   LaY3(Si5Pt3)2
_chemical_formula_sum   'La1 Y3 Si10 Pt6'
_cell_volume   351.11160130
_cell_formula_units_Z   1
loop_
 _symmetry_equiv_pos_site_id
 _symmetry_equiv_pos_as_xyz
  1  'x, y, z'
loop_
 _atom_site_type_symbol
 _atom_site_label
 _atom_site_symmetry_multiplicity
 _atom_site_fract_x
 _atom_site_fract_y
 _atom_site_fract_z
 _atom_site_occupancy
  La  La0  1  0.897264  0.129542  0.767722  1
  Y  Y1  1  0.641906  0.370530  0.271375  1
  Y  Y2  1  0.358607  0.629246  0.729360  1
  Y  Y3  1  0.100439  0.871011  0.229427  1
  Si  Si4  1  0.272932  0.521189  0.249905  1
  Si  Si5  1  0.728467  0.479577  0.750336  1
  Si  Si6  1  0.728467  0.978132  0.248890  1
  Si  Si7  1  0.272932  0.023027  0.751743  1
  Si  Si8  1  0.461768  0.111703  0.350063  1
  Si  Si9  1  0.534130  0.884484  0.649647  1
  Si  Si10  1  0.762332  0.611471  0.150861  1
  Si  Si11  1  0.239547  0.390381  0.849167  1
  Si  Si12  1  0.000103  0.248606  0.249418  1
  Si  Si13  1  0.000103  0.750685  0.751497  1
  Pt  Pt14  1  0.250793  0.137372  0.113421  1
  Pt  Pt15  1  0.749020  0.860984  0.888036  1
  Pt  Pt16  1  0.027400  0.637475  0.389925  1
  Pt  Pt17  1  0.976197  0.365477  0.610721  1
  Pt  Pt18  1  0.498795  0.249305  0.748994  1
  Pt  Pt19  1  0.498795  0.749803  0.249492  1
