# generated using pymatgen
data_ErTm3(VB4)4
_symmetry_space_group_name_H-M   'P 1'
_cell_length_a   3.41243000
_cell_length_b   5.97509001
_cell_length_c   11.57342703
_cell_angle_alpha   90.00800836
_cell_angle_beta   90.00000000
_cell_angle_gamma   90.00000000
_symmetry_Int_Tables_number   1
_chemical_formula_structural   ErTm3(VB4)4
_chemical_formula_sum   'Er1 Tm3 V4 B16'
_cell_volume   235.97727251
_cell_formula_units_Z   1
loop_
 _symmetry_equiv_pos_site_id
 _symmetry_equiv_pos_as_xyz
  1  'x, y, z'
loop_
 _atom_site_type_symbol
 _atom_site_label
 _atom_site_symmetry_multiplicity
 _atom_site_fract_x
 _atom_site_fract_y
 _atom_site_fract_z
 _atom_site_occupancy
  Er  Er0  1  0.500000  0.375388  0.348305  1
  Tm  Tm1  1  0.500000  0.124512  0.848470  1
  Tm  Tm2  1  0.500000  0.875469  0.151517  1
  Tm  Tm3  1  0.500000  0.624556  0.651590  1
  V  V4  1  0.500000  0.127583  0.583103  1
  V  V5  1  0.500000  0.872359  0.417108  1
  V  V6  1  0.500000  0.627649  0.916996  1
  V  V7  1  0.500000  0.372362  0.082856  1
  B  B8  1  0.000000  0.287654  0.686076  1
  B  B9  1  0.000000  0.712962  0.313894  1
  B  B10  1  0.000000  0.787641  0.813984  1
  B  B11  1  0.000000  0.212219  0.185761  1
  B  B12  1  0.000000  0.365135  0.532757  1
  B  B13  1  0.000000  0.635020  0.467695  1
  B  B14  1  0.000000  0.865243  0.967461  1
  B  B15  1  0.000000  0.134748  0.032422  1
  B  B16  1  0.000000  0.022484  0.307092  1
  B  B17  1  0.000000  0.977149  0.692968  1
  B  B18  1  0.000000  0.523182  0.192636  1
  B  B19  1  0.000000  0.477133  0.807076  1
  B  B20  1  0.000000  0.114959  0.452293  1
  B  B21  1  0.000000  0.884549  0.548055  1
  B  B22  1  0.000000  0.615477  0.047837  1
  B  B23  1  0.000000  0.384567  0.952047  1
