# generated using pymatgen
data_V14PdW
_symmetry_space_group_name_H-M   'P 1'
_cell_length_a   6.02224600
_cell_length_b   6.02916100
_cell_length_c   6.02916100
_cell_angle_alpha   90.00000000
_cell_angle_beta   90.00000000
_cell_angle_gamma   90.00000000
_symmetry_Int_Tables_number   1
_chemical_formula_structural   V14PdW
_chemical_formula_sum   'V14 Pd1 W1'
_cell_volume   218.91335369
_cell_formula_units_Z   1
loop_
 _symmetry_equiv_pos_site_id
 _symmetry_equiv_pos_as_xyz
  1  'x, y, z'
loop_
 _atom_site_type_symbol
 _atom_site_label
 _atom_site_symmetry_multiplicity
 _atom_site_fract_x
 _atom_site_fract_y
 _atom_site_fract_z
 _atom_site_occupancy
  V  V0  1  0.000000  0.500001  0.000000  1
  V  V1  1  0.500001  0.500001  0.000000  1
  V  V2  1  0.253612  0.256362  0.256362  1
  V  V3  1  0.746388  0.256362  0.256362  1
  V  V4  1  0.253612  0.743638  0.256362  1
  V  V5  1  0.746388  0.743638  0.256362  1
  V  V6  1  0.000000  0.000000  0.500001  1
  V  V7  1  0.500001  0.000000  0.500001  1
  V  V8  1  0.000000  0.500001  0.500001  1
  V  V9  1  0.500001  0.500001  0.500001  1
  V  V10  1  0.253612  0.256362  0.743638  1
  V  V11  1  0.746388  0.256362  0.743638  1
  V  V12  1  0.253612  0.743638  0.743638  1
  V  V13  1  0.746388  0.743638  0.743638  1
  Pd  Pd14  1  0.000000  0.000000  0.000000  1
  W  W15  1  0.500001  0.000000  0.000000  1
