# generated using pymatgen
data_Nd2P7(IrRu5)2
_symmetry_space_group_name_H-M   'P 1'
_cell_length_a   9.45938232
_cell_length_b   9.51530252
_cell_length_c   3.98068700
_cell_angle_alpha   90.00000000
_cell_angle_beta   90.00000000
_cell_angle_gamma   120.10261817
_symmetry_Int_Tables_number   1
_chemical_formula_structural   Nd2P7(IrRu5)2
_chemical_formula_sum   'Nd2 P7 Ir2 Ru10'
_cell_volume   309.97311677
_cell_formula_units_Z   1
loop_
 _symmetry_equiv_pos_site_id
 _symmetry_equiv_pos_as_xyz
  1  'x, y, z'
loop_
 _atom_site_type_symbol
 _atom_site_label
 _atom_site_symmetry_multiplicity
 _atom_site_fract_x
 _atom_site_fract_y
 _atom_site_fract_z
 _atom_site_occupancy
  Nd  Nd0  1  0.668157  0.333706  0.500000  1
  Nd  Nd1  1  0.330545  0.665511  0.000000  1
  P  P2  1  0.602759  0.714246  0.500000  1
  P  P3  1  0.999994  0.000532  0.000000  1
  P  P4  1  0.280662  0.884645  0.500000  1
  P  P5  1  0.108926  0.398948  0.500000  1
  P  P6  1  0.888913  0.579331  0.000000  1
  P  P7  1  0.422098  0.304684  0.000000  1
  P  P8  1  0.696228  0.115485  0.000000  1
  Ir  Ir9  1  0.555740  0.945297  0.500000  1
  Ir  Ir10  1  0.388564  0.442048  0.500000  1
  Ru  Ru11  1  0.913555  0.124359  0.500000  1
  Ru  Ru12  1  0.213549  0.088277  0.500000  1
  Ru  Ru13  1  0.875640  0.791592  0.500000  1
  Ru  Ru14  1  0.728539  0.891922  0.000000  1
  Ru  Ru15  1  0.109165  0.840174  0.000000  1
  Ru  Ru16  1  0.163961  0.269663  0.000000  1
  Ru  Ru17  1  0.428763  0.064757  0.000000  1
  Ru  Ru18  1  0.937297  0.361122  0.000000  1
  Ru  Ru19  1  0.638335  0.572952  0.000000  1
  Ru  Ru20  1  0.048611  0.610751  0.500000  1
