# generated using pymatgen
data_Ca2Ni6As7Rh6
_symmetry_space_group_name_H-M   'P 1'
_cell_length_a   9.72228000
_cell_length_b   9.72228047
_cell_length_c   3.83407600
_cell_angle_alpha   90.00000000
_cell_angle_beta   90.00000000
_cell_angle_gamma   120.00000431
_symmetry_Int_Tables_number   1
_chemical_formula_structural   Ca2Ni6As7Rh6
_chemical_formula_sum   'Ca2 Ni6 As7 Rh6'
_cell_volume   313.85395084
_cell_formula_units_Z   1
loop_
 _symmetry_equiv_pos_site_id
 _symmetry_equiv_pos_as_xyz
  1  'x, y, z'
loop_
 _atom_site_type_symbol
 _atom_site_label
 _atom_site_symmetry_multiplicity
 _atom_site_fract_x
 _atom_site_fract_y
 _atom_site_fract_z
 _atom_site_occupancy
  Ca  Ca0  1  0.000000  0.000000  0.000000  1
  Ca  Ca1  1  0.666667  0.333333  0.500000  1
  Ni  Ni2  1  0.388606  0.291498  0.000000  1
  Ni  Ni3  1  0.902890  0.611394  0.000000  1
  Ni  Ni4  1  0.708502  0.097110  0.000000  1
  Ni  Ni5  1  0.610831  0.785152  0.000000  1
  Ni  Ni6  1  0.174320  0.389169  0.000000  1
  Ni  Ni7  1  0.214848  0.825680  0.000000  1
  As  As8  1  0.620593  0.543374  0.000000  1
  As  As9  1  0.922781  0.379407  0.000000  1
  As  As10  1  0.456626  0.077219  0.000000  1
  As  As11  1  0.737543  0.956283  0.500000  1
  As  As12  1  0.218740  0.262457  0.500000  1
  As  As13  1  0.043717  0.781260  0.500000  1
  As  As14  1  0.333333  0.666667  0.000000  1
  Rh  Rh15  1  0.766594  0.714555  0.500000  1
  Rh  Rh16  1  0.947961  0.233406  0.500000  1
  Rh  Rh17  1  0.285445  0.052039  0.500000  1
  Rh  Rh18  1  0.420464  0.542363  0.500000  1
  Rh  Rh19  1  0.121898  0.579536  0.500000  1
  Rh  Rh20  1  0.457637  0.878102  0.500000  1
