# generated using pymatgen
data_LuTh(SnRh)2
_symmetry_space_group_name_H-M   'P 1'
_cell_length_a   7.61497000
_cell_length_b   7.61497009
_cell_length_c   7.80106600
_cell_angle_alpha   90.00000000
_cell_angle_beta   90.00000000
_cell_angle_gamma   120.00000828
_symmetry_Int_Tables_number   1
_chemical_formula_structural   LuTh(SnRh)2
_chemical_formula_sum   'Lu3 Th3 Sn6 Rh6'
_cell_volume   391.76077168
_cell_formula_units_Z   3
loop_
 _symmetry_equiv_pos_site_id
 _symmetry_equiv_pos_as_xyz
  1  'x, y, z'
loop_
 _atom_site_type_symbol
 _atom_site_label
 _atom_site_symmetry_multiplicity
 _atom_site_fract_x
 _atom_site_fract_y
 _atom_site_fract_z
 _atom_site_occupancy
  Lu  Lu0  1  0.595544  0.999324  0.750000  1
  Lu  Lu1  1  0.403780  0.404456  0.750000  1
  Lu  Lu2  1  0.000676  0.596220  0.750000  1
  Th  Th3  1  0.590977  0.000587  0.250000  1
  Th  Th4  1  0.409610  0.409023  0.250000  1
  Th  Th5  1  0.999413  0.590390  0.250000  1
  Sn  Sn6  1  0.259400  0.999824  0.988167  1
  Sn  Sn7  1  0.740423  0.740600  0.511833  1
  Sn  Sn8  1  0.000176  0.259577  0.511833  1
  Sn  Sn9  1  0.000176  0.259577  0.988167  1
  Sn  Sn10  1  0.740423  0.740600  0.988167  1
  Sn  Sn11  1  0.259400  0.999824  0.511833  1
  Rh  Rh12  1  0.666667  0.333333  0.993374  1
  Rh  Rh13  1  0.666667  0.333333  0.506626  1
  Rh  Rh14  1  0.333333  0.666667  0.995784  1
  Rh  Rh15  1  0.333333  0.666667  0.504216  1
  Rh  Rh16  1  0.000000  0.000000  0.750000  1
  Rh  Rh17  1  0.000000  0.000000  0.250000  1
