# generated using pymatgen
data_Tb3TmZn4Si3Ge
_symmetry_space_group_name_H-M   'P 1'
_cell_length_a   4.19296900
_cell_length_b   4.19296953
_cell_length_c   15.54133500
_cell_angle_alpha   90.00000000
_cell_angle_beta   90.00000000
_cell_angle_gamma   120.00000367
_symmetry_Int_Tables_number   1
_chemical_formula_structural   Tb3TmZn4Si3Ge
_chemical_formula_sum   'Tb3 Tm1 Zn4 Si3 Ge1'
_cell_volume   236.62590938
_cell_formula_units_Z   1
loop_
 _symmetry_equiv_pos_site_id
 _symmetry_equiv_pos_as_xyz
  1  'x, y, z'
loop_
 _atom_site_type_symbol
 _atom_site_label
 _atom_site_symmetry_multiplicity
 _atom_site_fract_x
 _atom_site_fract_y
 _atom_site_fract_z
 _atom_site_occupancy
  Tb  Tb0  1  0.000000  0.000000  0.747970  1
  Tb  Tb1  1  0.000000  0.000000  0.003948  1
  Tb  Tb2  1  0.000000  0.000000  0.497505  1
  Tm  Tm3  1  0.000000  0.000000  0.250513  1
  Zn  Zn4  1  0.333333  0.666667  0.145168  1
  Zn  Zn5  1  0.666667  0.333333  0.855908  1
  Zn  Zn6  1  0.666667  0.333333  0.637720  1
  Zn  Zn7  1  0.333333  0.666667  0.356118  1
  Si  Si8  1  0.333333  0.666667  0.617733  1
  Si  Si9  1  0.666667  0.333333  0.379927  1
  Si  Si10  1  0.666667  0.333333  0.121459  1
  Ge  Ge11  1  0.333333  0.666667  0.886029  1
