# generated using pymatgen
data_TbHo3Tm4(SiBr6)2
_symmetry_space_group_name_H-M   'P 1'
_cell_length_a   4.02430400
_cell_length_b   13.15909049
_cell_length_c   13.91967252
_cell_angle_alpha   90.03119274
_cell_angle_beta   90.00000000
_cell_angle_gamma   90.00000000
_symmetry_Int_Tables_number   1
_chemical_formula_structural   TbHo3Tm4(SiBr6)2
_chemical_formula_sum   'Tb1 Ho3 Tm4 Si2 Br12'
_cell_volume   737.13258080
_cell_formula_units_Z   1
loop_
 _symmetry_equiv_pos_site_id
 _symmetry_equiv_pos_as_xyz
  1  'x, y, z'
loop_
 _atom_site_type_symbol
 _atom_site_label
 _atom_site_symmetry_multiplicity
 _atom_site_fract_x
 _atom_site_fract_y
 _atom_site_fract_z
 _atom_site_occupancy
  Tb  Tb0  1  0.000000  0.381240  0.079082  1
  Ho  Ho1  1  0.000000  0.118135  0.578638  1
  Ho  Ho2  1  0.000000  0.881869  0.421353  1
  Ho  Ho3  1  0.000000  0.618413  0.921196  1
  Tm  Tm4  1  0.500000  0.117437  0.341980  1
  Tm  Tm5  1  0.500000  0.882573  0.657986  1
  Tm  Tm6  1  0.500000  0.617484  0.157915  1
  Tm  Tm7  1  0.500000  0.382631  0.842014  1
  Si  Si8  1  0.500000  0.000002  0.500002  1
  Si  Si9  1  0.500000  0.500988  0.999351  1
  Br  Br10  1  0.500000  0.241222  0.165325  1
  Br  Br11  1  0.500000  0.757678  0.835395  1
  Br  Br12  1  0.500000  0.742537  0.335546  1
  Br  Br13  1  0.500000  0.257497  0.664429  1
  Br  Br14  1  0.000000  0.254543  0.409305  1
  Br  Br15  1  0.000000  0.745454  0.590720  1
  Br  Br16  1  0.000000  0.754635  0.090775  1
  Br  Br17  1  0.000000  0.245069  0.908470  1
  Br  Br18  1  0.000000  0.004289  0.242682  1
  Br  Br19  1  0.000000  0.995670  0.757339  1
  Br  Br20  1  0.000000  0.505013  0.257937  1
  Br  Br21  1  0.000000  0.495620  0.742560  1
