# generated using pymatgen
data_Nd6MgNiSb14
_symmetry_space_group_name_H-M   'P 1'
_cell_length_a   12.49179628
_cell_length_b   12.49179612
_cell_length_c   4.25491067
_cell_angle_alpha   80.20863844
_cell_angle_beta   80.20863638
_cell_angle_gamma   101.72803674
_symmetry_Int_Tables_number   1
_chemical_formula_structural   Nd6MgNiSb14
_chemical_formula_sum   'Nd6 Mg1 Ni1 Sb14'
_cell_volume   626.05378247
_cell_formula_units_Z   1
loop_
 _symmetry_equiv_pos_site_id
 _symmetry_equiv_pos_as_xyz
  1  'x, y, z'
loop_
 _atom_site_type_symbol
 _atom_site_label
 _atom_site_symmetry_multiplicity
 _atom_site_fract_x
 _atom_site_fract_y
 _atom_site_fract_z
 _atom_site_occupancy
  Nd  Nd0  1  0.326637  0.677779  0.931067  1
  Nd  Nd1  1  0.677779  0.326637  0.931067  1
  Nd  Nd2  1  0.272440  0.007100  0.793017  1
  Nd  Nd3  1  0.727044  0.998537  0.069752  1
  Nd  Nd4  1  0.998537  0.727044  0.069752  1
  Nd  Nd5  1  0.007100  0.272440  0.793017  1
  Mg  Mg6  1  0.374100  0.374100  0.059330  1
  Ni  Ni7  1  0.268390  0.268390  0.664895  1
  Sb  Sb8  1  0.568086  0.568086  0.864705  1
  Sb  Sb9  1  0.468489  0.254737  0.572295  1
  Sb  Sb10  1  0.551331  0.745214  0.284260  1
  Sb  Sb11  1  0.745214  0.551331  0.284260  1
  Sb  Sb12  1  0.254737  0.468489  0.572295  1
  Sb  Sb13  1  0.514053  0.912954  0.720412  1
  Sb  Sb14  1  0.488134  0.082837  0.146279  1
  Sb  Sb15  1  0.082837  0.488134  0.146279  1
  Sb  Sb16  1  0.912954  0.514053  0.720412  1
  Sb  Sb17  1  0.169109  0.169109  0.263353  1
  Sb  Sb18  1  0.855437  0.855437  0.577675  1
  Sb  Sb19  1  0.201202  0.801794  0.431820  1
  Sb  Sb20  1  0.801794  0.201202  0.431820  1
  Sb  Sb21  1  0.995199  0.995199  0.939538  1
