# generated using pymatgen
data_Hf3Zr12Nb5Si16
_symmetry_space_group_name_H-M   'P 1'
_cell_length_a   7.03932285
_cell_length_b   7.04240676
_cell_length_c   12.90383856
_cell_angle_alpha   90.15876280
_cell_angle_beta   89.85347307
_cell_angle_gamma   90.01279966
_symmetry_Int_Tables_number   1
_chemical_formula_structural   Hf3Zr12Nb5Si16
_chemical_formula_sum   'Hf3 Zr12 Nb5 Si16'
_cell_volume   639.68742450
_cell_formula_units_Z   1
loop_
 _symmetry_equiv_pos_site_id
 _symmetry_equiv_pos_as_xyz
  1  'x, y, z'
loop_
 _atom_site_type_symbol
 _atom_site_label
 _atom_site_symmetry_multiplicity
 _atom_site_fract_x
 _atom_site_fract_y
 _atom_site_fract_z
 _atom_site_occupancy
  Hf  Hf0  1  0.352748  0.505989  0.377355  1
  Hf  Hf1  1  0.854417  0.998140  0.372990  1
  Hf  Hf2  1  0.004629  0.146385  0.127253  1
  Zr  Zr3  1  0.648205  0.497140  0.875736  1
  Zr  Zr4  1  0.502255  0.353922  0.622905  1
  Zr  Zr5  1  0.497905  0.646044  0.124406  1
  Zr  Zr6  1  0.146941  0.001072  0.873935  1
  Zr  Zr7  1  0.000662  0.652554  0.033798  1
  Zr  Zr8  1  0.000619  0.347835  0.532141  1
  Zr  Zr9  1  0.655127  0.998335  0.965904  1
  Zr  Zr10  1  0.152466  0.500897  0.781523  1
  Zr  Zr11  1  0.847249  0.501634  0.283495  1
  Zr  Zr12  1  0.501494  0.153134  0.218378  1
  Zr  Zr13  1  0.499489  0.846337  0.715715  1
  Zr  Zr14  1  0.345485  0.001425  0.468730  1
  Nb  Nb15  1  0.993085  0.853659  0.624673  1
  Nb  Nb16  1  0.674229  0.676128  0.500340  1
  Nb  Nb17  1  0.826991  0.172088  0.748759  1
  Nb  Nb18  1  0.174001  0.827248  0.251286  1
  Nb  Nb19  1  0.325843  0.323838  0.000770  1
  Si  Si20  1  0.046740  0.701555  0.437331  1
  Si  Si21  1  0.953400  0.300114  0.936339  1
  Si  Si22  1  0.702003  0.046609  0.563651  1
  Si  Si23  1  0.199189  0.452427  0.187087  1
  Si  Si24  1  0.802170  0.550827  0.684419  1
  Si  Si25  1  0.451641  0.198004  0.813687  1
  Si  Si26  1  0.548303  0.801916  0.315481  1
  Si  Si27  1  0.302137  0.952374  0.065133  1
  Si  Si28  1  0.855567  0.796396  0.817945  1
  Si  Si29  1  0.144906  0.206208  0.323213  1
  Si  Si30  1  0.797023  0.856134  0.178611  1
  Si  Si31  1  0.288803  0.645602  0.573610  1
  Si  Si32  1  0.705768  0.353328  0.072375  1
  Si  Si33  1  0.643301  0.294897  0.426366  1
  Si  Si34  1  0.353811  0.700831  0.928645  1
  Si  Si35  1  0.201398  0.138974  0.676019  1
