# generated using pymatgen
data_Tb3Dy5Cd2IrRu
_symmetry_space_group_name_H-M   'P 1'
_cell_length_a   9.64342764
_cell_length_b   9.64342909
_cell_length_c   9.68928800
_cell_angle_alpha   59.84256566
_cell_angle_beta   59.84256068
_cell_angle_gamma   59.71457362
_symmetry_Int_Tables_number   1
_chemical_formula_structural   Tb3Dy5Cd2IrRu
_chemical_formula_sum   'Tb6 Dy10 Cd4 Ir2 Ru2'
_cell_volume   634.25088106
_cell_formula_units_Z   2
loop_
 _symmetry_equiv_pos_site_id
 _symmetry_equiv_pos_as_xyz
  1  'x, y, z'
loop_
 _atom_site_type_symbol
 _atom_site_label
 _atom_site_symmetry_multiplicity
 _atom_site_fract_x
 _atom_site_fract_y
 _atom_site_fract_z
 _atom_site_occupancy
  Tb  Tb0  1  0.188676  0.809755  0.812379  1
  Tb  Tb1  1  0.809755  0.188676  0.189190  1
  Tb  Tb2  1  0.809755  0.188676  0.812379  1
  Tb  Tb3  1  0.188676  0.809755  0.189190  1
  Tb  Tb4  1  0.811650  0.811650  0.188350  1
  Tb  Tb5  1  0.189800  0.189800  0.810200  1
  Dy  Dy6  1  0.597570  0.597570  0.597550  1
  Dy  Dy7  1  0.597570  0.597570  0.207310  1
  Dy  Dy8  1  0.597031  0.208598  0.597186  1
  Dy  Dy9  1  0.208598  0.597031  0.597186  1
  Dy  Dy10  1  0.062446  0.438055  0.439333  1
  Dy  Dy11  1  0.438055  0.062446  0.060165  1
  Dy  Dy12  1  0.438055  0.062446  0.439333  1
  Dy  Dy13  1  0.062446  0.438055  0.060165  1
  Dy  Dy14  1  0.437858  0.437858  0.062142  1
  Dy  Dy15  1  0.060091  0.060091  0.439909  1
  Cd  Cd16  1  0.830333  0.830333  0.830816  1
  Cd  Cd17  1  0.830333  0.830333  0.508520  1
  Cd  Cd18  1  0.830270  0.507707  0.831012  1
  Cd  Cd19  1  0.507707  0.830270  0.831012  1
  Ir  Ir20  1  0.393342  0.827590  0.389534  1
  Ir  Ir21  1  0.827590  0.393342  0.389534  1
  Ru  Ru22  1  0.391197  0.391197  0.387716  1
  Ru  Ru23  1  0.391197  0.391197  0.829890  1
