# generated using pymatgen
data_Lu2SI2
_symmetry_space_group_name_H-M   'P 1'
_cell_length_a   11.20674864
_cell_length_b   11.20674899
_cell_length_c   11.20674802
_cell_angle_alpha   20.65971334
_cell_angle_beta   20.65970747
_cell_angle_gamma   20.65970971
_symmetry_Int_Tables_number   1
_chemical_formula_structural   Lu2SI2
_chemical_formula_sum   'Lu2 S1 I2'
_cell_volume   153.37237758
_cell_formula_units_Z   1
loop_
 _symmetry_equiv_pos_site_id
 _symmetry_equiv_pos_as_xyz
  1  'x, y, z'
loop_
 _atom_site_type_symbol
 _atom_site_label
 _atom_site_symmetry_multiplicity
 _atom_site_fract_x
 _atom_site_fract_y
 _atom_site_fract_z
 _atom_site_occupancy
  Lu  Lu0  1  0.126363  0.126363  0.126363  1
  Lu  Lu1  1  0.873637  0.873637  0.873637  1
  S  S2  1  0.500000  0.500000  0.500000  1
  I  I3  1  0.268121  0.268121  0.268121  1
  I  I4  1  0.731879  0.731879  0.731879  1
