# generated using pymatgen
data_Hf7Zr3(Si3N)2
_symmetry_space_group_name_H-M   'P 1'
_cell_length_a   7.86806791
_cell_length_b   7.85875987
_cell_length_c   5.58635700
_cell_angle_alpha   90.00000000
_cell_angle_beta   90.00000000
_cell_angle_gamma   120.11917275
_symmetry_Int_Tables_number   1
_chemical_formula_structural   Hf7Zr3(Si3N)2
_chemical_formula_sum   'Hf7 Zr3 Si6 N2'
_cell_volume   298.78490629
_cell_formula_units_Z   1
loop_
 _symmetry_equiv_pos_site_id
 _symmetry_equiv_pos_as_xyz
  1  'x, y, z'
loop_
 _atom_site_type_symbol
 _atom_site_label
 _atom_site_symmetry_multiplicity
 _atom_site_fract_x
 _atom_site_fract_y
 _atom_site_fract_z
 _atom_site_occupancy
  Hf  Hf0  1  0.998881  0.765611  0.750000  1
  Hf  Hf1  1  0.768621  0.767887  0.250000  1
  Hf  Hf2  1  0.231789  0.232182  0.750000  1
  Hf  Hf3  1  0.333360  0.666377  0.999967  1
  Hf  Hf4  1  0.666712  0.334193  0.999969  1
  Hf  Hf5  1  0.666712  0.334193  0.500031  1
  Hf  Hf6  1  0.333360  0.666377  0.500033  1
  Zr  Zr7  1  0.238105  0.000469  0.250000  1
  Zr  Zr8  1  0.761612  0.999419  0.750000  1
  Zr  Zr9  1  0.001044  0.236543  0.250000  1
  Si  Si10  1  0.595565  0.999670  0.250000  1
  Si  Si11  1  0.403992  0.000166  0.750000  1
  Si  Si12  1  0.999551  0.594973  0.250000  1
  Si  Si13  1  0.000420  0.406918  0.750000  1
  Si  Si14  1  0.407525  0.407680  0.250000  1
  Si  Si15  1  0.592888  0.592661  0.750000  1
  N  N16  1  0.999931  0.997341  0.998324  1
  N  N17  1  0.999931  0.997341  0.501676  1
