# generated using pymatgen
data_Tb3TmHfPt3F28
_symmetry_space_group_name_H-M   'P 1'
_cell_length_a   5.59229440
_cell_length_b   8.93902837
_cell_length_c   12.04014814
_cell_angle_alpha   62.42461796
_cell_angle_beta   90.10621063
_cell_angle_gamma   90.05676966
_symmetry_Int_Tables_number   1
_chemical_formula_structural   Tb3TmHfPt3F28
_chemical_formula_sum   'Tb3 Tm1 Hf1 Pt3 F28'
_cell_volume   533.50982550
_cell_formula_units_Z   1
loop_
 _symmetry_equiv_pos_site_id
 _symmetry_equiv_pos_as_xyz
  1  'x, y, z'
loop_
 _atom_site_type_symbol
 _atom_site_label
 _atom_site_symmetry_multiplicity
 _atom_site_fract_x
 _atom_site_fract_y
 _atom_site_fract_z
 _atom_site_occupancy
  Tb  Tb0  1  0.740246  0.186987  0.734968  1
  Tb  Tb1  1  0.760546  0.181202  0.237514  1
  Tb  Tb2  1  0.240004  0.813700  0.762210  1
  Tm  Tm3  1  0.258896  0.812145  0.269252  1
  Hf  Hf4  1  0.755754  0.725588  0.045954  1
  Pt  Pt5  1  0.241774  0.271026  0.957602  1
  Pt  Pt6  1  0.258985  0.274222  0.456170  1
  Pt  Pt7  1  0.741240  0.726533  0.542103  1
  F  F8  1  0.936219  0.703686  0.414765  1
  F  F9  1  0.063200  0.296517  0.583214  1
  F  F10  1  0.437627  0.295172  0.084600  1
  F  F11  1  0.540068  0.711242  0.918893  1
  F  F12  1  0.478383  0.732658  0.148987  1
  F  F13  1  0.531412  0.274513  0.864090  1
  F  F14  1  0.968673  0.272629  0.363926  1
  F  F15  1  0.033285  0.726418  0.633158  1
  F  F16  1  0.967824  0.751019  0.172387  1
  F  F17  1  0.053290  0.254116  0.825443  1
  F  F18  1  0.450468  0.258066  0.324518  1
  F  F19  1  0.553745  0.743341  0.674439  1
  F  F20  1  0.774972  0.473957  0.141581  1
  F  F21  1  0.225069  0.518595  0.857570  1
  F  F22  1  0.267368  0.522706  0.358953  1
  F  F23  1  0.729568  0.479363  0.640781  1
  F  F24  1  0.944374  0.275460  0.044505  1
  F  F25  1  0.051119  0.722568  0.951290  1
  F  F26  1  0.440948  0.719129  0.457445  1
  F  F27  1  0.556344  0.283035  0.541198  1
  F  F28  1  0.743648  0.974282  0.449966  1
  F  F29  1  0.259238  0.026539  0.548116  1
  F  F30  1  0.247038  0.023328  0.053104  1
  F  F31  1  0.759177  0.976579  0.942366  1
  F  F32  1  0.575630  0.966529  0.235901  1
  F  F33  1  0.415013  0.031966  0.764678  1
  F  F34  1  0.084041  0.024043  0.269399  1
  F  F35  1  0.914812  0.971141  0.728950  1
