# generated using pymatgen
data_TbDy2Lu2Sn3
_symmetry_space_group_name_H-M   'P 1'
_cell_length_a   8.91733211
_cell_length_b   8.91733307
_cell_length_c   6.45378800
_cell_angle_alpha   90.00000000
_cell_angle_beta   90.00000000
_cell_angle_gamma   119.98480716
_symmetry_Int_Tables_number   1
_chemical_formula_structural   TbDy2Lu2Sn3
_chemical_formula_sum   'Tb2 Dy4 Lu4 Sn6'
_cell_volume   444.51019215
_cell_formula_units_Z   2
loop_
 _symmetry_equiv_pos_site_id
 _symmetry_equiv_pos_as_xyz
  1  'x, y, z'
loop_
 _atom_site_type_symbol
 _atom_site_label
 _atom_site_symmetry_multiplicity
 _atom_site_fract_x
 _atom_site_fract_y
 _atom_site_fract_z
 _atom_site_occupancy
  Tb  Tb0  1  0.760652  0.000107  0.250000  1
  Tb  Tb1  1  0.000107  0.760652  0.250000  1
  Dy  Dy2  1  0.760792  0.760792  0.750000  1
  Dy  Dy3  1  0.239530  0.999889  0.750000  1
  Dy  Dy4  1  0.999889  0.239530  0.750000  1
  Dy  Dy5  1  0.239392  0.239392  0.250000  1
  Lu  Lu6  1  0.666556  0.333317  0.000026  1
  Lu  Lu7  1  0.333317  0.666556  0.000026  1
  Lu  Lu8  1  0.333317  0.666556  0.499974  1
  Lu  Lu9  1  0.666556  0.333317  0.499974  1
  Sn  Sn10  1  0.396464  0.396464  0.750000  1
  Sn  Sn11  1  0.603443  0.999944  0.750000  1
  Sn  Sn12  1  0.999944  0.603443  0.750000  1
  Sn  Sn13  1  0.603816  0.603816  0.250000  1
  Sn  Sn14  1  0.396322  0.999904  0.250000  1
  Sn  Sn15  1  0.999904  0.396322  0.250000  1
