# generated using pymatgen
data_Yb5Y2Lu(Si4Mo3)4
_symmetry_space_group_name_H-M   'P 1'
_cell_length_a   6.72115233
_cell_length_b   6.94098112
_cell_length_c   12.98609402
_cell_angle_alpha   89.88934275
_cell_angle_beta   89.98060964
_cell_angle_gamma   89.92186798
_symmetry_Int_Tables_number   1
_chemical_formula_structural   Yb5Y2Lu(Si4Mo3)4
_chemical_formula_sum   'Yb5 Y2 Lu1 Si16 Mo12'
_cell_volume   605.81762762
_cell_formula_units_Z   1
loop_
 _symmetry_equiv_pos_site_id
 _symmetry_equiv_pos_as_xyz
  1  'x, y, z'
loop_
 _atom_site_type_symbol
 _atom_site_label
 _atom_site_symmetry_multiplicity
 _atom_site_fract_x
 _atom_site_fract_y
 _atom_site_fract_z
 _atom_site_occupancy
  Yb  Yb0  1  0.497982  0.334836  0.090464  1
  Yb  Yb1  1  0.997827  0.167076  0.407989  1
  Yb  Yb2  1  0.501608  0.667453  0.592122  1
  Yb  Yb3  1  0.001583  0.831671  0.908089  1
  Yb  Yb4  1  0.501222  0.666884  0.909995  1
  Y  Y5  1  0.999895  0.830280  0.593851  1
  Y  Y6  1  0.499910  0.331349  0.406252  1
  Lu  Lu7  1  0.998495  0.169929  0.093602  1
  Si  Si8  1  0.658972  0.042242  0.545214  1
  Si  Si9  1  0.158650  0.456658  0.955209  1
  Si  Si10  1  0.338688  0.959196  0.046042  1
  Si  Si11  1  0.841200  0.542472  0.454129  1
  Si  Si12  1  0.339957  0.956526  0.454210  1
  Si  Si13  1  0.841757  0.541943  0.045879  1
  Si  Si14  1  0.660243  0.041904  0.955120  1
  Si  Si15  1  0.160164  0.456411  0.545032  1
  Si  Si16  1  0.534050  0.371876  0.750363  1
  Si  Si17  1  0.034754  0.127916  0.749893  1
  Si  Si18  1  0.465413  0.632218  0.248935  1
  Si  Si19  1  0.966167  0.871264  0.249510  1
  Si  Si20  1  0.799673  0.628405  0.751582  1
  Si  Si21  1  0.303866  0.869471  0.751541  1
  Si  Si22  1  0.196925  0.369417  0.248858  1
  Si  Si23  1  0.698559  0.130190  0.248660  1
  Mo  Mo24  1  0.832862  0.333161  0.626184  1
  Mo  Mo25  1  0.332854  0.167936  0.873427  1
  Mo  Mo26  1  0.166920  0.666606  0.126205  1
  Mo  Mo27  1  0.668000  0.833869  0.373867  1
  Mo  Mo28  1  0.167226  0.666784  0.372957  1
  Mo  Mo29  1  0.668638  0.834892  0.126668  1
  Mo  Mo30  1  0.835177  0.330211  0.873361  1
  Mo  Mo31  1  0.333533  0.167264  0.626308  1
  Mo  Mo32  1  0.662384  0.007265  0.749806  1
  Mo  Mo33  1  0.161865  0.492217  0.749307  1
  Mo  Mo34  1  0.335876  0.996835  0.249935  1
  Mo  Mo35  1  0.837108  0.505372  0.249437  1
