# generated using pymatgen
data_Mg2GaSiRh4
_symmetry_space_group_name_H-M   'P 1'
_cell_length_a   7.43741507
_cell_length_b   7.43741505
_cell_length_c   7.43741681
_cell_angle_alpha   33.52244603
_cell_angle_beta   33.52244643
_cell_angle_gamma   33.52245272
_symmetry_Int_Tables_number   1
_chemical_formula_structural   Mg2GaSiRh4
_chemical_formula_sum   'Mg2 Ga1 Si1 Rh4'
_cell_volume   111.75761750
_cell_formula_units_Z   1
loop_
 _symmetry_equiv_pos_site_id
 _symmetry_equiv_pos_as_xyz
  1  'x, y, z'
loop_
 _atom_site_type_symbol
 _atom_site_label
 _atom_site_symmetry_multiplicity
 _atom_site_fract_x
 _atom_site_fract_y
 _atom_site_fract_z
 _atom_site_occupancy
  Mg  Mg0  1  0.251512  0.251512  0.251512  1
  Mg  Mg1  1  0.748488  0.748488  0.748488  1
  Ga  Ga2  1  0.000000  0.000000  0.000000  1
  Si  Si3  1  0.500000  0.500000  0.500000  1
  Rh  Rh4  1  0.378457  0.378457  0.378457  1
  Rh  Rh5  1  0.872003  0.872003  0.872003  1
  Rh  Rh6  1  0.621543  0.621543  0.621543  1
  Rh  Rh7  1  0.127997  0.127997  0.127997  1
