# generated using pymatgen
data_La16Cd4IrRuPt2
_symmetry_space_group_name_H-M   'P 1'
_cell_length_a   10.16887712
_cell_length_b   10.15318774
_cell_length_c   10.12777100
_cell_angle_alpha   60.08277811
_cell_angle_beta   60.13363313
_cell_angle_gamma   60.47753267
_symmetry_Int_Tables_number   1
_chemical_formula_structural   La16Cd4IrRuPt2
_chemical_formula_sum   'La16 Cd4 Ir1 Ru1 Pt2'
_cell_volume   743.24246700
_cell_formula_units_Z   1
loop_
 _symmetry_equiv_pos_site_id
 _symmetry_equiv_pos_as_xyz
  1  'x, y, z'
loop_
 _atom_site_type_symbol
 _atom_site_label
 _atom_site_symmetry_multiplicity
 _atom_site_fract_x
 _atom_site_fract_y
 _atom_site_fract_z
 _atom_site_occupancy
  La  La0  1  0.899562  0.902229  0.906267  1
  La  La1  1  0.441521  0.437665  0.060407  1
  La  La2  1  0.058798  0.058321  0.441440  1
  La  La3  1  0.447144  0.060152  0.059293  1
  La  La4  1  0.308858  0.688529  0.312926  1
  La  La5  1  0.688113  0.688997  0.311444  1
  La  La6  1  0.687701  0.309525  0.313070  1
  La  La7  1  0.299919  0.895553  0.902265  1
  La  La8  1  0.895170  0.296906  0.903962  1
  La  La9  1  0.308858  0.688529  0.689687  1
  La  La10  1  0.899562  0.902229  0.291941  1
  La  La11  1  0.058896  0.445558  0.058248  1
  La  La12  1  0.309952  0.310180  0.689934  1
  La  La13  1  0.058896  0.445558  0.437298  1
  La  La14  1  0.447144  0.060152  0.433410  1
  La  La15  1  0.687701  0.309525  0.689703  1
  Cd  Cd16  1  0.670292  0.670196  0.989040  1
  Cd  Cd17  1  0.988895  0.670198  0.670453  1
  Cd  Cd18  1  0.670431  0.989117  0.670226  1
  Cd  Cd19  1  0.670292  0.670196  0.670472  1
  Ir  Ir20  1  0.110678  0.675058  0.107132  1
  Ru  Ru21  1  0.671229  0.109622  0.109574  1
  Pt  Pt22  1  0.110193  0.108002  0.676289  1
  Pt  Pt23  1  0.110193  0.108002  0.105516  1
