# generated using pymatgen
data_Ca9PrInSi5
_symmetry_space_group_name_H-M   'P 1'
_cell_length_a   7.70012637
_cell_length_b   7.70409399
_cell_length_c   9.32503058
_cell_angle_alpha   114.34756567
_cell_angle_beta   114.47213991
_cell_angle_gamma   90.16817062
_symmetry_Int_Tables_number   1
_chemical_formula_structural   Ca9PrInSi5
_chemical_formula_sum   'Ca9 Pr1 In1 Si5'
_cell_volume   448.52893258
_cell_formula_units_Z   1
loop_
 _symmetry_equiv_pos_site_id
 _symmetry_equiv_pos_as_xyz
  1  'x, y, z'
loop_
 _atom_site_type_symbol
 _atom_site_label
 _atom_site_symmetry_multiplicity
 _atom_site_fract_x
 _atom_site_fract_y
 _atom_site_fract_z
 _atom_site_occupancy
  Ca  Ca0  1  0.513046  0.518844  0.031788  1
  Ca  Ca1  1  0.990852  0.983583  0.974997  1
  Ca  Ca2  1  0.974193  0.827494  0.279492  1
  Ca  Ca3  1  0.302722  0.452335  0.279261  1
  Ca  Ca4  1  0.827338  0.304657  0.278466  1
  Ca  Ca5  1  0.450762  0.973949  0.276857  1
  Ca  Ca6  1  0.047428  0.193908  0.720277  1
  Ca  Ca7  1  0.672018  0.529903  0.720359  1
  Ca  Ca8  1  0.194492  0.669574  0.720089  1
  Pr  Pr9  1  0.534612  0.053429  0.725932  1
  In  In10  1  0.749304  0.751797  0.501892  1
  Si  Si11  1  0.251482  0.244325  0.501529  1
  Si  Si12  1  0.610981  0.888443  0.997406  1
  Si  Si13  1  0.389380  0.114718  0.999540  1
  Si  Si14  1  0.881231  0.382858  0.992197  1
  Si  Si15  1  0.110158  0.610182  0.999918  1
