# generated using pymatgen
data_Ba3NiPdO6
_symmetry_space_group_name_H-M   'P 1'
_cell_length_a   7.04100403
_cell_length_b   7.04100649
_cell_length_c   7.04100481
_cell_angle_alpha   93.25280592
_cell_angle_beta   93.25277530
_cell_angle_gamma   93.25247563
_symmetry_Int_Tables_number   1
_chemical_formula_structural   Ba3NiPdO6
_chemical_formula_sum   'Ba6 Ni2 Pd2 O12'
_cell_volume   347.30931072
_cell_formula_units_Z   2
loop_
 _symmetry_equiv_pos_site_id
 _symmetry_equiv_pos_as_xyz
  1  'x, y, z'
loop_
 _atom_site_type_symbol
 _atom_site_label
 _atom_site_symmetry_multiplicity
 _atom_site_fract_x
 _atom_site_fract_y
 _atom_site_fract_z
 _atom_site_occupancy
  Ba  Ba0  1  0.384271  0.750000  0.115729  1
  Ba  Ba1  1  0.884271  0.615728  0.250000  1
  Ba  Ba2  1  0.749999  0.115729  0.384271  1
  Ba  Ba3  1  0.250001  0.884271  0.615729  1
  Ba  Ba4  1  0.115729  0.384272  0.750000  1
  Ba  Ba5  1  0.615729  0.250000  0.884271  1
  Ni  Ni6  1  0.249995  0.250005  0.250001  1
  Ni  Ni7  1  0.750006  0.749996  0.750000  1
  Pd  Pd8  1  0.000000  0.000000  0.000000  1
  Pd  Pd9  1  0.500000  0.500000  0.500000  1
  O  O10  1  0.720235  0.907379  0.027576  1
  O  O11  1  0.972424  0.279765  0.092622  1
  O  O12  1  0.527577  0.407379  0.220231  1
  O  O13  1  0.092623  0.972424  0.279768  1
  O  O14  1  0.220235  0.527575  0.407378  1
  O  O15  1  0.592621  0.779765  0.472424  1
  O  O16  1  0.407379  0.220235  0.527576  1
  O  O17  1  0.779765  0.472425  0.592622  1
  O  O18  1  0.907377  0.027576  0.720232  1
  O  O19  1  0.472424  0.592622  0.779767  1
  O  O20  1  0.027576  0.720235  0.907378  1
  O  O21  1  0.279766  0.092622  0.972423  1
