# generated using pymatgen
data_Tm2CuPd2Pt3
_symmetry_space_group_name_H-M   'P 1'
_cell_length_a   5.76255923
_cell_length_b   5.75652723
_cell_length_c   5.85109700
_cell_angle_alpha   59.45503552
_cell_angle_beta   59.49042035
_cell_angle_gamma   60.91896339
_symmetry_Int_Tables_number   1
_chemical_formula_structural   Tm2CuPd2Pt3
_chemical_formula_sum   'Tm2 Cu1 Pd2 Pt3'
_cell_volume   137.04596224
_cell_formula_units_Z   1
loop_
 _symmetry_equiv_pos_site_id
 _symmetry_equiv_pos_as_xyz
  1  'x, y, z'
loop_
 _atom_site_type_symbol
 _atom_site_label
 _atom_site_symmetry_multiplicity
 _atom_site_fract_x
 _atom_site_fract_y
 _atom_site_fract_z
 _atom_site_occupancy
  Tm  Tm0  1  0.000000  0.000000  0.500000  1
  Tm  Tm1  1  0.500000  0.500000  0.000000  1
  Cu  Cu2  1  0.500000  0.500000  0.500000  1
  Pd  Pd3  1  0.000000  0.500000  0.000000  1
  Pd  Pd4  1  0.000000  0.500000  0.500000  1
  Pt  Pt5  1  0.000000  0.000000  0.000000  1
  Pt  Pt6  1  0.500000  0.000000  0.000000  1
  Pt  Pt7  1  0.500000  0.000000  0.500000  1
