# generated using pymatgen
data_YbDy5Si24Os5Ru3
_symmetry_space_group_name_H-M   'P 1'
_cell_length_a   10.13163814
_cell_length_b   10.13163792
_cell_length_c   8.14645755
_cell_angle_alpha   89.98370929
_cell_angle_beta   89.98370462
_cell_angle_gamma   132.54020979
_symmetry_Int_Tables_number   1
_chemical_formula_structural   YbDy5Si24Os5Ru3
_chemical_formula_sum   'Yb1 Dy5 Si24 Os5 Ru3'
_cell_volume   616.14002992
_cell_formula_units_Z   1
loop_
 _symmetry_equiv_pos_site_id
 _symmetry_equiv_pos_as_xyz
  1  'x, y, z'
loop_
 _atom_site_type_symbol
 _atom_site_label
 _atom_site_symmetry_multiplicity
 _atom_site_fract_x
 _atom_site_fract_y
 _atom_site_fract_z
 _atom_site_occupancy
  Yb  Yb0  1  0.499445  0.499445  0.500006  1
  Dy  Dy1  1  0.999967  0.999967  0.999397  1
  Dy  Dy2  1  0.501263  0.001355  0.749630  1
  Dy  Dy3  1  0.998497  0.498916  0.250386  1
  Dy  Dy4  1  0.498916  0.998497  0.250386  1
  Dy  Dy5  1  0.001355  0.501263  0.749630  1
  Si  Si6  1  0.796276  0.203864  0.500148  1
  Si  Si7  1  0.296304  0.703672  0.000156  1
  Si  Si8  1  0.203864  0.796276  0.500148  1
  Si  Si9  1  0.703672  0.296304  0.000156  1
  Si  Si10  1  0.334085  0.334085  0.831950  1
  Si  Si11  1  0.666369  0.666369  0.168261  1
  Si  Si12  1  0.167799  0.167799  0.332378  1
  Si  Si13  1  0.829502  0.829502  0.664961  1
  Si  Si14  1  0.121731  0.887725  0.728056  1
  Si  Si15  1  0.112695  0.879434  0.272160  1
  Si  Si16  1  0.610339  0.378340  0.229773  1
  Si  Si17  1  0.622369  0.389816  0.770432  1
  Si  Si18  1  0.879434  0.112695  0.272160  1
  Si  Si19  1  0.887725  0.121731  0.728056  1
  Si  Si20  1  0.389816  0.622369  0.770432  1
  Si  Si21  1  0.378340  0.610339  0.229773  1
  Si  Si22  1  0.346227  0.113864  0.504767  1
  Si  Si23  1  0.886067  0.654245  0.495932  1
  Si  Si24  1  0.388255  0.155137  0.006062  1
  Si  Si25  1  0.844844  0.612244  0.994395  1
  Si  Si26  1  0.654245  0.886067  0.495932  1
  Si  Si27  1  0.113864  0.346227  0.504767  1
  Si  Si28  1  0.612244  0.844844  0.994395  1
  Si  Si29  1  0.155137  0.388255  0.006062  1
  Os  Os30  1  0.670720  0.329353  0.499880  1
  Os  Os31  1  0.170268  0.829635  0.000065  1
  Os  Os32  1  0.329353  0.670720  0.499880  1
  Os  Os33  1  0.829635  0.170268  0.000065  1
  Os  Os34  1  0.124962  0.124962  0.627877  1
  Ru  Ru35  1  0.874615  0.874615  0.371816  1
  Ru  Ru36  1  0.372292  0.372292  0.125755  1
  Ru  Ru37  1  0.627506  0.627506  0.873916  1
