# generated using pymatgen
data_Li4Ca3ThSi8
_symmetry_space_group_name_H-M   'P 1'
_cell_length_a   3.82170800
_cell_length_b   7.88111431
_cell_length_c   10.61448356
_cell_angle_alpha   89.82376900
_cell_angle_beta   90.00000000
_cell_angle_gamma   90.00000000
_symmetry_Int_Tables_number   1
_chemical_formula_structural   Li4Ca3ThSi8
_chemical_formula_sum   'Li4 Ca3 Th1 Si8'
_cell_volume   319.69948948
_cell_formula_units_Z   1
loop_
 _symmetry_equiv_pos_site_id
 _symmetry_equiv_pos_as_xyz
  1  'x, y, z'
loop_
 _atom_site_type_symbol
 _atom_site_label
 _atom_site_symmetry_multiplicity
 _atom_site_fract_x
 _atom_site_fract_y
 _atom_site_fract_z
 _atom_site_occupancy
  Li  Li0  1  0.250000  0.997819  0.388122  1
  Li  Li1  1  0.750000  0.998442  0.606631  1
  Li  Li2  1  0.250000  0.498031  0.110939  1
  Li  Li3  1  0.750000  0.510738  0.887573  1
  Ca  Ca4  1  0.750000  0.864544  0.136446  1
  Ca  Ca5  1  0.250000  0.633675  0.634553  1
  Ca  Ca6  1  0.750000  0.364611  0.368107  1
  Th  Th7  1  0.250000  0.132582  0.866014  1
  Si  Si8  1  0.750000  0.268977  0.064725  1
  Si  Si9  1  0.250000  0.739878  0.932420  1
  Si  Si10  1  0.750000  0.766599  0.431327  1
  Si  Si11  1  0.250000  0.228303  0.571563  1
  Si  Si12  1  0.750000  0.837969  0.820331  1
  Si  Si13  1  0.250000  0.164621  0.172604  1
  Si  Si14  1  0.750000  0.327704  0.684699  1
  Si  Si15  1  0.250000  0.665506  0.323946  1
