# generated using pymatgen
data_CsPbIO6
_symmetry_space_group_name_H-M   'P 1'
_cell_length_a   5.56097500
_cell_length_b   5.56097558
_cell_length_c   13.47252200
_cell_angle_alpha   90.00000000
_cell_angle_beta   90.00000000
_cell_angle_gamma   120.00000250
_symmetry_Int_Tables_number   1
_chemical_formula_structural   CsPbIO6
_chemical_formula_sum   'Cs2 Pb2 I2 O12'
_cell_volume   360.81239857
_cell_formula_units_Z   2
loop_
 _symmetry_equiv_pos_site_id
 _symmetry_equiv_pos_as_xyz
  1  'x, y, z'
loop_
 _atom_site_type_symbol
 _atom_site_label
 _atom_site_symmetry_multiplicity
 _atom_site_fract_x
 _atom_site_fract_y
 _atom_site_fract_z
 _atom_site_occupancy
  Cs  Cs0  1  0.000000  0.000000  0.000000  1
  Cs  Cs1  1  0.000000  0.000000  0.500000  1
  Pb  Pb2  1  0.666667  0.333333  0.250000  1
  Pb  Pb3  1  0.333333  0.666667  0.750000  1
  I  I4  1  0.333333  0.666667  0.250000  1
  I  I5  1  0.666667  0.333333  0.750000  1
  O  O6  1  0.637252  0.597617  0.665922  1
  O  O7  1  0.637252  0.039635  0.834078  1
  O  O8  1  0.960365  0.597617  0.834078  1
  O  O9  1  0.402383  0.362748  0.834078  1
  O  O10  1  0.039635  0.402383  0.334078  1
  O  O11  1  0.402383  0.039635  0.665922  1
  O  O12  1  0.362748  0.960365  0.334078  1
  O  O13  1  0.362748  0.402383  0.165922  1
  O  O14  1  0.960365  0.362748  0.665922  1
  O  O15  1  0.597617  0.960365  0.165922  1
  O  O16  1  0.039635  0.637252  0.165922  1
  O  O17  1  0.597617  0.637252  0.334078  1
