# generated using pymatgen
data_YTh7TiS17
_symmetry_space_group_name_H-M   'P 1'
_cell_length_a   8.07486616
_cell_length_b   8.06247415
_cell_length_c   10.70443949
_cell_angle_alpha   80.65341239
_cell_angle_beta   80.87377988
_cell_angle_gamma   65.04807973
_symmetry_Int_Tables_number   1
_chemical_formula_structural   YTh7TiS17
_chemical_formula_sum   'Y1 Th7 Ti1 S17'
_cell_volume   620.29044815
_cell_formula_units_Z   1
loop_
 _symmetry_equiv_pos_site_id
 _symmetry_equiv_pos_as_xyz
  1  'x, y, z'
loop_
 _atom_site_type_symbol
 _atom_site_label
 _atom_site_symmetry_multiplicity
 _atom_site_fract_x
 _atom_site_fract_y
 _atom_site_fract_z
 _atom_site_occupancy
  Y  Y0  1  0.811734  0.301229  0.297039  1
  Th  Th1  1  0.299709  0.811756  0.293607  1
  Th  Th2  1  0.187290  0.700242  0.703510  1
  Th  Th3  1  0.700183  0.188972  0.702563  1
  Th  Th4  1  0.205332  0.205714  0.541887  1
  Th  Th5  1  0.793343  0.796825  0.453793  1
  Th  Th6  1  0.684041  0.680566  0.980802  1
  Th  Th7  1  0.317670  0.315589  0.024344  1
  Ti  Ti8  1  0.999326  0.002867  0.001396  1
  S  S9  1  0.825107  0.429461  0.529048  1
  S  S10  1  0.431264  0.822638  0.529633  1
  S  S11  1  0.176039  0.570029  0.469364  1
  S  S12  1  0.571279  0.176663  0.469948  1
  S  S13  1  0.941558  0.320497  0.030133  1
  S  S14  1  0.323179  0.941009  0.027231  1
  S  S15  1  0.058846  0.678642  0.971040  1
  S  S16  1  0.677576  0.059199  0.971109  1
  S  S17  1  0.205291  0.204998  0.277941  1
  S  S18  1  0.793611  0.792833  0.722785  1
  S  S19  1  0.061524  0.060441  0.773318  1
  S  S20  1  0.936844  0.944500  0.227741  1
  S  S21  1  0.304141  0.305756  0.755382  1
  S  S22  1  0.694194  0.692824  0.244767  1
  S  S23  1  0.519914  0.521598  0.833259  1
  S  S24  1  0.478924  0.479563  0.165247  1
  S  S25  1  0.002082  0.995589  0.503110  1
