# generated using pymatgen
data_ErTm2Nb(Co4P3)2
_symmetry_space_group_name_H-M   'P 1'
_cell_length_a   3.69031600
_cell_length_b   10.61247400
_cell_length_c   12.29287400
_cell_angle_alpha   90.00000000
_cell_angle_beta   90.00000000
_cell_angle_gamma   90.00000000
_symmetry_Int_Tables_number   1
_chemical_formula_structural   ErTm2Nb(Co4P3)2
_chemical_formula_sum   'Er2 Tm4 Nb2 Co16 P12'
_cell_volume   481.43052774
_cell_formula_units_Z   2
loop_
 _symmetry_equiv_pos_site_id
 _symmetry_equiv_pos_as_xyz
  1  'x, y, z'
loop_
 _atom_site_type_symbol
 _atom_site_label
 _atom_site_symmetry_multiplicity
 _atom_site_fract_x
 _atom_site_fract_y
 _atom_site_fract_z
 _atom_site_occupancy
  Er  Er0  1  0.000000  0.500000  0.527084  1
  Er  Er1  1  0.500000  0.000000  0.472916  1
  Tm  Tm2  1  0.500000  0.820710  0.205161  1
  Tm  Tm3  1  0.500000  0.179290  0.205161  1
  Tm  Tm4  1  0.000000  0.679290  0.794839  1
  Tm  Tm5  1  0.000000  0.320710  0.794839  1
  Nb  Nb6  1  0.500000  0.500000  0.157645  1
  Nb  Nb7  1  0.000000  0.000000  0.842355  1
  Co  Co8  1  0.500000  0.500000  0.702026  1
  Co  Co9  1  0.000000  0.000000  0.297974  1
  Co  Co10  1  0.000000  0.500000  0.985613  1
  Co  Co11  1  0.500000  0.000000  0.014387  1
  Co  Co12  1  0.500000  0.332581  0.991184  1
  Co  Co13  1  0.500000  0.667419  0.991184  1
  Co  Co14  1  0.000000  0.167419  0.008816  1
  Co  Co15  1  0.000000  0.832581  0.008816  1
  Co  Co16  1  0.500000  0.295113  0.432435  1
  Co  Co17  1  0.500000  0.704887  0.432435  1
  Co  Co18  1  0.000000  0.204887  0.567565  1
  Co  Co19  1  0.000000  0.795113  0.567565  1
  Co  Co20  1  0.500000  0.876608  0.704456  1
  Co  Co21  1  0.500000  0.123392  0.704456  1
  Co  Co22  1  0.000000  0.623392  0.295544  1
  Co  Co23  1  0.000000  0.376608  0.295544  1
  P  P24  1  0.500000  0.500000  0.880903  1
  P  P25  1  0.000000  0.000000  0.119097  1
  P  P26  1  0.500000  0.500000  0.357272  1
  P  P27  1  0.000000  0.000000  0.642728  1
  P  P28  1  0.500000  0.312034  0.616156  1
  P  P29  1  0.500000  0.687966  0.616156  1
  P  P30  1  0.000000  0.187966  0.383844  1
  P  P31  1  0.000000  0.812034  0.383844  1
  P  P32  1  0.500000  0.840347  0.892456  1
  P  P33  1  0.500000  0.159653  0.892456  1
  P  P34  1  0.000000  0.659653  0.107544  1
  P  P35  1  0.000000  0.340347  0.107544  1
