# generated using pymatgen
data_Zr5Ti3Ga15Ir7
_symmetry_space_group_name_H-M   'P 1'
_cell_length_a   8.77841282
_cell_length_b   8.77947169
_cell_length_c   8.77841100
_cell_angle_alpha   120.28994758
_cell_angle_beta   119.90828102
_cell_angle_gamma   89.82501013
_symmetry_Int_Tables_number   1
_chemical_formula_structural   Zr5Ti3Ga15Ir7
_chemical_formula_sum   'Zr5 Ti3 Ga15 Ir7'
_cell_volume   477.68335185
_cell_formula_units_Z   1
loop_
 _symmetry_equiv_pos_site_id
 _symmetry_equiv_pos_as_xyz
  1  'x, y, z'
loop_
 _atom_site_type_symbol
 _atom_site_label
 _atom_site_symmetry_multiplicity
 _atom_site_fract_x
 _atom_site_fract_y
 _atom_site_fract_z
 _atom_site_occupancy
  Zr  Zr0  1  0.797062  0.289077  0.072560  1
  Zr  Zr1  1  0.216513  0.289077  0.492010  1
  Zr  Zr2  1  0.200095  0.700046  0.499950  1
  Zr  Zr3  1  0.216552  0.724527  0.927544  1
  Zr  Zr4  1  0.796982  0.724525  0.507969  1
  Ti  Ti5  1  0.781318  0.281297  0.500006  1
  Ti  Ti6  1  0.378082  0.125897  0.747801  1
  Ti  Ti7  1  0.378103  0.630261  0.252184  1
  Ga  Ga8  1  0.984561  0.484613  0.500048  1
  Ga  Ga9  1  0.159773  0.342286  0.182508  1
  Ga  Ga10  1  0.159731  0.977123  0.817394  1
  Ga  Ga11  1  0.149198  0.348073  0.801146  1
  Ga  Ga12  1  0.546927  0.348073  0.198877  1
  Ga  Ga13  1  0.844250  0.647705  0.803447  1
  Ga  Ga14  1  0.844258  0.040802  0.196544  1
  Ga  Ga15  1  0.840666  0.656134  0.184534  1
  Ga  Ga16  1  0.471600  0.656135  0.815470  1
  Ga  Ga17  1  0.386384  0.126016  0.260392  1
  Ga  Ga18  1  0.865624  0.126011  0.739634  1
  Ga  Ga19  1  0.620392  0.876385  0.255989  1
  Ga  Ga20  1  0.620391  0.364372  0.743976  1
  Ga  Ga21  1  0.613911  0.874637  0.739298  1
  Ga  Ga22  1  0.135337  0.874632  0.260723  1
  Ir  Ir23  1  0.001827  0.002133  0.502748  1
  Ir  Ir24  1  0.499384  0.002134  0.000303  1
  Ir  Ir25  1  0.495490  0.495483  0.999993  1
  Ir  Ir26  1  0.499372  0.499128  0.497249  1
  Ir  Ir27  1  0.001869  0.499121  0.999742  1
  Ir  Ir28  1  0.998789  0.998782  0.000005  1
  Ir  Ir29  1  0.495553  0.995510  0.499956  1
