# generated using pymatgen
data_Tb4MgCo16(P4Ru)3
_symmetry_space_group_name_H-M   'P 1'
_cell_length_a   3.69740900
_cell_length_b   10.40440499
_cell_length_c   11.84279998
_cell_angle_alpha   89.81191777
_cell_angle_beta   90.00000000
_cell_angle_gamma   90.00000000
_symmetry_Int_Tables_number   1
_chemical_formula_structural   Tb4MgCo16(P4Ru)3
_chemical_formula_sum   'Tb4 Mg1 Co16 P12 Ru3'
_cell_volume   455.58225203
_cell_formula_units_Z   1
loop_
 _symmetry_equiv_pos_site_id
 _symmetry_equiv_pos_as_xyz
  1  'x, y, z'
loop_
 _atom_site_type_symbol
 _atom_site_label
 _atom_site_symmetry_multiplicity
 _atom_site_fract_x
 _atom_site_fract_y
 _atom_site_fract_z
 _atom_site_occupancy
  Tb  Tb0  1  0.250000  0.584604  0.700781  1
  Tb  Tb1  1  0.250000  0.916394  0.206373  1
  Tb  Tb2  1  0.750000  0.414834  0.296659  1
  Tb  Tb3  1  0.750000  0.084573  0.795027  1
  Mg  Mg4  1  0.250000  0.704573  0.989764  1
  Co  Co5  1  0.250000  0.407621  0.490033  1
  Co  Co6  1  0.250000  0.095949  0.989058  1
  Co  Co7  1  0.750000  0.590436  0.512010  1
  Co  Co8  1  0.750000  0.909742  0.011824  1
  Co  Co9  1  0.250000  0.222472  0.176613  1
  Co  Co10  1  0.250000  0.278586  0.675734  1
  Co  Co11  1  0.750000  0.779151  0.820996  1
  Co  Co12  1  0.750000  0.719394  0.329140  1
  Co  Co13  1  0.250000  0.889231  0.700509  1
  Co  Co14  1  0.250000  0.615269  0.202519  1
  Co  Co15  1  0.750000  0.113172  0.296872  1
  Co  Co16  1  0.750000  0.383600  0.798042  1
  Co  Co17  1  0.250000  0.463509  0.931514  1
  Co  Co18  1  0.250000  0.035021  0.430156  1
  Co  Co19  1  0.750000  0.535287  0.066925  1
  Co  Co20  1  0.750000  0.966390  0.567956  1
  P  P21  1  0.250000  0.420756  0.112951  1
  P  P22  1  0.250000  0.080630  0.610641  1
  P  P23  1  0.750000  0.575993  0.881378  1
  P  P24  1  0.750000  0.919850  0.388676  1
  P  P25  1  0.250000  0.269809  0.865903  1
  P  P26  1  0.250000  0.228068  0.366095  1
  P  P27  1  0.750000  0.728105  0.142712  1
  P  P28  1  0.750000  0.773509  0.633368  1
  P  P29  1  0.250000  0.595364  0.392626  1
  P  P30  1  0.250000  0.907623  0.889091  1
  P  P31  1  0.750000  0.402359  0.609687  1
  P  P32  1  0.750000  0.097440  0.108456  1
  Ru  Ru33  1  0.250000  0.783543  0.493219  1
  Ru  Ru34  1  0.750000  0.290175  0.010488  1
  Ru  Ru35  1  0.750000  0.216968  0.506203  1
