# generated using pymatgen
data_Tb11Nd4Tm5Bi12
_symmetry_space_group_name_H-M   'P 1'
_cell_length_a   8.31381284
_cell_length_b   9.53737105
_cell_length_c   12.16129400
_cell_angle_alpha   90.00486608
_cell_angle_beta   90.04733866
_cell_angle_gamma   89.99628334
_symmetry_Int_Tables_number   1
_chemical_formula_structural   Tb11Nd4Tm5Bi12
_chemical_formula_sum   'Tb11 Nd4 Tm5 Bi12'
_cell_volume   964.29199089
_cell_formula_units_Z   1
loop_
 _symmetry_equiv_pos_site_id
 _symmetry_equiv_pos_as_xyz
  1  'x, y, z'
loop_
 _atom_site_type_symbol
 _atom_site_label
 _atom_site_symmetry_multiplicity
 _atom_site_fract_x
 _atom_site_fract_y
 _atom_site_fract_z
 _atom_site_occupancy
  Tb  Tb0  1  0.807380  0.063006  0.560779  1
  Tb  Tb1  1  0.691608  0.936439  0.059954  1
  Tb  Tb2  1  0.192807  0.562884  0.439424  1
  Tb  Tb3  1  0.692994  0.562541  0.060565  1
  Tb  Tb4  1  0.192626  0.937269  0.439256  1
  Tb  Tb5  1  0.307451  0.062277  0.939731  1
  Tb  Tb6  1  0.807335  0.437406  0.560745  1
  Tb  Tb7  1  0.353936  0.750725  0.217223  1
  Tb  Tb8  1  0.853402  0.750433  0.282537  1
  Tb  Tb9  1  0.645670  0.250746  0.782938  1
  Tb  Tb10  1  0.147517  0.250904  0.717803  1
  Nd  Nd11  1  0.183140  0.749952  0.720534  1
  Nd  Nd12  1  0.683377  0.750184  0.779534  1
  Nd  Nd13  1  0.816926  0.250230  0.279392  1
  Nd  Nd14  1  0.316901  0.250386  0.220198  1
  Tm  Tm15  1  0.024241  0.750064  0.987869  1
  Tm  Tm16  1  0.524255  0.750289  0.512365  1
  Tm  Tm17  1  0.976590  0.250416  0.012001  1
  Tm  Tm18  1  0.475838  0.250251  0.487838  1
  Tm  Tm19  1  0.307122  0.434226  0.939721  1
  Bi  Bi20  1  0.433480  0.007908  0.670222  1
  Bi  Bi21  1  0.934252  0.492643  0.830073  1
  Bi  Bi22  1  0.566273  0.507941  0.329771  1
  Bi  Bi23  1  0.066350  0.992595  0.170024  1
  Bi  Bi24  1  0.566461  0.992699  0.329934  1
  Bi  Bi25  1  0.066441  0.508032  0.169876  1
  Bi  Bi26  1  0.433268  0.492727  0.670200  1
  Bi  Bi27  1  0.933627  0.008126  0.829977  1
  Bi  Bi28  1  0.404829  0.746231  0.961764  1
  Bi  Bi29  1  0.906340  0.750181  0.537525  1
  Bi  Bi30  1  0.593792  0.250280  0.037567  1
  Bi  Bi31  1  0.093775  0.250011  0.462658  1
