# generated using pymatgen
data_Lu5Ge6P6Rh19
_symmetry_space_group_name_H-M   'P 1'
_cell_length_a   12.95103300
_cell_length_b   12.95103398
_cell_length_c   3.95045000
_cell_angle_alpha   90.00000000
_cell_angle_beta   90.00000000
_cell_angle_gamma   119.99999495
_symmetry_Int_Tables_number   1
_chemical_formula_structural   Lu5Ge6P6Rh19
_chemical_formula_sum   'Lu5 Ge6 P6 Rh19'
_cell_volume   573.83373448
_cell_formula_units_Z   1
loop_
 _symmetry_equiv_pos_site_id
 _symmetry_equiv_pos_as_xyz
  1  'x, y, z'
loop_
 _atom_site_type_symbol
 _atom_site_label
 _atom_site_symmetry_multiplicity
 _atom_site_fract_x
 _atom_site_fract_y
 _atom_site_fract_z
 _atom_site_occupancy
  Lu  Lu0  1  0.333333  0.666667  0.500000  1
  Lu  Lu1  1  0.666667  0.333333  0.500000  1
  Lu  Lu2  1  0.004026  0.820936  0.000000  1
  Lu  Lu3  1  0.179064  0.183090  0.000000  1
  Lu  Lu4  1  0.816910  0.995974  0.000000  1
  Ge  Ge5  1  0.998673  0.635514  0.500000  1
  Ge  Ge6  1  0.364486  0.363157  0.500000  1
  Ge  Ge7  1  0.636843  0.001327  0.500000  1
  Ge  Ge8  1  0.520917  0.676948  0.000000  1
  Ge  Ge9  1  0.323052  0.843967  0.000000  1
  Ge  Ge10  1  0.156033  0.479083  0.000000  1
  P  P11  1  0.483463  0.174867  0.000000  1
  P  P12  1  0.691403  0.516537  0.000000  1
  P  P13  1  0.825133  0.308597  0.000000  1
  P  P14  1  0.992539  0.174331  0.500000  1
  P  P15  1  0.825669  0.818208  0.500000  1
  P  P16  1  0.181792  0.007461  0.500000  1
  Rh  Rh17  1  0.520876  0.869040  0.000000  1
  Rh  Rh18  1  0.130960  0.651837  0.000000  1
  Rh  Rh19  1  0.348163  0.479124  0.000000  1
  Rh  Rh20  1  0.497637  0.364732  0.000000  1
  Rh  Rh21  1  0.867097  0.502363  0.000000  1
  Rh  Rh22  1  0.635268  0.132903  0.000000  1
  Rh  Rh23  1  0.007901  0.450833  0.500000  1
  Rh  Rh24  1  0.549167  0.557068  0.500000  1
  Rh  Rh25  1  0.442932  0.992099  0.500000  1
  Rh  Rh26  1  0.988616  0.269018  0.000000  1
  Rh  Rh27  1  0.730982  0.719598  0.000000  1
  Rh  Rh28  1  0.280402  0.011384  0.000000  1
  Rh  Rh29  1  0.640560  0.810146  0.500000  1
  Rh  Rh30  1  0.189854  0.830414  0.500000  1
  Rh  Rh31  1  0.169586  0.359440  0.500000  1
  Rh  Rh32  1  0.383902  0.180174  0.500000  1
  Rh  Rh33  1  0.796274  0.616098  0.500000  1
  Rh  Rh34  1  0.819826  0.203726  0.500000  1
  Rh  Rh35  1  0.000000  0.000000  0.500000  1
