# generated using pymatgen
data_Nd4In2CuPd3
_symmetry_space_group_name_H-M   'P 1'
_cell_length_a   7.87135944
_cell_length_b   7.87135944
_cell_length_c   3.87606000
_cell_angle_alpha   90.00000000
_cell_angle_beta   90.00000000
_cell_angle_gamma   89.75194538
_symmetry_Int_Tables_number   1
_chemical_formula_structural   Nd4In2CuPd3
_chemical_formula_sum   'Nd4 In2 Cu1 Pd3'
_cell_volume   240.15183557
_cell_formula_units_Z   1
loop_
 _symmetry_equiv_pos_site_id
 _symmetry_equiv_pos_as_xyz
  1  'x, y, z'
loop_
 _atom_site_type_symbol
 _atom_site_label
 _atom_site_symmetry_multiplicity
 _atom_site_fract_x
 _atom_site_fract_y
 _atom_site_fract_z
 _atom_site_occupancy
  Nd  Nd0  1  0.325569  0.819585  0.500000  1
  Nd  Nd1  1  0.822069  0.677931  0.500000  1
  Nd  Nd2  1  0.174162  0.325838  0.500000  1
  Nd  Nd3  1  0.680415  0.174431  0.500000  1
  In  In4  1  0.005204  0.001028  0.000000  1
  In  In5  1  0.498972  0.494796  0.000000  1
  Cu  Cu6  1  0.378126  0.121874  0.000000  1
  Pd  Pd7  1  0.873321  0.375416  0.000000  1
  Pd  Pd8  1  0.124584  0.626679  0.000000  1
  Pd  Pd9  1  0.617578  0.882422  0.000000  1
