# generated using pymatgen
data_Cs8Lu2O7
_symmetry_space_group_name_H-M   'P 1'
_cell_length_a   19.25558400
_cell_length_b   7.44978913
_cell_length_c   7.68525328
_cell_angle_alpha   60.32085633
_cell_angle_beta   90.00000000
_cell_angle_gamma   90.00000000
_symmetry_Int_Tables_number   1
_chemical_formula_structural   Cs8Lu2O7
_chemical_formula_sum   'Cs16 Lu4 O14'
_cell_volume   957.82148691
_cell_formula_units_Z   2
loop_
 _symmetry_equiv_pos_site_id
 _symmetry_equiv_pos_as_xyz
  1  'x, y, z'
loop_
 _atom_site_type_symbol
 _atom_site_label
 _atom_site_symmetry_multiplicity
 _atom_site_fract_x
 _atom_site_fract_y
 _atom_site_fract_z
 _atom_site_occupancy
  Cs  Cs0  1  0.993136  0.235922  0.238236  1
  Cs  Cs1  1  0.493136  0.264078  0.761764  1
  Cs  Cs2  1  0.006864  0.764078  0.761764  1
  Cs  Cs3  1  0.506864  0.735922  0.238236  1
  Cs  Cs4  1  0.191688  0.237321  0.217741  1
  Cs  Cs5  1  0.691688  0.262679  0.782259  1
  Cs  Cs6  1  0.808312  0.762679  0.782259  1
  Cs  Cs7  1  0.308312  0.737321  0.217741  1
  Cs  Cs8  1  0.790458  0.218103  0.236032  1
  Cs  Cs9  1  0.290458  0.281897  0.763968  1
  Cs  Cs10  1  0.209542  0.781897  0.763968  1
  Cs  Cs11  1  0.709542  0.718103  0.236032  1
  Cs  Cs12  1  0.912488  0.357170  0.638265  1
  Cs  Cs13  1  0.412488  0.142830  0.361735  1
  Cs  Cs14  1  0.087512  0.642830  0.361735  1
  Cs  Cs15  1  0.587512  0.857170  0.638265  1
  Lu  Lu16  1  0.595868  0.356626  0.143375  1
  Lu  Lu17  1  0.095868  0.143374  0.856625  1
  Lu  Lu18  1  0.404132  0.643374  0.856625  1
  Lu  Lu19  1  0.904132  0.856626  0.143375  1
  O  O20  1  0.500000  0.500000  0.000000  1
  O  O21  1  0.000000  0.000000  0.000000  1
  O  O22  1  0.598822  0.332157  0.426941  1
  O  O23  1  0.098822  0.167843  0.573059  1
  O  O24  1  0.401178  0.667843  0.573059  1
  O  O25  1  0.901178  0.832157  0.426941  1
  O  O26  1  0.323289  0.450902  0.036201  1
  O  O27  1  0.823289  0.049098  0.963799  1
  O  O28  1  0.676711  0.549098  0.963799  1
  O  O29  1  0.176711  0.950902  0.036201  1
  O  O30  1  0.607792  0.068554  0.159404  1
  O  O31  1  0.107792  0.431446  0.840596  1
  O  O32  1  0.392208  0.931446  0.840596  1
  O  O33  1  0.892208  0.568554  0.159404  1
