# generated using pymatgen
data_NdTm4Th3(ReB6)4
_symmetry_space_group_name_H-M   'P 1'
_cell_length_a   3.74096800
_cell_length_b   9.21726164
_cell_length_c   11.65955208
_cell_angle_alpha   89.93157466
_cell_angle_beta   90.00000000
_cell_angle_gamma   90.00000000
_symmetry_Int_Tables_number   1
_chemical_formula_structural   NdTm4Th3(ReB6)4
_chemical_formula_sum   'Nd1 Tm4 Th3 Re4 B24'
_cell_volume   402.03833508
_cell_formula_units_Z   1
loop_
 _symmetry_equiv_pos_site_id
 _symmetry_equiv_pos_as_xyz
  1  'x, y, z'
loop_
 _atom_site_type_symbol
 _atom_site_label
 _atom_site_symmetry_multiplicity
 _atom_site_fract_x
 _atom_site_fract_y
 _atom_site_fract_z
 _atom_site_occupancy
  Nd  Nd0  1  0.000000  0.322295  0.413641  1
  Tm  Tm1  1  0.000000  0.944924  0.371636  1
  Tm  Tm2  1  0.000000  0.056644  0.627833  1
  Tm  Tm3  1  0.000000  0.444201  0.128442  1
  Tm  Tm4  1  0.000000  0.555039  0.872708  1
  Th  Th5  1  0.000000  0.676440  0.585496  1
  Th  Th6  1  0.000000  0.821518  0.086120  1
  Th  Th7  1  0.000000  0.178556  0.914373  1
  Re  Re8  1  0.000000  0.640569  0.319306  1
  Re  Re9  1  0.000000  0.360436  0.681071  1
  Re  Re10  1  0.000000  0.138597  0.179873  1
  Re  Re11  1  0.000000  0.860473  0.819285  1
  B  B12  1  0.500000  0.556016  0.430055  1
  B  B13  1  0.500000  0.444017  0.569964  1
  B  B14  1  0.500000  0.056058  0.070340  1
  B  B15  1  0.500000  0.943804  0.929453  1
  B  B16  1  0.500000  0.750121  0.416600  1
  B  B17  1  0.500000  0.249748  0.583235  1
  B  B18  1  0.500000  0.250774  0.083540  1
  B  B19  1  0.500000  0.749309  0.916710  1
  B  B20  1  0.500000  0.791553  0.266656  1
  B  B21  1  0.500000  0.208659  0.733244  1
  B  B22  1  0.500000  0.291816  0.233443  1
  B  B23  1  0.500000  0.708474  0.766639  1
  B  B24  1  0.500000  0.629847  0.186176  1
  B  B25  1  0.500000  0.369896  0.814070  1
  B  B26  1  0.500000  0.130174  0.314215  1
  B  B27  1  0.500000  0.869987  0.685854  1
  B  B28  1  0.500000  0.984749  0.214312  1
  B  B29  1  0.500000  0.015353  0.785692  1
  B  B30  1  0.500000  0.484261  0.285728  1
  B  B31  1  0.500000  0.515127  0.714068  1
  B  B32  1  0.500000  0.601506  0.027910  1
  B  B33  1  0.500000  0.398530  0.972472  1
  B  B34  1  0.500000  0.099865  0.472388  1
  B  B35  1  0.500000  0.900665  0.527454  1
