# generated using pymatgen
data_Hf4Sc(ReTc)12
_symmetry_space_group_name_H-M   'P 1'
_cell_length_a   8.44911920
_cell_length_b   8.44911971
_cell_length_c   8.44912000
_cell_angle_alpha   109.47121894
_cell_angle_beta   109.47122015
_cell_angle_gamma   109.47122669
_symmetry_Int_Tables_number   1
_chemical_formula_structural   Hf4Sc(ReTc)12
_chemical_formula_sum   'Hf4 Sc1 Re12 Tc12'
_cell_volume   464.31473597
_cell_formula_units_Z   1
loop_
 _symmetry_equiv_pos_site_id
 _symmetry_equiv_pos_as_xyz
  1  'x, y, z'
loop_
 _atom_site_type_symbol
 _atom_site_label
 _atom_site_symmetry_multiplicity
 _atom_site_fract_x
 _atom_site_fract_y
 _atom_site_fract_z
 _atom_site_occupancy
  Hf  Hf0  1  0.627370  0.000000  0.000000  1
  Hf  Hf1  1  0.000000  0.627370  0.000000  1
  Hf  Hf2  1  0.000000  0.000000  0.627370  1
  Hf  Hf3  1  0.372630  0.372630  0.372630  1
  Sc  Sc4  1  0.000000  0.000000  0.000000  1
  Re  Re5  1  0.375978  0.194066  0.000000  1
  Re  Re6  1  0.181913  0.805934  0.805934  1
  Re  Re7  1  0.375978  0.000000  0.194066  1
  Re  Re8  1  0.194066  0.375978  0.000000  1
  Re  Re9  1  0.000000  0.375978  0.194066  1
  Re  Re10  1  0.805934  0.181913  0.805934  1
  Re  Re11  1  0.805934  0.805934  0.181913  1
  Re  Re12  1  0.000000  0.194066  0.375978  1
  Re  Re13  1  0.194066  0.000000  0.375978  1
  Re  Re14  1  0.624022  0.624022  0.818087  1
  Re  Re15  1  0.818087  0.624022  0.624022  1
  Re  Re16  1  0.624022  0.818087  0.624022  1
  Tc  Tc17  1  0.396118  0.676436  0.000000  1
  Tc  Tc18  1  0.719683  0.323564  0.323564  1
  Tc  Tc19  1  0.396118  0.000000  0.676436  1
  Tc  Tc20  1  0.676436  0.396118  0.000000  1
  Tc  Tc21  1  0.000000  0.396118  0.676436  1
  Tc  Tc22  1  0.323564  0.719683  0.323564  1
  Tc  Tc23  1  0.323564  0.323564  0.719683  1
  Tc  Tc24  1  0.000000  0.676436  0.396118  1
  Tc  Tc25  1  0.676436  0.000000  0.396118  1
  Tc  Tc26  1  0.603882  0.603882  0.280317  1
  Tc  Tc27  1  0.280317  0.603882  0.603882  1
  Tc  Tc28  1  0.603882  0.280317  0.603882  1
