# generated using pymatgen
data_Dy9Y11(Bi2Rh)4
_symmetry_space_group_name_H-M   'P 1'
_cell_length_a   8.05895815
_cell_length_b   8.98737100
_cell_length_c   12.53636523
_cell_angle_alpha   90.00000000
_cell_angle_beta   90.02179981
_cell_angle_gamma   90.00000000
_symmetry_Int_Tables_number   1
_chemical_formula_structural   Dy9Y11(Bi2Rh)4
_chemical_formula_sum   'Dy9 Y11 Bi8 Rh4'
_cell_volume   907.99440985
_cell_formula_units_Z   1
loop_
 _symmetry_equiv_pos_site_id
 _symmetry_equiv_pos_as_xyz
  1  'x, y, z'
loop_
 _atom_site_type_symbol
 _atom_site_label
 _atom_site_symmetry_multiplicity
 _atom_site_fract_x
 _atom_site_fract_y
 _atom_site_fract_z
 _atom_site_occupancy
  Dy  Dy0  1  0.546387  0.750000  0.001190  1
  Dy  Dy1  1  0.677469  0.041078  0.565782  1
  Dy  Dy2  1  0.322577  0.958981  0.434228  1
  Dy  Dy3  1  0.177732  0.958775  0.934260  1
  Dy  Dy4  1  0.322577  0.541019  0.434228  1
  Dy  Dy5  1  0.822393  0.040926  0.065759  1
  Dy  Dy6  1  0.677469  0.458922  0.565782  1
  Dy  Dy7  1  0.822393  0.459074  0.065759  1
  Dy  Dy8  1  0.177732  0.541225  0.934260  1
  Y  Y9  1  0.841022  0.750000  0.793501  1
  Y  Y10  1  0.158866  0.250000  0.206592  1
  Y  Y11  1  0.341173  0.250000  0.706496  1
  Y  Y12  1  0.658805  0.750000  0.293429  1
  Y  Y13  1  0.374642  0.750000  0.694232  1
  Y  Y14  1  0.625270  0.250000  0.305840  1
  Y  Y15  1  0.874702  0.250000  0.805714  1
  Y  Y16  1  0.125401  0.750000  0.194196  1
  Y  Y17  1  0.954072  0.750000  0.501331  1
  Y  Y18  1  0.045858  0.250000  0.498709  1
  Y  Y19  1  0.454151  0.250000  0.998721  1
  Bi  Bi20  1  0.569408  0.491627  0.826505  1
  Bi  Bi21  1  0.430604  0.508390  0.173492  1
  Bi  Bi22  1  0.069406  0.508403  0.673531  1
  Bi  Bi23  1  0.430604  0.991610  0.173492  1
  Bi  Bi24  1  0.930600  0.491560  0.326438  1
  Bi  Bi25  1  0.569408  0.008373  0.826505  1
  Bi  Bi26  1  0.930600  0.008440  0.326438  1
  Bi  Bi27  1  0.069406  0.991597  0.673531  1
  Rh  Rh28  1  0.570142  0.750000  0.510056  1
  Rh  Rh29  1  0.429984  0.250000  0.489894  1
  Rh  Rh30  1  0.070060  0.250000  0.989843  1
  Rh  Rh31  1  0.929087  0.750000  0.010267  1
