# generated using pymatgen
data_Sm2DyCu6Ni7B2
_symmetry_space_group_name_H-M   'P 1'
_cell_length_a   5.06310928
_cell_length_b   5.06311026
_cell_length_c   10.99555600
_cell_angle_alpha   90.00000000
_cell_angle_beta   90.00000000
_cell_angle_gamma   119.98398965
_symmetry_Int_Tables_number   1
_chemical_formula_structural   Sm2DyCu6Ni7B2
_chemical_formula_sum   'Sm2 Dy1 Cu6 Ni7 B2'
_cell_volume   244.14765350
_cell_formula_units_Z   1
loop_
 _symmetry_equiv_pos_site_id
 _symmetry_equiv_pos_as_xyz
  1  'x, y, z'
loop_
 _atom_site_type_symbol
 _atom_site_label
 _atom_site_symmetry_multiplicity
 _atom_site_fract_x
 _atom_site_fract_y
 _atom_site_fract_z
 _atom_site_occupancy
  Sm  Sm0  1  0.000000  0.000000  0.678798  1
  Sm  Sm1  1  0.000000  0.000000  0.321202  1
  Dy  Dy2  1  0.000000  0.000000  0.000000  1
  Cu  Cu3  1  0.500000  0.000000  0.500000  1
  Cu  Cu4  1  0.000000  0.500000  0.500000  1
  Cu  Cu5  1  0.665024  0.334976  0.685272  1
  Cu  Cu6  1  0.334976  0.665024  0.685272  1
  Cu  Cu7  1  0.334976  0.665024  0.314728  1
  Cu  Cu8  1  0.665024  0.334976  0.314728  1
  Ni  Ni9  1  0.500000  0.500000  0.500000  1
  Ni  Ni10  1  0.500000  0.500000  0.872039  1
  Ni  Ni11  1  0.500000  0.000000  0.871795  1
  Ni  Ni12  1  0.000000  0.500000  0.871795  1
  Ni  Ni13  1  0.500000  0.500000  0.127961  1
  Ni  Ni14  1  0.500000  0.000000  0.128205  1
  Ni  Ni15  1  0.000000  0.500000  0.128205  1
  B  B16  1  0.666954  0.333046  0.000000  1
  B  B17  1  0.333046  0.666954  0.000000  1
