# generated using pymatgen
data_NiBi4Te4Pt3
_symmetry_space_group_name_H-M   'P 1'
_cell_length_a   6.69896895
_cell_length_b   6.69896895
_cell_length_c   6.69896895
_cell_angle_alpha   90.19258643
_cell_angle_beta   90.19258643
_cell_angle_gamma   90.19258643
_symmetry_Int_Tables_number   1
_chemical_formula_structural   NiBi4Te4Pt3
_chemical_formula_sum   'Ni1 Bi4 Te4 Pt3'
_cell_volume   300.61906414
_cell_formula_units_Z   1
loop_
 _symmetry_equiv_pos_site_id
 _symmetry_equiv_pos_as_xyz
  1  'x, y, z'
loop_
 _atom_site_type_symbol
 _atom_site_label
 _atom_site_symmetry_multiplicity
 _atom_site_fract_x
 _atom_site_fract_y
 _atom_site_fract_z
 _atom_site_occupancy
  Ni  Ni0  1  0.009320  0.009320  0.009320  1
  Bi  Bi1  1  0.367361  0.367361  0.367361  1
  Bi  Bi2  1  0.127171  0.641040  0.872883  1
  Bi  Bi3  1  0.872883  0.127171  0.641040  1
  Bi  Bi4  1  0.641040  0.872883  0.127171  1
  Te  Te5  1  0.626650  0.626650  0.626650  1
  Te  Te6  1  0.876030  0.361436  0.123626  1
  Te  Te7  1  0.123626  0.876030  0.361436  1
  Te  Te8  1  0.361436  0.123626  0.876030  1
  Pt  Pt9  1  0.495365  0.994255  0.504863  1
  Pt  Pt10  1  0.504863  0.495365  0.994255  1
  Pt  Pt11  1  0.994255  0.504863  0.495365  1
