# generated using pymatgen
data_YbTePdO6
_symmetry_space_group_name_H-M   'P 1'
_cell_length_a   5.21266411
_cell_length_b   5.21358851
_cell_length_c   10.03422220
_cell_angle_alpha   90.03102952
_cell_angle_beta   89.98121226
_cell_angle_gamma   120.00428386
_symmetry_Int_Tables_number   1
_chemical_formula_structural   YbTePdO6
_chemical_formula_sum   'Yb2 Te2 Pd2 O12'
_cell_volume   236.15221501
_cell_formula_units_Z   2
loop_
 _symmetry_equiv_pos_site_id
 _symmetry_equiv_pos_as_xyz
  1  'x, y, z'
loop_
 _atom_site_type_symbol
 _atom_site_label
 _atom_site_symmetry_multiplicity
 _atom_site_fract_x
 _atom_site_fract_y
 _atom_site_fract_z
 _atom_site_occupancy
  Yb  Yb0  1  0.999992  0.999981  0.999998  1
  Yb  Yb1  1  0.999992  0.000008  0.500004  1
  Te  Te2  1  0.666753  0.333390  0.249998  1
  Te  Te3  1  0.333236  0.666611  0.749996  1
  Pd  Pd4  1  0.333315  0.666657  0.249999  1
  Pd  Pd5  1  0.666695  0.333347  0.749999  1
  O  O6  1  0.367180  0.009617  0.140921  1
  O  O7  1  0.642303  0.632781  0.140946  1
  O  O8  1  0.990415  0.357628  0.140937  1
  O  O9  1  0.990410  0.632791  0.359067  1
  O  O10  1  0.642284  0.009501  0.359056  1
  O  O11  1  0.367172  0.357564  0.359081  1
  O  O12  1  0.632823  0.642437  0.640927  1
  O  O13  1  0.357713  0.990504  0.640943  1
  O  O14  1  0.009608  0.367220  0.640941  1
  O  O15  1  0.009588  0.642373  0.859056  1
  O  O16  1  0.357704  0.367208  0.859057  1
  O  O17  1  0.632814  0.990381  0.859072  1
