# generated using pymatgen
data_ErLu9Al4(GaC4)2
_symmetry_space_group_name_H-M   'P 1'
_cell_length_a   10.63810643
_cell_length_b   10.64511065
_cell_length_c   3.43638300
_cell_angle_alpha   90.00000000
_cell_angle_beta   90.00000000
_cell_angle_gamma   89.92766441
_symmetry_Int_Tables_number   1
_chemical_formula_structural   ErLu9Al4(GaC4)2
_chemical_formula_sum   'Er1 Lu9 Al4 Ga2 C8'
_cell_volume   389.14882790
_cell_formula_units_Z   1
loop_
 _symmetry_equiv_pos_site_id
 _symmetry_equiv_pos_as_xyz
  1  'x, y, z'
loop_
 _atom_site_type_symbol
 _atom_site_label
 _atom_site_symmetry_multiplicity
 _atom_site_fract_x
 _atom_site_fract_y
 _atom_site_fract_z
 _atom_site_occupancy
  Er  Er0  1  0.550147  0.728610  0.500000  1
  Lu  Lu1  1  0.450046  0.269071  0.500000  1
  Lu  Lu2  1  0.049675  0.769474  0.500000  1
  Lu  Lu3  1  0.950201  0.230836  0.500000  1
  Lu  Lu4  1  0.269143  0.549364  0.500000  1
  Lu  Lu5  1  0.730597  0.449986  0.500000  1
  Lu  Lu6  1  0.230377  0.050300  0.500000  1
  Lu  Lu7  1  0.770160  0.950973  0.500000  1
  Lu  Lu8  1  0.500094  0.000357  0.000000  1
  Lu  Lu9  1  0.999921  0.499863  0.000000  1
  Al  Al10  1  0.702749  0.204083  0.000000  1
  Al  Al11  1  0.295868  0.797161  0.000000  1
  Al  Al12  1  0.203678  0.296995  0.000000  1
  Al  Al13  1  0.797572  0.703910  0.000000  1
  Ga  Ga14  1  0.499393  0.497125  0.000000  1
  Ga  Ga15  1  0.000251  0.999937  0.000000  1
  C  C16  1  0.628961  0.128735  0.500000  1
  C  C17  1  0.370100  0.872124  0.500000  1
  C  C18  1  0.128400  0.371333  0.500000  1
  C  C19  1  0.871344  0.628739  0.500000  1
  C  C20  1  0.161028  0.661234  0.000000  1
  C  C21  1  0.838789  0.338705  0.000000  1
  C  C22  1  0.662886  0.840010  0.000000  1
  C  C23  1  0.338621  0.161076  0.000000  1
