# generated using pymatgen
data_Pr4Eu4Zn8CuRh7
_symmetry_space_group_name_H-M   'P 1'
_cell_length_a   4.04384100
_cell_length_b   7.36487355
_cell_length_c   16.67345400
_cell_angle_alpha   90.31956434
_cell_angle_beta   90.00000000
_cell_angle_gamma   90.00000000
_symmetry_Int_Tables_number   1
_chemical_formula_structural   Pr4Eu4Zn8CuRh7
_chemical_formula_sum   'Pr4 Eu4 Zn8 Cu1 Rh7'
_cell_volume   496.56737977
_cell_formula_units_Z   1
loop_
 _symmetry_equiv_pos_site_id
 _symmetry_equiv_pos_as_xyz
  1  'x, y, z'
loop_
 _atom_site_type_symbol
 _atom_site_label
 _atom_site_symmetry_multiplicity
 _atom_site_fract_x
 _atom_site_fract_y
 _atom_site_fract_z
 _atom_site_occupancy
  Pr  Pr0  1  0.750000  0.831406  0.060554  1
  Pr  Pr1  1  0.250000  0.547839  0.783522  1
  Pr  Pr2  1  0.750000  0.332520  0.436256  1
  Pr  Pr3  1  0.250000  0.672026  0.559996  1
  Eu  Eu4  1  0.750000  0.453548  0.215677  1
  Eu  Eu5  1  0.750000  0.951182  0.284059  1
  Eu  Eu6  1  0.250000  0.045803  0.718107  1
  Eu  Eu7  1  0.250000  0.168247  0.939547  1
  Zn  Zn8  1  0.250000  0.997600  0.438960  1
  Zn  Zn9  1  0.750000  0.501427  0.939621  1
  Zn  Zn10  1  0.750000  0.003351  0.561296  1
  Zn  Zn11  1  0.250000  0.624203  0.349510  1
  Zn  Zn12  1  0.750000  0.371533  0.650333  1
  Zn  Zn13  1  0.750000  0.874363  0.849960  1
  Zn  Zn14  1  0.250000  0.498470  0.060347  1
  Zn  Zn15  1  0.250000  0.125233  0.150447  1
  Cu  Cu16  1  0.250000  0.239843  0.565342  1
  Rh  Rh17  1  0.750000  0.258132  0.065436  1
  Rh  Rh18  1  0.250000  0.247293  0.315647  1
  Rh  Rh19  1  0.750000  0.252607  0.812426  1
  Rh  Rh20  1  0.250000  0.743773  0.934847  1
  Rh  Rh21  1  0.750000  0.751857  0.685817  1
  Rh  Rh22  1  0.750000  0.759198  0.435563  1
  Rh  Rh23  1  0.250000  0.748547  0.186732  1
