# generated using pymatgen
data_SrTb3(Ni2Ir5)2
_symmetry_space_group_name_H-M   'P 1'
_cell_length_a   12.84089864
_cell_length_b   12.84089899
_cell_length_c   12.84089830
_cell_angle_alpha   23.98119746
_cell_angle_beta   23.98119229
_cell_angle_gamma   23.98119634
_symmetry_Int_Tables_number   1
_chemical_formula_structural   SrTb3(Ni2Ir5)2
_chemical_formula_sum   'Sr1 Tb3 Ni4 Ir10'
_cell_volume   307.32196615
_cell_formula_units_Z   1
loop_
 _symmetry_equiv_pos_site_id
 _symmetry_equiv_pos_as_xyz
  1  'x, y, z'
loop_
 _atom_site_type_symbol
 _atom_site_label
 _atom_site_symmetry_multiplicity
 _atom_site_fract_x
 _atom_site_fract_y
 _atom_site_fract_z
 _atom_site_occupancy
  Sr  Sr0  1  0.948537  0.948537  0.948537  1
  Tb  Tb1  1  0.048846  0.048846  0.048846  1
  Tb  Tb2  1  0.852646  0.852646  0.852646  1
  Tb  Tb3  1  0.147086  0.147086  0.147086  1
  Ni  Ni4  1  0.721034  0.721034  0.721034  1
  Ni  Ni5  1  0.279782  0.279782  0.279782  1
  Ni  Ni6  1  0.612538  0.612538  0.612538  1
  Ni  Ni7  1  0.388145  0.388145  0.388145  1
  Ir  Ir8  1  0.389568  0.894853  0.389568  1
  Ir  Ir9  1  0.389568  0.389568  0.894853  1
  Ir  Ir10  1  0.894853  0.389568  0.389568  1
  Ir  Ir11  1  0.609558  0.105394  0.609558  1
  Ir  Ir12  1  0.609558  0.609558  0.105394  1
  Ir  Ir13  1  0.105394  0.609558  0.609558  1
  Ir  Ir14  1  0.501168  0.501168  0.000720  1
  Ir  Ir15  1  0.000720  0.501168  0.501168  1
  Ir  Ir16  1  0.501168  0.000720  0.501168  1
  Ir  Ir17  1  0.499832  0.499832  0.499832  1
