# generated using pymatgen
data_CeNd(ThOs4)2
_symmetry_space_group_name_H-M   'P 1'
_cell_length_a   5.39043800
_cell_length_b   5.39043779
_cell_length_c   9.04414500
_cell_angle_alpha   90.00000000
_cell_angle_beta   90.00000000
_cell_angle_gamma   120.00000130
_symmetry_Int_Tables_number   1
_chemical_formula_structural   CeNd(ThOs4)2
_chemical_formula_sum   'Ce1 Nd1 Th2 Os8'
_cell_volume   227.58636316
_cell_formula_units_Z   1
loop_
 _symmetry_equiv_pos_site_id
 _symmetry_equiv_pos_as_xyz
  1  'x, y, z'
loop_
 _atom_site_type_symbol
 _atom_site_label
 _atom_site_symmetry_multiplicity
 _atom_site_fract_x
 _atom_site_fract_y
 _atom_site_fract_z
 _atom_site_occupancy
  Ce  Ce0  1  0.333333  0.666667  0.071340  1
  Nd  Nd1  1  0.333333  0.666667  0.431017  1
  Th  Th2  1  0.666667  0.333333  0.566944  1
  Th  Th3  1  0.666667  0.333333  0.933732  1
  Os  Os4  1  0.000000  0.000000  0.498008  1
  Os  Os5  1  0.000000  0.000000  0.000900  1
  Os  Os6  1  0.829666  0.170334  0.248532  1
  Os  Os7  1  0.829666  0.659332  0.248532  1
  Os  Os8  1  0.340668  0.170334  0.248532  1
  Os  Os9  1  0.170697  0.829303  0.750821  1
  Os  Os10  1  0.170697  0.341394  0.750821  1
  Os  Os11  1  0.658606  0.829303  0.750821  1
