# generated using pymatgen
data_HfZr2Ta3(SiTc)6
_symmetry_space_group_name_H-M   'P 1'
_cell_length_a   3.36481600
_cell_length_b   6.94193616
_cell_length_c   11.93716498
_cell_angle_alpha   89.85991595
_cell_angle_beta   90.00000000
_cell_angle_gamma   90.00000000
_symmetry_Int_Tables_number   1
_chemical_formula_structural   HfZr2Ta3(SiTc)6
_chemical_formula_sum   'Hf1 Zr2 Ta3 Si6 Tc6'
_cell_volume   278.83149930
_cell_formula_units_Z   1
loop_
 _symmetry_equiv_pos_site_id
 _symmetry_equiv_pos_as_xyz
  1  'x, y, z'
loop_
 _atom_site_type_symbol
 _atom_site_label
 _atom_site_symmetry_multiplicity
 _atom_site_fract_x
 _atom_site_fract_y
 _atom_site_fract_z
 _atom_site_occupancy
  Hf  Hf0  1  0.500000  0.298244  0.298875  1
  Zr  Zr1  1  0.500000  0.295915  0.701300  1
  Zr  Zr2  1  0.500000  0.798736  0.202094  1
  Ta  Ta3  1  0.500000  0.404731  0.999335  1
  Ta  Ta4  1  0.500000  0.900936  0.501263  1
  Ta  Ta5  1  0.500000  0.796802  0.799057  1
  Si  Si6  1  0.500000  0.003599  0.998669  1
  Si  Si7  1  0.500000  0.501400  0.499630  1
  Si  Si8  1  0.000000  0.992327  0.667387  1
  Si  Si9  1  0.000000  0.498392  0.162177  1
  Si  Si10  1  0.000000  0.503570  0.835007  1
  Si  Si11  1  0.000000  0.998672  0.338216  1
  Tc  Tc12  1  0.000000  0.244283  0.500847  1
  Tc  Tc13  1  0.000000  0.747066  0.996127  1
  Tc  Tc14  1  0.000000  0.629325  0.627385  1
  Tc  Tc15  1  0.000000  0.131179  0.124739  1
  Tc  Tc16  1  0.000000  0.127817  0.873199  1
  Tc  Tc17  1  0.000000  0.627203  0.374691  1
