# generated using pymatgen
data_Te13OsCl6
_symmetry_space_group_name_H-M   'P 1'
_cell_length_a   9.36850913
_cell_length_b   9.36850691
_cell_length_c   9.36850811
_cell_angle_alpha   107.76801634
_cell_angle_beta   107.76800292
_cell_angle_gamma   107.76802109
_symmetry_Int_Tables_number   1
_chemical_formula_structural   Te13OsCl6
_chemical_formula_sum   'Te13 Os1 Cl6'
_cell_volume   669.92504647
_cell_formula_units_Z   1
loop_
 _symmetry_equiv_pos_site_id
 _symmetry_equiv_pos_as_xyz
  1  'x, y, z'
loop_
 _atom_site_type_symbol
 _atom_site_label
 _atom_site_symmetry_multiplicity
 _atom_site_fract_x
 _atom_site_fract_y
 _atom_site_fract_z
 _atom_site_occupancy
  Te  Te0  1  0.930549  0.179218  0.184969  1
  Te  Te1  1  0.184969  0.930549  0.179218  1
  Te  Te2  1  0.179218  0.184969  0.930549  1
  Te  Te3  1  0.680329  0.660847  0.387866  1
  Te  Te4  1  0.387866  0.680329  0.660847  1
  Te  Te5  1  0.660847  0.387866  0.680329  1
  Te  Te6  1  0.112134  0.839153  0.819671  1
  Te  Te7  1  0.819671  0.112134  0.839153  1
  Te  Te8  1  0.839153  0.819671  0.112134  1
  Te  Te9  1  0.315031  0.320782  0.569451  1
  Te  Te10  1  0.569451  0.315031  0.320782  1
  Te  Te11  1  0.320782  0.569451  0.315031  1
  Te  Te12  1  0.750000  0.750000  0.750000  1
  Os  Os13  1  0.250000  0.250000  0.250000  1
  Cl  Cl14  1  0.987549  0.512451  0.250000  1
  Cl  Cl15  1  0.250000  0.987549  0.512451  1
  Cl  Cl16  1  0.512451  0.250000  0.987549  1
  Cl  Cl17  1  0.750000  0.007583  0.492417  1
  Cl  Cl18  1  0.492417  0.750000  0.007583  1
  Cl  Cl19  1  0.007583  0.492417  0.750000  1
