# generated using pymatgen
data_Sc(PaRh2)5
_symmetry_space_group_name_H-M   'P 1'
_cell_length_a   5.71972087
_cell_length_b   5.71972081
_cell_length_c   9.41637960
_cell_angle_alpha   93.62267355
_cell_angle_beta   93.62266866
_cell_angle_gamma   104.65898366
_symmetry_Int_Tables_number   1
_chemical_formula_structural   Sc(PaRh2)5
_chemical_formula_sum   'Sc1 Pa5 Rh10'
_cell_volume   296.43396124
_cell_formula_units_Z   1
loop_
 _symmetry_equiv_pos_site_id
 _symmetry_equiv_pos_as_xyz
  1  'x, y, z'
loop_
 _atom_site_type_symbol
 _atom_site_label
 _atom_site_symmetry_multiplicity
 _atom_site_fract_x
 _atom_site_fract_y
 _atom_site_fract_z
 _atom_site_occupancy
  Sc  Sc0  1  0.783338  0.216662  0.500000  1
  Pa  Pa1  1  0.617134  0.606525  0.760030  1
  Pa  Pa2  1  0.393475  0.382866  0.239970  1
  Pa  Pa3  1  0.201370  0.798630  0.000000  1
  Pa  Pa4  1  0.198505  0.801495  0.500000  1
  Pa  Pa5  1  0.811126  0.188874  0.000000  1
  Rh  Rh6  1  0.704311  0.685513  0.055171  1
  Rh  Rh7  1  0.684591  0.713573  0.480645  1
  Rh  Rh8  1  0.314487  0.295689  0.944829  1
  Rh  Rh9  1  0.286427  0.315409  0.519355  1
  Rh  Rh10  1  0.512932  0.049719  0.731824  1
  Rh  Rh11  1  0.489265  0.944993  0.251306  1
  Rh  Rh12  1  0.993057  0.995304  0.268801  1
  Rh  Rh13  1  0.004696  0.006943  0.731199  1
  Rh  Rh14  1  0.055007  0.510735  0.748694  1
  Rh  Rh15  1  0.950281  0.487068  0.268176  1
