# generated using pymatgen
data_YEr3Co4(P3Ir4)4
_symmetry_space_group_name_H-M   'P 1'
_cell_length_a   3.92182400
_cell_length_b   10.71084520
_cell_length_c   12.38179223
_cell_angle_alpha   90.02226522
_cell_angle_beta   90.00000000
_cell_angle_gamma   90.00000000
_symmetry_Int_Tables_number   1
_chemical_formula_structural   YEr3Co4(P3Ir4)4
_chemical_formula_sum   'Y1 Er3 Co4 P12 Ir16'
_cell_volume   520.11014159
_cell_formula_units_Z   1
loop_
 _symmetry_equiv_pos_site_id
 _symmetry_equiv_pos_as_xyz
  1  'x, y, z'
loop_
 _atom_site_type_symbol
 _atom_site_label
 _atom_site_symmetry_multiplicity
 _atom_site_fract_x
 _atom_site_fract_y
 _atom_site_fract_z
 _atom_site_occupancy
  Y  Y0  1  0.250000  0.585186  0.709841  1
  Er  Er1  1  0.250000  0.914860  0.209827  1
  Er  Er2  1  0.750000  0.414575  0.290168  1
  Er  Er3  1  0.750000  0.085190  0.790043  1
  Co  Co4  1  0.250000  0.461130  0.934415  1
  Co  Co5  1  0.250000  0.038715  0.433833  1
  Co  Co6  1  0.750000  0.538789  0.066541  1
  Co  Co7  1  0.750000  0.961966  0.566106  1
  P  P8  1  0.250000  0.426102  0.106046  1
  P  P9  1  0.250000  0.073534  0.605707  1
  P  P10  1  0.750000  0.573816  0.894746  1
  P  P11  1  0.750000  0.926479  0.394361  1
  P  P12  1  0.250000  0.270491  0.871117  1
  P  P13  1  0.250000  0.229302  0.371185  1
  P  P14  1  0.750000  0.729616  0.128566  1
  P  P15  1  0.750000  0.771087  0.628119  1
  P  P16  1  0.250000  0.594117  0.384910  1
  P  P17  1  0.250000  0.905515  0.884539  1
  P  P18  1  0.750000  0.405203  0.615226  1
  P  P19  1  0.750000  0.094320  0.115342  1
  Ir  Ir20  1  0.250000  0.721012  0.981321  1
  Ir  Ir21  1  0.250000  0.779479  0.479857  1
  Ir  Ir22  1  0.750000  0.279449  0.019950  1
  Ir  Ir23  1  0.750000  0.220591  0.519169  1
  Ir  Ir24  1  0.250000  0.407217  0.477575  1
  Ir  Ir25  1  0.250000  0.092459  0.977515  1
  Ir  Ir26  1  0.750000  0.592275  0.520909  1
  Ir  Ir27  1  0.750000  0.907846  0.022332  1
  Ir  Ir28  1  0.250000  0.232424  0.180173  1
  Ir  Ir29  1  0.250000  0.267368  0.679866  1
  Ir  Ir30  1  0.750000  0.768363  0.820590  1
  Ir  Ir31  1  0.750000  0.733168  0.319315  1
  Ir  Ir32  1  0.250000  0.886279  0.698732  1
  Ir  Ir33  1  0.250000  0.613332  0.199425  1
  Ir  Ir34  1  0.750000  0.113600  0.301006  1
  Ir  Ir35  1  0.750000  0.385145  0.801625  1
