# generated using pymatgen
data_TbY11Sn4(GeRh2)4
_symmetry_space_group_name_H-M   'P 1'
_cell_length_a   5.65961706
_cell_length_b   8.14035909
_cell_length_c   13.40259507
_cell_angle_alpha   90.00813320
_cell_angle_beta   90.00838597
_cell_angle_gamma   90.01506593
_symmetry_Int_Tables_number   1
_chemical_formula_structural   TbY11Sn4(GeRh2)4
_chemical_formula_sum   'Tb1 Y11 Sn4 Ge4 Rh8'
_cell_volume   617.47514801
_cell_formula_units_Z   1
loop_
 _symmetry_equiv_pos_site_id
 _symmetry_equiv_pos_as_xyz
  1  'x, y, z'
loop_
 _atom_site_type_symbol
 _atom_site_label
 _atom_site_symmetry_multiplicity
 _atom_site_fract_x
 _atom_site_fract_y
 _atom_site_fract_z
 _atom_site_occupancy
  Tb  Tb0  1  0.156624  0.397061  0.101138  1
  Y  Y1  1  0.633159  0.257003  0.250060  1
  Y  Y2  1  0.367036  0.743019  0.750068  1
  Y  Y3  1  0.367008  0.757057  0.249972  1
  Y  Y4  1  0.633091  0.243026  0.750054  1
  Y  Y5  1  0.844576  0.603018  0.898324  1
  Y  Y6  1  0.844507  0.602927  0.601610  1
  Y  Y7  1  0.844476  0.896973  0.398446  1
  Y  Y8  1  0.155382  0.397149  0.398406  1
  Y  Y9  1  0.155453  0.102927  0.601586  1
  Y  Y10  1  0.155510  0.102861  0.898405  1
  Y  Y11  1  0.844527  0.897031  0.101566  1
  Sn  Sn12  1  0.667663  0.249593  0.999849  1
  Sn  Sn13  1  0.332404  0.750458  0.999784  1
  Sn  Sn14  1  0.332607  0.749900  0.499957  1
  Sn  Sn15  1  0.667424  0.250140  0.500078  1
  Ge  Ge16  1  0.123249  0.112446  0.250139  1
  Ge  Ge17  1  0.876933  0.887480  0.750100  1
  Ge  Ge18  1  0.876807  0.612710  0.250151  1
  Ge  Ge19  1  0.122863  0.387346  0.749977  1
  Rh  Rh20  1  0.366710  0.042590  0.098538  1
  Rh  Rh21  1  0.633048  0.957600  0.901378  1
  Rh  Rh22  1  0.633285  0.957569  0.598705  1
  Rh  Rh23  1  0.632991  0.542385  0.401430  1
  Rh  Rh24  1  0.366664  0.042286  0.401395  1
  Rh  Rh25  1  0.366916  0.457708  0.598729  1
  Rh  Rh26  1  0.366496  0.457638  0.901573  1
  Rh  Rh27  1  0.632592  0.542098  0.098584  1
