# generated using pymatgen
data_Dy12TlIn(FeSi)2
_symmetry_space_group_name_H-M   'P 1'
_cell_length_a   8.50736515
_cell_length_b   8.50736637
_cell_length_c   8.50736560
_cell_angle_alpha   113.38707500
_cell_angle_beta   110.09905601
_cell_angle_gamma   105.03534494
_symmetry_Int_Tables_number   1
_chemical_formula_structural   Dy12TlIn(FeSi)2
_chemical_formula_sum   'Dy12 Tl1 In1 Fe2 Si2'
_cell_volume   471.45192405
_cell_formula_units_Z   1
loop_
 _symmetry_equiv_pos_site_id
 _symmetry_equiv_pos_as_xyz
  1  'x, y, z'
loop_
 _atom_site_type_symbol
 _atom_site_label
 _atom_site_symmetry_multiplicity
 _atom_site_fract_x
 _atom_site_fract_y
 _atom_site_fract_z
 _atom_site_occupancy
  Dy  Dy0  1  0.444294  0.239648  0.204647  1
  Dy  Dy1  1  0.555706  0.760352  0.795353  1
  Dy  Dy2  1  0.035000  0.239648  0.795353  1
  Dy  Dy3  1  0.965000  0.760352  0.204647  1
  Dy  Dy4  1  0.188528  0.289788  0.478316  1
  Dy  Dy5  1  0.811472  0.710212  0.521684  1
  Dy  Dy6  1  0.188528  0.710212  0.898742  1
  Dy  Dy7  1  0.811472  0.289788  0.101258  1
  Dy  Dy8  1  0.304108  0.614171  0.310062  1
  Dy  Dy9  1  0.695892  0.385829  0.689938  1
  Dy  Dy10  1  0.304108  0.994047  0.689938  1
  Dy  Dy11  1  0.695892  0.005953  0.310062  1
  Tl  Tl12  1  0.000000  0.000000  0.000000  1
  In  In13  1  0.500000  0.500000  0.000000  1
  Fe  Fe14  1  0.103720  0.603720  0.500000  1
  Fe  Fe15  1  0.896280  0.396280  0.500000  1
  Si  Si16  1  0.367460  0.000000  0.367460  1
  Si  Si17  1  0.632540  0.000000  0.632540  1
