# generated using pymatgen
data_TmP6RhO18
_symmetry_space_group_name_H-M   'P 1'
_cell_length_a   5.23834227
_cell_length_b   6.99163255
_cell_length_c   10.53726100
_cell_angle_alpha   98.97186331
_cell_angle_beta   93.21553246
_cell_angle_gamma   93.34763225
_symmetry_Int_Tables_number   1
_chemical_formula_structural   TmP6RhO18
_chemical_formula_sum   'Tm1 P6 Rh1 O18'
_cell_volume   379.71762855
_cell_formula_units_Z   1
loop_
 _symmetry_equiv_pos_site_id
 _symmetry_equiv_pos_as_xyz
  1  'x, y, z'
loop_
 _atom_site_type_symbol
 _atom_site_label
 _atom_site_symmetry_multiplicity
 _atom_site_fract_x
 _atom_site_fract_y
 _atom_site_fract_z
 _atom_site_occupancy
  Tm  Tm0  1  0.499991  0.499997  0.500005  1
  P  P1  1  0.027145  0.981455  0.175416  1
  P  P2  1  0.746577  0.330921  0.211315  1
  P  P3  1  0.993321  0.694234  0.350461  1
  P  P4  1  0.006674  0.305766  0.649537  1
  P  P5  1  0.253427  0.669077  0.788686  1
  P  P6  1  0.972864  0.018547  0.824584  1
  Rh  Rh7  1  0.500001  0.999995  0.000000  1
  O  O8  1  0.611805  0.283426  0.078700  1
  O  O9  1  0.826803  0.893426  0.070244  1
  O  O10  1  0.304539  0.945855  0.155064  1
  O  O11  1  0.999886  0.208603  0.218261  1
  O  O12  1  0.872355  0.547860  0.222972  1
  O  O13  1  0.600390  0.308736  0.327080  1
  O  O14  1  0.965332  0.900625  0.306080  1
  O  O15  1  0.269022  0.655893  0.372294  1
  O  O16  1  0.827270  0.688067  0.461488  1
  O  O17  1  0.172717  0.311951  0.538508  1
  O  O18  1  0.730971  0.344103  0.627707  1
  O  O19  1  0.034662  0.099378  0.693914  1
  O  O20  1  0.399619  0.691272  0.672926  1
  O  O21  1  0.127644  0.452138  0.777026  1
  O  O22  1  0.000117  0.791393  0.781740  1
  O  O23  1  0.695469  0.054141  0.844934  1
  O  O24  1  0.173207  0.106573  0.929755  1
  O  O25  1  0.388200  0.716568  0.921300  1
