# generated using pymatgen
data_ThSc11Tc3Br16
_symmetry_space_group_name_H-M   'P 1'
_cell_length_a   9.14614245
_cell_length_b   11.29142704
_cell_length_c   12.15784000
_cell_angle_alpha   118.55440304
_cell_angle_beta   101.32996053
_cell_angle_gamma   100.21603761
_symmetry_Int_Tables_number   1
_chemical_formula_structural   ThSc11Tc3Br16
_chemical_formula_sum   'Th1 Sc11 Tc3 Br16'
_cell_volume   1026.32124771
_cell_formula_units_Z   1
loop_
 _symmetry_equiv_pos_site_id
 _symmetry_equiv_pos_as_xyz
  1  'x, y, z'
loop_
 _atom_site_type_symbol
 _atom_site_label
 _atom_site_symmetry_multiplicity
 _atom_site_fract_x
 _atom_site_fract_y
 _atom_site_fract_z
 _atom_site_occupancy
  Th  Th0  1  0.086700  0.274983  0.362737  1
  Sc  Sc1  1  0.929065  0.723782  0.635402  1
  Sc  Sc2  1  0.773171  0.526132  0.314939  1
  Sc  Sc3  1  0.240953  0.477956  0.703434  1
  Sc  Sc4  1  0.296918  0.744244  0.651154  1
  Sc  Sc5  1  0.696995  0.249888  0.345913  1
  Sc  Sc6  1  0.147138  0.558565  0.324393  1
  Sc  Sc7  1  0.859665  0.452116  0.668074  1
  Sc  Sc8  1  0.406261  0.360520  0.266285  1
  Sc  Sc9  1  0.597320  0.638287  0.723153  1
  Sc  Sc10  1  0.464045  0.306161  0.528422  1
  Sc  Sc11  1  0.542628  0.688903  0.476728  1
  Tc  Tc12  1  0.997912  0.492405  0.494862  1
  Tc  Tc13  1  0.332134  0.498224  0.498740  1
  Tc  Tc14  1  0.661635  0.489453  0.493531  1
  Br  Br15  1  0.406473  0.749886  0.888641  1
  Br  Br16  1  0.596350  0.246824  0.113727  1
  Br  Br17  1  0.183361  0.956588  0.780404  1
  Br  Br18  1  0.803480  0.027257  0.212504  1
  Br  Br19  1  0.315890  0.098985  0.253516  1
  Br  Br20  1  0.632641  0.897724  0.743605  1
  Br  Br21  1  0.556732  0.444395  0.801907  1
  Br  Br22  1  0.458044  0.565661  0.204166  1
  Br  Br23  1  0.317330  0.834030  0.467910  1
  Br  Br24  1  0.685699  0.164789  0.527684  1
  Br  Br25  1  0.185162  0.184039  0.556556  1
  Br  Br26  1  0.829763  0.820047  0.472564  1
  Br  Br27  1  0.920730  0.580131  0.164785  1
  Br  Br28  1  0.070308  0.432841  0.842675  1
  Br  Br29  1  0.915651  0.732519  0.867045  1
  Br  Br30  1  0.089850  0.282666  0.114543  1
