# generated using pymatgen
data_Tb5Gd11(TmSn4)4
_symmetry_space_group_name_H-M   'P 1'
_cell_length_a   8.00908908
_cell_length_b   8.16357103
_cell_length_c   15.44378100
_cell_angle_alpha   90.00240032
_cell_angle_beta   89.99190185
_cell_angle_gamma   89.99583137
_symmetry_Int_Tables_number   1
_chemical_formula_structural   Tb5Gd11(TmSn4)4
_chemical_formula_sum   'Tb5 Gd11 Tm4 Sn16'
_cell_volume   1009.75713004
_cell_formula_units_Z   1
loop_
 _symmetry_equiv_pos_site_id
 _symmetry_equiv_pos_as_xyz
  1  'x, y, z'
loop_
 _atom_site_type_symbol
 _atom_site_label
 _atom_site_symmetry_multiplicity
 _atom_site_fract_x
 _atom_site_fract_y
 _atom_site_fract_z
 _atom_site_occupancy
  Tb  Tb0  1  0.980855  0.819785  0.096587  1
  Tb  Tb1  1  0.481619  0.680298  0.096650  1
  Tb  Tb2  1  0.981021  0.820122  0.403840  1
  Tb  Tb3  1  0.518496  0.319332  0.596262  1
  Tb  Tb4  1  0.019310  0.179848  0.902617  1
  Gd  Gd5  1  0.366556  0.837750  0.877468  1
  Gd  Gd6  1  0.866238  0.662255  0.621826  1
  Gd  Gd7  1  0.633688  0.162301  0.378358  1
  Gd  Gd8  1  0.134000  0.337973  0.122365  1
  Gd  Gd9  1  0.633215  0.162446  0.121777  1
  Gd  Gd10  1  0.132705  0.337934  0.378573  1
  Gd  Gd11  1  0.366319  0.837853  0.621382  1
  Gd  Gd12  1  0.866411  0.661715  0.877806  1
  Gd  Gd13  1  0.519604  0.320102  0.903129  1
  Gd  Gd14  1  0.019689  0.179598  0.596189  1
  Gd  Gd15  1  0.480786  0.680331  0.404447  1
  Tm  Tm16  1  0.197133  0.503294  0.749894  1
  Tm  Tm17  1  0.696996  0.996797  0.749471  1
  Tm  Tm18  1  0.803071  0.497109  0.250553  1
  Tm  Tm19  1  0.303246  0.003132  0.249975  1
  Sn  Sn20  1  0.292601  0.035764  0.042382  1
  Sn  Sn21  1  0.792993  0.463836  0.457833  1
  Sn  Sn22  1  0.707018  0.964018  0.542721  1
  Sn  Sn23  1  0.206434  0.536386  0.957301  1
  Sn  Sn24  1  0.706430  0.963713  0.956840  1
  Sn  Sn25  1  0.205220  0.535194  0.543546  1
  Sn  Sn26  1  0.294451  0.036100  0.456736  1
  Sn  Sn27  1  0.794838  0.464699  0.043224  1
  Sn  Sn28  1  0.562772  0.615800  0.749308  1
  Sn  Sn29  1  0.062208  0.883832  0.749832  1
  Sn  Sn30  1  0.437273  0.383725  0.250761  1
  Sn  Sn31  1  0.937154  0.116360  0.250878  1
  Sn  Sn32  1  0.327155  0.149261  0.749254  1
  Sn  Sn33  1  0.827139  0.350625  0.749522  1
  Sn  Sn34  1  0.673271  0.851101  0.250327  1
  Sn  Sn35  1  0.172087  0.649612  0.250365  1
