# generated using pymatgen
data_CsK2Dy(AsSe2)6
_symmetry_space_group_name_H-M   'P 1'
_cell_length_a   9.99350400
_cell_length_b   9.99350494
_cell_length_c   8.21782300
_cell_angle_alpha   90.00000000
_cell_angle_beta   90.00000000
_cell_angle_gamma   119.99999600
_symmetry_Int_Tables_number   1
_chemical_formula_structural   CsK2Dy(AsSe2)6
_chemical_formula_sum   'Cs1 K2 Dy1 As6 Se12'
_cell_volume   710.76012372
_cell_formula_units_Z   1
loop_
 _symmetry_equiv_pos_site_id
 _symmetry_equiv_pos_as_xyz
  1  'x, y, z'
loop_
 _atom_site_type_symbol
 _atom_site_label
 _atom_site_symmetry_multiplicity
 _atom_site_fract_x
 _atom_site_fract_y
 _atom_site_fract_z
 _atom_site_occupancy
  Cs  Cs0  1  0.333333  0.666667  0.837028  1
  K  K1  1  0.000000  0.000000  0.999467  1
  K  K2  1  0.666667  0.333333  0.146016  1
  Dy  Dy3  1  0.000000  0.000000  0.493874  1
  As  As4  1  0.289129  0.839552  0.383316  1
  As  As5  1  0.160448  0.449577  0.383316  1
  As  As6  1  0.550423  0.710871  0.383316  1
  As  As7  1  0.712186  0.163641  0.619907  1
  As  As8  1  0.836359  0.548546  0.619907  1
  As  As9  1  0.451454  0.287814  0.619907  1
  Se  Se10  1  0.261431  0.051568  0.292987  1
  Se  Se11  1  0.948432  0.209863  0.292987  1
  Se  Se12  1  0.790137  0.738569  0.292987  1
  Se  Se13  1  0.747923  0.954780  0.703543  1
  Se  Se14  1  0.045220  0.793142  0.703543  1
  Se  Se15  1  0.206858  0.252077  0.703543  1
  Se  Se16  1  0.527351  0.907794  0.224720  1
  Se  Se17  1  0.092206  0.619554  0.224720  1
  Se  Se18  1  0.380446  0.472649  0.224720  1
  Se  Se19  1  0.475999  0.094670  0.783397  1
  Se  Se20  1  0.905330  0.381332  0.783397  1
  Se  Se21  1  0.618668  0.524001  0.783397  1
