# generated using pymatgen
data_Sc2ZnGa7Co
_symmetry_space_group_name_H-M   'P 1'
_cell_length_a   4.14902200
_cell_length_b   4.14902200
_cell_length_c   10.66400000
_cell_angle_alpha   90.00000000
_cell_angle_beta   90.00000000
_cell_angle_gamma   90.00000000
_symmetry_Int_Tables_number   1
_chemical_formula_structural   Sc2ZnGa7Co
_chemical_formula_sum   'Sc2 Zn1 Ga7 Co1'
_cell_volume   183.57418625
_cell_formula_units_Z   1
loop_
 _symmetry_equiv_pos_site_id
 _symmetry_equiv_pos_as_xyz
  1  'x, y, z'
loop_
 _atom_site_type_symbol
 _atom_site_label
 _atom_site_symmetry_multiplicity
 _atom_site_fract_x
 _atom_site_fract_y
 _atom_site_fract_z
 _atom_site_occupancy
  Sc  Sc0  1  0.000000  0.000000  0.308636  1
  Sc  Sc1  1  0.000000  0.000000  0.691765  1
  Zn  Zn2  1  0.500000  0.500000  0.306148  1
  Ga  Ga3  1  0.000000  0.500000  0.124949  1
  Ga  Ga4  1  0.000000  0.500000  0.879328  1
  Ga  Ga5  1  0.500000  0.000000  0.124949  1
  Ga  Ga6  1  0.500000  0.000000  0.879328  1
  Ga  Ga7  1  0.500000  0.500000  0.692282  1
  Ga  Ga8  1  0.000000  0.500000  0.496868  1
  Ga  Ga9  1  0.500000  0.000000  0.496868  1
  Co  Co10  1  0.000000  0.000000  0.998879  1
