# generated using pymatgen
data_Ho4Si4Ni2IrRu
_symmetry_space_group_name_H-M   'P 1'
_cell_length_a   4.21230200
_cell_length_b   6.86764401
_cell_length_c   7.21212829
_cell_angle_alpha   91.68687880
_cell_angle_beta   90.00000000
_cell_angle_gamma   90.00000000
_symmetry_Int_Tables_number   1
_chemical_formula_structural   Ho4Si4Ni2IrRu
_chemical_formula_sum   'Ho4 Si4 Ni2 Ir1 Ru1'
_cell_volume   208.54628938
_cell_formula_units_Z   1
loop_
 _symmetry_equiv_pos_site_id
 _symmetry_equiv_pos_as_xyz
  1  'x, y, z'
loop_
 _atom_site_type_symbol
 _atom_site_label
 _atom_site_symmetry_multiplicity
 _atom_site_fract_x
 _atom_site_fract_y
 _atom_site_fract_z
 _atom_site_occupancy
  Ho  Ho0  1  0.250000  0.992127  0.798667  1
  Ho  Ho1  1  0.750000  0.007284  0.202206  1
  Ho  Ho2  1  0.250000  0.489774  0.680794  1
  Ho  Ho3  1  0.750000  0.511772  0.318150  1
  Si  Si4  1  0.250000  0.299293  0.103357  1
  Si  Si5  1  0.750000  0.701423  0.899514  1
  Si  Si6  1  0.250000  0.804445  0.398046  1
  Si  Si7  1  0.750000  0.195852  0.600120  1
  Ni  Ni8  1  0.750000  0.837201  0.576638  1
  Ni  Ni9  1  0.250000  0.164220  0.423537  1
  Ir  Ir10  1  0.750000  0.342247  0.931771  1
  Ru  Ru11  1  0.250000  0.654362  0.067200  1
