# generated using pymatgen
data_Ba2PN3
_symmetry_space_group_name_H-M   'P 1'
_cell_length_a   6.47823451
_cell_length_b   6.47823393
_cell_length_c   12.72183100
_cell_angle_alpha   90.00000000
_cell_angle_beta   90.00000000
_cell_angle_gamma   128.98729217
_symmetry_Int_Tables_number   1
_chemical_formula_structural   Ba2PN3
_chemical_formula_sum   'Ba8 P4 N12'
_cell_volume   414.99559986
_cell_formula_units_Z   4
loop_
 _symmetry_equiv_pos_site_id
 _symmetry_equiv_pos_as_xyz
  1  'x, y, z'
loop_
 _atom_site_type_symbol
 _atom_site_label
 _atom_site_symmetry_multiplicity
 _atom_site_fract_x
 _atom_site_fract_y
 _atom_site_fract_z
 _atom_site_occupancy
  Ba  Ba0  1  0.554781  0.445219  0.641584  1
  Ba  Ba1  1  0.445219  0.554781  0.358416  1
  Ba  Ba2  1  0.945219  0.054781  0.141584  1
  Ba  Ba3  1  0.054781  0.945219  0.858416  1
  Ba  Ba4  1  0.858573  0.141427  0.577602  1
  Ba  Ba5  1  0.141427  0.858573  0.422398  1
  Ba  Ba6  1  0.641427  0.358573  0.077602  1
  Ba  Ba7  1  0.358573  0.641427  0.922398  1
  P  P8  1  0.737574  0.262426  0.827064  1
  P  P9  1  0.262426  0.737574  0.172936  1
  P  P10  1  0.762426  0.237574  0.327064  1
  P  P11  1  0.237574  0.762426  0.672936  1
  N  N12  1  0.823952  0.176048  0.927873  1
  N  N13  1  0.176048  0.823952  0.072127  1
  N  N14  1  0.676048  0.323952  0.427873  1
  N  N15  1  0.323952  0.676048  0.572127  1
  N  N16  1  0.599426  0.400574  0.853046  1
  N  N17  1  0.400574  0.599426  0.146954  1
  N  N18  1  0.900574  0.099426  0.353046  1
  N  N19  1  0.099426  0.900574  0.646954  1
  N  N20  1  0.522207  0.977793  0.750000  1
  N  N21  1  0.977793  0.522207  0.250000  1
  N  N22  1  0.477793  0.022207  0.250000  1
  N  N23  1  0.022207  0.477793  0.750000  1
