# generated using pymatgen
data_La6OsPdI6
_symmetry_space_group_name_H-M   'P 1'
_cell_length_a   11.09396388
_cell_length_b   11.09396301
_cell_length_c   10.97705863
_cell_angle_alpha   109.46137938
_cell_angle_beta   109.46137936
_cell_angle_gamma   109.91824724
_symmetry_Int_Tables_number   1
_chemical_formula_structural   La6OsPdI6
_chemical_formula_sum   'La12 Os2 Pd2 I12'
_cell_volume   1034.47229764
_cell_formula_units_Z   2
loop_
 _symmetry_equiv_pos_site_id
 _symmetry_equiv_pos_as_xyz
  1  'x, y, z'
loop_
 _atom_site_type_symbol
 _atom_site_label
 _atom_site_symmetry_multiplicity
 _atom_site_fract_x
 _atom_site_fract_y
 _atom_site_fract_z
 _atom_site_occupancy
  La  La0  1  0.459762  0.486785  0.224502  1
  La  La1  1  0.762283  0.235261  0.275498  1
  La  La2  1  0.762522  0.027455  0.485527  1
  La  La3  1  0.223005  0.458071  0.485527  1
  La  La4  1  0.264739  0.737717  0.224502  1
  La  La5  1  0.041929  0.276995  0.014473  1
  La  La6  1  0.013215  0.040238  0.275498  1
  La  La7  1  0.472545  0.737478  0.014473  1
  La  La8  1  0.481308  0.231308  0.462616  1
  La  La9  1  0.021341  0.478659  0.750000  1
  La  La10  1  0.268692  0.018692  0.037384  1
  La  La11  1  0.228659  0.271341  0.750000  1
  Os  Os12  1  0.998564  0.248564  0.497127  1
  Os  Os13  1  0.251436  0.501436  0.002873  1
  Pd  Pd14  1  0.251421  0.248579  0.250000  1
  Pd  Pd15  1  0.498579  0.001421  0.250000  1
  I  I16  1  0.250338  0.760403  0.741223  1
  I  I17  1  0.519180  0.509115  0.758777  1
  I  I18  1  0.983710  0.742111  0.991701  1
  I  I19  1  0.739597  0.249662  0.758777  1
  I  I20  1  0.990885  0.980820  0.741223  1
  I  I21  1  0.250410  0.992009  0.508299  1
  I  I22  1  0.757889  0.516290  0.508299  1
  I  I23  1  0.507991  0.249590  0.991701  1
  I  I24  1  0.759551  0.740449  0.250000  1
  I  I25  1  0.741646  0.991646  0.983291  1
  I  I26  1  0.990449  0.509551  0.250000  1
  I  I27  1  0.508354  0.758354  0.516709  1
