# generated using pymatgen
data_Er3Tm7(In2Ir)4
_symmetry_space_group_name_H-M   'P 1'
_cell_length_a   3.60995800
_cell_length_b   7.95961800
_cell_length_c   18.17769300
_cell_angle_alpha   90.00208709
_cell_angle_beta   90.00000000
_cell_angle_gamma   90.00000000
_symmetry_Int_Tables_number   1
_chemical_formula_structural   Er3Tm7(In2Ir)4
_chemical_formula_sum   'Er3 Tm7 In8 Ir4'
_cell_volume   522.31577056
_cell_formula_units_Z   1
loop_
 _symmetry_equiv_pos_site_id
 _symmetry_equiv_pos_as_xyz
  1  'x, y, z'
loop_
 _atom_site_type_symbol
 _atom_site_label
 _atom_site_symmetry_multiplicity
 _atom_site_fract_x
 _atom_site_fract_y
 _atom_site_fract_z
 _atom_site_occupancy
  Er  Er0  1  0.000000  0.115776  0.411386  1
  Er  Er1  1  0.000000  0.999985  0.999938  1
  Er  Er2  1  0.000000  0.500075  0.500134  1
  Tm  Tm3  1  0.000000  0.884394  0.588876  1
  Tm  Tm4  1  0.000000  0.384375  0.911247  1
  Tm  Tm5  1  0.000000  0.615653  0.088741  1
  Tm  Tm6  1  0.000000  0.244947  0.221713  1
  Tm  Tm7  1  0.000000  0.755065  0.778179  1
  Tm  Tm8  1  0.000000  0.255180  0.721888  1
  Tm  Tm9  1  0.000000  0.744887  0.278053  1
  In  In10  1  0.500000  0.426923  0.350452  1
  In  In11  1  0.500000  0.573665  0.649559  1
  In  In12  1  0.500000  0.073854  0.850518  1
  In  In13  1  0.500000  0.926195  0.149337  1
  In  In14  1  0.500000  0.293497  0.067405  1
  In  In15  1  0.500000  0.706520  0.932551  1
  In  In16  1  0.500000  0.206747  0.567776  1
  In  In17  1  0.500000  0.792695  0.432473  1
  Ir  Ir18  1  0.500000  0.022042  0.303888  1
  Ir  Ir19  1  0.500000  0.977514  0.695859  1
  Ir  Ir20  1  0.500000  0.477607  0.804276  1
  Ir  Ir21  1  0.500000  0.522404  0.195751  1
