# generated using pymatgen
data_LiSc3In3AgPt
_symmetry_space_group_name_H-M   'P 1'
_cell_length_a   7.84663100
_cell_length_b   7.84663094
_cell_length_c   3.39279500
_cell_angle_alpha   90.00000000
_cell_angle_beta   90.00000000
_cell_angle_gamma   119.99999604
_symmetry_Int_Tables_number   1
_chemical_formula_structural   LiSc3In3AgPt
_chemical_formula_sum   'Li1 Sc3 In3 Ag1 Pt1'
_cell_volume   180.90673044
_cell_formula_units_Z   1
loop_
 _symmetry_equiv_pos_site_id
 _symmetry_equiv_pos_as_xyz
  1  'x, y, z'
loop_
 _atom_site_type_symbol
 _atom_site_label
 _atom_site_symmetry_multiplicity
 _atom_site_fract_x
 _atom_site_fract_y
 _atom_site_fract_z
 _atom_site_occupancy
  Li  Li0  1  0.000000  0.000000  0.000000  1
  Sc  Sc1  1  0.592605  0.972253  0.000000  1
  Sc  Sc2  1  0.379647  0.407395  0.000000  1
  Sc  Sc3  1  0.027747  0.620353  0.000000  1
  In  In4  1  0.731577  0.722040  0.500000  1
  In  In5  1  0.990463  0.268423  0.500000  1
  In  In6  1  0.277960  0.009537  0.500000  1
  Ag  Ag7  1  0.666667  0.333333  0.500000  1
  Pt  Pt8  1  0.333333  0.666667  0.500000  1
