# generated using pymatgen
data_Tb3Pr16YSn16
_symmetry_space_group_name_H-M   'P 1'
_cell_length_a   8.29321708
_cell_length_b   8.45655301
_cell_length_c   16.06153300
_cell_angle_alpha   90.00000000
_cell_angle_beta   90.00000000
_cell_angle_gamma   90.00538109
_symmetry_Int_Tables_number   1
_chemical_formula_structural   Tb3Pr16YSn16
_chemical_formula_sum   'Tb3 Pr16 Y1 Sn16'
_cell_volume   1126.42790749
_cell_formula_units_Z   1
loop_
 _symmetry_equiv_pos_site_id
 _symmetry_equiv_pos_as_xyz
  1  'x, y, z'
loop_
 _atom_site_type_symbol
 _atom_site_label
 _atom_site_symmetry_multiplicity
 _atom_site_fract_x
 _atom_site_fract_y
 _atom_site_fract_z
 _atom_site_occupancy
  Tb  Tb0  1  0.698986  0.998761  0.750000  1
  Tb  Tb1  1  0.800989  0.498717  0.250000  1
  Tb  Tb2  1  0.300986  0.001330  0.250000  1
  Pr  Pr3  1  0.367613  0.836814  0.879004  1
  Pr  Pr4  1  0.867593  0.663283  0.620891  1
  Pr  Pr5  1  0.632341  0.163286  0.378944  1
  Pr  Pr6  1  0.132310  0.336642  0.120940  1
  Pr  Pr7  1  0.632341  0.163286  0.121056  1
  Pr  Pr8  1  0.132310  0.336642  0.379060  1
  Pr  Pr9  1  0.367613  0.836814  0.620996  1
  Pr  Pr10  1  0.867593  0.663283  0.879109  1
  Pr  Pr11  1  0.519472  0.319425  0.901467  1
  Pr  Pr12  1  0.019436  0.180643  0.598523  1
  Pr  Pr13  1  0.480591  0.680629  0.401458  1
  Pr  Pr14  1  0.980528  0.819398  0.098609  1
  Pr  Pr15  1  0.480591  0.680629  0.098542  1
  Pr  Pr16  1  0.980528  0.819398  0.401391  1
  Pr  Pr17  1  0.519472  0.319425  0.598533  1
  Pr  Pr18  1  0.019436  0.180643  0.901477  1
  Y  Y19  1  0.199264  0.501128  0.750000  1
  Sn  Sn20  1  0.292491  0.034396  0.043508  1
  Sn  Sn21  1  0.792502  0.465485  0.456477  1
  Sn  Sn22  1  0.707490  0.965671  0.543558  1
  Sn  Sn23  1  0.207512  0.534343  0.956333  1
  Sn  Sn24  1  0.707490  0.965671  0.956442  1
  Sn  Sn25  1  0.207512  0.534343  0.543667  1
  Sn  Sn26  1  0.292491  0.034396  0.456492  1
  Sn  Sn27  1  0.792502  0.465485  0.043523  1
  Sn  Sn28  1  0.564856  0.616353  0.750000  1
  Sn  Sn29  1  0.065061  0.883645  0.750000  1
  Sn  Sn30  1  0.434929  0.383735  0.250000  1
  Sn  Sn31  1  0.934983  0.116284  0.250000  1
  Sn  Sn32  1  0.326126  0.146498  0.750000  1
  Sn  Sn33  1  0.825801  0.353721  0.750000  1
  Sn  Sn34  1  0.674039  0.853511  0.250000  1
  Sn  Sn35  1  0.174225  0.646286  0.250000  1
