# generated using pymatgen
data_Nd9Er11Si16
_symmetry_space_group_name_H-M   'P 1'
_cell_length_a   7.73588784
_cell_length_b   7.74309015
_cell_length_c   14.37243363
_cell_angle_alpha   89.87053442
_cell_angle_beta   90.23991819
_cell_angle_gamma   90.01287821
_symmetry_Int_Tables_number   1
_chemical_formula_structural   Nd9Er11Si16
_chemical_formula_sum   'Nd9 Er11 Si16'
_cell_volume   860.89436590
_cell_formula_units_Z   1
loop_
 _symmetry_equiv_pos_site_id
 _symmetry_equiv_pos_as_xyz
  1  'x, y, z'
loop_
 _atom_site_type_symbol
 _atom_site_label
 _atom_site_symmetry_multiplicity
 _atom_site_fract_x
 _atom_site_fract_y
 _atom_site_fract_z
 _atom_site_occupancy
  Nd  Nd0  1  0.013311  0.862505  0.125816  1
  Nd  Nd1  1  0.638240  0.991719  0.459188  1
  Nd  Nd2  1  0.363358  0.007138  0.954230  1
  Nd  Nd3  1  0.989791  0.639880  0.542184  1
  Nd  Nd4  1  0.492013  0.862186  0.207392  1
  Nd  Nd5  1  0.508972  0.138510  0.707463  1
  Nd  Nd6  1  0.860690  0.489328  0.790755  1
  Nd  Nd7  1  0.136104  0.510697  0.294967  1
  Nd  Nd8  1  0.009985  0.361971  0.042852  1
  Er  Er9  1  0.488218  0.361036  0.123768  1
  Er  Er10  1  0.991073  0.136880  0.625124  1
  Er  Er11  1  0.863112  0.008320  0.873621  1
  Er  Er12  1  0.137019  0.991951  0.376200  1
  Er  Er13  1  0.508590  0.637363  0.624888  1
  Er  Er14  1  0.364808  0.488995  0.872797  1
  Er  Er15  1  0.636480  0.509626  0.377544  1
  Er  Er16  1  0.315279  0.316665  0.500794  1
  Er  Er17  1  0.183671  0.815157  0.748505  1
  Er  Er18  1  0.813872  0.186022  0.250834  1
  Er  Er19  1  0.685992  0.682562  0.999735  1
  Si  Si20  1  0.287955  0.934510  0.561897  1
  Si  Si21  1  0.709391  0.068260  0.060133  1
  Si  Si22  1  0.933437  0.289243  0.439158  1
  Si  Si23  1  0.434585  0.214067  0.313215  1
  Si  Si24  1  0.567303  0.786577  0.811088  1
  Si  Si25  1  0.211553  0.433750  0.687408  1
  Si  Si26  1  0.783686  0.562669  0.190335  1
  Si  Si27  1  0.067728  0.706958  0.934290  1
  Si  Si28  1  0.798132  0.844671  0.689659  1
  Si  Si29  1  0.201830  0.162993  0.195914  1
  Si  Si30  1  0.841509  0.798583  0.313757  1
  Si  Si31  1  0.343934  0.702575  0.441601  1
  Si  Si32  1  0.656224  0.297310  0.939571  1
  Si  Si33  1  0.701591  0.345433  0.561019  1
  Si  Si34  1  0.305152  0.653231  0.054198  1
  Si  Si35  1  0.155412  0.200655  0.808099  1
