# generated using pymatgen
data_K6TbWF12
_symmetry_space_group_name_H-M   'P 1'
_cell_length_a   6.69074173
_cell_length_b   6.45692813
_cell_length_c   11.22282600
_cell_angle_alpha   55.27443748
_cell_angle_beta   90.05177458
_cell_angle_gamma   89.95580738
_symmetry_Int_Tables_number   1
_chemical_formula_structural   K6TbWF12
_chemical_formula_sum   'K6 Tb1 W1 F12'
_cell_volume   398.48816006
_cell_formula_units_Z   1
loop_
 _symmetry_equiv_pos_site_id
 _symmetry_equiv_pos_as_xyz
  1  'x, y, z'
loop_
 _atom_site_type_symbol
 _atom_site_label
 _atom_site_symmetry_multiplicity
 _atom_site_fract_x
 _atom_site_fract_y
 _atom_site_fract_z
 _atom_site_occupancy
  K  K0  1  0.500000  0.500000  0.000000  1
  K  K1  1  0.000000  0.500000  0.500000  1
  K  K2  1  0.048082  0.723538  0.762137  1
  K  K3  1  0.951918  0.276462  0.237863  1
  K  K4  1  0.551147  0.258789  0.753300  1
  K  K5  1  0.448853  0.741211  0.246700  1
  Tb  Tb6  1  0.500000  0.000000  0.500000  1
  W  W7  1  0.000000  0.000000  0.000000  1
  F  F8  1  0.773052  0.762389  0.571632  1
  F  F9  1  0.226948  0.237611  0.428368  1
  F  F10  1  0.261990  0.230298  0.936376  1
  F  F11  1  0.738010  0.769702  0.063624  1
  F  F12  1  0.442779  0.885898  0.724661  1
  F  F13  1  0.557221  0.114102  0.275339  1
  F  F14  1  0.944009  0.108064  0.784187  1
  F  F15  1  0.055991  0.891936  0.215813  1
  F  F16  1  0.327439  0.667284  0.551898  1
  F  F17  1  0.672561  0.332716  0.448102  1
  F  F18  1  0.826689  0.316768  0.952498  1
  F  F19  1  0.173311  0.683232  0.047502  1
