# generated using pymatgen
data_GdDy2(GeRh)4
_symmetry_space_group_name_H-M   'P 1'
_cell_length_a   11.47863300
_cell_length_b   11.56675649
_cell_length_c   6.24603400
_cell_angle_alpha   90.00000000
_cell_angle_beta   90.00000000
_cell_angle_gamma   119.74828571
_symmetry_Int_Tables_number   1
_chemical_formula_structural   GdDy2(GeRh)4
_chemical_formula_sum   'Gd1 Dy2 Ge4 Rh4'
_cell_volume   720.00037457
_cell_formula_units_Z   1
loop_
 _symmetry_equiv_pos_site_id
 _symmetry_equiv_pos_as_xyz
  1  'x, y, z'
loop_
 _atom_site_type_symbol
 _atom_site_label
 _atom_site_symmetry_multiplicity
 _atom_site_fract_x
 _atom_site_fract_y
 _atom_site_fract_z
 _atom_site_occupancy
  Gd  Gd0  1  0.988262  0.976524  0.000000  1
  Dy  Dy1  1  0.535852  0.071705  0.000000  1
  Dy  Dy2  1  0.212713  0.425426  0.500000  1
  Ge  Ge3  1  0.335436  0.670874  0.000000  1
  Ge  Ge4  1  0.806343  0.612686  0.500000  1
  Ge  Ge5  1  0.396939  0.195064  0.500000  1
  Ge  Ge6  1  0.798125  0.195064  0.500000  1
  Rh  Rh7  1  0.934286  0.461584  0.000000  1
  Rh  Rh8  1  0.527297  0.461584  0.000000  1
  Rh  Rh9  1  0.601145  0.798078  0.500000  1
  Rh  Rh10  1  0.196934  0.798078  0.500000  1
