# generated using pymatgen
data_BaGa6IrAu3
_symmetry_space_group_name_H-M   'P 1'
_cell_length_a   7.74950800
_cell_length_b   7.74950818
_cell_length_c   4.13121700
_cell_angle_alpha   90.00000000
_cell_angle_beta   90.00000000
_cell_angle_gamma   119.99999924
_symmetry_Int_Tables_number   1
_chemical_formula_structural   BaGa6IrAu3
_chemical_formula_sum   'Ba1 Ga6 Ir1 Au3'
_cell_volume   214.86066451
_cell_formula_units_Z   1
loop_
 _symmetry_equiv_pos_site_id
 _symmetry_equiv_pos_as_xyz
  1  'x, y, z'
loop_
 _atom_site_type_symbol
 _atom_site_label
 _atom_site_symmetry_multiplicity
 _atom_site_fract_x
 _atom_site_fract_y
 _atom_site_fract_z
 _atom_site_occupancy
  Ba  Ba0  1  0.000000  0.000000  0.000000  1
  Ga  Ga1  1  0.523692  0.476308  0.000000  1
  Ga  Ga2  1  0.206990  0.793010  0.500000  1
  Ga  Ga3  1  0.523692  0.047383  0.000000  1
  Ga  Ga4  1  0.206990  0.413978  0.500000  1
  Ga  Ga5  1  0.952617  0.476308  0.000000  1
  Ga  Ga6  1  0.586022  0.793010  0.500000  1
  Ir  Ir7  1  0.333333  0.666667  0.000000  1
  Au  Au8  1  0.795950  0.204050  0.500000  1
  Au  Au9  1  0.795950  0.591901  0.500000  1
  Au  Au10  1  0.408099  0.204050  0.500000  1
