# generated using pymatgen
data_Pr8Lu12Si15Cl
_symmetry_space_group_name_H-M   'P 1'
_cell_length_a   7.53628159
_cell_length_b   7.70171727
_cell_length_c   14.61857400
_cell_angle_alpha   89.75394270
_cell_angle_beta   87.44846462
_cell_angle_gamma   90.03278324
_symmetry_Int_Tables_number   1
_chemical_formula_structural   Pr8Lu12Si15Cl
_chemical_formula_sum   'Pr8 Lu12 Si15 Cl1'
_cell_volume   847.64652851
_cell_formula_units_Z   1
loop_
 _symmetry_equiv_pos_site_id
 _symmetry_equiv_pos_as_xyz
  1  'x, y, z'
loop_
 _atom_site_type_symbol
 _atom_site_label
 _atom_site_symmetry_multiplicity
 _atom_site_fract_x
 _atom_site_fract_y
 _atom_site_fract_z
 _atom_site_occupancy
  Pr  Pr0  1  0.990577  0.169974  0.396737  1
  Pr  Pr1  1  0.501964  0.313079  0.398686  1
  Pr  Pr2  1  0.487401  0.675555  0.901931  1
  Pr  Pr3  1  0.509856  0.684949  0.600438  1
  Pr  Pr4  1  0.001442  0.831340  0.599336  1
  Pr  Pr5  1  0.986215  0.828877  0.900245  1
  Pr  Pr6  1  0.514047  0.325126  0.099065  1
  Pr  Pr7  1  0.013573  0.176538  0.098956  1
  Lu  Lu8  1  0.358079  0.158261  0.624266  1
  Lu  Lu9  1  0.645537  0.830848  0.377874  1
  Lu  Lu10  1  0.673100  0.997308  0.748769  1
  Lu  Lu11  1  0.144550  0.670021  0.374764  1
  Lu  Lu12  1  0.830487  0.325966  0.874603  1
  Lu  Lu13  1  0.838943  0.333576  0.620376  1
  Lu  Lu14  1  0.827715  0.496741  0.253726  1
  Lu  Lu15  1  0.327159  0.002141  0.251437  1
  Lu  Lu16  1  0.329462  0.176322  0.874805  1
  Lu  Lu17  1  0.168579  0.675380  0.124285  1
  Lu  Lu18  1  0.668227  0.823930  0.123725  1
  Lu  Lu19  1  0.170253  0.505335  0.756844  1
  Si  Si20  1  0.296606  0.874426  0.750958  1
  Si  Si21  1  0.452648  0.619502  0.249821  1
  Si  Si22  1  0.045643  0.128716  0.746788  1
  Si  Si23  1  0.542203  0.381067  0.748360  1
  Si  Si24  1  0.952241  0.877931  0.248620  1
  Si  Si25  1  0.703689  0.120929  0.247692  1
  Si  Si26  1  0.850014  0.534157  0.039154  1
  Si  Si27  1  0.348889  0.967834  0.039681  1
  Si  Si28  1  0.148223  0.469544  0.959637  1
  Si  Si29  1  0.690662  0.038973  0.543504  1
  Si  Si30  1  0.303947  0.957395  0.458679  1
  Si  Si31  1  0.807940  0.536861  0.455741  1
  Si  Si32  1  0.798625  0.625709  0.749748  1
  Si  Si33  1  0.206761  0.377301  0.249195  1
  Si  Si34  1  0.648518  0.034748  0.959414  1
  Cl  Cl35  1  0.216223  0.453643  0.552137  1
