# generated using pymatgen
data_CrCd2Ni2SbO8
_symmetry_space_group_name_H-M   'P 1'
_cell_length_a   6.32933352
_cell_length_b   6.26010032
_cell_length_c   6.25792389
_cell_angle_alpha   59.81297884
_cell_angle_beta   90.65371703
_cell_angle_gamma   120.19066701
_symmetry_Int_Tables_number   1
_chemical_formula_structural   CrCd2Ni2SbO8
_chemical_formula_sum   'Cr1 Cd2 Ni2 Sb1 O8'
_cell_volume   175.31531978
_cell_formula_units_Z   1
loop_
 _symmetry_equiv_pos_site_id
 _symmetry_equiv_pos_as_xyz
  1  'x, y, z'
loop_
 _atom_site_type_symbol
 _atom_site_label
 _atom_site_symmetry_multiplicity
 _atom_site_fract_x
 _atom_site_fract_y
 _atom_site_fract_z
 _atom_site_occupancy
  Cr  Cr0  1  0.374885  0.749977  0.375181  1
  Cd  Cd1  1  0.968966  0.982262  0.013431  1
  Cd  Cd2  1  0.780866  0.517611  0.736626  1
  Ni  Ni3  1  0.375580  0.250341  0.375199  1
  Ni  Ni4  1  0.374693  0.749730  0.874733  1
  Sb  Sb5  1  0.875095  0.249986  0.374976  1
  O  O6  1  0.120985  0.272848  0.151838  1
  O  O7  1  0.621619  0.217949  0.168742  1
  O  O8  1  0.556290  0.708801  0.152461  1
  O  O9  1  0.128406  0.709688  0.153572  1
  O  O10  1  0.629159  0.227097  0.598195  1
  O  O11  1  0.128397  0.282112  0.581285  1
  O  O12  1  0.193524  0.791276  0.597420  1
  O  O13  1  0.621539  0.790320  0.596339  1
