# generated using pymatgen
data_EuCo(P4Os)3
_symmetry_space_group_name_H-M   'P 1'
_cell_length_a   6.96049084
_cell_length_b   7.00233758
_cell_length_c   6.96048992
_cell_angle_alpha   109.59305539
_cell_angle_beta   109.34911318
_cell_angle_gamma   109.59306085
_symmetry_Int_Tables_number   1
_chemical_formula_structural   EuCo(P4Os)3
_chemical_formula_sum   'Eu1 Co1 P12 Os3'
_cell_volume   260.76276230
_cell_formula_units_Z   1
loop_
 _symmetry_equiv_pos_site_id
 _symmetry_equiv_pos_as_xyz
  1  'x, y, z'
loop_
 _atom_site_type_symbol
 _atom_site_label
 _atom_site_symmetry_multiplicity
 _atom_site_fract_x
 _atom_site_fract_y
 _atom_site_fract_z
 _atom_site_occupancy
  Eu  Eu0  1  0.000000  0.000000  0.000000  1
  Co  Co1  1  0.000000  0.500000  0.000000  1
  P  P2  1  0.358541  0.215522  0.858103  1
  P  P3  1  0.641459  0.784478  0.141897  1
  P  P4  1  0.651718  0.500950  0.860086  1
  P  P5  1  0.348282  0.499050  0.139914  1
  P  P6  1  0.208368  0.849232  0.348282  1
  P  P7  1  0.791632  0.150768  0.651718  1
  P  P8  1  0.499562  0.856981  0.641459  1
  P  P9  1  0.500438  0.143019  0.358541  1
  P  P10  1  0.860086  0.359136  0.208368  1
  P  P11  1  0.139914  0.640864  0.791632  1
  P  P12  1  0.858103  0.642581  0.499562  1
  P  P13  1  0.141897  0.357419  0.500438  1
  Os  Os14  1  0.000000  0.000000  0.500000  1
  Os  Os15  1  0.500000  0.000000  0.000000  1
  Os  Os16  1  0.500000  0.500000  0.500000  1
