# generated using pymatgen
data_La4DyP12Ru15Rh4
_symmetry_space_group_name_H-M   'P 1'
_cell_length_a   12.72351395
_cell_length_b   12.69075720
_cell_length_c   4.01857100
_cell_angle_alpha   90.00000000
_cell_angle_beta   90.00000000
_cell_angle_gamma   120.15737595
_symmetry_Int_Tables_number   1
_chemical_formula_structural   La4DyP12Ru15Rh4
_chemical_formula_sum   'La4 Dy1 P12 Ru15 Rh4'
_cell_volume   561.05570394
_cell_formula_units_Z   1
loop_
 _symmetry_equiv_pos_site_id
 _symmetry_equiv_pos_as_xyz
  1  'x, y, z'
loop_
 _atom_site_type_symbol
 _atom_site_label
 _atom_site_symmetry_multiplicity
 _atom_site_fract_x
 _atom_site_fract_y
 _atom_site_fract_z
 _atom_site_occupancy
  La  La0  1  0.666078  0.332973  0.000000  1
  La  La1  1  0.816271  0.000469  0.500000  1
  La  La2  1  0.182777  0.183138  0.500000  1
  La  La3  1  0.000266  0.816407  0.500000  1
  Dy  Dy4  1  0.334447  0.667329  0.000000  1
  P  P5  1  0.623587  0.993507  0.000000  1
  P  P6  1  0.369095  0.375532  0.000000  1
  P  P7  1  0.001232  0.629997  0.000000  1
  P  P8  1  0.694546  0.526247  0.500000  1
  P  P9  1  0.831714  0.305873  0.500000  1
  P  P10  1  0.309014  0.829226  0.500000  1
  P  P11  1  0.521224  0.694827  0.500000  1
  P  P12  1  0.187737  0.998196  0.000000  1
  P  P13  1  0.810826  0.811510  0.000000  1
  P  P14  1  0.999562  0.189160  0.000000  1
  P  P15  1  0.472690  0.167914  0.500000  1
  P  P16  1  0.176301  0.478166  0.500000  1
  Ru  Ru17  1  0.617406  0.800150  0.000000  1
  Ru  Ru18  1  0.183058  0.382844  0.000000  1
  Ru  Ru19  1  0.378215  0.184289  0.000000  1
  Ru  Ru20  1  0.198579  0.813943  0.000000  1
  Ru  Ru21  1  0.804657  0.620230  0.000000  1
  Ru  Ru22  1  0.368073  0.493432  0.500000  1
  Ru  Ru23  1  0.507916  0.874325  0.500000  1
  Ru  Ru24  1  0.999531  0.000109  0.000000  1
  Ru  Ru25  1  0.712340  0.713173  0.500000  1
  Ru  Ru26  1  0.000825  0.288878  0.500000  1
  Ru  Ru27  1  0.448701  0.002952  0.000000  1
  Ru  Ru28  1  0.553721  0.550254  0.000000  1
  Ru  Ru29  1  0.998115  0.448058  0.000000  1
  Ru  Ru30  1  0.814669  0.194714  0.000000  1
  Ru  Ru31  1  0.285902  0.997859  0.500000  1
  Rh  Rh32  1  0.874805  0.508967  0.500000  1
  Rh  Rh33  1  0.492368  0.365863  0.500000  1
  Rh  Rh34  1  0.633357  0.126851  0.500000  1
  Rh  Rh35  1  0.130395  0.632635  0.500000  1
