# generated using pymatgen
data_Y4Tm16Cd3Ag3Pd2
_symmetry_space_group_name_H-M   'P 1'
_cell_length_a   9.56407411
_cell_length_b   9.56144126
_cell_length_c   9.56266700
_cell_angle_alpha   90.00000000
_cell_angle_beta   90.00000000
_cell_angle_gamma   119.99089086
_symmetry_Int_Tables_number   1
_chemical_formula_structural   Y4Tm16Cd3Ag3Pd2
_chemical_formula_sum   'Y4 Tm16 Cd3 Ag3 Pd2'
_cell_volume   757.38345691
_cell_formula_units_Z   1
loop_
 _symmetry_equiv_pos_site_id
 _symmetry_equiv_pos_as_xyz
  1  'x, y, z'
loop_
 _atom_site_type_symbol
 _atom_site_label
 _atom_site_symmetry_multiplicity
 _atom_site_fract_x
 _atom_site_fract_y
 _atom_site_fract_z
 _atom_site_occupancy
  Y  Y0  1  0.913715  0.456858  0.250000  1
  Y  Y1  1  0.457837  0.542069  0.750000  1
  Y  Y2  1  0.457837  0.915768  0.750000  1
  Y  Y3  1  0.083423  0.541711  0.750000  1
  Tm  Tm4  1  0.001318  0.000659  0.474086  1
  Tm  Tm5  1  0.001318  0.000659  0.025914  1
  Tm  Tm6  1  0.209098  0.792844  0.443625  1
  Tm  Tm7  1  0.209098  0.416255  0.443625  1
  Tm  Tm8  1  0.584234  0.792118  0.443118  1
  Tm  Tm9  1  0.791818  0.206510  0.554308  1
  Tm  Tm10  1  0.791818  0.585308  0.554308  1
  Tm  Tm11  1  0.415493  0.207746  0.553677  1
  Tm  Tm12  1  0.791818  0.206510  0.945692  1
  Tm  Tm13  1  0.791818  0.585308  0.945692  1
  Tm  Tm14  1  0.415493  0.207746  0.946323  1
  Tm  Tm15  1  0.209098  0.792844  0.056375  1
  Tm  Tm16  1  0.209098  0.416255  0.056375  1
  Tm  Tm17  1  0.584234  0.792118  0.056882  1
  Tm  Tm18  1  0.541733  0.457246  0.250000  1
  Tm  Tm19  1  0.541733  0.084486  0.250000  1
  Cd  Cd20  1  0.110877  0.889731  0.750000  1
  Cd  Cd21  1  0.110877  0.221144  0.750000  1
  Cd  Cd22  1  0.778958  0.889478  0.750000  1
  Ag  Ag23  1  0.874106  0.119657  0.250000  1
  Ag  Ag24  1  0.874106  0.754450  0.250000  1
  Ag  Ag25  1  0.248258  0.124130  0.250000  1
  Pd  Pd26  1  0.333573  0.666787  0.250000  1
  Pd  Pd27  1  0.667213  0.333606  0.750000  1
