# generated using pymatgen
data_Gd3HoMn4O14
_symmetry_space_group_name_H-M   'P 1'
_cell_length_a   7.14096876
_cell_length_b   7.14441541
_cell_length_c   7.14096900
_cell_angle_alpha   60.01595150
_cell_angle_beta   59.99999427
_cell_angle_gamma   60.01595341
_symmetry_Int_Tables_number   1
_chemical_formula_structural   Gd3HoMn4O14
_chemical_formula_sum   'Gd3 Ho1 Mn4 O14'
_cell_volume   257.67402340
_cell_formula_units_Z   1
loop_
 _symmetry_equiv_pos_site_id
 _symmetry_equiv_pos_as_xyz
  1  'x, y, z'
loop_
 _atom_site_type_symbol
 _atom_site_label
 _atom_site_symmetry_multiplicity
 _atom_site_fract_x
 _atom_site_fract_y
 _atom_site_fract_z
 _atom_site_occupancy
  Gd  Gd0  1  0.625000  0.625000  0.625000  1
  Gd  Gd1  1  0.125000  0.625000  0.625000  1
  Gd  Gd2  1  0.625000  0.625000  0.125000  1
  Ho  Ho3  1  0.625000  0.125000  0.625000  1
  Mn  Mn4  1  0.125000  0.625000  0.125000  1
  Mn  Mn5  1  0.125000  0.125000  0.625000  1
  Mn  Mn6  1  0.625000  0.125000  0.125000  1
  Mn  Mn7  1  0.125000  0.125000  0.125000  1
  O  O8  1  0.748142  0.755573  0.748142  1
  O  O9  1  0.203755  0.796354  0.796137  1
  O  O10  1  0.203755  0.796354  0.203755  1
  O  O11  1  0.796137  0.796354  0.203755  1
  O  O12  1  0.795649  0.202502  0.795649  1
  O  O13  1  0.206200  0.202502  0.795649  1
  O  O14  1  0.454351  0.047498  0.043800  1
  O  O15  1  0.795649  0.202502  0.206200  1
  O  O16  1  0.046245  0.453646  0.046245  1
  O  O17  1  0.043800  0.047498  0.454351  1
  O  O18  1  0.453863  0.453646  0.046245  1
  O  O19  1  0.454351  0.047498  0.454351  1
  O  O20  1  0.046245  0.453646  0.453863  1
  O  O21  1  0.501858  0.494427  0.501858  1
