# generated using pymatgen
data_Zr4Ta4GeP3
_symmetry_space_group_name_H-M   'P 1'
_cell_length_a   3.57952600
_cell_length_b   6.96871767
_cell_length_c   8.43047416
_cell_angle_alpha   89.62454265
_cell_angle_beta   90.00000000
_cell_angle_gamma   90.00000000
_symmetry_Int_Tables_number   1
_chemical_formula_structural   Zr4Ta4GeP3
_chemical_formula_sum   'Zr4 Ta4 Ge1 P3'
_cell_volume   210.29118514
_cell_formula_units_Z   1
loop_
 _symmetry_equiv_pos_site_id
 _symmetry_equiv_pos_as_xyz
  1  'x, y, z'
loop_
 _atom_site_type_symbol
 _atom_site_label
 _atom_site_symmetry_multiplicity
 _atom_site_fract_x
 _atom_site_fract_y
 _atom_site_fract_z
 _atom_site_occupancy
  Zr  Zr0  1  0.250000  0.033181  0.670164  1
  Zr  Zr1  1  0.250000  0.531783  0.829920  1
  Zr  Zr2  1  0.750000  0.471405  0.162774  1
  Zr  Zr3  1  0.750000  0.958434  0.331331  1
  Ta  Ta4  1  0.750000  0.858940  0.939491  1
  Ta  Ta5  1  0.250000  0.642124  0.442372  1
  Ta  Ta6  1  0.750000  0.367667  0.566851  1
  Ta  Ta7  1  0.250000  0.136095  0.054847  1
  Ge  Ge8  1  0.250000  0.260739  0.357604  1
  P  P9  1  0.250000  0.764230  0.143667  1
  P  P10  1  0.750000  0.739968  0.643671  1
  P  P11  1  0.750000  0.235435  0.857307  1
