# generated using pymatgen
data_Dy2Y2Al4IrPt3
_symmetry_space_group_name_H-M   'P 1'
_cell_length_a   4.42734000
_cell_length_b   6.84529061
_cell_length_c   7.79326548
_cell_angle_alpha   90.09340337
_cell_angle_beta   90.00000000
_cell_angle_gamma   90.00000000
_symmetry_Int_Tables_number   1
_chemical_formula_structural   Dy2Y2Al4IrPt3
_chemical_formula_sum   'Dy2 Y2 Al4 Ir1 Pt3'
_cell_volume   236.18573245
_cell_formula_units_Z   1
loop_
 _symmetry_equiv_pos_site_id
 _symmetry_equiv_pos_as_xyz
  1  'x, y, z'
loop_
 _atom_site_type_symbol
 _atom_site_label
 _atom_site_symmetry_multiplicity
 _atom_site_fract_x
 _atom_site_fract_y
 _atom_site_fract_z
 _atom_site_occupancy
  Dy  Dy0  1  0.750000  0.024729  0.680200  1
  Dy  Dy1  1  0.250000  0.966978  0.321251  1
  Y  Y2  1  0.250000  0.470073  0.180924  1
  Y  Y3  1  0.750000  0.531715  0.816974  1
  Al  Al4  1  0.250000  0.853231  0.935863  1
  Al  Al5  1  0.750000  0.145711  0.061702  1
  Al  Al6  1  0.750000  0.645272  0.438735  1
  Al  Al7  1  0.250000  0.359805  0.563467  1
  Ir  Ir8  1  0.250000  0.731610  0.617288  1
  Pt  Pt9  1  0.750000  0.271347  0.382309  1
  Pt  Pt10  1  0.750000  0.773737  0.118990  1
  Pt  Pt11  1  0.250000  0.225792  0.882296  1
