# generated using pymatgen
data_SrYb7(Si4Mo3)4
_symmetry_space_group_name_H-M   'P 1'
_cell_length_a   6.75569571
_cell_length_b   6.94074669
_cell_length_c   13.11772103
_cell_angle_alpha   90.13937365
_cell_angle_beta   89.98086287
_cell_angle_gamma   90.04763348
_symmetry_Int_Tables_number   1
_chemical_formula_structural   SrYb7(Si4Mo3)4
_chemical_formula_sum   'Sr1 Yb7 Si16 Mo12'
_cell_volume   615.08226691
_cell_formula_units_Z   1
loop_
 _symmetry_equiv_pos_site_id
 _symmetry_equiv_pos_as_xyz
  1  'x, y, z'
loop_
 _atom_site_type_symbol
 _atom_site_label
 _atom_site_symmetry_multiplicity
 _atom_site_fract_x
 _atom_site_fract_y
 _atom_site_fract_z
 _atom_site_occupancy
  Sr  Sr0  1  0.000452  0.164017  0.089385  1
  Yb  Yb1  1  0.498944  0.333712  0.091329  1
  Yb  Yb2  1  0.998719  0.166412  0.409138  1
  Yb  Yb3  1  0.501098  0.666810  0.590927  1
  Yb  Yb4  1  0.001775  0.834440  0.907133  1
  Yb  Yb5  1  0.502868  0.665223  0.907426  1
  Yb  Yb6  1  0.001200  0.833346  0.591234  1
  Yb  Yb7  1  0.498734  0.334370  0.410698  1
  Si  Si8  1  0.658131  0.043308  0.545216  1
  Si  Si9  1  0.158016  0.460653  0.951595  1
  Si  Si10  1  0.348480  0.950689  0.044598  1
  Si  Si11  1  0.842982  0.542641  0.454976  1
  Si  Si12  1  0.342115  0.957566  0.455411  1
  Si  Si13  1  0.841617  0.549722  0.044217  1
  Si  Si14  1  0.654457  0.043782  0.951392  1
  Si  Si15  1  0.157603  0.456091  0.545508  1
  Si  Si16  1  0.535251  0.373873  0.749010  1
  Si  Si17  1  0.035325  0.126784  0.749755  1
  Si  Si18  1  0.464606  0.624675  0.251596  1
  Si  Si19  1  0.963176  0.871182  0.252910  1
  Si  Si20  1  0.800914  0.630803  0.748985  1
  Si  Si21  1  0.301297  0.869838  0.749363  1
  Si  Si22  1  0.200905  0.372731  0.252572  1
  Si  Si23  1  0.695662  0.128804  0.252662  1
  Mo  Mo24  1  0.835760  0.330081  0.627716  1
  Mo  Mo25  1  0.335827  0.169755  0.870479  1
  Mo  Mo26  1  0.163830  0.669771  0.129330  1
  Mo  Mo27  1  0.663419  0.829380  0.373388  1
  Mo  Mo28  1  0.164810  0.669888  0.373415  1
  Mo  Mo29  1  0.662127  0.827461  0.129936  1
  Mo  Mo30  1  0.834330  0.333389  0.869869  1
  Mo  Mo31  1  0.335522  0.169612  0.627947  1
  Mo  Mo32  1  0.661269  0.010469  0.748905  1
  Mo  Mo33  1  0.161389  0.490339  0.748980  1
  Mo  Mo34  1  0.339461  0.987883  0.251709  1
  Mo  Mo35  1  0.837924  0.510499  0.251291  1
