# generated using pymatgen
data_Er6PdRh
_symmetry_space_group_name_H-M   'P 1'
_cell_length_a   6.35138700
_cell_length_b   7.06307300
_cell_length_c   9.42039100
_cell_angle_alpha   90.00000000
_cell_angle_beta   90.00000000
_cell_angle_gamma   90.00000000
_symmetry_Int_Tables_number   1
_chemical_formula_structural   Er6PdRh
_chemical_formula_sum   'Er12 Pd2 Rh2'
_cell_volume   422.60166089
_cell_formula_units_Z   2
loop_
 _symmetry_equiv_pos_site_id
 _symmetry_equiv_pos_as_xyz
  1  'x, y, z'
loop_
 _atom_site_type_symbol
 _atom_site_label
 _atom_site_symmetry_multiplicity
 _atom_site_fract_x
 _atom_site_fract_y
 _atom_site_fract_z
 _atom_site_occupancy
  Er  Er0  1  0.675470  0.184704  0.060133  1
  Er  Er1  1  0.175470  0.315296  0.939867  1
  Er  Er2  1  0.829204  0.677054  0.437836  1
  Er  Er3  1  0.329204  0.822946  0.562164  1
  Er  Er4  1  0.329204  0.822946  0.937836  1
  Er  Er5  1  0.829204  0.677054  0.062164  1
  Er  Er6  1  0.175470  0.315296  0.560133  1
  Er  Er7  1  0.675470  0.184704  0.439867  1
  Er  Er8  1  0.861520  0.973865  0.750000  1
  Er  Er9  1  0.361520  0.526135  0.250000  1
  Er  Er10  1  0.627906  0.465894  0.750000  1
  Er  Er11  1  0.127906  0.034106  0.250000  1
  Pd  Pd12  1  0.053866  0.612260  0.750000  1
  Pd  Pd13  1  0.553866  0.887740  0.250000  1
  Rh  Rh14  1  0.447360  0.114193  0.750000  1
  Rh  Rh15  1  0.947360  0.385807  0.250000  1
