# generated using pymatgen
data_Tm6Mn5AsO18
_symmetry_space_group_name_H-M   'P 1'
_cell_length_a   6.14849444
_cell_length_b   6.14849423
_cell_length_c   11.63527352
_cell_angle_alpha   89.58334330
_cell_angle_beta   89.58334103
_cell_angle_gamma   119.93833033
_symmetry_Int_Tables_number   1
_chemical_formula_structural   Tm6Mn5AsO18
_chemical_formula_sum   'Tm6 Mn5 As1 O18'
_cell_volume   381.12591254
_cell_formula_units_Z   1
loop_
 _symmetry_equiv_pos_site_id
 _symmetry_equiv_pos_as_xyz
  1  'x, y, z'
loop_
 _atom_site_type_symbol
 _atom_site_label
 _atom_site_symmetry_multiplicity
 _atom_site_fract_x
 _atom_site_fract_y
 _atom_site_fract_z
 _atom_site_occupancy
  Tm  Tm0  1  0.665396  0.323847  0.724796  1
  Tm  Tm1  1  0.002499  0.002499  0.766603  1
  Tm  Tm2  1  0.330695  0.667998  0.234870  1
  Tm  Tm3  1  0.667998  0.330695  0.234870  1
  Tm  Tm4  1  0.008054  0.008054  0.272770  1
  Tm  Tm5  1  0.323847  0.665396  0.724796  1
  Mn  Mn6  1  0.000562  0.334761  0.995482  1
  Mn  Mn7  1  0.996621  0.667440  0.497221  1
  Mn  Mn8  1  0.334761  0.000562  0.995482  1
  Mn  Mn9  1  0.667440  0.996621  0.497221  1
  Mn  Mn10  1  0.335755  0.335755  0.497773  1
  As  As11  1  0.666009  0.666009  0.998064  1
  O  O12  1  0.667478  0.330991  0.519498  1
  O  O13  1  0.631755  0.631755  0.839621  1
  O  O14  1  0.352932  0.998674  0.822675  1
  O  O15  1  0.693930  0.993282  0.661007  1
  O  O16  1  0.998674  0.352932  0.822675  1
  O  O17  1  0.330991  0.667478  0.519498  1
  O  O18  1  0.000543  0.315109  0.169402  1
  O  O19  1  0.364821  0.364821  0.333627  1
  O  O20  1  0.995537  0.640415  0.334283  1
  O  O21  1  0.311374  0.311374  0.661106  1
  O  O22  1  0.701822  0.701822  0.159273  1
  O  O23  1  0.953479  0.953479  0.971836  1
  O  O24  1  0.315109  0.000543  0.169402  1
  O  O25  1  0.378582  0.666400  0.018316  1
  O  O26  1  0.993282  0.693930  0.661007  1
  O  O27  1  0.640415  0.995537  0.334283  1
  O  O28  1  0.003238  0.003238  0.470216  1
  O  O29  1  0.666400  0.378582  0.018316  1
