# generated using pymatgen
data_Tb11ErTc4
_symmetry_space_group_name_H-M   'P 1'
_cell_length_a   6.26383168
_cell_length_b   7.43999486
_cell_length_c   9.24275743
_cell_angle_alpha   90.05082242
_cell_angle_beta   89.99757908
_cell_angle_gamma   90.05711498
_symmetry_Int_Tables_number   1
_chemical_formula_structural   Tb11ErTc4
_chemical_formula_sum   'Tb11 Er1 Tc4'
_cell_volume   430.73869011
_cell_formula_units_Z   1
loop_
 _symmetry_equiv_pos_site_id
 _symmetry_equiv_pos_as_xyz
  1  'x, y, z'
loop_
 _atom_site_type_symbol
 _atom_site_label
 _atom_site_symmetry_multiplicity
 _atom_site_fract_x
 _atom_site_fract_y
 _atom_site_fract_z
 _atom_site_occupancy
  Tb  Tb0  1  0.336178  0.675388  0.063009  1
  Tb  Tb1  1  0.163010  0.175312  0.435859  1
  Tb  Tb2  1  0.663604  0.325412  0.563139  1
  Tb  Tb3  1  0.837634  0.825005  0.937466  1
  Tb  Tb4  1  0.662396  0.325020  0.937553  1
  Tb  Tb5  1  0.837153  0.824535  0.562974  1
  Tb  Tb6  1  0.337358  0.674812  0.436410  1
  Tb  Tb7  1  0.872641  0.541935  0.249524  1
  Tb  Tb8  1  0.628008  0.043093  0.249017  1
  Tb  Tb9  1  0.128111  0.457008  0.750620  1
  Tb  Tb10  1  0.370956  0.957786  0.750674  1
  Er  Er11  1  0.161937  0.174918  0.063317  1
  Tc  Tc12  1  0.040637  0.887610  0.249751  1
  Tc  Tc13  1  0.458664  0.386553  0.248877  1
  Tc  Tc14  1  0.962082  0.112565  0.752220  1
  Tc  Tc15  1  0.539632  0.613050  0.749589  1
