# generated using pymatgen
data_KEu3Y4(CuSe3)4
_symmetry_space_group_name_H-M   'P 1'
_cell_length_a   4.06627200
_cell_length_b   10.67238301
_cell_length_c   13.54571100
_cell_angle_alpha   90.00408209
_cell_angle_beta   90.00000000
_cell_angle_gamma   90.00000000
_symmetry_Int_Tables_number   1
_chemical_formula_structural   KEu3Y4(CuSe3)4
_chemical_formula_sum   'K1 Eu3 Y4 Cu4 Se12'
_cell_volume   587.84067522
_cell_formula_units_Z   1
loop_
 _symmetry_equiv_pos_site_id
 _symmetry_equiv_pos_as_xyz
  1  'x, y, z'
loop_
 _atom_site_type_symbol
 _atom_site_label
 _atom_site_symmetry_multiplicity
 _atom_site_fract_x
 _atom_site_fract_y
 _atom_site_fract_z
 _atom_site_occupancy
  K  K0  1  0.750000  0.756629  0.000384  1
  Eu  Eu1  1  0.250000  0.239596  0.998778  1
  Eu  Eu2  1  0.750000  0.260230  0.497184  1
  Eu  Eu3  1  0.250000  0.740454  0.505127  1
  Y  Y4  1  0.750000  0.006739  0.253433  1
  Y  Y5  1  0.250000  0.991459  0.746748  1
  Y  Y6  1  0.750000  0.508069  0.250226  1
  Y  Y7  1  0.250000  0.494235  0.751074  1
  Cu  Cu8  1  0.750000  0.744406  0.715424  1
  Cu  Cu9  1  0.250000  0.255490  0.278282  1
  Cu  Cu10  1  0.750000  0.244799  0.775518  1
  Cu  Cu11  1  0.250000  0.755949  0.223127  1
  Se  Se12  1  0.750000  0.256191  0.169087  1
  Se  Se13  1  0.250000  0.743654  0.818356  1
  Se  Se14  1  0.750000  0.756444  0.336019  1
  Se  Se15  1  0.250000  0.244212  0.666344  1
  Se  Se16  1  0.750000  0.065251  0.887582  1
  Se  Se17  1  0.250000  0.945703  0.119282  1
  Se  Se18  1  0.750000  0.557800  0.605549  1
  Se  Se19  1  0.250000  0.434369  0.394337  1
  Se  Se20  1  0.750000  0.421346  0.890628  1
  Se  Se21  1  0.250000  0.568817  0.118081  1
  Se  Se22  1  0.750000  0.927030  0.603140  1
  Se  Se23  1  0.250000  0.081126  0.396289  1
