# generated using pymatgen
data_InPbIO6
_symmetry_space_group_name_H-M   'P 1'
_cell_length_a   5.49325800
_cell_length_b   5.49325989
_cell_length_c   5.34912300
_cell_angle_alpha   90.00000000
_cell_angle_beta   90.00000000
_cell_angle_gamma   120.00001273
_symmetry_Int_Tables_number   1
_chemical_formula_structural   InPbIO6
_chemical_formula_sum   'In1 Pb1 I1 O6'
_cell_volume   139.78909818
_cell_formula_units_Z   1
loop_
 _symmetry_equiv_pos_site_id
 _symmetry_equiv_pos_as_xyz
  1  'x, y, z'
loop_
 _atom_site_type_symbol
 _atom_site_label
 _atom_site_symmetry_multiplicity
 _atom_site_fract_x
 _atom_site_fract_y
 _atom_site_fract_z
 _atom_site_occupancy
  In  In0  1  0.333333  0.666666  0.499999  1
  Pb  Pb1  1  0.666667  0.333334  0.000000  1
  I  I2  1  0.000000  0.000000  0.499999  1
  O  O3  1  0.020231  0.296636  0.294293  1
  O  O4  1  0.703363  0.723594  0.294293  1
  O  O5  1  0.276406  0.979770  0.294293  1
  O  O6  1  0.276405  0.296636  0.705707  1
  O  O7  1  0.020231  0.723594  0.705707  1
  O  O8  1  0.703364  0.979770  0.705707  1
