# generated using pymatgen
data_Ta4NbSiB2
_symmetry_space_group_name_H-M   'P 1'
_cell_length_a   7.31263998
_cell_length_b   7.31264027
_cell_length_c   7.30924477
_cell_angle_alpha   129.41160900
_cell_angle_beta   129.41161111
_cell_angle_gamma   74.38425258
_symmetry_Int_Tables_number   1
_chemical_formula_structural   Ta4NbSiB2
_chemical_formula_sum   'Ta8 Nb2 Si2 B4'
_cell_volume   227.36586689
_cell_formula_units_Z   2
loop_
 _symmetry_equiv_pos_site_id
 _symmetry_equiv_pos_as_xyz
  1  'x, y, z'
loop_
 _atom_site_type_symbol
 _atom_site_label
 _atom_site_symmetry_multiplicity
 _atom_site_fract_x
 _atom_site_fract_y
 _atom_site_fract_z
 _atom_site_occupancy
  Ta  Ta0  1  0.999740  0.999064  0.998803  1
  Ta  Ta1  1  0.500936  0.500260  0.001197  1
  Ta  Ta2  1  0.805860  0.305841  0.835316  1
  Ta  Ta3  1  0.194159  0.694140  0.164684  1
  Ta  Ta4  1  0.470544  0.970525  0.164684  1
  Ta  Ta5  1  0.305813  0.471060  0.500000  1
  Ta  Ta6  1  0.028940  0.194187  0.500000  1
  Ta  Ta7  1  0.529475  0.029456  0.835316  1
  Nb  Nb8  1  0.693941  0.528947  0.500000  1
  Nb  Nb9  1  0.971053  0.806059  0.500000  1
  Si  Si10  1  0.249971  0.250029  0.000000  1
  Si  Si11  1  0.749971  0.750029  0.000000  1
  B  B12  1  0.118577  0.616088  0.734664  1
  B  B13  1  0.883912  0.381423  0.265336  1
  B  B14  1  0.614146  0.885854  0.500000  1
  B  B15  1  0.382961  0.117039  0.500000  1
