# generated using pymatgen
data_Ce2Co4SiP3
_symmetry_space_group_name_H-M   'P 1'
_cell_length_a   3.94145600
_cell_length_b   3.94145600
_cell_length_c   9.24014400
_cell_angle_alpha   90.00000000
_cell_angle_beta   90.00000000
_cell_angle_gamma   90.00000000
_symmetry_Int_Tables_number   1
_chemical_formula_structural   Ce2Co4SiP3
_chemical_formula_sum   'Ce2 Co4 Si1 P3'
_cell_volume   143.54633375
_cell_formula_units_Z   1
loop_
 _symmetry_equiv_pos_site_id
 _symmetry_equiv_pos_as_xyz
  1  'x, y, z'
loop_
 _atom_site_type_symbol
 _atom_site_label
 _atom_site_symmetry_multiplicity
 _atom_site_fract_x
 _atom_site_fract_y
 _atom_site_fract_z
 _atom_site_occupancy
  Ce  Ce0  1  0.000000  0.500000  0.250992  1
  Ce  Ce1  1  0.500000  0.000000  0.749008  1
  Co  Co2  1  0.500000  0.000000  0.122762  1
  Co  Co3  1  0.000000  0.000000  0.500000  1
  Co  Co4  1  0.500000  0.500000  0.500000  1
  Co  Co5  1  0.000000  0.500000  0.877238  1
  Si  Si6  1  0.000000  0.000000  0.000000  1
  P  P7  1  0.500000  0.500000  0.000000  1
  P  P8  1  0.500000  0.000000  0.369102  1
  P  P9  1  0.000000  0.500000  0.630898  1
