# generated using pymatgen
data_Yb6MnCrHN6
_symmetry_space_group_name_H-M   'P 1'
_cell_length_a   5.92064288
_cell_length_b   5.92064339
_cell_length_c   5.92064210
_cell_angle_alpha   96.45176683
_cell_angle_beta   96.45175020
_cell_angle_gamma   96.45175170
_symmetry_Int_Tables_number   1
_chemical_formula_structural   Yb6MnCrHN6
_chemical_formula_sum   'Yb6 Mn1 Cr1 H1 N6'
_cell_volume   203.27319627
_cell_formula_units_Z   1
loop_
 _symmetry_equiv_pos_site_id
 _symmetry_equiv_pos_as_xyz
  1  'x, y, z'
loop_
 _atom_site_type_symbol
 _atom_site_label
 _atom_site_symmetry_multiplicity
 _atom_site_fract_x
 _atom_site_fract_y
 _atom_site_fract_z
 _atom_site_occupancy
  Yb  Yb0  1  0.627666  0.111019  0.785412  1
  Yb  Yb1  1  0.111019  0.785412  0.627666  1
  Yb  Yb2  1  0.785412  0.627666  0.111019  1
  Yb  Yb3  1  0.372958  0.886816  0.214111  1
  Yb  Yb4  1  0.886816  0.214111  0.372958  1
  Yb  Yb5  1  0.214111  0.372958  0.886816  1
  Mn  Mn6  1  0.619527  0.619527  0.619527  1
  Cr  Cr7  1  0.384669  0.384669  0.384669  1
  H  H8  1  0.000357  0.000357  0.000357  1
  N  N9  1  0.724209  0.849070  0.468196  1
  N  N10  1  0.849070  0.468196  0.724209  1
  N  N11  1  0.468196  0.724209  0.849070  1
  N  N12  1  0.275626  0.150549  0.529815  1
  N  N13  1  0.150549  0.529815  0.275626  1
  N  N14  1  0.529815  0.275626  0.150549  1
