# generated using pymatgen
data_Lu4Sc2AlGaPt4
_symmetry_space_group_name_H-M   'P 1'
_cell_length_a   4.32162100
_cell_length_b   7.04891933
_cell_length_c   8.06321603
_cell_angle_alpha   90.32970881
_cell_angle_beta   90.00000000
_cell_angle_gamma   90.00000000
_symmetry_Int_Tables_number   1
_chemical_formula_structural   Lu4Sc2AlGaPt4
_chemical_formula_sum   'Lu4 Sc2 Al1 Ga1 Pt4'
_cell_volume   245.62372994
_cell_formula_units_Z   1
loop_
 _symmetry_equiv_pos_site_id
 _symmetry_equiv_pos_as_xyz
  1  'x, y, z'
loop_
 _atom_site_type_symbol
 _atom_site_label
 _atom_site_symmetry_multiplicity
 _atom_site_fract_x
 _atom_site_fract_y
 _atom_site_fract_z
 _atom_site_occupancy
  Lu  Lu0  1  0.250000  0.985634  0.328873  1
  Lu  Lu1  1  0.250000  0.446950  0.173379  1
  Lu  Lu2  1  0.750000  0.052712  0.678060  1
  Lu  Lu3  1  0.750000  0.513875  0.828272  1
  Sc  Sc4  1  0.250000  0.869007  0.938725  1
  Sc  Sc5  1  0.750000  0.633151  0.436790  1
  Al  Al6  1  0.250000  0.363505  0.563268  1
  Ga  Ga7  1  0.750000  0.136507  0.065460  1
  Pt  Pt8  1  0.250000  0.246550  0.871542  1
  Pt  Pt9  1  0.250000  0.742290  0.618287  1
  Pt  Pt10  1  0.750000  0.752026  0.116706  1
  Pt  Pt11  1  0.750000  0.257792  0.380638  1
