# generated using pymatgen
data_NaSr10Dy9Sn16
_symmetry_space_group_name_H-M   'P 1'
_cell_length_a   8.10478200
_cell_length_b   8.64929575
_cell_length_c   16.42082500
_cell_angle_alpha   90.00000000
_cell_angle_beta   90.00000000
_cell_angle_gamma   89.84232753
_symmetry_Int_Tables_number   1
_chemical_formula_structural   NaSr10Dy9Sn16
_chemical_formula_sum   'Na1 Sr10 Dy9 Sn16'
_cell_volume   1151.10625429
_cell_formula_units_Z   1
loop_
 _symmetry_equiv_pos_site_id
 _symmetry_equiv_pos_as_xyz
  1  'x, y, z'
loop_
 _atom_site_type_symbol
 _atom_site_label
 _atom_site_symmetry_multiplicity
 _atom_site_fract_x
 _atom_site_fract_y
 _atom_site_fract_z
 _atom_site_occupancy
  Na  Na0  1  0.663749  0.007918  0.250000  1
  Sr  Sr1  1  0.505781  0.679790  0.592290  1
  Sr  Sr2  1  0.004446  0.820369  0.909751  1
  Sr  Sr3  1  0.495218  0.313923  0.094999  1
  Sr  Sr4  1  0.990772  0.179337  0.404815  1
  Sr  Sr5  1  0.495218  0.313923  0.405001  1
  Sr  Sr6  1  0.990772  0.179337  0.095185  1
  Sr  Sr7  1  0.505781  0.679790  0.907710  1
  Sr  Sr8  1  0.004446  0.820369  0.590249  1
  Sr  Sr9  1  0.333208  0.986975  0.750000  1
  Sr  Sr10  1  0.165138  0.486121  0.250000  1
  Dy  Dy11  1  0.674643  0.167166  0.620634  1
  Dy  Dy12  1  0.175128  0.331777  0.878913  1
  Dy  Dy13  1  0.327749  0.834274  0.123973  1
  Dy  Dy14  1  0.825654  0.671282  0.376594  1
  Dy  Dy15  1  0.327749  0.834274  0.376027  1
  Dy  Dy16  1  0.825654  0.671282  0.123406  1
  Dy  Dy17  1  0.674643  0.167166  0.879366  1
  Dy  Dy18  1  0.175128  0.331777  0.621087  1
  Dy  Dy19  1  0.837594  0.510405  0.750000  1
  Sn  Sn20  1  0.662222  0.958172  0.460999  1
  Sn  Sn21  1  0.163000  0.540915  0.038229  1
  Sn  Sn22  1  0.337749  0.041774  0.960591  1
  Sn  Sn23  1  0.838184  0.461597  0.544396  1
  Sn  Sn24  1  0.337749  0.041774  0.539409  1
  Sn  Sn25  1  0.838184  0.461597  0.955604  1
  Sn  Sn26  1  0.662222  0.958172  0.039001  1
  Sn  Sn27  1  0.163000  0.540915  0.461771  1
  Sn  Sn28  1  0.477227  0.376921  0.750000  1
  Sn  Sn29  1  0.962005  0.142918  0.750000  1
  Sn  Sn30  1  0.535249  0.637484  0.250000  1
  Sn  Sn31  1  0.025641  0.871719  0.250000  1
  Sn  Sn32  1  0.731018  0.876067  0.750000  1
  Sn  Sn33  1  0.208563  0.609478  0.750000  1
  Sn  Sn34  1  0.285368  0.109135  0.250000  1
  Sn  Sn35  1  0.774152  0.384106  0.250000  1
