# generated using pymatgen
data_Be4V12Ga3PtN4
_symmetry_space_group_name_H-M   'P 1'
_cell_length_a   6.45777915
_cell_length_b   6.45777963
_cell_length_c   6.45777966
_cell_angle_alpha   89.78095081
_cell_angle_beta   90.21904661
_cell_angle_gamma   90.21904632
_symmetry_Int_Tables_number   1
_chemical_formula_structural   Be4V12Ga3PtN4
_chemical_formula_sum   'Be4 V12 Ga3 Pt1 N4'
_cell_volume   269.30234467
_cell_formula_units_Z   1
loop_
 _symmetry_equiv_pos_site_id
 _symmetry_equiv_pos_as_xyz
  1  'x, y, z'
loop_
 _atom_site_type_symbol
 _atom_site_label
 _atom_site_symmetry_multiplicity
 _atom_site_fract_x
 _atom_site_fract_y
 _atom_site_fract_z
 _atom_site_occupancy
  Be  Be0  1  0.176650  0.823350  0.323350  1
  Be  Be1  1  0.325498  0.179131  0.823219  1
  Be  Be2  1  0.820869  0.323219  0.174502  1
  Be  Be3  1  0.676781  0.674502  0.679131  1
  V  V4  1  0.792488  0.960356  0.373015  1
  V  V5  1  0.707046  0.038144  0.872130  1
  V  V6  1  0.205055  0.464011  0.131042  1
  V  V7  1  0.295797  0.537202  0.626257  1
  V  V8  1  0.961856  0.372130  0.792954  1
  V  V9  1  0.039644  0.873015  0.707512  1
  V  V10  1  0.462798  0.126257  0.204203  1
  V  V11  1  0.535989  0.631042  0.294945  1
  V  V12  1  0.368958  0.794945  0.964011  1
  V  V13  1  0.873743  0.704203  0.037202  1
  V  V14  1  0.126985  0.207512  0.460356  1
  V  V15  1  0.627870  0.292954  0.538144  1
  Ga  Ga16  1  0.425048  0.926095  0.575103  1
  Ga  Ga17  1  0.924897  0.574952  0.426095  1
  Ga  Ga18  1  0.073905  0.075103  0.074952  1
  Pt  Pt19  1  0.573258  0.426742  0.926742  1
  N  N20  1  0.875315  0.124685  0.624685  1
  N  N21  1  0.625904  0.874700  0.121653  1
  N  N22  1  0.125300  0.621653  0.874096  1
  N  N23  1  0.378347  0.374096  0.374700  1
