# generated using pymatgen
data_PuTa3F20
_symmetry_space_group_name_H-M   'P 1'
_cell_length_a   9.08533310
_cell_length_b   9.08533332
_cell_length_c   5.35033356
_cell_angle_alpha   86.53380463
_cell_angle_beta   86.53380284
_cell_angle_gamma   112.67387466
_symmetry_Int_Tables_number   1
_chemical_formula_structural   PuTa3F20
_chemical_formula_sum   'Pu1 Ta3 F20'
_cell_volume   405.07069777
_cell_formula_units_Z   1
loop_
 _symmetry_equiv_pos_site_id
 _symmetry_equiv_pos_as_xyz
  1  'x, y, z'
loop_
 _atom_site_type_symbol
 _atom_site_label
 _atom_site_symmetry_multiplicity
 _atom_site_fract_x
 _atom_site_fract_y
 _atom_site_fract_z
 _atom_site_occupancy
  Pu  Pu0  1  0.800869  0.199131  0.500000  1
  Ta  Ta1  1  0.747975  0.738122  0.250169  1
  Ta  Ta2  1  0.261878  0.252025  0.749831  1
  Ta  Ta3  1  0.196888  0.803112  0.500000  1
  F  F4  1  0.278080  0.450398  0.846072  1
  F  F5  1  0.336829  0.328083  0.410639  1
  F  F6  1  0.457584  0.261206  0.847951  1
  F  F7  1  0.039758  0.215231  0.623055  1
  F  F8  1  0.671917  0.663171  0.589361  1
  F  F9  1  0.549602  0.721920  0.153928  1
  F  F10  1  0.864768  0.864599  0.956088  1
  F  F11  1  0.975083  0.784119  0.377962  1
  F  F12  1  0.165586  0.606092  0.381576  1
  F  F13  1  0.912879  0.308626  0.166556  1
  F  F14  1  0.586805  0.163232  0.369661  1
  F  F15  1  0.836768  0.413195  0.630339  1
  F  F16  1  0.784769  0.960242  0.376945  1
  F  F17  1  0.691374  0.087121  0.833444  1
  F  F18  1  0.215881  0.024917  0.622038  1
  F  F19  1  0.393908  0.834414  0.618424  1
  F  F20  1  0.135401  0.135232  0.043912  1
  F  F21  1  0.738794  0.542416  0.152049  1
  F  F22  1  0.280273  0.923668  0.187962  1
  F  F23  1  0.076332  0.719727  0.812038  1
