# generated using pymatgen
data_Li3Tm8Sc8Si16Rh
_symmetry_space_group_name_H-M   'P 1'
_cell_length_a   6.78079270
_cell_length_b   7.39640702
_cell_length_c   13.88011300
_cell_angle_alpha   90.00000000
_cell_angle_beta   90.00000000
_cell_angle_gamma   89.96629096
_symmetry_Int_Tables_number   1
_chemical_formula_structural   Li3Tm8Sc8Si16Rh
_chemical_formula_sum   'Li3 Tm8 Sc8 Si16 Rh1'
_cell_volume   696.13616434
_cell_formula_units_Z   1
loop_
 _symmetry_equiv_pos_site_id
 _symmetry_equiv_pos_as_xyz
  1  'x, y, z'
loop_
 _atom_site_type_symbol
 _atom_site_label
 _atom_site_symmetry_multiplicity
 _atom_site_fract_x
 _atom_site_fract_y
 _atom_site_fract_z
 _atom_site_occupancy
  Li  Li0  1  0.843598  0.490501  0.250000  1
  Li  Li1  1  0.342273  0.009031  0.250000  1
  Li  Li2  1  0.656550  0.983746  0.750000  1
  Tm  Tm3  1  0.013670  0.184137  0.095318  1
  Tm  Tm4  1  0.989341  0.817441  0.902710  1
  Tm  Tm5  1  0.491290  0.681446  0.903147  1
  Tm  Tm6  1  0.989341  0.817441  0.597290  1
  Tm  Tm7  1  0.513668  0.317152  0.096079  1
  Tm  Tm8  1  0.013670  0.184137  0.404682  1
  Tm  Tm9  1  0.513668  0.317152  0.403921  1
  Tm  Tm10  1  0.491290  0.681446  0.596853  1
  Sc  Sc11  1  0.325128  0.174140  0.628890  1
  Sc  Sc12  1  0.671979  0.822100  0.373680  1
  Sc  Sc13  1  0.172524  0.675368  0.375331  1
  Sc  Sc14  1  0.671979  0.822100  0.126320  1
  Sc  Sc15  1  0.824662  0.323029  0.629737  1
  Sc  Sc16  1  0.325128  0.174140  0.871110  1
  Sc  Sc17  1  0.824662  0.323029  0.870263  1
  Sc  Sc18  1  0.172524  0.675368  0.124669  1
  Si  Si19  1  0.022610  0.093674  0.750000  1
  Si  Si20  1  0.975036  0.898730  0.250000  1
  Si  Si21  1  0.475182  0.597614  0.250000  1
  Si  Si22  1  0.509987  0.412251  0.750000  1
  Si  Si23  1  0.275556  0.864890  0.750000  1
  Si  Si24  1  0.721091  0.122203  0.250000  1
  Si  Si25  1  0.217635  0.377683  0.250000  1
  Si  Si26  1  0.793394  0.623313  0.750000  1
  Si  Si27  1  0.159339  0.465555  0.544319  1
  Si  Si28  1  0.839315  0.535654  0.466710  1
  Si  Si29  1  0.339607  0.963115  0.465827  1
  Si  Si30  1  0.839315  0.535654  0.033290  1
  Si  Si31  1  0.661359  0.036609  0.536116  1
  Si  Si32  1  0.159339  0.465555  0.955681  1
  Si  Si33  1  0.661359  0.036609  0.963884  1
  Si  Si34  1  0.339607  0.963115  0.034173  1
  Rh  Rh35  1  0.163329  0.534874  0.750000  1
