# generated using pymatgen
data_Pr5NdSi2GeSe14
_symmetry_space_group_name_H-M   'P 1'
_cell_length_a   10.75797277
_cell_length_b   10.75802499
_cell_length_c   6.06417865
_cell_angle_alpha   89.96128513
_cell_angle_beta   90.05071881
_cell_angle_gamma   119.93505461
_symmetry_Int_Tables_number   1
_chemical_formula_structural   Pr5NdSi2GeSe14
_chemical_formula_sum   'Pr5 Nd1 Si2 Ge1 Se14'
_cell_volume   608.20399286
_cell_formula_units_Z   1
loop_
 _symmetry_equiv_pos_site_id
 _symmetry_equiv_pos_as_xyz
  1  'x, y, z'
loop_
 _atom_site_type_symbol
 _atom_site_label
 _atom_site_symmetry_multiplicity
 _atom_site_fract_x
 _atom_site_fract_y
 _atom_site_fract_z
 _atom_site_occupancy
  Pr  Pr0  1  0.895454  0.691587  0.246060  1
  Pr  Pr1  1  0.308585  0.204429  0.245854  1
  Pr  Pr2  1  0.795882  0.104100  0.245973  1
  Pr  Pr3  1  0.437669  0.974729  0.749617  1
  Pr  Pr4  1  0.025323  0.463000  0.749537  1
  Nd  Nd5  1  0.537154  0.562320  0.749114  1
  Si  Si6  1  0.999633  0.999794  0.833288  1
  Si  Si7  1  0.333475  0.666572  0.338015  1
  Ge  Ge8  1  0.666598  0.333519  0.481855  1
  Se  Se9  1  0.000061  0.000041  0.459536  1
  Se  Se10  1  0.334020  0.666265  0.963637  1
  Se  Se11  1  0.774041  0.854726  0.980101  1
  Se  Se12  1  0.144853  0.919302  0.980683  1
  Se  Se13  1  0.080497  0.225370  0.980629  1
  Se  Se14  1  0.558853  0.810527  0.486167  1
  Se  Se15  1  0.188564  0.747495  0.484672  1
  Se  Se16  1  0.253551  0.441479  0.486243  1
  Se  Se17  1  0.827434  0.588663  0.724076  1
  Se  Se18  1  0.411832  0.241443  0.724468  1
  Se  Se19  1  0.760004  0.171174  0.724209  1
  Se  Se20  1  0.501154  0.076440  0.234487  1
  Se  Se21  1  0.923428  0.424486  0.234542  1
  Se  Se22  1  0.575270  0.499207  0.233292  1
