# generated using pymatgen
data_HoFe3NiP3W
_symmetry_space_group_name_H-M   'P 1'
_cell_length_a   3.70780800
_cell_length_b   10.32868900
_cell_length_c   12.06439700
_cell_angle_alpha   90.00000000
_cell_angle_beta   90.00000000
_cell_angle_gamma   90.00000000
_symmetry_Int_Tables_number   1
_chemical_formula_structural   HoFe3NiP3W
_chemical_formula_sum   'Ho4 Fe12 Ni4 P12 W4'
_cell_volume   462.02774720
_cell_formula_units_Z   4
loop_
 _symmetry_equiv_pos_site_id
 _symmetry_equiv_pos_as_xyz
  1  'x, y, z'
loop_
 _atom_site_type_symbol
 _atom_site_label
 _atom_site_symmetry_multiplicity
 _atom_site_fract_x
 _atom_site_fract_y
 _atom_site_fract_z
 _atom_site_occupancy
  Ho  Ho0  1  0.250000  0.583050  0.709471  1
  Ho  Ho1  1  0.250000  0.916950  0.209471  1
  Ho  Ho2  1  0.750000  0.416950  0.290529  1
  Ho  Ho3  1  0.750000  0.083050  0.790529  1
  Fe  Fe4  1  0.250000  0.217365  0.172067  1
  Fe  Fe5  1  0.250000  0.282635  0.672067  1
  Fe  Fe6  1  0.750000  0.782635  0.827933  1
  Fe  Fe7  1  0.750000  0.717365  0.327933  1
  Fe  Fe8  1  0.250000  0.883933  0.698452  1
  Fe  Fe9  1  0.250000  0.616067  0.198452  1
  Fe  Fe10  1  0.750000  0.116067  0.301548  1
  Fe  Fe11  1  0.750000  0.383933  0.801548  1
  Fe  Fe12  1  0.250000  0.464123  0.935615  1
  Fe  Fe13  1  0.250000  0.035877  0.435615  1
  Fe  Fe14  1  0.750000  0.535877  0.064385  1
  Fe  Fe15  1  0.750000  0.964123  0.564385  1
  Ni  Ni16  1  0.250000  0.408249  0.484449  1
  Ni  Ni17  1  0.250000  0.091751  0.984449  1
  Ni  Ni18  1  0.750000  0.591751  0.515551  1
  Ni  Ni19  1  0.750000  0.908249  0.015551  1
  P  P20  1  0.250000  0.420983  0.114019  1
  P  P21  1  0.250000  0.079017  0.614019  1
  P  P22  1  0.750000  0.579017  0.885981  1
  P  P23  1  0.750000  0.920983  0.385981  1
  P  P24  1  0.250000  0.274134  0.856188  1
  P  P25  1  0.250000  0.225866  0.356188  1
  P  P26  1  0.750000  0.725866  0.143812  1
  P  P27  1  0.750000  0.774134  0.643812  1
  P  P28  1  0.250000  0.598987  0.383508  1
  P  P29  1  0.250000  0.901013  0.883508  1
  P  P30  1  0.750000  0.401013  0.616492  1
  P  P31  1  0.750000  0.098987  0.116492  1
  W  W32  1  0.250000  0.703684  0.992074  1
  W  W33  1  0.250000  0.796316  0.492074  1
  W  W34  1  0.750000  0.296316  0.007926  1
  W  W35  1  0.750000  0.203684  0.507926  1
