# generated using pymatgen
data_Li2Er3MgIn3
_symmetry_space_group_name_H-M   'P 1'
_cell_length_a   7.12313072
_cell_length_b   7.12313073
_cell_length_c   4.76655800
_cell_angle_alpha   90.00000000
_cell_angle_beta   90.00000000
_cell_angle_gamma   116.43816762
_symmetry_Int_Tables_number   1
_chemical_formula_structural   Li2Er3MgIn3
_chemical_formula_sum   'Li2 Er3 Mg1 In3'
_cell_volume   216.55651552
_cell_formula_units_Z   1
loop_
 _symmetry_equiv_pos_site_id
 _symmetry_equiv_pos_as_xyz
  1  'x, y, z'
loop_
 _atom_site_type_symbol
 _atom_site_label
 _atom_site_symmetry_multiplicity
 _atom_site_fract_x
 _atom_site_fract_y
 _atom_site_fract_z
 _atom_site_occupancy
  Li  Li0  1  0.236526  0.008724  0.500000  1
  Li  Li1  1  0.008724  0.236526  0.500000  1
  Er  Er2  1  0.553891  0.990536  0.000000  1
  Er  Er3  1  0.990536  0.553891  0.000000  1
  Er  Er4  1  0.437697  0.437697  0.000000  1
  Mg  Mg5  1  0.775987  0.775987  0.500000  1
  In  In6  1  0.321532  0.657010  0.500000  1
  In  In7  1  0.657010  0.321532  0.500000  1
  In  In8  1  0.018096  0.018096  0.000000  1
