# generated using pymatgen
data_EuGaGePt
_symmetry_space_group_name_H-M   'P 1'
_cell_length_a   9.32483129
_cell_length_b   9.32483178
_cell_length_c   4.17760500
_cell_angle_alpha   90.00000000
_cell_angle_beta   90.00000000
_cell_angle_gamma   152.51454146
_symmetry_Int_Tables_number   1
_chemical_formula_structural   EuGaGePt
_chemical_formula_sum   'Eu2 Ga2 Ge2 Pt2'
_cell_volume   167.64984723
_cell_formula_units_Z   2
loop_
 _symmetry_equiv_pos_site_id
 _symmetry_equiv_pos_as_xyz
  1  'x, y, z'
loop_
 _atom_site_type_symbol
 _atom_site_label
 _atom_site_symmetry_multiplicity
 _atom_site_fract_x
 _atom_site_fract_y
 _atom_site_fract_z
 _atom_site_occupancy
  Eu  Eu0  1  0.602833  0.397167  0.250000  1
  Eu  Eu1  1  0.397167  0.602833  0.750000  1
  Ga  Ga2  1  0.254595  0.745405  0.250000  1
  Ga  Ga3  1  0.745405  0.254595  0.750000  1
  Ge  Ge4  1  0.961119  0.038881  0.250000  1
  Ge  Ge5  1  0.038881  0.961119  0.750000  1
  Pt  Pt6  1  0.825558  0.174442  0.250000  1
  Pt  Pt7  1  0.174442  0.825558  0.750000  1
