# generated using pymatgen
data_RbBaCoO3
_symmetry_space_group_name_H-M   'P 1'
_cell_length_a   5.86449523
_cell_length_b   6.55658663
_cell_length_c   13.04780555
_cell_angle_alpha   90.41213848
_cell_angle_beta   90.94384852
_cell_angle_gamma   63.51195595
_symmetry_Int_Tables_number   1
_chemical_formula_structural   RbBaCoO3
_chemical_formula_sum   'Rb4 Ba4 Co4 O12'
_cell_volume   448.97621699
_cell_formula_units_Z   4
loop_
 _symmetry_equiv_pos_site_id
 _symmetry_equiv_pos_as_xyz
  1  'x, y, z'
loop_
 _atom_site_type_symbol
 _atom_site_label
 _atom_site_symmetry_multiplicity
 _atom_site_fract_x
 _atom_site_fract_y
 _atom_site_fract_z
 _atom_site_occupancy
  Rb  Rb0  1  0.965858  0.086991  0.146855  1
  Rb  Rb1  1  0.447730  0.089299  0.354272  1
  Rb  Rb2  1  0.548314  0.913141  0.647265  1
  Rb  Rb3  1  0.040136  0.909636  0.854505  1
  Ba  Ba4  1  0.652994  0.701670  0.081349  1
  Ba  Ba5  1  0.142645  0.709942  0.414322  1
  Ba  Ba6  1  0.851026  0.298221  0.581440  1
  Ba  Ba7  1  0.355181  0.290023  0.914636  1
  Co  Co8  1  0.279108  0.452706  0.158831  1
  Co  Co9  1  0.764913  0.460185  0.333913  1
  Co  Co10  1  0.229039  0.547551  0.658270  1
  Co  Co11  1  0.727125  0.539789  0.833677  1
  O  O12  1  0.178053  0.648886  0.051146  1
  O  O13  1  0.432844  0.154696  0.125003  1
  O  O14  1  0.992143  0.520481  0.251394  1
  O  O15  1  0.464209  0.570431  0.250621  1
  O  O16  1  0.913697  0.158764  0.380966  1
  O  O17  1  0.669697  0.643706  0.451383  1
  O  O18  1  0.325362  0.350708  0.550944  1
  O  O19  1  0.082389  0.845668  0.624912  1
  O  O20  1  0.530312  0.436127  0.750704  1
  O  O21  1  0.014969  0.473727  0.751078  1
  O  O22  1  0.575009  0.841352  0.881243  1
  O  O23  1  0.817255  0.356317  0.951271  1
