# generated using pymatgen
data_ErSc2Co9
_symmetry_space_group_name_H-M   'P 1'
_cell_length_a   4.86721924
_cell_length_b   4.86721868
_cell_length_c   8.42950966
_cell_angle_alpha   73.21979179
_cell_angle_beta   106.78021740
_cell_angle_gamma   119.99999773
_symmetry_Int_Tables_number   1
_chemical_formula_structural   ErSc2Co9
_chemical_formula_sum   'Er1 Sc2 Co9'
_cell_volume   163.04728250
_cell_formula_units_Z   1
loop_
 _symmetry_equiv_pos_site_id
 _symmetry_equiv_pos_as_xyz
  1  'x, y, z'
loop_
 _atom_site_type_symbol
 _atom_site_label
 _atom_site_symmetry_multiplicity
 _atom_site_fract_x
 _atom_site_fract_y
 _atom_site_fract_z
 _atom_site_occupancy
  Er  Er0  1  0.000000  0.000000  0.000000  1
  Sc  Sc1  1  0.141025  0.858976  0.423076  1
  Sc  Sc2  1  0.858975  0.141025  0.576923  1
  Co  Co3  1  0.335129  0.664874  0.005383  1
  Co  Co4  1  0.078865  0.413583  0.251697  1
  Co  Co5  1  0.586416  0.413583  0.251697  1
  Co  Co6  1  0.586416  0.921136  0.251697  1
  Co  Co7  1  0.499999  0.499999  0.500001  1
  Co  Co8  1  0.413584  0.078865  0.748303  1
  Co  Co9  1  0.413584  0.586418  0.748303  1
  Co  Co10  1  0.921138  0.586417  0.748303  1
  Co  Co11  1  0.664874  0.335127  0.994618  1
