# generated using pymatgen
data_HgBi2RuO7
_symmetry_space_group_name_H-M   'P 1'
_cell_length_a   6.54511976
_cell_length_b   6.54511941
_cell_length_c   7.46033900
_cell_angle_alpha   90.00000000
_cell_angle_beta   90.00000000
_cell_angle_gamma   104.85154877
_symmetry_Int_Tables_number   1
_chemical_formula_structural   HgBi2RuO7
_chemical_formula_sum   'Hg2 Bi4 Ru2 O14'
_cell_volume   308.91390520
_cell_formula_units_Z   2
loop_
 _symmetry_equiv_pos_site_id
 _symmetry_equiv_pos_as_xyz
  1  'x, y, z'
loop_
 _atom_site_type_symbol
 _atom_site_label
 _atom_site_symmetry_multiplicity
 _atom_site_fract_x
 _atom_site_fract_y
 _atom_site_fract_z
 _atom_site_occupancy
  Hg  Hg0  1  0.000000  0.000000  0.500000  1
  Hg  Hg1  1  0.000000  0.000000  0.000000  1
  Bi  Bi2  1  0.503970  0.960622  0.750000  1
  Bi  Bi3  1  0.496030  0.039378  0.250000  1
  Bi  Bi4  1  0.960622  0.503970  0.750000  1
  Bi  Bi5  1  0.039378  0.496030  0.250000  1
  Ru  Ru6  1  0.500000  0.500000  0.500000  1
  Ru  Ru7  1  0.500000  0.500000  0.000000  1
  O  O8  1  0.571764  0.571764  0.750000  1
  O  O9  1  0.428236  0.428236  0.250000  1
  O  O10  1  0.853662  0.135365  0.750000  1
  O  O11  1  0.146338  0.864635  0.250000  1
  O  O12  1  0.135365  0.853662  0.750000  1
  O  O13  1  0.864635  0.146338  0.250000  1
  O  O14  1  0.461292  0.196314  0.966004  1
  O  O15  1  0.538708  0.803686  0.466004  1
  O  O16  1  0.196314  0.461292  0.966004  1
  O  O17  1  0.803686  0.538708  0.466004  1
  O  O18  1  0.461292  0.196314  0.533996  1
  O  O19  1  0.538708  0.803686  0.033996  1
  O  O20  1  0.803686  0.538708  0.033996  1
  O  O21  1  0.196314  0.461292  0.533996  1
