# generated using pymatgen
data_Ho12BiPb9
_symmetry_space_group_name_H-M   'P 1'
_cell_length_a   11.71130318
_cell_length_b   11.79921082
_cell_length_c   11.79921008
_cell_angle_alpha   147.46599995
_cell_angle_beta   132.69411271
_cell_angle_gamma   58.66917108
_symmetry_Int_Tables_number   1
_chemical_formula_structural   Ho12BiPb9
_chemical_formula_sum   'Ho12 Bi1 Pb9'
_cell_volume   638.94530845
_cell_formula_units_Z   1
loop_
 _symmetry_equiv_pos_site_id
 _symmetry_equiv_pos_as_xyz
  1  'x, y, z'
loop_
 _atom_site_type_symbol
 _atom_site_label
 _atom_site_symmetry_multiplicity
 _atom_site_fract_x
 _atom_site_fract_y
 _atom_site_fract_z
 _atom_site_occupancy
  Ho  Ho0  1  0.696381  0.947752  0.250612  1
  Ho  Ho1  1  0.248997  0.639977  0.609019  1
  Ho  Ho2  1  0.681197  0.942460  0.738736  1
  Ho  Ho3  1  0.024057  0.137937  0.886119  1
  Ho  Ho4  1  0.975890  0.861762  0.114129  1
  Ho  Ho5  1  0.790281  0.557640  0.232641  1
  Ho  Ho6  1  0.207146  0.441919  0.765227  1
  Ho  Ho7  1  0.304491  0.053720  0.750863  1
  Ho  Ho8  1  0.321431  0.058045  0.263387  1
  Ho  Ho9  1  0.304491  0.553628  0.250771  1
  Ho  Ho10  1  0.748472  0.359710  0.388763  1
  Ho  Ho11  1  0.696381  0.445769  0.748628  1
  Bi  Bi12  1  0.474930  0.576740  0.898191  1
  Pb  Pb13  1  0.601222  0.795426  0.805796  1
  Pb  Pb14  1  0.671075  0.074952  0.596122  1
  Pb  Pb15  1  0.000230  0.748198  0.748341  1
  Pb  Pb16  1  0.990972  0.295431  0.695541  1
  Pb  Pb17  1  0.524343  0.422841  0.101500  1
  Pb  Pb18  1  0.009034  0.704485  0.304549  1
  Pb  Pb19  1  0.398620  0.204568  0.194053  1
  Pb  Pb20  1  0.330133  0.925152  0.404980  1
  Pb  Pb21  1  0.000230  0.251888  0.252032  1
