# generated using pymatgen
data_Sr5RuWN7
_symmetry_space_group_name_H-M   'P 1'
_cell_length_a   6.47712791
_cell_length_b   9.45020288
_cell_length_c   9.27618055
_cell_angle_alpha   115.00430456
_cell_angle_beta   97.30655133
_cell_angle_gamma   89.39676597
_symmetry_Int_Tables_number   1
_chemical_formula_structural   Sr5RuWN7
_chemical_formula_sum   'Sr10 Ru2 W2 N14'
_cell_volume   509.81151113
_cell_formula_units_Z   2
loop_
 _symmetry_equiv_pos_site_id
 _symmetry_equiv_pos_as_xyz
  1  'x, y, z'
loop_
 _atom_site_type_symbol
 _atom_site_label
 _atom_site_symmetry_multiplicity
 _atom_site_fract_x
 _atom_site_fract_y
 _atom_site_fract_z
 _atom_site_occupancy
  Sr  Sr0  1  0.846159  0.592397  0.328657  1
  Sr  Sr1  1  0.263679  0.987372  0.559791  1
  Sr  Sr2  1  0.702581  0.411737  0.848489  1
  Sr  Sr3  1  0.297419  0.588263  0.151511  1
  Sr  Sr4  1  0.395937  0.791915  0.911575  1
  Sr  Sr5  1  0.604063  0.208085  0.088425  1
  Sr  Sr6  1  0.153841  0.407603  0.671343  1
  Sr  Sr7  1  0.893401  0.856274  0.760304  1
  Sr  Sr8  1  0.106599  0.143726  0.239696  1
  Sr  Sr9  1  0.736321  0.012628  0.440209  1
  Ru  Ru10  1  0.581407  0.343557  0.471643  1
  Ru  Ru11  1  0.418593  0.656443  0.528357  1
  W  W12  1  0.123360  0.219442  0.919622  1
  W  W13  1  0.876640  0.780558  0.080378  1
  N  N14  1  0.528913  0.541049  0.650908  1
  N  N15  1  0.471087  0.458951  0.349092  1
  N  N16  1  0.150624  0.714818  0.562473  1
  N  N17  1  0.849376  0.285182  0.437527  1
  N  N18  1  0.412418  0.184307  0.468010  1
  N  N19  1  0.587582  0.815693  0.531990  1
  N  N20  1  0.954044  0.138333  0.718424  1
  N  N21  1  0.045956  0.861667  0.281576  1
  N  N22  1  0.235970  0.055644  0.965848  1
  N  N23  1  0.764030  0.944356  0.034152  1
  N  N24  1  0.355001  0.332737  0.907844  1
  N  N25  1  0.965960  0.348986  0.082913  1
  N  N26  1  0.034040  0.651014  0.917087  1
  N  N27  1  0.644999  0.667263  0.092156  1
