# generated using pymatgen
data_Ho2Be25Co
_symmetry_space_group_name_H-M   'P 1'
_cell_length_a   7.21018093
_cell_length_b   7.25256470
_cell_length_c   7.19436874
_cell_angle_alpha   59.87673682
_cell_angle_beta   59.93055053
_cell_angle_gamma   59.66087531
_symmetry_Int_Tables_number   1
_chemical_formula_structural   Ho2Be25Co
_chemical_formula_sum   'Ho2 Be25 Co1'
_cell_volume   264.94700299
_cell_formula_units_Z   1
loop_
 _symmetry_equiv_pos_site_id
 _symmetry_equiv_pos_as_xyz
  1  'x, y, z'
loop_
 _atom_site_type_symbol
 _atom_site_label
 _atom_site_symmetry_multiplicity
 _atom_site_fract_x
 _atom_site_fract_y
 _atom_site_fract_z
 _atom_site_occupancy
  Ho  Ho0  1  0.246525  0.255093  0.250261  1
  Ho  Ho1  1  0.749739  0.751879  0.753475  1
  Be  Be2  1  0.502751  0.501546  0.497249  1
  Be  Be3  1  0.998679  0.003016  0.001321  1
  Be  Be4  1  0.203350  0.440214  0.796650  1
  Be  Be5  1  0.566372  0.788286  0.433628  1
  Be  Be6  1  0.434614  0.207733  0.565386  1
  Be  Be7  1  0.291093  0.933934  0.708907  1
  Be  Be8  1  0.707090  0.064306  0.292910  1
  Be  Be9  1  0.934188  0.289610  0.065812  1
  Be  Be10  1  0.065896  0.713935  0.934104  1
  Be  Be11  1  0.206345  0.795695  0.562055  1
  Be  Be12  1  0.791767  0.207339  0.436032  1
  Be  Be13  1  0.437945  0.564095  0.793655  1
  Be  Be14  1  0.563968  0.435138  0.208233  1
  Be  Be15  1  0.710538  0.284897  0.934624  1
  Be  Be16  1  0.288656  0.711802  0.064153  1
  Be  Be17  1  0.065376  0.930059  0.289462  1
  Be  Be18  1  0.935847  0.064611  0.711344  1
  Be  Be19  1  0.559995  0.208733  0.793847  1
  Be  Be20  1  0.439041  0.791119  0.206609  1
  Be  Be21  1  0.793391  0.436769  0.560959  1
  Be  Be22  1  0.206153  0.562575  0.440005  1
  Be  Be23  1  0.936203  0.709410  0.289334  1
  Be  Be24  1  0.065019  0.289525  0.708614  1
  Be  Be25  1  0.291386  0.063158  0.934981  1
  Be  Be26  1  0.710666  0.934948  0.063797  1
  Co  Co27  1  0.797409  0.560577  0.202591  1
