# generated using pymatgen
data_Dy4Er8Co5Sb
_symmetry_space_group_name_H-M   'P 1'
_cell_length_a   8.24849869
_cell_length_b   8.24849970
_cell_length_c   8.24849838
_cell_angle_alpha   106.83435466
_cell_angle_beta   110.56783227
_cell_angle_gamma   111.04360193
_symmetry_Int_Tables_number   1
_chemical_formula_structural   Dy4Er8Co5Sb
_chemical_formula_sum   'Dy4 Er8 Co5 Sb1'
_cell_volume   431.32888531
_cell_formula_units_Z   1
loop_
 _symmetry_equiv_pos_site_id
 _symmetry_equiv_pos_as_xyz
  1  'x, y, z'
loop_
 _atom_site_type_symbol
 _atom_site_label
 _atom_site_symmetry_multiplicity
 _atom_site_fract_x
 _atom_site_fract_y
 _atom_site_fract_z
 _atom_site_occupancy
  Dy  Dy0  1  0.195057  0.209634  0.404691  1
  Dy  Dy1  1  0.804943  0.790366  0.595309  1
  Dy  Dy2  1  0.195057  0.790366  0.985422  1
  Dy  Dy3  1  0.804943  0.209634  0.014578  1
  Er  Er4  1  0.472948  0.289386  0.183562  1
  Er  Er5  1  0.105824  0.289386  0.816438  1
  Er  Er6  1  0.894176  0.710614  0.183562  1
  Er  Er7  1  0.527052  0.710614  0.816438  1
  Er  Er8  1  0.307531  0.620811  0.313280  1
  Er  Er9  1  0.307531  0.994252  0.686720  1
  Er  Er10  1  0.692469  0.379189  0.686720  1
  Er  Er11  1  0.692469  0.005748  0.313280  1
  Co  Co12  1  0.500000  0.612080  0.112080  1
  Co  Co13  1  0.500000  0.387920  0.887920  1
  Co  Co14  1  0.375786  0.000000  0.375786  1
  Co  Co15  1  0.624214  0.000000  0.624214  1
  Co  Co16  1  0.000000  0.000000  0.000000  1
  Sb  Sb17  1  0.000000  0.500000  0.500000  1
