# generated using pymatgen
data_CaZn10Cu
_symmetry_space_group_name_H-M   'P 1'
_cell_length_a   6.73981701
_cell_length_b   8.24294599
_cell_length_c   8.25106597
_cell_angle_alpha   99.63098182
_cell_angle_beta   65.89432014
_cell_angle_gamma   114.18166473
_symmetry_Int_Tables_number   1
_chemical_formula_structural   CaZn10Cu
_chemical_formula_sum   'Ca2 Zn20 Cu2'
_cell_volume   381.70488408
_cell_formula_units_Z   2
loop_
 _symmetry_equiv_pos_site_id
 _symmetry_equiv_pos_as_xyz
  1  'x, y, z'
loop_
 _atom_site_type_symbol
 _atom_site_label
 _atom_site_symmetry_multiplicity
 _atom_site_fract_x
 _atom_site_fract_y
 _atom_site_fract_z
 _atom_site_occupancy
  Ca  Ca0  1  0.125285  0.750030  0.249559  1
  Ca  Ca1  1  0.874845  0.250030  0.750441  1
  Zn  Zn2  1  0.363148  0.168916  0.074815  1
  Zn  Zn3  1  0.062029  0.331075  0.074804  1
  Zn  Zn4  1  0.699004  0.421817  0.160781  1
  Zn  Zn5  1  0.640197  0.078178  0.160780  1
  Zn  Zn6  1  0.629906  0.749999  0.240165  1
  Zn  Zn7  1  0.230147  0.426212  0.327307  1
  Zn  Zn8  1  0.942497  0.073777  0.327333  1
  Zn  Zn9  1  0.779367  0.335984  0.422133  1
  Zn  Zn10  1  0.298464  0.163990  0.422135  1
  Zn  Zn11  1  0.499968  0.999982  0.500001  1
  Zn  Zn12  1  0.499970  0.499982  0.499999  1
  Zn  Zn13  1  0.220600  0.663990  0.577865  1
  Zn  Zn14  1  0.701499  0.835984  0.577868  1
  Zn  Zn15  1  0.769830  0.573777  0.672667  1
  Zn  Zn16  1  0.057454  0.926211  0.672693  1
  Zn  Zn17  1  0.370071  0.249999  0.759835  1
  Zn  Zn18  1  0.300978  0.578179  0.839220  1
  Zn  Zn19  1  0.359785  0.921817  0.839219  1
  Zn  Zn20  1  0.937963  0.668916  0.925184  1
  Zn  Zn21  1  0.636831  0.831075  0.925196  1
  Cu  Cu22  1  0.000077  0.000041  0.000005  1
  Cu  Cu23  1  0.500083  0.500041  0.999995  1
