# generated using pymatgen
data_Dy2Y5Th(CdNi)2
_symmetry_space_group_name_H-M   'P 1'
_cell_length_a   9.61049580
_cell_length_b   9.62058206
_cell_length_c   9.61222973
_cell_angle_alpha   59.95933676
_cell_angle_beta   60.06346217
_cell_angle_gamma   60.08647106
_symmetry_Int_Tables_number   1
_chemical_formula_structural   Dy2Y5Th(CdNi)2
_chemical_formula_sum   'Dy4 Y10 Th2 Cd4 Ni4'
_cell_volume   628.94618470
_cell_formula_units_Z   2
loop_
 _symmetry_equiv_pos_site_id
 _symmetry_equiv_pos_as_xyz
  1  'x, y, z'
loop_
 _atom_site_type_symbol
 _atom_site_label
 _atom_site_symmetry_multiplicity
 _atom_site_fract_x
 _atom_site_fract_y
 _atom_site_fract_z
 _atom_site_occupancy
  Dy  Dy0  1  0.598241  0.200699  0.600553  1
  Dy  Dy1  1  0.200699  0.598241  0.600507  1
  Dy  Dy2  1  0.062054  0.439671  0.437707  1
  Dy  Dy3  1  0.439671  0.062054  0.060569  1
  Y  Y4  1  0.440097  0.061622  0.437955  1
  Y  Y5  1  0.061622  0.440097  0.060327  1
  Y  Y6  1  0.438283  0.438283  0.061717  1
  Y  Y7  1  0.061635  0.061635  0.438365  1
  Y  Y8  1  0.186511  0.814276  0.815482  1
  Y  Y9  1  0.814276  0.186511  0.183732  1
  Y  Y10  1  0.813798  0.186855  0.815197  1
  Y  Y11  1  0.186855  0.813798  0.184150  1
  Y  Y12  1  0.813853  0.813853  0.186147  1
  Y  Y13  1  0.185575  0.185575  0.814425  1
  Th  Th14  1  0.594300  0.594348  0.600417  1
  Th  Th15  1  0.594348  0.594300  0.210935  1
  Cd  Cd16  1  0.833146  0.832873  0.829672  1
  Cd  Cd17  1  0.832873  0.833146  0.504307  1
  Cd  Cd18  1  0.833763  0.504714  0.830901  1
  Cd  Cd19  1  0.504714  0.833763  0.830620  1
  Ni  Ni20  1  0.392425  0.394986  0.392637  1
  Ni  Ni21  1  0.394986  0.392425  0.819953  1
  Ni  Ni22  1  0.398053  0.818220  0.390716  1
  Ni  Ni23  1  0.818220  0.398053  0.393011  1
