# generated using pymatgen
data_Gd3HfGa2Ir3
_symmetry_space_group_name_H-M   'P 1'
_cell_length_a   7.07785000
_cell_length_b   6.95981431
_cell_length_c   4.09900900
_cell_angle_alpha   90.00000000
_cell_angle_beta   90.00000000
_cell_angle_gamma   119.44985764
_symmetry_Int_Tables_number   1
_chemical_formula_structural   Gd3HfGa2Ir3
_chemical_formula_sum   'Gd3 Hf1 Ga2 Ir3'
_cell_volume   175.82858057
_cell_formula_units_Z   1
loop_
 _symmetry_equiv_pos_site_id
 _symmetry_equiv_pos_as_xyz
  1  'x, y, z'
loop_
 _atom_site_type_symbol
 _atom_site_label
 _atom_site_symmetry_multiplicity
 _atom_site_fract_x
 _atom_site_fract_y
 _atom_site_fract_z
 _atom_site_occupancy
  Gd  Gd0  1  0.000000  0.393975  0.500000  1
  Gd  Gd1  1  0.563904  0.578227  0.500000  1
  Gd  Gd2  1  0.436096  0.014325  0.500000  1
  Hf  Hf3  1  0.000000  0.762625  0.000000  1
  Ga  Ga4  1  0.246997  0.245033  0.000000  1
  Ga  Ga5  1  0.753003  0.998037  0.000000  1
  Ir  Ir6  1  0.326067  0.669133  0.000000  1
  Ir  Ir7  1  0.673933  0.343065  0.000000  1
  Ir  Ir8  1  0.000000  0.995580  0.500000  1
