# generated using pymatgen
data_Y5AlBiSb
_symmetry_space_group_name_H-M   'P 1'
_cell_length_a   8.97429110
_cell_length_b   8.97429147
_cell_length_c   6.48924400
_cell_angle_alpha   89.99982684
_cell_angle_beta   89.99982346
_cell_angle_gamma   119.96938739
_symmetry_Int_Tables_number   1
_chemical_formula_structural   Y5AlBiSb
_chemical_formula_sum   'Y10 Al2 Bi2 Sb2'
_cell_volume   452.75050659
_cell_formula_units_Z   2
loop_
 _symmetry_equiv_pos_site_id
 _symmetry_equiv_pos_as_xyz
  1  'x, y, z'
loop_
 _atom_site_type_symbol
 _atom_site_label
 _atom_site_symmetry_multiplicity
 _atom_site_fract_x
 _atom_site_fract_y
 _atom_site_fract_z
 _atom_site_occupancy
  Y  Y0  1  0.671818  0.325929  0.503915  1
  Y  Y1  1  0.325929  0.671818  0.503915  1
  Y  Y2  1  0.325928  0.671814  0.996084  1
  Y  Y3  1  0.671814  0.325928  0.996084  1
  Y  Y4  1  0.762330  0.762330  0.250001  1
  Y  Y5  1  0.238603  0.994756  0.250001  1
  Y  Y6  1  0.994756  0.238603  0.250001  1
  Y  Y7  1  0.233237  0.233237  0.750001  1
  Y  Y8  1  0.763135  0.012309  0.750002  1
  Y  Y9  1  0.012309  0.763135  0.750002  1
  Al  Al10  1  0.397291  0.001588  0.750000  1
  Al  Al11  1  0.001588  0.397291  0.750000  1
  Bi  Bi12  1  0.393369  0.393369  0.250004  1
  Bi  Bi13  1  0.609222  0.609222  0.750002  1
  Sb  Sb14  1  0.602447  0.996228  0.249993  1
  Sb  Sb15  1  0.996228  0.602447  0.249993  1
