# generated using pymatgen
data_Pr4Pd3Pt
_symmetry_space_group_name_H-M   'P 1'
_cell_length_a   4.71381200
_cell_length_b   5.76278304
_cell_length_c   7.36003905
_cell_angle_alpha   90.01381284
_cell_angle_beta   90.00000000
_cell_angle_gamma   90.00000000
_symmetry_Int_Tables_number   1
_chemical_formula_structural   Pr4Pd3Pt
_chemical_formula_sum   'Pr4 Pd3 Pt1'
_cell_volume   199.93306937
_cell_formula_units_Z   1
loop_
 _symmetry_equiv_pos_site_id
 _symmetry_equiv_pos_as_xyz
  1  'x, y, z'
loop_
 _atom_site_type_symbol
 _atom_site_label
 _atom_site_symmetry_multiplicity
 _atom_site_fract_x
 _atom_site_fract_y
 _atom_site_fract_z
 _atom_site_occupancy
  Pr  Pr0  1  0.250000  0.360676  0.685106  1
  Pr  Pr1  1  0.250000  0.140986  0.178560  1
  Pr  Pr2  1  0.750000  0.637067  0.317459  1
  Pr  Pr3  1  0.750000  0.862252  0.818962  1
  Pd  Pd4  1  0.250000  0.851831  0.543131  1
  Pd  Pd5  1  0.250000  0.650352  0.043734  1
  Pd  Pd6  1  0.750000  0.147489  0.456864  1
  Pt  Pt7  1  0.750000  0.349347  0.956183  1
