# generated using pymatgen
data_HoThP7Ru12
_symmetry_space_group_name_H-M   'P 1'
_cell_length_a   9.46694600
_cell_length_b   9.46694573
_cell_length_c   3.96042400
_cell_angle_alpha   90.00000000
_cell_angle_beta   90.00000000
_cell_angle_gamma   119.99999395
_symmetry_Int_Tables_number   1
_chemical_formula_structural   HoThP7Ru12
_chemical_formula_sum   'Ho1 Th1 P7 Ru12'
_cell_volume   307.39169471
_cell_formula_units_Z   1
loop_
 _symmetry_equiv_pos_site_id
 _symmetry_equiv_pos_as_xyz
  1  'x, y, z'
loop_
 _atom_site_type_symbol
 _atom_site_label
 _atom_site_symmetry_multiplicity
 _atom_site_fract_x
 _atom_site_fract_y
 _atom_site_fract_z
 _atom_site_occupancy
  Ho  Ho0  1  0.666667  0.333333  0.500000  1
  Th  Th1  1  0.333333  0.666667  0.000000  1
  P  P2  1  0.606315  0.717212  0.500000  1
  P  P3  1  0.000000  0.000000  0.000000  1
  P  P4  1  0.282788  0.889103  0.500000  1
  P  P5  1  0.110897  0.393685  0.500000  1
  P  P6  1  0.886151  0.572874  0.000000  1
  P  P7  1  0.427126  0.313277  0.000000  1
  P  P8  1  0.686723  0.113849  0.000000  1
  Ru  Ru9  1  0.556911  0.949925  0.500000  1
  Ru  Ru10  1  0.393015  0.443089  0.500000  1
  Ru  Ru11  1  0.913118  0.119708  0.500000  1
  Ru  Ru12  1  0.206590  0.086882  0.500000  1
  Ru  Ru13  1  0.880292  0.793410  0.500000  1
  Ru  Ru14  1  0.727821  0.891625  0.000000  1
  Ru  Ru15  1  0.108375  0.836195  0.000000  1
  Ru  Ru16  1  0.163805  0.272179  0.000000  1
  Ru  Ru17  1  0.424249  0.069588  0.000000  1
  Ru  Ru18  1  0.930412  0.354661  0.000000  1
  Ru  Ru19  1  0.645339  0.575751  0.000000  1
  Ru  Ru20  1  0.050075  0.606985  0.500000  1
