# generated using pymatgen
data_TaNb3Si2(B2W3)2
_symmetry_space_group_name_H-M   'P 1'
_cell_length_a   7.13332852
_cell_length_b   7.16040750
_cell_length_c   7.17236334
_cell_angle_alpha   129.29348064
_cell_angle_beta   129.18281969
_cell_angle_gamma   74.56975108
_symmetry_Int_Tables_number   1
_chemical_formula_structural   TaNb3Si2(B2W3)2
_chemical_formula_sum   'Ta1 Nb3 Si2 B4 W6'
_cell_volume   214.20918021
_cell_formula_units_Z   1
loop_
 _symmetry_equiv_pos_site_id
 _symmetry_equiv_pos_as_xyz
  1  'x, y, z'
loop_
 _atom_site_type_symbol
 _atom_site_label
 _atom_site_symmetry_multiplicity
 _atom_site_fract_x
 _atom_site_fract_y
 _atom_site_fract_z
 _atom_site_occupancy
  Ta  Ta0  1  0.025653  0.195472  0.500595  1
  Nb  Nb1  1  0.521740  0.022878  0.828859  1
  Nb  Nb2  1  0.692626  0.526496  0.500071  1
  Nb  Nb3  1  0.977508  0.803722  0.500764  1
  Si  Si4  1  0.247955  0.254097  0.005753  1
  Si  Si5  1  0.748440  0.746025  0.998000  1
  B  B6  1  0.130944  0.628480  0.758111  1
  B  B7  1  0.876137  0.372468  0.244693  1
  B  B8  1  0.617461  0.881176  0.496681  1
  B  B9  1  0.380732  0.120545  0.497973  1
  W  W10  1  0.001594  0.001913  0.000846  1
  W  W11  1  0.501874  0.501767  0.000347  1
  W  W12  1  0.804403  0.303978  0.828635  1
  W  W13  1  0.192643  0.694516  0.164391  1
  W  W14  1  0.475876  0.975486  0.172751  1
  W  W15  1  0.304414  0.470980  0.501528  1
