# generated using pymatgen
data_Ac2SmPa3N8
_symmetry_space_group_name_H-M   'P 1'
_cell_length_a   7.18729632
_cell_length_b   7.18727320
_cell_length_c   7.13606802
_cell_angle_alpha   120.23325459
_cell_angle_beta   90.00641339
_cell_angle_gamma   119.99612379
_symmetry_Int_Tables_number   1
_chemical_formula_structural   Ac2SmPa3N8
_chemical_formula_sum   'Ac2 Sm1 Pa3 N8'
_cell_volume   259.73738258
_cell_formula_units_Z   1
loop_
 _symmetry_equiv_pos_site_id
 _symmetry_equiv_pos_as_xyz
  1  'x, y, z'
loop_
 _atom_site_type_symbol
 _atom_site_label
 _atom_site_symmetry_multiplicity
 _atom_site_fract_x
 _atom_site_fract_y
 _atom_site_fract_z
 _atom_site_occupancy
  Ac  Ac0  1  0.995311  0.990629  0.985944  1
  Ac  Ac1  1  0.754690  0.509371  0.264056  1
  Sm  Sm2  1  0.375000  0.750000  0.125000  1
  Pa  Pa3  1  0.375000  0.750000  0.624999  1
  Pa  Pa4  1  0.375000  0.249999  0.624999  1
  Pa  Pa5  1  0.874999  0.249999  0.625000  1
  N  N6  1  0.616077  0.232205  0.416442  1
  N  N7  1  0.184237  0.800364  0.416442  1
  N  N8  1  0.616128  0.800366  0.416495  1
  N  N9  1  0.144828  0.289710  0.434538  1
  N  N10  1  0.605171  0.210291  0.815462  1
  N  N11  1  0.133872  0.699633  0.833503  1
  N  N12  1  0.133924  0.267796  0.833558  1
  N  N13  1  0.565763  0.699635  0.833558  1
