# generated using pymatgen
data_Tb3YMnNiC8
_symmetry_space_group_name_H-M   'P 1'
_cell_length_a   6.64096411
_cell_length_b   6.65369561
_cell_length_c   6.65675697
_cell_angle_alpha   134.98438667
_cell_angle_beta   111.05083028
_cell_angle_gamma   86.23616257
_symmetry_Int_Tables_number   1
_chemical_formula_structural   Tb3YMnNiC8
_chemical_formula_sum   'Tb3 Y1 Mn1 Ni1 C8'
_cell_volume   186.09633602
_cell_formula_units_Z   1
loop_
 _symmetry_equiv_pos_site_id
 _symmetry_equiv_pos_as_xyz
  1  'x, y, z'
loop_
 _atom_site_type_symbol
 _atom_site_label
 _atom_site_symmetry_multiplicity
 _atom_site_fract_x
 _atom_site_fract_y
 _atom_site_fract_z
 _atom_site_occupancy
  Tb  Tb0  1  0.514260  0.355891  0.159301  1
  Tb  Tb1  1  0.485785  0.644953  0.841754  1
  Tb  Tb2  1  0.195890  0.854727  0.339796  1
  Y  Y3  1  0.802574  0.143007  0.657751  1
  Mn  Mn4  1  0.000413  0.750711  0.750347  1
  Ni  Ni5  1  0.000394  0.250456  0.250346  1
  C  C6  1  0.251742  0.050329  0.141403  1
  C  C7  1  0.748996  0.890129  0.799068  1
  C  C8  1  0.909765  0.610544  0.359978  1
  C  C9  1  0.089886  0.449916  0.700714  1
  C  C10  1  0.467542  0.132581  0.344656  1
  C  C11  1  0.533056  0.877479  0.665432  1
  C  C12  1  0.789078  0.622290  0.155924  1
  C  C13  1  0.210619  0.366986  0.833528  1
