# generated using pymatgen
data_NaSbTeO6
_symmetry_space_group_name_H-M   'P 1'
_cell_length_a   7.28480000
_cell_length_b   7.28480000
_cell_length_c   10.28799200
_cell_angle_alpha   90.00000000
_cell_angle_beta   90.00000000
_cell_angle_gamma   90.00000000
_symmetry_Int_Tables_number   1
_chemical_formula_structural   NaSbTeO6
_chemical_formula_sum   'Na4 Sb4 Te4 O24'
_cell_volume   545.96635943
_cell_formula_units_Z   4
loop_
 _symmetry_equiv_pos_site_id
 _symmetry_equiv_pos_as_xyz
  1  'x, y, z'
loop_
 _atom_site_type_symbol
 _atom_site_label
 _atom_site_symmetry_multiplicity
 _atom_site_fract_x
 _atom_site_fract_y
 _atom_site_fract_z
 _atom_site_occupancy
  Na  Na0  1  0.500000  0.237008  0.000000  1
  Na  Na1  1  0.762992  0.500000  0.250000  1
  Na  Na2  1  0.500000  0.762992  0.500000  1
  Na  Na3  1  0.237008  0.500000  0.750000  1
  Sb  Sb4  1  0.500000  0.745772  0.000000  1
  Sb  Sb5  1  0.254228  0.500000  0.250000  1
  Sb  Sb6  1  0.500000  0.254228  0.500000  1
  Sb  Sb7  1  0.745772  0.500000  0.750000  1
  Te  Te8  1  0.000000  0.748699  0.000000  1
  Te  Te9  1  0.251301  0.000000  0.250000  1
  Te  Te10  1  0.000000  0.251301  0.500000  1
  Te  Te11  1  0.748699  0.000000  0.750000  1
  O  O12  1  0.542267  0.542267  0.875000  1
  O  O13  1  0.945886  0.945886  0.875000  1
  O  O14  1  0.554742  0.950736  0.876488  1
  O  O15  1  0.950736  0.554742  0.873512  1
  O  O16  1  0.740199  0.243927  0.824170  1
  O  O17  1  0.259801  0.243927  0.175830  1
  O  O18  1  0.049264  0.554742  0.126488  1
  O  O19  1  0.457733  0.542267  0.125000  1
  O  O20  1  0.054114  0.945886  0.125000  1
  O  O21  1  0.445258  0.950736  0.123512  1
  O  O22  1  0.756073  0.740199  0.074170  1
  O  O23  1  0.756073  0.259801  0.425830  1
  O  O24  1  0.054114  0.054114  0.375000  1
  O  O25  1  0.049264  0.445258  0.373512  1
  O  O26  1  0.457733  0.457733  0.375000  1
  O  O27  1  0.445258  0.049264  0.376488  1
  O  O28  1  0.259801  0.756073  0.324170  1
  O  O29  1  0.740199  0.756073  0.675830  1
  O  O30  1  0.945886  0.054114  0.625000  1
  O  O31  1  0.554742  0.049264  0.623512  1
  O  O32  1  0.542267  0.457733  0.625000  1
  O  O33  1  0.950736  0.445258  0.626488  1
  O  O34  1  0.243927  0.259801  0.574170  1
  O  O35  1  0.243927  0.740199  0.925830  1
