# generated using pymatgen
data_Lu2MgB2Ir5
_symmetry_space_group_name_H-M   'P 1'
_cell_length_a   9.66823800
_cell_length_b   9.66823800
_cell_length_c   3.09275100
_cell_angle_alpha   90.00000000
_cell_angle_beta   90.00000000
_cell_angle_gamma   90.00000000
_symmetry_Int_Tables_number   1
_chemical_formula_structural   Lu2MgB2Ir5
_chemical_formula_sum   'Lu4 Mg2 B4 Ir10'
_cell_volume   289.09436166
_cell_formula_units_Z   2
loop_
 _symmetry_equiv_pos_site_id
 _symmetry_equiv_pos_as_xyz
  1  'x, y, z'
loop_
 _atom_site_type_symbol
 _atom_site_label
 _atom_site_symmetry_multiplicity
 _atom_site_fract_x
 _atom_site_fract_y
 _atom_site_fract_z
 _atom_site_occupancy
  Lu  Lu0  1  0.677871  0.177871  0.000000  1
  Lu  Lu1  1  0.322129  0.822129  0.000000  1
  Lu  Lu2  1  0.177871  0.322129  0.000000  1
  Lu  Lu3  1  0.822129  0.677871  0.000000  1
  Mg  Mg4  1  0.000000  0.000000  0.000000  1
  Mg  Mg5  1  0.500000  0.500000  0.000000  1
  B  B6  1  0.124789  0.624789  0.000000  1
  B  B7  1  0.875211  0.375211  0.000000  1
  B  B8  1  0.624789  0.875211  0.000000  1
  B  B9  1  0.375211  0.124789  0.000000  1
  Ir  Ir10  1  0.222467  0.068634  0.500000  1
  Ir  Ir11  1  0.777533  0.931366  0.500000  1
  Ir  Ir12  1  0.068634  0.777533  0.500000  1
  Ir  Ir13  1  0.722467  0.431366  0.500000  1
  Ir  Ir14  1  0.931366  0.222467  0.500000  1
  Ir  Ir15  1  0.277533  0.568634  0.500000  1
  Ir  Ir16  1  0.568634  0.722467  0.500000  1
  Ir  Ir17  1  0.431366  0.277533  0.500000  1
  Ir  Ir18  1  0.500000  0.000000  0.500000  1
  Ir  Ir19  1  0.000000  0.500000  0.500000  1
