# generated using pymatgen
data_YbTmU(SnRh)3
_symmetry_space_group_name_H-M   'P 1'
_cell_length_a   7.50931046
_cell_length_b   7.63811132
_cell_length_c   3.85324600
_cell_angle_alpha   90.00000000
_cell_angle_beta   90.00000000
_cell_angle_gamma   120.93002829
_symmetry_Int_Tables_number   1
_chemical_formula_structural   YbTmU(SnRh)3
_chemical_formula_sum   'Yb1 Tm1 U1 Sn3 Rh3'
_cell_volume   189.58178866
_cell_formula_units_Z   1
loop_
 _symmetry_equiv_pos_site_id
 _symmetry_equiv_pos_as_xyz
  1  'x, y, z'
loop_
 _atom_site_type_symbol
 _atom_site_label
 _atom_site_symmetry_multiplicity
 _atom_site_fract_x
 _atom_site_fract_y
 _atom_site_fract_z
 _atom_site_occupancy
  Yb  Yb0  1  0.596579  0.593931  0.500000  1
  Tm  Tm1  1  0.403185  0.996919  0.500000  1
  U  U2  1  0.999868  0.413655  0.500000  1
  Sn  Sn3  1  0.998045  0.756217  0.000000  1
  Sn  Sn4  1  0.278884  0.262339  0.000000  1
  Sn  Sn5  1  0.724668  0.983389  0.000000  1
  Rh  Rh6  1  0.293276  0.636835  0.000000  1
  Rh  Rh7  1  0.701916  0.333644  0.000000  1
  Rh  Rh8  1  0.003578  0.023074  0.500000  1
