# generated using pymatgen
data_Ca3La13Cd4Co3Os
_symmetry_space_group_name_H-M   'P 1'
_cell_length_a   10.00846267
_cell_length_b   9.95922924
_cell_length_c   9.92164100
_cell_angle_alpha   60.12477488
_cell_angle_beta   60.28655173
_cell_angle_gamma   60.35501933
_symmetry_Int_Tables_number   1
_chemical_formula_structural   Ca3La13Cd4Co3Os
_chemical_formula_sum   'Ca3 La13 Cd4 Co3 Os1'
_cell_volume   703.33449434
_cell_formula_units_Z   1
loop_
 _symmetry_equiv_pos_site_id
 _symmetry_equiv_pos_as_xyz
  1  'x, y, z'
loop_
 _atom_site_type_symbol
 _atom_site_label
 _atom_site_symmetry_multiplicity
 _atom_site_fract_x
 _atom_site_fract_y
 _atom_site_fract_z
 _atom_site_occupancy
  Ca  Ca0  1  0.936074  0.941982  0.560972  1
  Ca  Ca1  1  0.562788  0.937165  0.563196  1
  Ca  Ca2  1  0.562788  0.937165  0.936853  1
  La  La3  1  0.683929  0.693725  0.311173  1
  La  La4  1  0.158568  0.152435  0.536313  1
  La  La5  1  0.307430  0.690151  0.690000  1
  La  La6  1  0.158568  0.152435  0.152683  1
  La  La7  1  0.537757  0.153897  0.154172  1
  La  La8  1  0.307430  0.690151  0.312420  1
  La  La9  1  0.315528  0.308776  0.687849  1
  La  La10  1  0.685510  0.306182  0.692944  1
  La  La11  1  0.936209  0.560191  0.556934  1
  La  La12  1  0.558130  0.563672  0.939099  1
  La  La13  1  0.161784  0.533979  0.152118  1
  La  La14  1  0.685510  0.306182  0.315364  1
  La  La15  1  0.936209  0.560191  0.946666  1
  Cd  Cd16  1  0.236870  0.920877  0.921126  1
  Cd  Cd17  1  0.920836  0.922068  0.920619  1
  Cd  Cd18  1  0.920836  0.922068  0.236475  1
  Cd  Cd19  1  0.921024  0.237046  0.920964  1
  Co  Co20  1  0.363230  0.363489  0.915084  1
  Co  Co21  1  0.364452  0.914489  0.360529  1
  Co  Co22  1  0.363230  0.363489  0.358196  1
  Os  Os23  1  0.915305  0.368194  0.358250  1
