# generated using pymatgen
data_Sc3Tc2As2PRu
_symmetry_space_group_name_H-M   'P 1'
_cell_length_a   6.90932808
_cell_length_b   6.90932869
_cell_length_c   3.49451900
_cell_angle_alpha   90.00000000
_cell_angle_beta   90.00000000
_cell_angle_gamma   120.40799627
_symmetry_Int_Tables_number   1
_chemical_formula_structural   Sc3Tc2As2PRu
_chemical_formula_sum   'Sc3 Tc2 As2 P1 Ru1'
_cell_volume   143.87637775
_cell_formula_units_Z   1
loop_
 _symmetry_equiv_pos_site_id
 _symmetry_equiv_pos_as_xyz
  1  'x, y, z'
loop_
 _atom_site_type_symbol
 _atom_site_label
 _atom_site_symmetry_multiplicity
 _atom_site_fract_x
 _atom_site_fract_y
 _atom_site_fract_z
 _atom_site_occupancy
  Sc  Sc0  1  0.396786  0.396786  0.500000  1
  Sc  Sc1  1  0.602446  0.001506  0.500000  1
  Sc  Sc2  1  0.001506  0.602446  0.500000  1
  Tc  Tc3  1  0.999466  0.242426  0.000000  1
  Tc  Tc4  1  0.242426  0.999466  0.000000  1
  As  As5  1  0.667419  0.334438  0.000000  1
  As  As6  1  0.334438  0.667419  0.000000  1
  P  P7  1  0.997546  0.997546  0.500000  1
  Ru  Ru8  1  0.757969  0.757969  0.000000  1
