# generated using pymatgen
data_Er3Tm7In8Pt3Rh
_symmetry_space_group_name_H-M   'P 1'
_cell_length_a   3.60972000
_cell_length_b   8.05196296
_cell_length_c   18.08165501
_cell_angle_alpha   90.05503521
_cell_angle_beta   90.00000000
_cell_angle_gamma   90.00000000
_symmetry_Int_Tables_number   1
_chemical_formula_structural   Er3Tm7In8Pt3Rh
_chemical_formula_sum   'Er3 Tm7 In8 Pt3 Rh1'
_cell_volume   525.54905894
_cell_formula_units_Z   1
loop_
 _symmetry_equiv_pos_site_id
 _symmetry_equiv_pos_as_xyz
  1  'x, y, z'
loop_
 _atom_site_type_symbol
 _atom_site_label
 _atom_site_symmetry_multiplicity
 _atom_site_fract_x
 _atom_site_fract_y
 _atom_site_fract_z
 _atom_site_occupancy
  Er  Er0  1  0.000000  0.115123  0.412487  1
  Er  Er1  1  0.000000  0.999968  0.000077  1
  Er  Er2  1  0.000000  0.500218  0.499971  1
  Tm  Tm3  1  0.000000  0.883035  0.585613  1
  Tm  Tm4  1  0.000000  0.383374  0.914458  1
  Tm  Tm5  1  0.000000  0.616704  0.086247  1
  Tm  Tm6  1  0.000000  0.240504  0.221752  1
  Tm  Tm7  1  0.000000  0.756527  0.778725  1
  Tm  Tm8  1  0.000000  0.256401  0.721276  1
  Tm  Tm9  1  0.000000  0.749022  0.279035  1
  In  In10  1  0.500000  0.423451  0.351497  1
  In  In11  1  0.500000  0.575924  0.648357  1
  In  In12  1  0.500000  0.076152  0.851755  1
  In  In13  1  0.500000  0.925910  0.149244  1
  In  In14  1  0.500000  0.292218  0.066750  1
  In  In15  1  0.500000  0.707777  0.933347  1
  In  In16  1  0.500000  0.207551  0.566754  1
  In  In17  1  0.500000  0.792727  0.432157  1
  Pt  Pt18  1  0.500000  0.974858  0.696237  1
  Pt  Pt19  1  0.500000  0.474991  0.803946  1
  Pt  Pt20  1  0.500000  0.524194  0.196190  1
  Rh  Rh21  1  0.500000  0.023372  0.304127  1
