# generated using pymatgen
data_Eu3Ni2
_symmetry_space_group_name_H-M   'P 1'
_cell_length_a   7.62658074
_cell_length_b   7.62658055
_cell_length_c   7.62658100
_cell_angle_alpha   73.99622118
_cell_angle_beta   73.99621378
_cell_angle_gamma   73.99622506
_symmetry_Int_Tables_number   1
_chemical_formula_structural   Eu3Ni2
_chemical_formula_sum   'Eu9 Ni6'
_cell_volume   400.19324358
_cell_formula_units_Z   3
loop_
 _symmetry_equiv_pos_site_id
 _symmetry_equiv_pos_as_xyz
  1  'x, y, z'
loop_
 _atom_site_type_symbol
 _atom_site_label
 _atom_site_symmetry_multiplicity
 _atom_site_fract_x
 _atom_site_fract_y
 _atom_site_fract_z
 _atom_site_occupancy
  Eu  Eu0  1  0.789568  0.789568  0.789568  1
  Eu  Eu1  1  0.210432  0.210432  0.210432  1
  Eu  Eu2  1  0.326503  0.622878  0.832992  1
  Eu  Eu3  1  0.832992  0.326503  0.622878  1
  Eu  Eu4  1  0.622878  0.832992  0.326503  1
  Eu  Eu5  1  0.673497  0.377122  0.167008  1
  Eu  Eu6  1  0.167008  0.673497  0.377122  1
  Eu  Eu7  1  0.377122  0.167008  0.673497  1
  Eu  Eu8  1  0.000000  0.000000  0.000000  1
  Ni  Ni9  1  0.121656  0.969090  0.585815  1
  Ni  Ni10  1  0.585815  0.121656  0.969090  1
  Ni  Ni11  1  0.969090  0.585815  0.121656  1
  Ni  Ni12  1  0.878344  0.030910  0.414185  1
  Ni  Ni13  1  0.414185  0.878344  0.030910  1
  Ni  Ni14  1  0.030910  0.414185  0.878344  1
