# generated using pymatgen
data_Cs2K2Zr6PCl18
_symmetry_space_group_name_H-M   'P 1'
_cell_length_a   10.30920727
_cell_length_b   10.54027649
_cell_length_c   10.61874500
_cell_angle_alpha   118.45134857
_cell_angle_beta   100.14381024
_cell_angle_gamma   104.35609672
_symmetry_Int_Tables_number   1
_chemical_formula_structural   Cs2K2Zr6PCl18
_chemical_formula_sum   'Cs2 K2 Zr6 P1 Cl18'
_cell_volume   922.30811918
_cell_formula_units_Z   1
loop_
 _symmetry_equiv_pos_site_id
 _symmetry_equiv_pos_as_xyz
  1  'x, y, z'
loop_
 _atom_site_type_symbol
 _atom_site_label
 _atom_site_symmetry_multiplicity
 _atom_site_fract_x
 _atom_site_fract_y
 _atom_site_fract_z
 _atom_site_occupancy
  Cs  Cs0  1  0.669590  0.537058  0.234758  1
  Cs  Cs1  1  0.330410  0.462942  0.765242  1
  K  K2  1  0.689166  0.224993  0.565166  1
  K  K3  1  0.310834  0.775007  0.434834  1
  Zr  Zr4  1  0.159467  0.052204  0.233437  1
  Zr  Zr5  1  0.840533  0.947796  0.766563  1
  Zr  Zr6  1  0.857499  0.124987  0.141190  1
  Zr  Zr7  1  0.142501  0.875013  0.858810  1
  Zr  Zr8  1  0.150380  0.250796  0.052742  1
  Zr  Zr9  1  0.849620  0.749204  0.947258  1
  P  P10  1  0.000000  0.000000  0.000000  1
  Cl  Cl11  1  0.007900  0.400951  0.203301  1
  Cl  Cl12  1  0.992100  0.599049  0.796699  1
  Cl  Cl13  1  0.326917  0.325580  0.307945  1
  Cl  Cl14  1  0.673083  0.674420  0.692055  1
  Cl  Cl15  1  0.314458  0.518989  0.115522  1
  Cl  Cl16  1  0.685542  0.481011  0.884478  1
  Cl  Cl17  1  0.005369  0.792284  0.197677  1
  Cl  Cl18  1  0.994631  0.207716  0.802323  1
  Cl  Cl19  1  0.711890  0.256118  0.293439  1
  Cl  Cl20  1  0.288110  0.743882  0.706561  1
  Cl  Cl21  1  0.312059  0.135475  0.908076  1
  Cl  Cl22  1  0.687941  0.864525  0.091924  1
  Cl  Cl23  1  0.020091  0.191792  0.400790  1
  Cl  Cl24  1  0.979909  0.808208  0.599210  1
  Cl  Cl25  1  0.316414  0.920157  0.097697  1
  Cl  Cl26  1  0.683586  0.079843  0.902303  1
  Cl  Cl27  1  0.335118  0.104489  0.478770  1
  Cl  Cl28  1  0.664882  0.895511  0.521230  1
