# generated using pymatgen
data_Pr7Np4InO24
_symmetry_space_group_name_H-M   'P 1'
_cell_length_a   5.73267016
_cell_length_b   8.07742436
_cell_length_c   12.21658200
_cell_angle_alpha   74.56075477
_cell_angle_beta   89.98643732
_cell_angle_gamma   89.91902959
_symmetry_Int_Tables_number   1
_chemical_formula_structural   Pr7Np4InO24
_chemical_formula_sum   'Pr7 Np4 In1 O24'
_cell_volume   545.27689519
_cell_formula_units_Z   1
loop_
 _symmetry_equiv_pos_site_id
 _symmetry_equiv_pos_as_xyz
  1  'x, y, z'
loop_
 _atom_site_type_symbol
 _atom_site_label
 _atom_site_symmetry_multiplicity
 _atom_site_fract_x
 _atom_site_fract_y
 _atom_site_fract_z
 _atom_site_occupancy
  Pr  Pr0  1  0.745413  0.000139  0.746900  1
  Pr  Pr1  1  0.250080  0.008322  0.255949  1
  Pr  Pr2  1  0.183367  0.791142  0.578481  1
  Pr  Pr3  1  0.810114  0.793472  0.076610  1
  Pr  Pr4  1  0.691206  0.495803  0.748901  1
  Pr  Pr5  1  0.305682  0.500427  0.252331  1
  Pr  Pr6  1  0.191203  0.205020  0.921328  1
  Np  Np7  1  0.254898  0.722535  0.884645  1
  Np  Np8  1  0.740120  0.729560  0.384434  1
  Np  Np9  1  0.255636  0.272791  0.610812  1
  Np  Np10  1  0.749542  0.275826  0.116341  1
  In  In11  1  0.790006  0.219922  0.414464  1
  O  O12  1  0.045990  0.937522  0.895844  1
  O  O13  1  0.537987  0.851980  0.929359  1
  O  O14  1  0.936169  0.962211  0.402313  1
  O  O15  1  0.450047  0.788741  0.730731  1
  O  O16  1  0.446817  0.836543  0.430787  1
  O  O17  1  0.972974  0.706528  0.770589  1
  O  O18  1  0.553864  0.801000  0.230970  1
  O  O19  1  0.858211  0.634711  0.546441  1
  O  O20  1  0.381530  0.488409  0.884478  1
  O  O21  1  0.029111  0.717229  0.277732  1
  O  O22  1  0.375470  0.504909  0.607530  1
  O  O23  1  0.863554  0.364558  0.950742  1
  O  O24  1  0.138663  0.634134  0.049131  1
  O  O25  1  0.623316  0.489124  0.382065  1
  O  O26  1  0.976248  0.288262  0.728506  1
  O  O27  1  0.619525  0.509102  0.117159  1
  O  O28  1  0.108389  0.341439  0.446011  1
  O  O29  1  0.451437  0.206687  0.765364  1
  O  O30  1  0.035257  0.294571  0.220255  1
  O  O31  1  0.567531  0.157302  0.560180  1
  O  O32  1  0.556738  0.204664  0.278670  1
  O  O33  1  0.090566  0.048702  0.624758  1
  O  O34  1  0.460113  0.158237  0.073587  1
  O  O35  1  0.953227  0.058477  0.105604  1
