# generated using pymatgen
data_Ho3Zn3Ge2Pt
_symmetry_space_group_name_H-M   'P 1'
_cell_length_a   6.92667100
_cell_length_b   6.92666984
_cell_length_c   4.28529900
_cell_angle_alpha   90.00000000
_cell_angle_beta   90.00000000
_cell_angle_gamma   120.00000076
_symmetry_Int_Tables_number   1
_chemical_formula_structural   Ho3Zn3Ge2Pt
_chemical_formula_sum   'Ho3 Zn3 Ge2 Pt1'
_cell_volume   178.05771902
_cell_formula_units_Z   1
loop_
 _symmetry_equiv_pos_site_id
 _symmetry_equiv_pos_as_xyz
  1  'x, y, z'
loop_
 _atom_site_type_symbol
 _atom_site_label
 _atom_site_symmetry_multiplicity
 _atom_site_fract_x
 _atom_site_fract_y
 _atom_site_fract_z
 _atom_site_occupancy
  Ho  Ho0  1  0.413563  0.000000  0.000000  1
  Ho  Ho1  1  0.000000  0.413563  0.000000  1
  Ho  Ho2  1  0.586437  0.586436  0.000000  1
  Zn  Zn3  1  0.764209  0.000000  0.500001  1
  Zn  Zn4  1  0.235791  0.235791  0.500001  1
  Zn  Zn5  1  0.000000  0.764208  0.500001  1
  Ge  Ge6  1  0.666666  0.333333  0.500001  1
  Ge  Ge7  1  0.333333  0.666666  0.500001  1
  Pt  Pt8  1  0.000000  0.000000  0.000000  1
