# generated using pymatgen
data_YHoTh2(AsPt)4
_symmetry_space_group_name_H-M   'P 1'
_cell_length_a   4.32559300
_cell_length_b   4.32559375
_cell_length_c   15.57667100
_cell_angle_alpha   90.00000000
_cell_angle_beta   90.00000000
_cell_angle_gamma   120.00000192
_symmetry_Int_Tables_number   1
_chemical_formula_structural   YHoTh2(AsPt)4
_chemical_formula_sum   'Y1 Ho1 Th2 As4 Pt4'
_cell_volume   252.40424404
_cell_formula_units_Z   1
loop_
 _symmetry_equiv_pos_site_id
 _symmetry_equiv_pos_as_xyz
  1  'x, y, z'
loop_
 _atom_site_type_symbol
 _atom_site_label
 _atom_site_symmetry_multiplicity
 _atom_site_fract_x
 _atom_site_fract_y
 _atom_site_fract_z
 _atom_site_occupancy
  Y  Y0  1  0.000000  0.000000  0.250000  1
  Ho  Ho1  1  0.000000  0.000000  0.750001  1
  Th  Th2  1  0.000000  0.000000  0.500318  1
  Th  Th3  1  0.000000  0.000000  0.999681  1
  As  As4  1  0.333333  0.666667  0.881885  1
  As  As5  1  0.666667  0.333333  0.117513  1
  As  As6  1  0.666667  0.333333  0.382487  1
  As  As7  1  0.333333  0.666667  0.618115  1
  Pt  Pt8  1  0.333333  0.666667  0.358970  1
  Pt  Pt9  1  0.666667  0.333333  0.642514  1
  Pt  Pt10  1  0.666667  0.333333  0.857486  1
  Pt  Pt11  1  0.333333  0.666667  0.141030  1
