# generated using pymatgen
data_DyHo2In4CoCu
_symmetry_space_group_name_H-M   'P 1'
_cell_length_a   7.91038005
_cell_length_b   7.91002291
_cell_length_c   3.66599800
_cell_angle_alpha   90.00000000
_cell_angle_beta   90.00000000
_cell_angle_gamma   120.01491709
_symmetry_Int_Tables_number   1
_chemical_formula_structural   DyHo2In4CoCu
_chemical_formula_sum   'Dy1 Ho2 In4 Co1 Cu1'
_cell_volume   198.62442192
_cell_formula_units_Z   1
loop_
 _symmetry_equiv_pos_site_id
 _symmetry_equiv_pos_as_xyz
  1  'x, y, z'
loop_
 _atom_site_type_symbol
 _atom_site_label
 _atom_site_symmetry_multiplicity
 _atom_site_fract_x
 _atom_site_fract_y
 _atom_site_fract_z
 _atom_site_occupancy
  Dy  Dy0  1  0.242790  0.952763  0.500000  1
  Ho  Ho1  1  0.047090  0.289842  0.500000  1
  Ho  Ho2  1  0.710116  0.757315  0.500000  1
  In  In3  1  0.666556  0.075119  0.000000  1
  In  In4  1  0.924805  0.591262  0.000000  1
  In  In5  1  0.408685  0.333732  0.000000  1
  In  In6  1  0.333395  0.666538  0.000000  1
  Co  Co7  1  0.999832  0.000046  0.000000  1
  Cu  Cu8  1  0.666729  0.333384  0.500000  1
