# generated using pymatgen
data_Ca16Yb4Ir3Pd
_symmetry_space_group_name_H-M   'P 1'
_cell_length_a   6.81627986
_cell_length_b   7.51388327
_cell_length_c   16.01967200
_cell_angle_alpha   90.00000000
_cell_angle_beta   90.00000000
_cell_angle_gamma   90.05618233
_symmetry_Int_Tables_number   1
_chemical_formula_structural   Ca16Yb4Ir3Pd
_chemical_formula_sum   'Ca16 Yb4 Ir3 Pd1'
_cell_volume   820.47484108
_cell_formula_units_Z   1
loop_
 _symmetry_equiv_pos_site_id
 _symmetry_equiv_pos_as_xyz
  1  'x, y, z'
loop_
 _atom_site_type_symbol
 _atom_site_label
 _atom_site_symmetry_multiplicity
 _atom_site_fract_x
 _atom_site_fract_y
 _atom_site_fract_z
 _atom_site_occupancy
  Ca  Ca0  1  0.853060  0.190893  0.559971  1
  Ca  Ca1  1  0.822533  0.464217  0.147061  1
  Ca  Ca2  1  0.178357  0.543992  0.643202  1
  Ca  Ca3  1  0.355871  0.308161  0.067087  1
  Ca  Ca4  1  0.822533  0.464217  0.352939  1
  Ca  Ca5  1  0.329486  0.032448  0.856979  1
  Ca  Ca6  1  0.143535  0.808360  0.067566  1
  Ca  Ca7  1  0.647441  0.689624  0.565059  1
  Ca  Ca8  1  0.676707  0.963628  0.352991  1
  Ca  Ca9  1  0.647441  0.689624  0.934941  1
  Ca  Ca10  1  0.329486  0.032448  0.643021  1
  Ca  Ca11  1  0.143535  0.808360  0.432434  1
  Ca  Ca12  1  0.178357  0.543992  0.856798  1
  Ca  Ca13  1  0.355871  0.308161  0.432913  1
  Ca  Ca14  1  0.676707  0.963628  0.147009  1
  Ca  Ca15  1  0.853060  0.190893  0.940029  1
  Yb  Yb16  1  0.156779  0.093644  0.250000  1
  Yb  Yb17  1  0.838896  0.903154  0.750000  1
  Yb  Yb18  1  0.342789  0.593004  0.250000  1
  Yb  Yb19  1  0.648682  0.407035  0.750000  1
  Ir  Ir20  1  0.466211  0.739010  0.750000  1
  Ir  Ir21  1  0.529690  0.260699  0.250000  1
  Ir  Ir22  1  0.970636  0.760756  0.250000  1
  Pd  Pd23  1  0.032337  0.240048  0.750000  1
