# generated using pymatgen
data_Y8Ti11NbSi16
_symmetry_space_group_name_H-M   'P 1'
_cell_length_a   7.05687437
_cell_length_b   7.05687463
_cell_length_c   12.98197608
_cell_angle_alpha   89.97693925
_cell_angle_beta   90.02305954
_cell_angle_gamma   90.01617927
_symmetry_Int_Tables_number   1
_chemical_formula_structural   Y8Ti11NbSi16
_chemical_formula_sum   'Y8 Ti11 Nb1 Si16'
_cell_volume   646.49549749
_cell_formula_units_Z   1
loop_
 _symmetry_equiv_pos_site_id
 _symmetry_equiv_pos_as_xyz
  1  'x, y, z'
loop_
 _atom_site_type_symbol
 _atom_site_label
 _atom_site_symmetry_multiplicity
 _atom_site_fract_x
 _atom_site_fract_y
 _atom_site_fract_z
 _atom_site_occupancy
  Y  Y0  1  0.339864  0.002686  0.466758  1
  Y  Y1  1  0.497478  0.839611  0.716781  1
  Y  Y2  1  0.502029  0.159603  0.216422  1
  Y  Y3  1  0.839611  0.497478  0.283219  1
  Y  Y4  1  0.159603  0.502029  0.783578  1
  Y  Y5  1  0.659367  0.998048  0.966656  1
  Y  Y6  1  0.002686  0.339864  0.533242  1
  Y  Y7  1  0.998048  0.659367  0.033344  1
  Ti  Ti8  1  0.173282  0.827005  0.250129  1
  Ti  Ti9  1  0.827005  0.173282  0.749871  1
  Ti  Ti10  1  0.672780  0.672780  0.500000  1
  Ti  Ti11  1  0.153811  0.009524  0.876737  1
  Ti  Ti12  1  0.491043  0.651737  0.125608  1
  Ti  Ti13  1  0.508718  0.347865  0.626282  1
  Ti  Ti14  1  0.651737  0.491043  0.874392  1
  Ti  Ti15  1  0.347865  0.508718  0.373718  1
  Ti  Ti16  1  0.847214  0.991620  0.376340  1
  Ti  Ti17  1  0.009524  0.153811  0.123263  1
  Ti  Ti18  1  0.991620  0.847214  0.623660  1
  Nb  Nb19  1  0.326866  0.326866  0.000000  1
  Si  Si20  1  0.202043  0.129337  0.684784  1
  Si  Si21  1  0.370584  0.703087  0.934646  1
  Si  Si22  1  0.629431  0.297798  0.434970  1
  Si  Si23  1  0.703087  0.370584  0.065354  1
  Si  Si24  1  0.297798  0.629431  0.565030  1
  Si  Si25  1  0.797859  0.870661  0.185088  1
  Si  Si26  1  0.129337  0.202043  0.315216  1
  Si  Si27  1  0.870661  0.797859  0.814912  1
  Si  Si28  1  0.290812  0.952164  0.065093  1
  Si  Si29  1  0.546746  0.791033  0.314914  1
  Si  Si30  1  0.454083  0.208241  0.813443  1
  Si  Si31  1  0.791033  0.546746  0.685086  1
  Si  Si32  1  0.208241  0.454083  0.186557  1
  Si  Si33  1  0.709281  0.046687  0.564738  1
  Si  Si34  1  0.952164  0.290812  0.934907  1
  Si  Si35  1  0.046687  0.709281  0.435262  1
