# generated using pymatgen
data_Tm2LuGa5Ru
_symmetry_space_group_name_H-M   'P 1'
_cell_length_a   6.83430546
_cell_length_b   6.84203651
_cell_length_c   4.28684000
_cell_angle_alpha   90.00000000
_cell_angle_beta   90.00000000
_cell_angle_gamma   120.03743979
_symmetry_Int_Tables_number   1
_chemical_formula_structural   Tm2LuGa5Ru
_chemical_formula_sum   'Tm2 Lu1 Ga5 Ru1'
_cell_volume   173.53365332
_cell_formula_units_Z   1
loop_
 _symmetry_equiv_pos_site_id
 _symmetry_equiv_pos_as_xyz
  1  'x, y, z'
loop_
 _atom_site_type_symbol
 _atom_site_label
 _atom_site_symmetry_multiplicity
 _atom_site_fract_x
 _atom_site_fract_y
 _atom_site_fract_z
 _atom_site_occupancy
  Tm  Tm0  1  0.583045  0.999986  0.500000  1
  Tm  Tm1  1  0.416955  0.416941  0.500000  1
  Lu  Lu2  1  0.000000  0.583714  0.500000  1
  Ga  Ga3  1  0.235098  0.999818  0.000000  1
  Ga  Ga4  1  0.000000  0.235241  0.000000  1
  Ga  Ga5  1  0.667176  0.333703  0.000000  1
  Ga  Ga6  1  0.332824  0.666529  0.000000  1
  Ga  Ga7  1  0.764902  0.764720  0.000000  1
  Ru  Ru8  1  0.000000  0.999348  0.500000  1
