# generated using pymatgen
data_TbTm19Sn16
_symmetry_space_group_name_H-M   'P 1'
_cell_length_a   7.95744869
_cell_length_b   8.05942781
_cell_length_c   15.31384863
_cell_angle_alpha   89.99512338
_cell_angle_beta   89.90174069
_cell_angle_gamma   89.92364032
_symmetry_Int_Tables_number   1
_chemical_formula_structural   TbTm19Sn16
_chemical_formula_sum   'Tb1 Tm19 Sn16'
_cell_volume   982.11282071
_cell_formula_units_Z   1
loop_
 _symmetry_equiv_pos_site_id
 _symmetry_equiv_pos_as_xyz
  1  'x, y, z'
loop_
 _atom_site_type_symbol
 _atom_site_label
 _atom_site_symmetry_multiplicity
 _atom_site_fract_x
 _atom_site_fract_y
 _atom_site_fract_z
 _atom_site_occupancy
  Tb  Tb0  1  0.020870  0.179557  0.903338  1
  Tm  Tm1  1  0.367772  0.836905  0.877163  1
  Tm  Tm2  1  0.868253  0.663159  0.622293  1
  Tm  Tm3  1  0.631637  0.162882  0.377319  1
  Tm  Tm4  1  0.132502  0.337452  0.123042  1
  Tm  Tm5  1  0.632598  0.162926  0.122929  1
  Tm  Tm6  1  0.131747  0.337086  0.377321  1
  Tm  Tm7  1  0.368423  0.836876  0.622466  1
  Tm  Tm8  1  0.868042  0.662856  0.877292  1
  Tm  Tm9  1  0.522153  0.321037  0.902944  1
  Tm  Tm10  1  0.022610  0.179398  0.597326  1
  Tm  Tm11  1  0.477650  0.679186  0.402847  1
  Tm  Tm12  1  0.978212  0.820325  0.097177  1
  Tm  Tm13  1  0.478064  0.679442  0.097131  1
  Tm  Tm14  1  0.977643  0.820805  0.402894  1
  Tm  Tm15  1  0.522403  0.320959  0.596716  1
  Tm  Tm16  1  0.198580  0.503534  0.749662  1
  Tm  Tm17  1  0.698225  0.996317  0.749564  1
  Tm  Tm18  1  0.801558  0.496551  0.250154  1
  Tm  Tm19  1  0.301685  0.003388  0.250164  1
  Sn  Sn20  1  0.293499  0.035114  0.042349  1
  Sn  Sn21  1  0.791822  0.464199  0.458411  1
  Sn  Sn22  1  0.708238  0.964518  0.541469  1
  Sn  Sn23  1  0.208476  0.537088  0.958789  1
  Sn  Sn24  1  0.705525  0.962295  0.958901  1
  Sn  Sn25  1  0.208095  0.535807  0.541424  1
  Sn  Sn26  1  0.291924  0.035750  0.458464  1
  Sn  Sn27  1  0.792197  0.464035  0.041529  1
  Sn  Sn28  1  0.564464  0.619342  0.749897  1
  Sn  Sn29  1  0.064486  0.879871  0.749889  1
  Sn  Sn30  1  0.435616  0.380877  0.250070  1
  Sn  Sn31  1  0.935611  0.119383  0.250156  1
  Sn  Sn32  1  0.332215  0.149044  0.749712  1
  Sn  Sn33  1  0.830282  0.351920  0.749148  1
  Sn  Sn34  1  0.668500  0.850926  0.249979  1
  Sn  Sn35  1  0.168422  0.649190  0.250072  1
