# generated using pymatgen
data_Dy2HoCd3Si2Au
_symmetry_space_group_name_H-M   'P 1'
_cell_length_a   7.23945401
_cell_length_b   7.23945364
_cell_length_c   4.33431400
_cell_angle_alpha   90.00000000
_cell_angle_beta   90.00000000
_cell_angle_gamma   119.99271476
_symmetry_Int_Tables_number   1
_chemical_formula_structural   Dy2HoCd3Si2Au
_chemical_formula_sum   'Dy2 Ho1 Cd3 Si2 Au1'
_cell_volume   196.74082335
_cell_formula_units_Z   1
loop_
 _symmetry_equiv_pos_site_id
 _symmetry_equiv_pos_as_xyz
  1  'x, y, z'
loop_
 _atom_site_type_symbol
 _atom_site_label
 _atom_site_symmetry_multiplicity
 _atom_site_fract_x
 _atom_site_fract_y
 _atom_site_fract_z
 _atom_site_occupancy
  Dy  Dy0  1  0.583192  0.999954  0.000000  1
  Dy  Dy1  1  0.999954  0.583192  0.000000  1
  Ho  Ho2  1  0.416712  0.416712  0.000000  1
  Cd  Cd3  1  0.255407  0.000061  0.500000  1
  Cd  Cd4  1  0.000061  0.255407  0.500000  1
  Cd  Cd5  1  0.744515  0.744515  0.500000  1
  Si  Si6  1  0.333403  0.666554  0.500000  1
  Si  Si7  1  0.666554  0.333403  0.500000  1
  Au  Au8  1  0.000202  0.000202  0.000000  1
