# generated using pymatgen
data_TbCe4Sn3Br
_symmetry_space_group_name_H-M   'P 1'
_cell_length_a   9.41190900
_cell_length_b   9.41190900
_cell_length_c   6.78586400
_cell_angle_alpha   90.00000000
_cell_angle_beta   90.00000000
_cell_angle_gamma   120.00000353
_symmetry_Int_Tables_number   1
_chemical_formula_structural   TbCe4Sn3Br
_chemical_formula_sum   'Tb2 Ce8 Sn6 Br2'
_cell_volume   520.58446808
_cell_formula_units_Z   2
loop_
 _symmetry_equiv_pos_site_id
 _symmetry_equiv_pos_as_xyz
  1  'x, y, z'
loop_
 _atom_site_type_symbol
 _atom_site_label
 _atom_site_symmetry_multiplicity
 _atom_site_fract_x
 _atom_site_fract_y
 _atom_site_fract_z
 _atom_site_occupancy
  Tb  Tb0  1  0.333333  0.666667  0.000000  1
  Tb  Tb1  1  0.666667  0.333333  0.000000  1
  Ce  Ce2  1  0.268579  0.268579  0.750065  1
  Ce  Ce3  1  0.000000  0.731421  0.750065  1
  Ce  Ce4  1  0.731421  0.000000  0.750065  1
  Ce  Ce5  1  0.000000  0.268579  0.249935  1
  Ce  Ce6  1  0.333333  0.666667  0.500000  1
  Ce  Ce7  1  0.731421  0.731421  0.249935  1
  Ce  Ce8  1  0.666667  0.333333  0.500000  1
  Ce  Ce9  1  0.268579  0.000000  0.249935  1
  Sn  Sn10  1  0.612009  0.000000  0.248312  1
  Sn  Sn11  1  0.000000  0.387991  0.751688  1
  Sn  Sn12  1  0.387991  0.000000  0.751688  1
  Sn  Sn13  1  0.612009  0.612009  0.751688  1
  Sn  Sn14  1  0.000000  0.612009  0.248312  1
  Sn  Sn15  1  0.387991  0.387991  0.248312  1
  Br  Br16  1  0.000000  0.000000  0.000000  1
  Br  Br17  1  0.000000  0.000000  0.500000  1
