# generated using pymatgen
data_Dy2Ho2Ni2Hg3
_symmetry_space_group_name_H-M   'P 1'
_cell_length_a   3.62824700
_cell_length_b   7.39736342
_cell_length_c   8.07472300
_cell_angle_alpha   72.18358528
_cell_angle_beta   90.00000000
_cell_angle_gamma   90.00000000
_symmetry_Int_Tables_number   1
_chemical_formula_structural   Dy2Ho2Ni2Hg3
_chemical_formula_sum   'Dy2 Ho2 Ni2 Hg3'
_cell_volume   206.32765322
_cell_formula_units_Z   1
loop_
 _symmetry_equiv_pos_site_id
 _symmetry_equiv_pos_as_xyz
  1  'x, y, z'
loop_
 _atom_site_type_symbol
 _atom_site_label
 _atom_site_symmetry_multiplicity
 _atom_site_fract_x
 _atom_site_fract_y
 _atom_site_fract_z
 _atom_site_occupancy
  Dy  Dy0  1  0.500000  0.395410  0.311220  1
  Dy  Dy1  1  0.500000  0.604590  0.688780  1
  Ho  Ho2  1  0.500000  0.916498  0.221080  1
  Ho  Ho3  1  0.500000  0.083502  0.778920  1
  Ni  Ni4  1  0.000000  0.655355  0.392887  1
  Ni  Ni5  1  0.000000  0.344645  0.607113  1
  Hg  Hg6  1  0.000000  0.708844  0.007085  1
  Hg  Hg7  1  0.000000  0.291156  0.992915  1
  Hg  Hg8  1  0.000000  0.000000  0.500000  1
