# generated using pymatgen
data_Dy4HoIr2Os
_symmetry_space_group_name_H-M   'P 1'
_cell_length_a   10.85789100
_cell_length_b   10.85789100
_cell_length_c   6.41203100
_cell_angle_alpha   90.00000000
_cell_angle_beta   90.00000000
_cell_angle_gamma   90.00000000
_symmetry_Int_Tables_number   1
_chemical_formula_structural   Dy4HoIr2Os
_chemical_formula_sum   'Dy16 Ho4 Ir8 Os4'
_cell_volume   755.93868087
_cell_formula_units_Z   4
loop_
 _symmetry_equiv_pos_site_id
 _symmetry_equiv_pos_as_xyz
  1  'x, y, z'
loop_
 _atom_site_type_symbol
 _atom_site_label
 _atom_site_symmetry_multiplicity
 _atom_site_fract_x
 _atom_site_fract_y
 _atom_site_fract_z
 _atom_site_occupancy
  Dy  Dy0  1  0.293480  0.086235  0.376970  1
  Dy  Dy1  1  0.293480  0.913765  0.876970  1
  Dy  Dy2  1  0.706520  0.086235  0.876970  1
  Dy  Dy3  1  0.706520  0.913765  0.376970  1
  Dy  Dy4  1  0.586235  0.793480  0.876970  1
  Dy  Dy5  1  0.586235  0.206520  0.376970  1
  Dy  Dy6  1  0.413765  0.793480  0.376970  1
  Dy  Dy7  1  0.413765  0.206520  0.876970  1
  Dy  Dy8  1  0.206520  0.413765  0.623030  1
  Dy  Dy9  1  0.206520  0.586235  0.123030  1
  Dy  Dy10  1  0.793480  0.413765  0.123030  1
  Dy  Dy11  1  0.793480  0.586235  0.623030  1
  Dy  Dy12  1  0.913765  0.706520  0.123030  1
  Dy  Dy13  1  0.913765  0.293480  0.623030  1
  Dy  Dy14  1  0.086235  0.706520  0.623030  1
  Dy  Dy15  1  0.086235  0.293480  0.123030  1
  Ho  Ho16  1  0.000000  0.000000  0.500000  1
  Ho  Ho17  1  0.000000  0.000000  0.000000  1
  Ho  Ho18  1  0.500000  0.500000  0.000000  1
  Ho  Ho19  1  0.500000  0.500000  0.500000  1
  Ir  Ir20  1  0.848038  0.151962  0.250000  1
  Ir  Ir21  1  0.848038  0.848038  0.750000  1
  Ir  Ir22  1  0.151962  0.151962  0.750000  1
  Ir  Ir23  1  0.151962  0.848038  0.250000  1
  Ir  Ir24  1  0.651962  0.348038  0.750000  1
  Ir  Ir25  1  0.651962  0.651962  0.250000  1
  Ir  Ir26  1  0.348038  0.348038  0.250000  1
  Ir  Ir27  1  0.348038  0.651962  0.750000  1
  Os  Os28  1  0.500000  0.000000  0.122358  1
  Os  Os29  1  0.500000  0.000000  0.622358  1
  Os  Os30  1  0.000000  0.500000  0.877642  1
  Os  Os31  1  0.000000  0.500000  0.377642  1
