# generated using pymatgen
data_TbNd3Sn6Rh7
_symmetry_space_group_name_H-M   'P 1'
_cell_length_a   7.70793991
_cell_length_b   7.70794005
_cell_length_c   7.70793937
_cell_angle_alpha   109.41762142
_cell_angle_beta   109.41761632
_cell_angle_gamma   109.41762803
_symmetry_Int_Tables_number   1
_chemical_formula_structural   TbNd3Sn6Rh7
_chemical_formula_sum   'Tb1 Nd3 Sn6 Rh7'
_cell_volume   353.22537530
_cell_formula_units_Z   1
loop_
 _symmetry_equiv_pos_site_id
 _symmetry_equiv_pos_as_xyz
  1  'x, y, z'
loop_
 _atom_site_type_symbol
 _atom_site_label
 _atom_site_symmetry_multiplicity
 _atom_site_fract_x
 _atom_site_fract_y
 _atom_site_fract_z
 _atom_site_occupancy
  Tb  Tb0  1  0.500000  0.500000  0.500000  1
  Nd  Nd1  1  0.500000  0.000000  0.000000  1
  Nd  Nd2  1  0.000000  0.500000  0.000000  1
  Nd  Nd3  1  0.000000  0.000000  0.500000  1
  Sn  Sn4  1  0.002539  0.320187  0.320187  1
  Sn  Sn5  1  0.679813  0.997461  0.679813  1
  Sn  Sn6  1  0.679813  0.679813  0.997461  1
  Sn  Sn7  1  0.997461  0.679813  0.679813  1
  Sn  Sn8  1  0.320187  0.002539  0.320187  1
  Sn  Sn9  1  0.320187  0.320187  0.002539  1
  Rh  Rh10  1  0.000000  0.000000  0.000000  1
  Rh  Rh11  1  0.500000  0.749062  0.250938  1
  Rh  Rh12  1  0.749062  0.500000  0.250938  1
  Rh  Rh13  1  0.250938  0.749062  0.500000  1
  Rh  Rh14  1  0.250938  0.500000  0.749062  1
  Rh  Rh15  1  0.500000  0.250938  0.749062  1
  Rh  Rh16  1  0.749062  0.250938  0.500000  1
