# generated using pymatgen
data_TmLu11Co4
_symmetry_space_group_name_H-M   'P 1'
_cell_length_a   6.10008725
_cell_length_b   6.84489428
_cell_length_c   9.10450500
_cell_angle_alpha   90.00000000
_cell_angle_beta   90.00000000
_cell_angle_gamma   90.03271583
_symmetry_Int_Tables_number   1
_chemical_formula_structural   TmLu11Co4
_chemical_formula_sum   'Tm1 Lu11 Co4'
_cell_volume   380.15355785
_cell_formula_units_Z   1
loop_
 _symmetry_equiv_pos_site_id
 _symmetry_equiv_pos_as_xyz
  1  'x, y, z'
loop_
 _atom_site_type_symbol
 _atom_site_label
 _atom_site_symmetry_multiplicity
 _atom_site_fract_x
 _atom_site_fract_y
 _atom_site_fract_z
 _atom_site_occupancy
  Tm  Tm0  1  0.866028  0.540851  0.250000  1
  Lu  Lu1  1  0.324095  0.676979  0.065254  1
  Lu  Lu2  1  0.176230  0.176513  0.434678  1
  Lu  Lu3  1  0.676151  0.322909  0.565715  1
  Lu  Lu4  1  0.823772  0.823635  0.934346  1
  Lu  Lu5  1  0.676151  0.322909  0.934285  1
  Lu  Lu6  1  0.823772  0.823635  0.565654  1
  Lu  Lu7  1  0.324095  0.676979  0.434746  1
  Lu  Lu8  1  0.176230  0.176513  0.065322  1
  Lu  Lu9  1  0.634018  0.040678  0.250000  1
  Lu  Lu10  1  0.134340  0.458803  0.750000  1
  Lu  Lu11  1  0.365419  0.959200  0.750000  1
  Co  Co12  1  0.045612  0.888667  0.250000  1
  Co  Co13  1  0.453939  0.387905  0.250000  1
  Co  Co14  1  0.954769  0.111951  0.750000  1
  Co  Co15  1  0.545379  0.611875  0.750000  1
