# generated using pymatgen
data_ErMnSi2Os
_symmetry_space_group_name_H-M   'P 1'
_cell_length_a   5.82310506
_cell_length_b   5.82310566
_cell_length_c   5.82310548
_cell_angle_alpha   139.91907553
_cell_angle_beta   139.91908085
_cell_angle_gamma   57.97618281
_symmetry_Int_Tables_number   1
_chemical_formula_structural   ErMnSi2Os
_chemical_formula_sum   'Er1 Mn1 Si2 Os1'
_cell_volume   81.12972141
_cell_formula_units_Z   1
loop_
 _symmetry_equiv_pos_site_id
 _symmetry_equiv_pos_as_xyz
  1  'x, y, z'
loop_
 _atom_site_type_symbol
 _atom_site_label
 _atom_site_symmetry_multiplicity
 _atom_site_fract_x
 _atom_site_fract_y
 _atom_site_fract_z
 _atom_site_occupancy
  Er  Er0  1  0.000000  0.000000  0.000000  1
  Mn  Mn1  1  0.750000  0.250000  0.500000  1
  Si  Si2  1  0.619106  0.619106  0.000000  1
  Si  Si3  1  0.380894  0.380894  0.000000  1
  Os  Os4  1  0.250000  0.750000  0.500000  1
