# generated using pymatgen
data_Eu4Se3O2
_symmetry_space_group_name_H-M   'P 1'
_cell_length_a   8.26120070
_cell_length_b   8.26119997
_cell_length_c   6.54481457
_cell_angle_alpha   90.92376870
_cell_angle_beta   90.92376710
_cell_angle_gamma   75.62603093
_symmetry_Int_Tables_number   1
_chemical_formula_structural   Eu4Se3O2
_chemical_formula_sum   'Eu8 Se6 O4'
_cell_volume   432.59423811
_cell_formula_units_Z   2
loop_
 _symmetry_equiv_pos_site_id
 _symmetry_equiv_pos_as_xyz
  1  'x, y, z'
loop_
 _atom_site_type_symbol
 _atom_site_label
 _atom_site_symmetry_multiplicity
 _atom_site_fract_x
 _atom_site_fract_y
 _atom_site_fract_z
 _atom_site_occupancy
  Eu  Eu0  1  0.801547  0.443679  0.028079  1
  Eu  Eu1  1  0.556321  0.198453  0.471921  1
  Eu  Eu2  1  0.198453  0.556321  0.971921  1
  Eu  Eu3  1  0.443679  0.801547  0.528079  1
  Eu  Eu4  1  0.241761  0.085883  0.077069  1
  Eu  Eu5  1  0.914117  0.758239  0.422931  1
  Eu  Eu6  1  0.758239  0.914117  0.922931  1
  Eu  Eu7  1  0.085883  0.241761  0.577069  1
  Se  Se8  1  0.903550  0.096450  0.250000  1
  Se  Se9  1  0.096450  0.903550  0.750000  1
  Se  Se10  1  0.486661  0.747809  0.039645  1
  Se  Se11  1  0.252191  0.513339  0.460355  1
  Se  Se12  1  0.513339  0.252191  0.960355  1
  Se  Se13  1  0.747809  0.486661  0.539645  1
  O  O14  1  0.919705  0.670533  0.083399  1
  O  O15  1  0.329467  0.080295  0.416601  1
  O  O16  1  0.080295  0.329467  0.916601  1
  O  O17  1  0.670533  0.919705  0.583399  1
