# generated using pymatgen
data_Pu2HgAu2
_symmetry_space_group_name_H-M   'P 1'
_cell_length_a   7.87722800
_cell_length_b   7.87722800
_cell_length_c   4.01305100
_cell_angle_alpha   90.00000000
_cell_angle_beta   90.00000000
_cell_angle_gamma   90.00000000
_symmetry_Int_Tables_number   1
_chemical_formula_structural   Pu2HgAu2
_chemical_formula_sum   'Pu4 Hg2 Au4'
_cell_volume   249.01270782
_cell_formula_units_Z   2
loop_
 _symmetry_equiv_pos_site_id
 _symmetry_equiv_pos_as_xyz
  1  'x, y, z'
loop_
 _atom_site_type_symbol
 _atom_site_label
 _atom_site_symmetry_multiplicity
 _atom_site_fract_x
 _atom_site_fract_y
 _atom_site_fract_z
 _atom_site_occupancy
  Pu  Pu0  1  0.672949  0.172949  0.500000  1
  Pu  Pu1  1  0.327051  0.827051  0.500000  1
  Pu  Pu2  1  0.172949  0.327051  0.500000  1
  Pu  Pu3  1  0.827051  0.672949  0.500000  1
  Hg  Hg4  1  0.500000  0.500000  0.000000  1
  Hg  Hg5  1  0.000000  0.000000  0.000000  1
  Au  Au6  1  0.128068  0.628068  0.000000  1
  Au  Au7  1  0.871932  0.371932  0.000000  1
  Au  Au8  1  0.628068  0.871932  0.000000  1
  Au  Au9  1  0.371932  0.128068  0.000000  1
