# generated using pymatgen
data_Ho15Pa(CdCo)4
_symmetry_space_group_name_H-M   'P 1'
_cell_length_a   9.41525251
_cell_length_b   9.52168079
_cell_length_c   9.41525300
_cell_angle_alpha   60.36906571
_cell_angle_beta   60.00000178
_cell_angle_gamma   60.36906712
_symmetry_Int_Tables_number   1
_chemical_formula_structural   Ho15Pa(CdCo)4
_chemical_formula_sum   'Ho15 Pa1 Cd4 Co4'
_cell_volume   600.15424826
_cell_formula_units_Z   1
loop_
 _symmetry_equiv_pos_site_id
 _symmetry_equiv_pos_as_xyz
  1  'x, y, z'
loop_
 _atom_site_type_symbol
 _atom_site_label
 _atom_site_symmetry_multiplicity
 _atom_site_fract_x
 _atom_site_fract_y
 _atom_site_fract_z
 _atom_site_occupancy
  Ho  Ho0  1  0.687104  0.314934  0.687104  1
  Ho  Ho1  1  0.687104  0.314934  0.310857  1
  Ho  Ho2  1  0.938014  0.563283  0.560690  1
  Ho  Ho3  1  0.541654  0.149661  0.154342  1
  Ho  Ho4  1  0.154342  0.149661  0.541654  1
  Ho  Ho5  1  0.936611  0.934638  0.564376  1
  Ho  Ho6  1  0.311303  0.690302  0.311303  1
  Ho  Ho7  1  0.564376  0.934638  0.936611  1
  Ho  Ho8  1  0.564376  0.934638  0.564376  1
  Ho  Ho9  1  0.687092  0.690302  0.311303  1
  Ho  Ho10  1  0.560690  0.563283  0.938014  1
  Ho  Ho11  1  0.938014  0.563283  0.938014  1
  Ho  Ho12  1  0.311303  0.690302  0.687092  1
  Ho  Ho13  1  0.154342  0.149661  0.154342  1
  Ho  Ho14  1  0.310857  0.314934  0.687104  1
  Pa  Pa15  1  0.164300  0.507100  0.164300  1
  Cd  Cd16  1  0.919584  0.241249  0.919584  1
  Cd  Cd17  1  0.920555  0.916050  0.920555  1
  Cd  Cd18  1  0.920555  0.916050  0.242839  1
  Cd  Cd19  1  0.242839  0.916050  0.920555  1
  Co  Co20  1  0.345001  0.374927  0.935072  1
  Co  Co21  1  0.359912  0.920264  0.359912  1
  Co  Co22  1  0.935072  0.374927  0.345001  1
  Co  Co23  1  0.345001  0.374927  0.345001  1
