# generated using pymatgen
data_CsRbReP2
_symmetry_space_group_name_H-M   'P 1'
_cell_length_a   8.58515905
_cell_length_b   8.43593278
_cell_length_c   8.43593193
_cell_angle_alpha   137.95826394
_cell_angle_beta   125.73624290
_cell_angle_gamma   70.65926972
_symmetry_Int_Tables_number   1
_chemical_formula_structural   CsRbReP2
_chemical_formula_sum   'Cs2 Rb2 Re2 P4'
_cell_volume   326.14264303
_cell_formula_units_Z   2
loop_
 _symmetry_equiv_pos_site_id
 _symmetry_equiv_pos_as_xyz
  1  'x, y, z'
loop_
 _atom_site_type_symbol
 _atom_site_label
 _atom_site_symmetry_multiplicity
 _atom_site_fract_x
 _atom_site_fract_y
 _atom_site_fract_z
 _atom_site_occupancy
  Cs  Cs0  1  0.701179  0.343992  0.357187  1
  Cs  Cs1  1  0.298821  0.656008  0.642813  1
  Rb  Rb2  1  0.976787  0.148666  0.828118  1
  Rb  Rb3  1  0.023213  0.851334  0.171882  1
  Re  Re4  1  0.500000  0.747431  0.247431  1
  Re  Re5  1  0.500000  0.252569  0.752569  1
  P  P6  1  0.741560  0.596830  0.144730  1
  P  P7  1  0.592934  0.918011  0.674923  1
  P  P8  1  0.407066  0.081989  0.325077  1
  P  P9  1  0.258440  0.403170  0.855270  1
