# generated using pymatgen
data_K12Al7InSb12
_symmetry_space_group_name_H-M   'P 1'
_cell_length_a   10.92413979
_cell_length_b   10.92413859
_cell_length_c   15.49188298
_cell_angle_alpha   90.00403319
_cell_angle_beta   90.00403587
_cell_angle_gamma   142.36006329
_symmetry_Int_Tables_number   1
_chemical_formula_structural   K12Al7InSb12
_chemical_formula_sum   'K12 Al7 In1 Sb12'
_cell_volume   1129.02776261
_cell_formula_units_Z   1
loop_
 _symmetry_equiv_pos_site_id
 _symmetry_equiv_pos_as_xyz
  1  'x, y, z'
loop_
 _atom_site_type_symbol
 _atom_site_label
 _atom_site_symmetry_multiplicity
 _atom_site_fract_x
 _atom_site_fract_y
 _atom_site_fract_z
 _atom_site_occupancy
  K  K0  1  0.613663  0.934064  0.672909  1
  K  K1  1  0.568074  0.885592  0.170107  1
  K  K2  1  0.065936  0.386337  0.327091  1
  K  K3  1  0.114408  0.431926  0.829893  1
  K  K4  1  0.656928  0.657673  0.865404  1
  K  K5  1  0.431523  0.113602  0.831541  1
  K  K6  1  0.342327  0.343072  0.134596  1
  K  K7  1  0.932628  0.614286  0.672339  1
  K  K8  1  0.156775  0.159082  0.638085  1
  K  K9  1  0.886398  0.568477  0.168459  1
  K  K10  1  0.840918  0.843225  0.361915  1
  K  K11  1  0.385714  0.067372  0.327661  1
  Al  Al12  1  0.244919  0.755081  0.500000  1
  Al  Al13  1  0.257826  0.742174  0.000000  1
  Al  Al14  1  0.742447  0.257553  0.000000  1
  Al  Al15  1  0.917961  0.082039  0.000000  1
  Al  Al16  1  0.759101  0.240899  0.500000  1
  Al  Al17  1  0.081985  0.918015  0.000000  1
  Al  Al18  1  0.416038  0.583962  0.500000  1
  In  In19  1  0.583998  0.416002  0.500000  1
  Sb  Sb20  1  0.053812  0.400169  0.091260  1
  Sb  Sb21  1  0.658047  0.668564  0.619255  1
  Sb  Sb22  1  0.400320  0.053828  0.091424  1
  Sb  Sb23  1  0.599831  0.946188  0.908740  1
  Sb  Sb24  1  0.946172  0.599680  0.908576  1
  Sb  Sb25  1  0.444543  0.087581  0.596599  1
  Sb  Sb26  1  0.556476  0.902774  0.407077  1
  Sb  Sb27  1  0.161824  0.161675  0.886155  1
  Sb  Sb28  1  0.097226  0.443524  0.592923  1
  Sb  Sb29  1  0.838325  0.838176  0.113845  1
  Sb  Sb30  1  0.331436  0.341953  0.380745  1
  Sb  Sb31  1  0.912419  0.555457  0.403401  1
