# generated using pymatgen
data_TlCoTeO6
_symmetry_space_group_name_H-M   'P 1'
_cell_length_a   5.06284100
_cell_length_b   5.06242908
_cell_length_c   9.90301700
_cell_angle_alpha   90.00339535
_cell_angle_beta   89.99830246
_cell_angle_gamma   119.99728783
_symmetry_Int_Tables_number   1
_chemical_formula_structural   TlCoTeO6
_chemical_formula_sum   'Tl2 Co2 Te2 O12'
_cell_volume   219.81800662
_cell_formula_units_Z   2
loop_
 _symmetry_equiv_pos_site_id
 _symmetry_equiv_pos_as_xyz
  1  'x, y, z'
loop_
 _atom_site_type_symbol
 _atom_site_label
 _atom_site_symmetry_multiplicity
 _atom_site_fract_x
 _atom_site_fract_y
 _atom_site_fract_z
 _atom_site_occupancy
  Tl  Tl0  1  0.000000  0.000000  0.000000  1
  Tl  Tl1  1  0.000000  0.000000  0.500000  1
  Co  Co2  1  0.333216  0.666608  0.250000  1
  Co  Co3  1  0.666784  0.333392  0.750000  1
  Te  Te4  1  0.333248  0.666623  0.750000  1
  Te  Te5  1  0.666752  0.333377  0.250000  1
  O  O6  1  0.365267  0.371485  0.140678  1
  O  O7  1  0.628358  0.993767  0.140687  1
  O  O8  1  0.006045  0.634545  0.140700  1
  O  O9  1  0.634733  0.628515  0.859322  1
  O  O10  1  0.371642  0.006233  0.859313  1
  O  O11  1  0.993955  0.365455  0.859300  1
  O  O12  1  0.628358  0.634591  0.359313  1
  O  O13  1  0.365267  0.993782  0.359322  1
  O  O14  1  0.006045  0.371501  0.359300  1
  O  O15  1  0.371642  0.365409  0.640687  1
  O  O16  1  0.634733  0.006218  0.640678  1
  O  O17  1  0.993955  0.628499  0.640700  1
