# generated using pymatgen
data_DyHo4Tc3(P3Ir4)4
_symmetry_space_group_name_H-M   'P 1'
_cell_length_a   12.65976100
_cell_length_b   12.65976107
_cell_length_c   3.97962400
_cell_angle_alpha   90.00000000
_cell_angle_beta   90.00000000
_cell_angle_gamma   119.99999721
_symmetry_Int_Tables_number   1
_chemical_formula_structural   DyHo4Tc3(P3Ir4)4
_chemical_formula_sum   'Dy1 Ho4 Tc3 P12 Ir16'
_cell_volume   552.36188276
_cell_formula_units_Z   1
loop_
 _symmetry_equiv_pos_site_id
 _symmetry_equiv_pos_as_xyz
  1  'x, y, z'
loop_
 _atom_site_type_symbol
 _atom_site_label
 _atom_site_symmetry_multiplicity
 _atom_site_fract_x
 _atom_site_fract_y
 _atom_site_fract_z
 _atom_site_occupancy
  Dy  Dy0  1  0.666667  0.333333  0.500000  1
  Ho  Ho1  1  0.333333  0.666667  0.500000  1
  Ho  Ho2  1  0.000001  0.816938  0.000000  1
  Ho  Ho3  1  0.183062  0.183063  0.000000  1
  Ho  Ho4  1  0.816937  0.999999  0.000000  1
  Tc  Tc5  1  0.000014  0.455129  0.500000  1
  Tc  Tc6  1  0.544871  0.544885  0.500000  1
  Tc  Tc7  1  0.455115  0.999986  0.500000  1
  P  P8  1  0.999978  0.638887  0.500000  1
  P  P9  1  0.361113  0.361092  0.500000  1
  P  P10  1  0.638908  0.000022  0.500000  1
  P  P11  1  0.515392  0.685262  0.000000  1
  P  P12  1  0.314738  0.830129  0.000000  1
  P  P13  1  0.169871  0.484608  0.000000  1
  P  P14  1  0.484474  0.169740  0.000000  1
  P  P15  1  0.685265  0.515526  0.000000  1
  P  P16  1  0.830260  0.314735  0.000000  1
  P  P17  1  0.000012  0.176320  0.500000  1
  P  P18  1  0.823680  0.823691  0.500000  1
  P  P19  1  0.176309  0.999988  0.500000  1
  Ir  Ir20  1  0.509779  0.868180  0.000000  1
  Ir  Ir21  1  0.131820  0.641600  0.000000  1
  Ir  Ir22  1  0.358400  0.490221  0.000000  1
  Ir  Ir23  1  0.489991  0.358421  0.000000  1
  Ir  Ir24  1  0.868431  0.510009  0.000000  1
  Ir  Ir25  1  0.641579  0.131569  0.000000  1
  Ir  Ir26  1  0.000021  0.290565  0.000000  1
  Ir  Ir27  1  0.709435  0.709456  0.000000  1
  Ir  Ir28  1  0.290544  0.999979  0.000000  1
  Ir  Ir29  1  0.626796  0.805929  0.500000  1
  Ir  Ir30  1  0.194071  0.820867  0.500000  1
  Ir  Ir31  1  0.179133  0.373204  0.500000  1
  Ir  Ir32  1  0.373131  0.179086  0.500000  1
  Ir  Ir33  1  0.805955  0.626869  0.500000  1
  Ir  Ir34  1  0.820914  0.194045  0.500000  1
  Ir  Ir35  1  0.000000  0.000000  0.500000  1
