# generated using pymatgen
data_DyHo7(Tm3Sn4)4
_symmetry_space_group_name_H-M   'P 1'
_cell_length_a   7.97262705
_cell_length_b   8.10113001
_cell_length_c   15.31109108
_cell_angle_alpha   90.00333408
_cell_angle_beta   89.98908575
_cell_angle_gamma   89.99409015
_symmetry_Int_Tables_number   1
_chemical_formula_structural   DyHo7(Tm3Sn4)4
_chemical_formula_sum   'Dy1 Ho7 Tm12 Sn16'
_cell_volume   988.90182803
_cell_formula_units_Z   1
loop_
 _symmetry_equiv_pos_site_id
 _symmetry_equiv_pos_as_xyz
  1  'x, y, z'
loop_
 _atom_site_type_symbol
 _atom_site_label
 _atom_site_symmetry_multiplicity
 _atom_site_fract_x
 _atom_site_fract_y
 _atom_site_fract_z
 _atom_site_occupancy
  Dy  Dy0  1  0.021489  0.179420  0.902859  1
  Ho  Ho1  1  0.521530  0.320628  0.902817  1
  Ho  Ho2  1  0.021536  0.179418  0.597220  1
  Ho  Ho3  1  0.478471  0.679399  0.402815  1
  Ho  Ho4  1  0.978494  0.820576  0.097192  1
  Ho  Ho5  1  0.478483  0.679417  0.097172  1
  Ho  Ho6  1  0.978469  0.820600  0.402814  1
  Ho  Ho7  1  0.521532  0.320615  0.597179  1
  Tm  Tm8  1  0.367571  0.836521  0.877405  1
  Tm  Tm9  1  0.867558  0.663439  0.622583  1
  Tm  Tm10  1  0.632437  0.163424  0.377397  1
  Tm  Tm11  1  0.132474  0.336600  0.122641  1
  Tm  Tm12  1  0.632460  0.163410  0.122607  1
  Tm  Tm13  1  0.132439  0.336569  0.377394  1
  Tm  Tm14  1  0.367566  0.836561  0.622589  1
  Tm  Tm15  1  0.867546  0.663454  0.877401  1
  Tm  Tm16  1  0.198272  0.503920  0.749972  1
  Tm  Tm17  1  0.698184  0.996072  0.749962  1
  Tm  Tm18  1  0.801763  0.496118  0.250008  1
  Tm  Tm19  1  0.301766  0.003881  0.249995  1
  Sn  Sn20  1  0.293688  0.036567  0.041746  1
  Sn  Sn21  1  0.793525  0.463369  0.458324  1
  Sn  Sn22  1  0.706475  0.963384  0.541665  1
  Sn  Sn23  1  0.206526  0.536745  0.958356  1
  Sn  Sn24  1  0.706253  0.963209  0.958373  1
  Sn  Sn25  1  0.206468  0.536624  0.541665  1
  Sn  Sn26  1  0.293533  0.036633  0.458327  1
  Sn  Sn27  1  0.793529  0.463380  0.041674  1
  Sn  Sn28  1  0.564560  0.620104  0.749993  1
  Sn  Sn29  1  0.064554  0.879796  0.749987  1
  Sn  Sn30  1  0.435466  0.379861  0.250000  1
  Sn  Sn31  1  0.935461  0.120156  0.250008  1
  Sn  Sn32  1  0.330637  0.147943  0.749961  1
  Sn  Sn33  1  0.830448  0.352173  0.749902  1
  Sn  Sn34  1  0.669423  0.852053  0.249996  1
  Sn  Sn35  1  0.169416  0.647960  0.250003  1
