# generated using pymatgen
data_Dy7Tm3Si5Bi
_symmetry_space_group_name_H-M   'P 1'
_cell_length_a   8.54596469
_cell_length_b   8.54336769
_cell_length_c   6.32959503
_cell_angle_alpha   90.01116331
_cell_angle_beta   89.99156543
_cell_angle_gamma   120.31672040
_symmetry_Int_Tables_number   1
_chemical_formula_structural   Dy7Tm3Si5Bi
_chemical_formula_sum   'Dy7 Tm3 Si5 Bi1'
_cell_volume   398.93471464
_cell_formula_units_Z   1
loop_
 _symmetry_equiv_pos_site_id
 _symmetry_equiv_pos_as_xyz
  1  'x, y, z'
loop_
 _atom_site_type_symbol
 _atom_site_label
 _atom_site_symmetry_multiplicity
 _atom_site_fract_x
 _atom_site_fract_y
 _atom_site_fract_z
 _atom_site_occupancy
  Dy  Dy0  1  0.676831  0.330637  0.504827  1
  Dy  Dy1  1  0.767283  0.767466  0.249765  1
  Dy  Dy2  1  0.240294  0.984728  0.249751  1
  Dy  Dy3  1  0.984898  0.240319  0.249661  1
  Dy  Dy4  1  0.240560  0.240702  0.750140  1
  Dy  Dy5  1  0.754282  0.998035  0.750281  1
  Dy  Dy6  1  0.998459  0.754477  0.750411  1
  Tm  Tm7  1  0.330404  0.677242  0.504777  1
  Tm  Tm8  1  0.330641  0.677087  0.995231  1
  Tm  Tm9  1  0.677129  0.330549  0.995146  1
  Si  Si10  1  0.602857  0.997399  0.248881  1
  Si  Si11  1  0.999525  0.603811  0.248785  1
  Si  Si12  1  0.605951  0.606806  0.750706  1
  Si  Si13  1  0.393283  0.001765  0.751085  1
  Si  Si14  1  0.003912  0.394357  0.751309  1
  Bi  Bi15  1  0.393693  0.394623  0.249244  1
