# generated using pymatgen
data_Ta11Mn9NbCr3N4
_symmetry_space_group_name_H-M   'P 1'
_cell_length_a   8.06752158
_cell_length_b   8.05198361
_cell_length_c   8.05198349
_cell_angle_alpha   59.97350107
_cell_angle_beta   60.02678992
_cell_angle_gamma   60.02678641
_symmetry_Int_Tables_number   1
_chemical_formula_structural   Ta11Mn9NbCr3N4
_chemical_formula_sum   'Ta11 Mn9 Nb1 Cr3 N4'
_cell_volume   369.92995855
_cell_formula_units_Z   1
loop_
 _symmetry_equiv_pos_site_id
 _symmetry_equiv_pos_as_xyz
  1  'x, y, z'
loop_
 _atom_site_type_symbol
 _atom_site_label
 _atom_site_symmetry_multiplicity
 _atom_site_fract_x
 _atom_site_fract_y
 _atom_site_fract_z
 _atom_site_occupancy
  Ta  Ta0  1  0.805816  0.805762  0.194169  1
  Ta  Ta1  1  0.194600  0.196132  0.804876  1
  Ta  Ta2  1  0.805816  0.194169  0.805762  1
  Ta  Ta3  1  0.194600  0.804876  0.196132  1
  Ta  Ta4  1  0.194595  0.804590  0.804590  1
  Ta  Ta5  1  0.805971  0.194316  0.194316  1
  Ta  Ta6  1  0.444209  0.444544  0.055734  1
  Ta  Ta7  1  0.055235  0.053724  0.445397  1
  Ta  Ta8  1  0.444209  0.055734  0.444544  1
  Ta  Ta9  1  0.055235  0.445397  0.053724  1
  Ta  Ta10  1  0.055532  0.445329  0.445329  1
  Mn  Mn11  1  0.125136  0.624941  0.624941  1
  Mn  Mn12  1  0.734791  0.421709  0.421709  1
  Mn  Mn13  1  0.422556  0.732650  0.422623  1
  Mn  Mn14  1  0.422556  0.422623  0.732650  1
  Mn  Mn15  1  0.422661  0.422150  0.422150  1
  Mn  Mn16  1  0.515205  0.828094  0.828094  1
  Mn  Mn17  1  0.827385  0.517011  0.827857  1
  Mn  Mn18  1  0.827385  0.827857  0.517011  1
  Mn  Mn19  1  0.827744  0.827628  0.827628  1
  Nb  Nb20  1  0.444239  0.055467  0.055467  1
  Cr  Cr21  1  0.625179  0.124927  0.624636  1
  Cr  Cr22  1  0.625179  0.624636  0.124927  1
  Cr  Cr23  1  0.624902  0.625000  0.625000  1
  N  N24  1  0.625913  0.125340  0.125340  1
  N  N25  1  0.124982  0.625007  0.125043  1
  N  N26  1  0.124982  0.125043  0.625007  1
  N  N27  1  0.123387  0.125344  0.125344  1
