# generated using pymatgen
data_Lu8Ta9Si16W3
_symmetry_space_group_name_H-M   'P 1'
_cell_length_a   6.72271537
_cell_length_b   6.96508483
_cell_length_c   13.19867500
_cell_angle_alpha   90.00000000
_cell_angle_beta   90.00000000
_cell_angle_gamma   89.99098652
_symmetry_Int_Tables_number   1
_chemical_formula_structural   Lu8Ta9Si16W3
_chemical_formula_sum   'Lu8 Ta9 Si16 W3'
_cell_volume   618.01848368
_cell_formula_units_Z   1
loop_
 _symmetry_equiv_pos_site_id
 _symmetry_equiv_pos_as_xyz
  1  'x, y, z'
loop_
 _atom_site_type_symbol
 _atom_site_label
 _atom_site_symmetry_multiplicity
 _atom_site_fract_x
 _atom_site_fract_y
 _atom_site_fract_z
 _atom_site_occupancy
  Lu  Lu0  1  0.500851  0.327840  0.094399  1
  Lu  Lu1  1  0.000858  0.172458  0.405489  1
  Lu  Lu2  1  0.498733  0.672457  0.594632  1
  Lu  Lu3  1  0.998446  0.827598  0.905812  1
  Lu  Lu4  1  0.498733  0.672457  0.905368  1
  Lu  Lu5  1  0.998446  0.827598  0.594188  1
  Lu  Lu6  1  0.500851  0.327840  0.405601  1
  Lu  Lu7  1  0.000858  0.172458  0.094511  1
  Ta  Ta8  1  0.834771  0.329613  0.625120  1
  Ta  Ta9  1  0.334503  0.170974  0.875113  1
  Ta  Ta10  1  0.165600  0.669826  0.125772  1
  Ta  Ta11  1  0.666057  0.830094  0.373624  1
  Ta  Ta12  1  0.165600  0.669826  0.374228  1
  Ta  Ta13  1  0.666057  0.830094  0.126376  1
  Ta  Ta14  1  0.834771  0.329613  0.874880  1
  Ta  Ta15  1  0.334503  0.170974  0.624887  1
  Ta  Ta16  1  0.660659  0.007822  0.750000  1
  Si  Si17  1  0.666279  0.036157  0.541051  1
  Si  Si18  1  0.166255  0.463175  0.957858  1
  Si  Si19  1  0.334170  0.963202  0.042694  1
  Si  Si20  1  0.833895  0.536802  0.457620  1
  Si  Si21  1  0.334170  0.963202  0.457306  1
  Si  Si22  1  0.833895  0.536802  0.042380  1
  Si  Si23  1  0.666279  0.036157  0.958949  1
  Si  Si24  1  0.166255  0.463175  0.542142  1
  Si  Si25  1  0.533921  0.383490  0.750000  1
  Si  Si26  1  0.037741  0.118464  0.750000  1
  Si  Si27  1  0.465176  0.617241  0.250000  1
  Si  Si28  1  0.966037  0.883113  0.250000  1
  Si  Si29  1  0.796931  0.633098  0.750000  1
  Si  Si30  1  0.293218  0.863370  0.750000  1
  Si  Si31  1  0.203016  0.364023  0.250000  1
  Si  Si32  1  0.702917  0.136309  0.250000  1
  W  W33  1  0.160578  0.492575  0.750000  1
  W  W34  1  0.339788  0.992975  0.250000  1
  W  W35  1  0.839183  0.507127  0.250000  1
