# generated using pymatgen
data_Ce10Sn6OsBr
_symmetry_space_group_name_H-M   'P 1'
_cell_length_a   6.74248648
_cell_length_b   9.40761087
_cell_length_c   9.40652528
_cell_angle_alpha   120.00382534
_cell_angle_beta   90.01097343
_cell_angle_gamma   89.97805430
_symmetry_Int_Tables_number   1
_chemical_formula_structural   Ce10Sn6OsBr
_chemical_formula_sum   'Ce10 Sn6 Os1 Br1'
_cell_volume   516.70482163
_cell_formula_units_Z   1
loop_
 _symmetry_equiv_pos_site_id
 _symmetry_equiv_pos_as_xyz
  1  'x, y, z'
loop_
 _atom_site_type_symbol
 _atom_site_label
 _atom_site_symmetry_multiplicity
 _atom_site_fract_x
 _atom_site_fract_y
 _atom_site_fract_z
 _atom_site_occupancy
  Ce  Ce0  1  0.771819  0.253004  0.000000  1
  Ce  Ce1  1  0.772161  0.746969  0.747017  1
  Ce  Ce2  1  0.772161  0.999951  0.252983  1
  Ce  Ce3  1  0.227998  0.746897  0.000000  1
  Ce  Ce4  1  0.227999  0.253099  0.253018  1
  Ce  Ce5  1  0.227999  0.000082  0.746982  1
  Ce  Ce6  1  0.500025  0.333336  0.666704  1
  Ce  Ce7  1  0.500025  0.666632  0.333296  1
  Ce  Ce8  1  0.000044  0.666615  0.333237  1
  Ce  Ce9  1  0.000044  0.333379  0.666763  1
  Sn  Sn10  1  0.743464  0.607760  0.000000  1
  Sn  Sn11  1  0.743593  0.392119  0.392011  1
  Sn  Sn12  1  0.743593  0.000109  0.607989  1
  Sn  Sn13  1  0.256482  0.391996  0.000000  1
  Sn  Sn14  1  0.256422  0.607881  0.607896  1
  Sn  Sn15  1  0.256422  0.999984  0.392104  1
  Os  Os16  1  0.999781  0.000187  0.000000  1
  Br  Br17  1  0.499966  0.999999  0.000000  1
