# generated using pymatgen
data_Ho3LuMo3Os5
_symmetry_space_group_name_H-M   'P 1'
_cell_length_a   5.39573109
_cell_length_b   5.39573017
_cell_length_c   8.62216004
_cell_angle_alpha   90.00927716
_cell_angle_beta   89.99072082
_cell_angle_gamma   117.30499493
_symmetry_Int_Tables_number   1
_chemical_formula_structural   Ho3LuMo3Os5
_chemical_formula_sum   'Ho3 Lu1 Mo3 Os5'
_cell_volume   223.05490636
_cell_formula_units_Z   1
loop_
 _symmetry_equiv_pos_site_id
 _symmetry_equiv_pos_as_xyz
  1  'x, y, z'
loop_
 _atom_site_type_symbol
 _atom_site_label
 _atom_site_symmetry_multiplicity
 _atom_site_fract_x
 _atom_site_fract_y
 _atom_site_fract_z
 _atom_site_occupancy
  Ho  Ho0  1  0.665869  0.334131  0.566756  1
  Ho  Ho1  1  0.665862  0.334138  0.933054  1
  Ho  Ho2  1  0.333253  0.666747  0.062461  1
  Lu  Lu3  1  0.333054  0.666946  0.437918  1
  Mo  Mo4  1  0.002538  0.997462  0.506530  1
  Mo  Mo5  1  0.002517  0.997483  0.993525  1
  Mo  Mo6  1  0.825882  0.174118  0.250404  1
  Os  Os7  1  0.829664  0.661117  0.250504  1
  Os  Os8  1  0.338883  0.170336  0.250504  1
  Os  Os9  1  0.176968  0.823032  0.749297  1
  Os  Os10  1  0.168331  0.342821  0.749523  1
  Os  Os11  1  0.657179  0.831669  0.749523  1
