# generated using pymatgen
data_Ho2Tm4Al24Os7Au
_symmetry_space_group_name_H-M   'P 1'
_cell_length_a   8.84196681
_cell_length_b   8.83268250
_cell_length_c   9.53629091
_cell_angle_alpha   89.75819080
_cell_angle_beta   90.21496716
_cell_angle_gamma   119.98037679
_symmetry_Int_Tables_number   1
_chemical_formula_structural   Ho2Tm4Al24Os7Au
_chemical_formula_sum   'Ho2 Tm4 Al24 Os7 Au1'
_cell_volume   645.10857638
_cell_formula_units_Z   1
loop_
 _symmetry_equiv_pos_site_id
 _symmetry_equiv_pos_as_xyz
  1  'x, y, z'
loop_
 _atom_site_type_symbol
 _atom_site_label
 _atom_site_symmetry_multiplicity
 _atom_site_fract_x
 _atom_site_fract_y
 _atom_site_fract_z
 _atom_site_occupancy
  Ho  Ho0  1  0.191032  0.387861  0.251595  1
  Ho  Ho1  1  0.808968  0.612139  0.748405  1
  Tm  Tm2  1  0.611234  0.808911  0.251852  1
  Tm  Tm3  1  0.388766  0.191089  0.748148  1
  Tm  Tm4  1  0.195973  0.804006  0.254153  1
  Tm  Tm5  1  0.804027  0.195994  0.745847  1
  Al  Al6  1  0.328963  0.671222  0.024096  1
  Al  Al7  1  0.671037  0.328778  0.975904  1
  Al  Al8  1  0.666209  0.333695  0.519435  1
  Al  Al9  1  0.333791  0.666305  0.480565  1
  Al  Al10  1  0.163076  0.325669  0.576252  1
  Al  Al11  1  0.836924  0.674331  0.423748  1
  Al  Al12  1  0.674467  0.837189  0.576051  1
  Al  Al13  1  0.848476  0.677663  0.080323  1
  Al  Al14  1  0.325533  0.162811  0.423949  1
  Al  Al15  1  0.151524  0.322337  0.919677  1
  Al  Al16  1  0.163447  0.836876  0.575783  1
  Al  Al17  1  0.322256  0.151377  0.080186  1
  Al  Al18  1  0.836553  0.163124  0.424217  1
  Al  Al19  1  0.677744  0.848623  0.919814  1
  Al  Al20  1  0.836703  0.163031  0.076609  1
  Al  Al21  1  0.163297  0.836969  0.923391  1
  Al  Al22  1  0.560836  0.121320  0.249227  1
  Al  Al23  1  0.439164  0.878680  0.750773  1
  Al  Al24  1  0.878350  0.439251  0.249267  1
  Al  Al25  1  0.121650  0.560749  0.750733  1
  Al  Al26  1  0.563730  0.436684  0.255469  1
  Al  Al27  1  0.436270  0.563316  0.744531  1
  Al  Al28  1  0.999299  0.000079  0.250324  1
  Al  Al29  1  0.000701  0.999921  0.749676  1
  Os  Os30  1  0.500000  0.000000  0.000000  1
  Os  Os31  1  0.000000  0.500000  0.000000  1
  Os  Os32  1  0.500000  0.000000  0.500000  1
  Os  Os33  1  0.000000  0.500000  0.500000  1
  Os  Os34  1  0.500000  0.500000  0.500000  1
  Os  Os35  1  0.000000  0.000000  0.000000  1
  Os  Os36  1  0.000000  0.000000  0.500000  1
  Au  Au37  1  0.500000  0.500000  0.000000  1
