# generated using pymatgen
data_La6Mg(GeSe7)2
_symmetry_space_group_name_H-M   'P 1'
_cell_length_a   10.84871700
_cell_length_b   10.84871767
_cell_length_c   6.14073100
_cell_angle_alpha   90.00000000
_cell_angle_beta   90.00000000
_cell_angle_gamma   120.00000102
_symmetry_Int_Tables_number   1
_chemical_formula_structural   La6Mg(GeSe7)2
_chemical_formula_sum   'La6 Mg1 Ge2 Se14'
_cell_volume   625.90365503
_cell_formula_units_Z   1
loop_
 _symmetry_equiv_pos_site_id
 _symmetry_equiv_pos_as_xyz
  1  'x, y, z'
loop_
 _atom_site_type_symbol
 _atom_site_label
 _atom_site_symmetry_multiplicity
 _atom_site_fract_x
 _atom_site_fract_y
 _atom_site_fract_z
 _atom_site_occupancy
  La  La0  1  0.643633  0.770043  0.752740  1
  La  La1  1  0.126409  0.356367  0.752740  1
  La  La2  1  0.229957  0.873591  0.752740  1
  La  La3  1  0.355846  0.229142  0.249993  1
  La  La4  1  0.873297  0.644154  0.249993  1
  La  La5  1  0.770858  0.126703  0.249993  1
  Mg  Mg6  1  0.000000  0.000000  0.518261  1
  Ge  Ge7  1  0.333333  0.666667  0.167859  1
  Ge  Ge8  1  0.666667  0.333333  0.662486  1
  Se  Se9  1  0.483074  0.897961  0.010727  1
  Se  Se10  1  0.414886  0.516926  0.010727  1
  Se  Se11  1  0.102039  0.585114  0.010727  1
  Se  Se12  1  0.517415  0.101833  0.506628  1
  Se  Se13  1  0.584417  0.482585  0.506628  1
  Se  Se14  1  0.898167  0.415583  0.506628  1
  Se  Se15  1  0.333333  0.666667  0.550304  1
  Se  Se16  1  0.666667  0.333333  0.045969  1
  Se  Se17  1  0.751350  0.840958  0.279877  1
  Se  Se18  1  0.089608  0.248650  0.279877  1
  Se  Se19  1  0.159042  0.910392  0.279877  1
  Se  Se20  1  0.248544  0.161205  0.759089  1
  Se  Se21  1  0.912661  0.751456  0.759089  1
  Se  Se22  1  0.838795  0.087339  0.759089  1
