# generated using pymatgen
data_Tb9DyAlSb5
_symmetry_space_group_name_H-M   'P 1'
_cell_length_a   6.40860900
_cell_length_b   8.99927673
_cell_length_c   8.97716502
_cell_angle_alpha   120.08432980
_cell_angle_beta   90.00013682
_cell_angle_gamma   89.99602053
_symmetry_Int_Tables_number   1
_chemical_formula_structural   Tb9DyAlSb5
_chemical_formula_sum   'Tb9 Dy1 Al1 Sb5'
_cell_volume   447.99332811
_cell_formula_units_Z   1
loop_
 _symmetry_equiv_pos_site_id
 _symmetry_equiv_pos_as_xyz
  1  'x, y, z'
loop_
 _atom_site_type_symbol
 _atom_site_label
 _atom_site_symmetry_multiplicity
 _atom_site_fract_x
 _atom_site_fract_y
 _atom_site_fract_z
 _atom_site_occupancy
  Tb  Tb0  1  0.500749  0.338109  0.672933  1
  Tb  Tb1  1  0.500702  0.665168  0.327079  1
  Tb  Tb2  1  0.999320  0.665205  0.327162  1
  Tb  Tb3  1  0.750012  0.248435  0.999986  1
  Tb  Tb4  1  0.750024  0.753867  0.762429  1
  Tb  Tb5  1  0.750035  0.991448  0.237562  1
  Tb  Tb6  1  0.249944  0.756900  0.999982  1
  Tb  Tb7  1  0.249969  0.245423  0.244812  1
  Tb  Tb8  1  0.249987  0.000545  0.755148  1
  Dy  Dy9  1  0.999238  0.338133  0.672928  1
  Al  Al10  1  0.750182  0.604494  0.999820  1
  Sb  Sb11  1  0.750174  0.388450  0.390416  1
  Sb  Sb12  1  0.750152  0.998416  0.609744  1
  Sb  Sb13  1  0.249803  0.391981  0.999792  1
  Sb  Sb14  1  0.249865  0.610770  0.608502  1
  Sb  Sb15  1  0.249846  0.002660  0.391704  1
