# generated using pymatgen
data_RbLiPdSe5
_symmetry_space_group_name_H-M   'P 1'
_cell_length_a   7.70553700
_cell_length_b   6.32601540
_cell_length_c   9.36175656
_cell_angle_alpha   78.52860617
_cell_angle_beta   90.00000000
_cell_angle_gamma   90.00000000
_symmetry_Int_Tables_number   1
_chemical_formula_structural   RbLiPdSe5
_chemical_formula_sum   'Rb2 Li2 Pd2 Se10'
_cell_volume   447.22622664
_cell_formula_units_Z   2
loop_
 _symmetry_equiv_pos_site_id
 _symmetry_equiv_pos_as_xyz
  1  'x, y, z'
loop_
 _atom_site_type_symbol
 _atom_site_label
 _atom_site_symmetry_multiplicity
 _atom_site_fract_x
 _atom_site_fract_y
 _atom_site_fract_z
 _atom_site_occupancy
  Rb  Rb0  1  0.750000  0.759973  0.047161  1
  Rb  Rb1  1  0.250000  0.240027  0.952839  1
  Li  Li2  1  0.750000  0.864695  0.599089  1
  Li  Li3  1  0.250000  0.135305  0.400911  1
  Pd  Pd4  1  0.500000  0.500000  0.500000  1
  Pd  Pd5  1  0.000000  0.500000  0.500000  1
  Se  Se6  1  0.250000  0.928475  0.673761  1
  Se  Se7  1  0.983354  0.336598  0.278214  1
  Se  Se8  1  0.750000  0.281921  0.615492  1
  Se  Se9  1  0.250000  0.718079  0.384508  1
  Se  Se10  1  0.516646  0.336598  0.278214  1
  Se  Se11  1  0.250000  0.687388  0.135246  1
  Se  Se12  1  0.750000  0.312612  0.864754  1
  Se  Se13  1  0.750000  0.071525  0.326239  1
  Se  Se14  1  0.016646  0.663402  0.721786  1
  Se  Se15  1  0.483354  0.663402  0.721786  1
