# generated using pymatgen
data_Ce2Lu5FeI12
_symmetry_space_group_name_H-M   'P 1'
_cell_length_a   9.69519669
_cell_length_b   9.69064555
_cell_length_c   9.70978800
_cell_angle_alpha   106.90796585
_cell_angle_beta   106.70159333
_cell_angle_gamma   107.51750705
_symmetry_Int_Tables_number   1
_chemical_formula_structural   Ce2Lu5FeI12
_chemical_formula_sum   'Ce2 Lu5 Fe1 I12'
_cell_volume   758.82789940
_cell_formula_units_Z   1
loop_
 _symmetry_equiv_pos_site_id
 _symmetry_equiv_pos_as_xyz
  1  'x, y, z'
loop_
 _atom_site_type_symbol
 _atom_site_label
 _atom_site_symmetry_multiplicity
 _atom_site_fract_x
 _atom_site_fract_y
 _atom_site_fract_z
 _atom_site_occupancy
  Ce  Ce0  1  0.588703  0.771870  0.523386  1
  Ce  Ce1  1  0.411297  0.228130  0.476614  1
  Lu  Lu2  1  0.796850  0.527638  0.596549  1
  Lu  Lu3  1  0.525888  0.596605  0.795398  1
  Lu  Lu4  1  0.203150  0.472362  0.403451  1
  Lu  Lu5  1  0.474112  0.403395  0.204602  1
  Lu  Lu6  1  0.000000  0.000000  0.000000  1
  Fe  Fe7  1  0.500000  0.500000  0.500000  1
  I  I8  1  0.738707  0.192834  0.580505  1
  I  I9  1  0.972908  0.885685  0.666376  1
  I  I10  1  0.568281  0.716629  0.169339  1
  I  I11  1  0.112382  0.338463  0.036960  1
  I  I12  1  0.661085  0.961250  0.894583  1
  I  I13  1  0.887618  0.661537  0.963040  1
  I  I14  1  0.027092  0.114315  0.333624  1
  I  I15  1  0.821372  0.429320  0.277813  1
  I  I16  1  0.338915  0.038750  0.105417  1
  I  I17  1  0.261293  0.807166  0.419495  1
  I  I18  1  0.178628  0.570680  0.722187  1
  I  I19  1  0.431719  0.283371  0.830661  1
