# generated using pymatgen
data_La12Si11Ni
_symmetry_space_group_name_H-M   'P 1'
_cell_length_a   4.07896600
_cell_length_b   6.04037747
_cell_length_c   25.10627700
_cell_angle_alpha   82.72446333
_cell_angle_beta   90.00000000
_cell_angle_gamma   90.00000000
_symmetry_Int_Tables_number   1
_chemical_formula_structural   La12Si11Ni
_chemical_formula_sum   'La12 Si11 Ni1'
_cell_volume   613.60042406
_cell_formula_units_Z   1
loop_
 _symmetry_equiv_pos_site_id
 _symmetry_equiv_pos_as_xyz
  1  'x, y, z'
loop_
 _atom_site_type_symbol
 _atom_site_label
 _atom_site_symmetry_multiplicity
 _atom_site_fract_x
 _atom_site_fract_y
 _atom_site_fract_z
 _atom_site_occupancy
  La  La0  1  0.750000  0.355656  0.066915  1
  La  La1  1  0.250000  0.656496  0.942002  1
  La  La2  1  0.750000  0.522235  0.220582  1
  La  La3  1  0.250000  0.469184  0.773723  1
  La  La4  1  0.750000  0.165863  0.391793  1
  La  La5  1  0.250000  0.828489  0.606659  1
  La  La6  1  0.750000  0.353276  0.559309  1
  La  La7  1  0.250000  0.643637  0.438786  1
  La  La8  1  0.750000  0.996280  0.727048  1
  La  La9  1  0.250000  0.999096  0.271240  1
  La  La10  1  0.750000  0.170687  0.893561  1
  La  La11  1  0.250000  0.845190  0.107962  1
  Si  Si12  1  0.750000  0.891534  0.012348  1
  Si  Si13  1  0.250000  0.133360  0.990391  1
  Si  Si14  1  0.750000  0.061195  0.177578  1
  Si  Si15  1  0.250000  0.942215  0.822963  1
  Si  Si16  1  0.750000  0.689776  0.342288  1
  Si  Si17  1  0.250000  0.303158  0.655611  1
  Si  Si18  1  0.750000  0.877981  0.510249  1
  Si  Si19  1  0.250000  0.120706  0.488078  1
  Si  Si20  1  0.750000  0.523382  0.677525  1
  Si  Si21  1  0.250000  0.473971  0.319888  1
  Si  Si22  1  0.750000  0.699294  0.845086  1
  Ni  Ni23  1  0.250000  0.277337  0.158412  1
