# generated using pymatgen
data_Tm16Sc4ZnBi11
_symmetry_space_group_name_H-M   'P 1'
_cell_length_a   8.02400292
_cell_length_b   9.30091200
_cell_length_c   11.76891568
_cell_angle_alpha   90.00000000
_cell_angle_beta   89.64698108
_cell_angle_gamma   90.00000000
_symmetry_Int_Tables_number   1
_chemical_formula_structural   Tm16Sc4ZnBi11
_chemical_formula_sum   'Tm16 Sc4 Zn1 Bi11'
_cell_volume   878.30392030
_cell_formula_units_Z   1
loop_
 _symmetry_equiv_pos_site_id
 _symmetry_equiv_pos_as_xyz
  1  'x, y, z'
loop_
 _atom_site_type_symbol
 _atom_site_label
 _atom_site_symmetry_multiplicity
 _atom_site_fract_x
 _atom_site_fract_y
 _atom_site_fract_z
 _atom_site_occupancy
  Tm  Tm0  1  0.355375  0.250000  0.296083  1
  Tm  Tm1  1  0.648467  0.750000  0.715818  1
  Tm  Tm2  1  0.150104  0.750000  0.782304  1
  Tm  Tm3  1  0.852360  0.250000  0.215747  1
  Tm  Tm4  1  0.190812  0.250000  0.776777  1
  Tm  Tm5  1  0.810756  0.750000  0.218527  1
  Tm  Tm6  1  0.313900  0.750000  0.280613  1
  Tm  Tm7  1  0.674037  0.250000  0.711321  1
  Tm  Tm8  1  0.196549  0.066550  0.060826  1
  Tm  Tm9  1  0.803471  0.934114  0.941070  1
  Tm  Tm10  1  0.306113  0.952175  0.558087  1
  Tm  Tm11  1  0.803471  0.565886  0.941070  1
  Tm  Tm12  1  0.687444  0.071790  0.445850  1
  Tm  Tm13  1  0.196549  0.433450  0.060826  1
  Tm  Tm14  1  0.687444  0.428210  0.445850  1
  Tm  Tm15  1  0.306113  0.547825  0.558087  1
  Sc  Sc16  1  0.035455  0.250000  0.509451  1
  Sc  Sc17  1  0.980855  0.750000  0.489214  1
  Sc  Sc18  1  0.475625  0.750000  0.011172  1
  Sc  Sc19  1  0.525431  0.250000  0.988675  1
  Zn  Zn20  1  0.404788  0.250000  0.540028  1
  Bi  Bi21  1  0.597898  0.750000  0.457368  1
  Bi  Bi22  1  0.098394  0.750000  0.042310  1
  Bi  Bi23  1  0.903273  0.250000  0.954673  1
  Bi  Bi24  1  0.061841  0.002782  0.328128  1
  Bi  Bi25  1  0.936049  0.997442  0.671748  1
  Bi  Bi26  1  0.436427  0.997268  0.828284  1
  Bi  Bi27  1  0.936049  0.502558  0.671748  1
  Bi  Bi28  1  0.563342  0.004020  0.170966  1
  Bi  Bi29  1  0.061841  0.497218  0.328128  1
  Bi  Bi30  1  0.563342  0.495980  0.170966  1
  Bi  Bi31  1  0.436427  0.502732  0.828284  1
