# generated using pymatgen
data_NdEr2Ga4Pd7
_symmetry_space_group_name_H-M   'P 1'
_cell_length_a   8.08426139
_cell_length_b   8.08426188
_cell_length_c   9.69938442
_cell_angle_alpha   56.30569907
_cell_angle_beta   56.30569738
_cell_angle_gamma   29.45997269
_symmetry_Int_Tables_number   1
_chemical_formula_structural   NdEr2Ga4Pd7
_chemical_formula_sum   'Nd1 Er2 Ga4 Pd7'
_cell_volume   255.37462357
_cell_formula_units_Z   1
loop_
 _symmetry_equiv_pos_site_id
 _symmetry_equiv_pos_as_xyz
  1  'x, y, z'
loop_
 _atom_site_type_symbol
 _atom_site_label
 _atom_site_symmetry_multiplicity
 _atom_site_fract_x
 _atom_site_fract_y
 _atom_site_fract_z
 _atom_site_occupancy
  Nd  Nd0  1  0.500000  0.500000  0.500000  1
  Er  Er1  1  0.828529  0.828529  0.164921  1
  Er  Er2  1  0.171471  0.171471  0.835079  1
  Ga  Ga3  1  0.386497  0.386497  0.332357  1
  Ga  Ga4  1  0.613503  0.613503  0.667643  1
  Ga  Ga5  1  0.835985  0.835985  0.770940  1
  Ga  Ga6  1  0.164015  0.164015  0.229060  1
  Pd  Pd7  1  0.664000  0.664000  0.070944  1
  Pd  Pd8  1  0.007296  0.007296  0.207681  1
  Pd  Pd9  1  0.992704  0.992704  0.792319  1
  Pd  Pd10  1  0.500000  0.500000  0.000000  1
  Pd  Pd11  1  0.191092  0.191092  0.463959  1
  Pd  Pd12  1  0.808908  0.808908  0.536041  1
  Pd  Pd13  1  0.336000  0.336000  0.929056  1
