# generated using pymatgen
data_La2Tb3Ho(IrO7)2
_symmetry_space_group_name_H-M   'P 1'
_cell_length_a   6.51138954
_cell_length_b   6.50514716
_cell_length_c   7.53299100
_cell_angle_alpha   90.00000000
_cell_angle_beta   90.00000000
_cell_angle_gamma   109.61091790
_symmetry_Int_Tables_number   1
_chemical_formula_structural   La2Tb3Ho(IrO7)2
_chemical_formula_sum   'La2 Tb3 Ho1 Ir2 O14'
_cell_volume   300.57036870
_cell_formula_units_Z   1
loop_
 _symmetry_equiv_pos_site_id
 _symmetry_equiv_pos_as_xyz
  1  'x, y, z'
loop_
 _atom_site_type_symbol
 _atom_site_label
 _atom_site_symmetry_multiplicity
 _atom_site_fract_x
 _atom_site_fract_y
 _atom_site_fract_z
 _atom_site_occupancy
  La  La0  1  0.000375  0.000155  0.499586  1
  La  La1  1  0.000375  0.000155  0.000414  1
  Tb  Tb2  1  0.515456  0.064197  0.250000  1
  Tb  Tb3  1  0.936129  0.484284  0.750000  1
  Tb  Tb4  1  0.484182  0.935256  0.750000  1
  Ho  Ho5  1  0.062115  0.514724  0.250000  1
  Ir  Ir6  1  0.500357  0.500334  0.499529  1
  Ir  Ir7  1  0.500357  0.500334  0.000471  1
  O  O8  1  0.442738  0.182508  0.534666  1
  O  O9  1  0.818247  0.556987  0.464200  1
  O  O10  1  0.442738  0.182508  0.965334  1
  O  O11  1  0.818247  0.556987  0.035800  1
  O  O12  1  0.557971  0.817927  0.465140  1
  O  O13  1  0.182180  0.443572  0.532702  1
  O  O14  1  0.557971  0.817927  0.034860  1
  O  O15  1  0.182180  0.443572  0.967298  1
  O  O16  1  0.159860  0.875999  0.250000  1
  O  O17  1  0.120567  0.840655  0.750000  1
  O  O18  1  0.840286  0.120330  0.750000  1
  O  O19  1  0.880243  0.162061  0.250000  1
  O  O20  1  0.407550  0.409520  0.250000  1
  O  O21  1  0.589876  0.590010  0.750000  1
