# generated using pymatgen
data_Fe3Sb12Au
_symmetry_space_group_name_H-M   'P 1'
_cell_length_a   8.04857633
_cell_length_b   8.04857709
_cell_length_c   8.04857684
_cell_angle_alpha   109.50992141
_cell_angle_beta   109.50992893
_cell_angle_gamma   109.50992614
_symmetry_Int_Tables_number   1
_chemical_formula_structural   Fe3Sb12Au
_chemical_formula_sum   'Fe3 Sb12 Au1'
_cell_volume   400.78500728
_cell_formula_units_Z   1
loop_
 _symmetry_equiv_pos_site_id
 _symmetry_equiv_pos_as_xyz
  1  'x, y, z'
loop_
 _atom_site_type_symbol
 _atom_site_label
 _atom_site_symmetry_multiplicity
 _atom_site_fract_x
 _atom_site_fract_y
 _atom_site_fract_z
 _atom_site_occupancy
  Fe  Fe0  1  0.500000  0.000000  0.000000  1
  Fe  Fe1  1  0.000000  0.000000  0.500000  1
  Fe  Fe2  1  0.000000  0.500000  0.000000  1
  Sb  Sb3  1  0.671741  0.862093  0.503273  1
  Sb  Sb4  1  0.862093  0.503273  0.671741  1
  Sb  Sb5  1  0.503273  0.671741  0.862093  1
  Sb  Sb6  1  0.671850  0.161923  0.832153  1
  Sb  Sb7  1  0.838077  0.167847  0.328150  1
  Sb  Sb8  1  0.161923  0.832153  0.671850  1
  Sb  Sb9  1  0.167847  0.328150  0.838077  1
  Sb  Sb10  1  0.137907  0.496727  0.328259  1
  Sb  Sb11  1  0.328259  0.137907  0.496727  1
  Sb  Sb12  1  0.496727  0.328259  0.137907  1
  Sb  Sb13  1  0.328150  0.838077  0.167847  1
  Sb  Sb14  1  0.832153  0.671850  0.161923  1
  Au  Au15  1  0.500000  0.500000  0.500000  1
