# generated using pymatgen
data_Hf4Co7P12Ru13
_symmetry_space_group_name_H-M   'P 1'
_cell_length_a   3.75503900
_cell_length_b   10.53742393
_cell_length_c   12.01466405
_cell_angle_alpha   90.22283738
_cell_angle_beta   90.00000000
_cell_angle_gamma   90.00000000
_symmetry_Int_Tables_number   1
_chemical_formula_structural   Hf4Co7P12Ru13
_chemical_formula_sum   'Hf4 Co7 P12 Ru13'
_cell_volume   475.39789182
_cell_formula_units_Z   1
loop_
 _symmetry_equiv_pos_site_id
 _symmetry_equiv_pos_as_xyz
  1  'x, y, z'
loop_
 _atom_site_type_symbol
 _atom_site_label
 _atom_site_symmetry_multiplicity
 _atom_site_fract_x
 _atom_site_fract_y
 _atom_site_fract_z
 _atom_site_occupancy
  Hf  Hf0  1  0.250000  0.583381  0.707868  1
  Hf  Hf1  1  0.250000  0.914633  0.206004  1
  Hf  Hf2  1  0.750000  0.417164  0.293787  1
  Hf  Hf3  1  0.750000  0.084777  0.795814  1
  Co  Co4  1  0.250000  0.607892  0.200691  1
  Co  Co5  1  0.750000  0.110477  0.299545  1
  Co  Co6  1  0.750000  0.388371  0.800553  1
  Co  Co7  1  0.250000  0.460605  0.932048  1
  Co  Co8  1  0.250000  0.039261  0.428942  1
  Co  Co9  1  0.750000  0.536020  0.069748  1
  Co  Co10  1  0.750000  0.964337  0.560028  1
  P  P11  1  0.250000  0.426371  0.113706  1
  P  P12  1  0.250000  0.079130  0.609113  1
  P  P13  1  0.750000  0.569008  0.887951  1
  P  P14  1  0.750000  0.926848  0.382539  1
  P  P15  1  0.250000  0.267419  0.870833  1
  P  P16  1  0.250000  0.232991  0.370220  1
  P  P17  1  0.750000  0.729781  0.129150  1
  P  P18  1  0.750000  0.769674  0.630579  1
  P  P19  1  0.250000  0.597737  0.384172  1
  P  P20  1  0.250000  0.900895  0.890042  1
  P  P21  1  0.750000  0.403673  0.615692  1
  P  P22  1  0.750000  0.098369  0.115864  1
  Ru  Ru23  1  0.250000  0.709505  0.993190  1
  Ru  Ru24  1  0.250000  0.790575  0.483198  1
  Ru  Ru25  1  0.750000  0.288605  0.011193  1
  Ru  Ru26  1  0.750000  0.211877  0.510203  1
  Ru  Ru27  1  0.250000  0.408168  0.481682  1
  Ru  Ru28  1  0.250000  0.093437  0.983814  1
  Ru  Ru29  1  0.750000  0.595007  0.518988  1
  Ru  Ru30  1  0.750000  0.906351  0.020328  1
  Ru  Ru31  1  0.250000  0.227865  0.182021  1
  Ru  Ru32  1  0.250000  0.275690  0.681234  1
  Ru  Ru33  1  0.750000  0.766398  0.822897  1
  Ru  Ru34  1  0.750000  0.726264  0.317185  1
  Ru  Ru35  1  0.250000  0.891444  0.699175  1
