# generated using pymatgen
data_Zr10CuSb6As
_symmetry_space_group_name_H-M   'P 1'
_cell_length_a   8.66510100
_cell_length_b   8.66510197
_cell_length_c   5.87789000
_cell_angle_alpha   90.00000000
_cell_angle_beta   90.00000000
_cell_angle_gamma   119.99999248
_symmetry_Int_Tables_number   1
_chemical_formula_structural   Zr10CuSb6As
_chemical_formula_sum   'Zr10 Cu1 Sb6 As1'
_cell_volume   382.20769449
_cell_formula_units_Z   1
loop_
 _symmetry_equiv_pos_site_id
 _symmetry_equiv_pos_as_xyz
  1  'x, y, z'
loop_
 _atom_site_type_symbol
 _atom_site_label
 _atom_site_symmetry_multiplicity
 _atom_site_fract_x
 _atom_site_fract_y
 _atom_site_fract_z
 _atom_site_occupancy
  Zr  Zr0  1  0.666667  0.333333  0.000000  1
  Zr  Zr1  1  0.333333  0.666667  0.000000  1
  Zr  Zr2  1  0.333333  0.666667  0.500000  1
  Zr  Zr3  1  0.666667  0.333333  0.500000  1
  Zr  Zr4  1  0.735525  0.735525  0.750348  1
  Zr  Zr5  1  0.264475  0.000000  0.750348  1
  Zr  Zr6  1  0.000000  0.264475  0.750348  1
  Zr  Zr7  1  0.264475  0.264475  0.249652  1
  Zr  Zr8  1  0.735525  0.000000  0.249652  1
  Zr  Zr9  1  0.000000  0.735525  0.249652  1
  Cu  Cu10  1  0.000000  0.000000  0.000000  1
  Sb  Sb11  1  0.390502  0.390502  0.753242  1
  Sb  Sb12  1  0.609498  0.000000  0.753242  1
  Sb  Sb13  1  0.000000  0.609498  0.753242  1
  Sb  Sb14  1  0.609498  0.609498  0.246758  1
  Sb  Sb15  1  0.390502  0.000000  0.246758  1
  Sb  Sb16  1  0.000000  0.390502  0.246758  1
  As  As17  1  0.000000  0.000000  0.500000  1
