# generated using pymatgen
data_Ta6Be15GaCo7
_symmetry_space_group_name_H-M   'P 1'
_cell_length_a   7.59201687
_cell_length_b   7.59630681
_cell_length_c   7.59249600
_cell_angle_alpha   60.01450246
_cell_angle_beta   59.99663469
_cell_angle_gamma   60.01204825
_symmetry_Int_Tables_number   1
_chemical_formula_structural   Ta6Be15GaCo7
_chemical_formula_sum   'Ta6 Be15 Ga1 Co7'
_cell_volume   309.67439615
_cell_formula_units_Z   1
loop_
 _symmetry_equiv_pos_site_id
 _symmetry_equiv_pos_as_xyz
  1  'x, y, z'
loop_
 _atom_site_type_symbol
 _atom_site_label
 _atom_site_symmetry_multiplicity
 _atom_site_fract_x
 _atom_site_fract_y
 _atom_site_fract_z
 _atom_site_occupancy
  Ta  Ta0  1  0.209664  0.212508  0.788914  1
  Ta  Ta1  1  0.199902  0.788792  0.811444  1
  Ta  Ta2  1  0.788877  0.212586  0.209669  1
  Ta  Ta3  1  0.199899  0.788800  0.199867  1
  Ta  Ta4  1  0.788880  0.212583  0.788875  1
  Ta  Ta5  1  0.811578  0.788835  0.199796  1
  Be  Be6  1  0.508630  0.474886  0.508188  1
  Be  Be7  1  0.500187  0.502621  0.998614  1
  Be  Be8  1  0.998482  0.502616  0.500161  1
  Be  Be9  1  0.501421  0.003247  0.993930  1
  Be  Be10  1  0.993893  0.003349  0.501384  1
  Be  Be11  1  0.998471  0.502608  0.998765  1
  Be  Be12  1  0.501424  0.003249  0.501410  1
  Be  Be13  1  0.824520  0.526219  0.824617  1
  Be  Be14  1  0.167092  0.182509  0.483362  1
  Be  Be15  1  0.483428  0.182466  0.167065  1
  Be  Be16  1  0.167078  0.182509  0.167041  1
  Be  Be17  1  0.520806  0.826076  0.826535  1
  Be  Be18  1  0.826491  0.826127  0.826636  1
  Be  Be19  1  0.826475  0.826116  0.520744  1
  Be  Be20  1  0.176586  0.470353  0.176534  1
  Ga  Ga21  1  0.381761  0.854600  0.381839  1
  Co  Co22  1  0.624679  0.125793  0.624773  1
  Co  Co23  1  0.376783  0.376719  0.869741  1
  Co  Co24  1  0.869782  0.376720  0.376767  1
  Co  Co25  1  0.376759  0.376711  0.376766  1
  Co  Co26  1  0.136310  0.623397  0.620148  1
  Co  Co27  1  0.620068  0.623501  0.620159  1
  Co  Co28  1  0.620080  0.623501  0.136262  1
