# generated using pymatgen
data_TbTiCo4As3
_symmetry_space_group_name_H-M   'P 1'
_cell_length_a   3.79425700
_cell_length_b   10.83864500
_cell_length_c   12.39512700
_cell_angle_alpha   90.00000000
_cell_angle_beta   90.00000000
_cell_angle_gamma   90.00000000
_symmetry_Int_Tables_number   1
_chemical_formula_structural   TbTiCo4As3
_chemical_formula_sum   'Tb4 Ti4 Co16 As12'
_cell_volume   509.74469761
_cell_formula_units_Z   4
loop_
 _symmetry_equiv_pos_site_id
 _symmetry_equiv_pos_as_xyz
  1  'x, y, z'
loop_
 _atom_site_type_symbol
 _atom_site_label
 _atom_site_symmetry_multiplicity
 _atom_site_fract_x
 _atom_site_fract_y
 _atom_site_fract_z
 _atom_site_occupancy
  Tb  Tb0  1  0.250000  0.919887  0.205827  1
  Tb  Tb1  1  0.750000  0.080113  0.794173  1
  Tb  Tb2  1  0.750000  0.419887  0.294173  1
  Tb  Tb3  1  0.250000  0.580113  0.705827  1
  Ti  Ti4  1  0.250000  0.800701  0.491355  1
  Ti  Ti5  1  0.750000  0.199299  0.508645  1
  Ti  Ti6  1  0.750000  0.300701  0.008645  1
  Ti  Ti7  1  0.250000  0.699299  0.991355  1
  Co  Co8  1  0.250000  0.094929  0.989454  1
  Co  Co9  1  0.750000  0.905071  0.010546  1
  Co  Co10  1  0.750000  0.594929  0.510546  1
  Co  Co11  1  0.250000  0.405071  0.489454  1
  Co  Co12  1  0.250000  0.282100  0.675372  1
  Co  Co13  1  0.750000  0.717900  0.324628  1
  Co  Co14  1  0.750000  0.782100  0.824628  1
  Co  Co15  1  0.250000  0.217900  0.175372  1
  Co  Co16  1  0.250000  0.615898  0.198336  1
  Co  Co17  1  0.750000  0.384102  0.801664  1
  Co  Co18  1  0.750000  0.115898  0.301664  1
  Co  Co19  1  0.250000  0.884102  0.698336  1
  Co  Co20  1  0.250000  0.035116  0.433795  1
  Co  Co21  1  0.750000  0.964884  0.566205  1
  Co  Co22  1  0.750000  0.535116  0.066205  1
  Co  Co23  1  0.250000  0.464884  0.933795  1
  As  As24  1  0.250000  0.080323  0.617157  1
  As  As25  1  0.750000  0.919677  0.382843  1
  As  As26  1  0.750000  0.580323  0.882843  1
  As  As27  1  0.250000  0.419677  0.117157  1
  As  As28  1  0.250000  0.233530  0.363304  1
  As  As29  1  0.750000  0.766470  0.636696  1
  As  As30  1  0.750000  0.733530  0.136696  1
  As  As31  1  0.250000  0.266470  0.863304  1
  As  As32  1  0.250000  0.906284  0.890228  1
  As  As33  1  0.750000  0.093716  0.109772  1
  As  As34  1  0.750000  0.406284  0.609772  1
  As  As35  1  0.250000  0.593716  0.390228  1
