# generated using pymatgen
data_Mn2Ni(AgO2)3
_symmetry_space_group_name_H-M   'P 1'
_cell_length_a   5.32199889
_cell_length_b   5.23401003
_cell_length_c   6.50661013
_cell_angle_alpha   73.53768852
_cell_angle_beta   98.01020344
_cell_angle_gamma   119.45457734
_symmetry_Int_Tables_number   1
_chemical_formula_structural   Mn2Ni(AgO2)3
_chemical_formula_sum   'Mn2 Ni1 Ag3 O6'
_cell_volume   151.34810499
_cell_formula_units_Z   1
loop_
 _symmetry_equiv_pos_site_id
 _symmetry_equiv_pos_as_xyz
  1  'x, y, z'
loop_
 _atom_site_type_symbol
 _atom_site_label
 _atom_site_symmetry_multiplicity
 _atom_site_fract_x
 _atom_site_fract_y
 _atom_site_fract_z
 _atom_site_occupancy
  Mn  Mn0  1  0.999280  0.499640  0.500000  1
  Mn  Mn1  1  0.667387  0.833693  0.500000  1
  Ni  Ni2  1  0.333333  0.166667  0.500000  1
  Ag  Ag3  1  0.665662  0.332831  0.000000  1
  Ag  Ag4  1  0.333333  0.666667  0.000000  1
  Ag  Ag5  1  0.001005  0.000502  0.000000  1
  O  O6  1  0.333333  0.765132  0.664039  1
  O  O7  1  0.990257  0.118349  0.661889  1
  O  O8  1  0.676410  0.461424  0.661889  1
  O  O9  1  0.676410  0.214984  0.338111  1
  O  O10  1  0.333333  0.568202  0.335961  1
  O  O11  1  0.990257  0.871909  0.338111  1
