# generated using pymatgen
data_CaAc4InSn2
_symmetry_space_group_name_H-M   'P 1'
_cell_length_a   9.90237481
_cell_length_b   9.90237448
_cell_length_c   9.86498500
_cell_angle_alpha   128.42091243
_cell_angle_beta   128.42091090
_cell_angle_gamma   76.22116388
_symmetry_Int_Tables_number   1
_chemical_formula_structural   CaAc4InSn2
_chemical_formula_sum   'Ca2 Ac8 In2 Sn4'
_cell_volume   576.24808672
_cell_formula_units_Z   2
loop_
 _symmetry_equiv_pos_site_id
 _symmetry_equiv_pos_as_xyz
  1  'x, y, z'
loop_
 _atom_site_type_symbol
 _atom_site_label
 _atom_site_symmetry_multiplicity
 _atom_site_fract_x
 _atom_site_fract_y
 _atom_site_fract_z
 _atom_site_occupancy
  Ca  Ca0  1  0.000000  0.000000  0.000000  1
  Ca  Ca1  1  0.500000  0.500000  0.000000  1
  Ac  Ac2  1  0.816841  0.316841  0.838873  1
  Ac  Ac3  1  0.183159  0.683159  0.161127  1
  Ac  Ac4  1  0.477968  0.977968  0.161127  1
  Ac  Ac5  1  0.318180  0.482165  0.500000  1
  Ac  Ac6  1  0.017835  0.181820  0.500000  1
  Ac  Ac7  1  0.522032  0.022032  0.838873  1
  Ac  Ac8  1  0.681820  0.517835  0.500000  1
  Ac  Ac9  1  0.982165  0.818180  0.500000  1
  In  In10  1  0.125464  0.625464  0.750929  1
  In  In11  1  0.874536  0.374536  0.249071  1
  Sn  Sn12  1  0.630282  0.869718  0.500000  1
  Sn  Sn13  1  0.369718  0.130282  0.500000  1
  Sn  Sn14  1  0.250000  0.250000  0.000000  1
  Sn  Sn15  1  0.750000  0.750000  0.000000  1
