# generated using pymatgen
data_Pr14Pd5Rh
_symmetry_space_group_name_H-M   'P 1'
_cell_length_a   10.25361100
_cell_length_b   10.25904900
_cell_length_c   6.53456736
_cell_angle_alpha   90.02026358
_cell_angle_beta   90.00000000
_cell_angle_gamma   119.98247024
_symmetry_Int_Tables_number   1
_chemical_formula_structural   Pr14Pd5Rh
_chemical_formula_sum   'Pr14 Pd5 Rh1'
_cell_volume   595.39894856
_cell_formula_units_Z   1
loop_
 _symmetry_equiv_pos_site_id
 _symmetry_equiv_pos_as_xyz
  1  'x, y, z'
loop_
 _atom_site_type_symbol
 _atom_site_label
 _atom_site_symmetry_multiplicity
 _atom_site_fract_x
 _atom_site_fract_y
 _atom_site_fract_z
 _atom_site_occupancy
  Pr  Pr0  1  0.331640  0.663282  0.462139  1
  Pr  Pr1  1  0.666703  0.333406  0.952717  1
  Pr  Pr2  1  0.125850  0.872973  0.241962  1
  Pr  Pr3  1  0.747124  0.872973  0.241962  1
  Pr  Pr4  1  0.127465  0.254929  0.248818  1
  Pr  Pr5  1  0.880208  0.130731  0.740831  1
  Pr  Pr6  1  0.250522  0.130731  0.740831  1
  Pr  Pr7  1  0.872657  0.745314  0.739624  1
  Pr  Pr8  1  0.537005  0.460228  0.444171  1
  Pr  Pr9  1  0.923223  0.460228  0.444171  1
  Pr  Pr10  1  0.537925  0.075851  0.448173  1
  Pr  Pr11  1  0.455850  0.535911  0.943701  1
  Pr  Pr12  1  0.080061  0.535911  0.943701  1
  Pr  Pr13  1  0.462565  0.925130  0.948685  1
  Pd  Pd14  1  0.810616  0.187574  0.193196  1
  Pd  Pd15  1  0.376958  0.187574  0.193196  1
  Pd  Pd16  1  0.811199  0.622398  0.193071  1
  Pd  Pd17  1  0.188918  0.813273  0.694547  1
  Pd  Pd18  1  0.624354  0.813273  0.694547  1
  Rh  Rh19  1  0.189156  0.378312  0.692046  1
