# generated using pymatgen
data_Tb8Lu12Sn15Sb
_symmetry_space_group_name_H-M   'P 1'
_cell_length_a   7.98034903
_cell_length_b   8.08132028
_cell_length_c   15.25647674
_cell_angle_alpha   90.06121779
_cell_angle_beta   90.46260177
_cell_angle_gamma   90.02037350
_symmetry_Int_Tables_number   1
_chemical_formula_structural   Tb8Lu12Sn15Sb
_chemical_formula_sum   'Tb8 Lu12 Sn15 Sb1'
_cell_volume   983.88428649
_cell_formula_units_Z   1
loop_
 _symmetry_equiv_pos_site_id
 _symmetry_equiv_pos_as_xyz
  1  'x, y, z'
loop_
 _atom_site_type_symbol
 _atom_site_label
 _atom_site_symmetry_multiplicity
 _atom_site_fract_x
 _atom_site_fract_y
 _atom_site_fract_z
 _atom_site_occupancy
  Tb  Tb0  1  0.525181  0.324420  0.901710  1
  Tb  Tb1  1  0.020515  0.178112  0.596282  1
  Tb  Tb2  1  0.479250  0.677428  0.403297  1
  Tb  Tb3  1  0.972809  0.821087  0.098642  1
  Tb  Tb4  1  0.476343  0.676129  0.097394  1
  Tb  Tb5  1  0.979375  0.821860  0.403510  1
  Tb  Tb6  1  0.520811  0.321475  0.596419  1
  Tb  Tb7  1  0.022771  0.179555  0.901846  1
  Lu  Lu8  1  0.368351  0.838839  0.877856  1
  Lu  Lu9  1  0.865131  0.662562  0.623866  1
  Lu  Lu10  1  0.634995  0.161969  0.375577  1
  Lu  Lu11  1  0.131871  0.339608  0.123369  1
  Lu  Lu12  1  0.634157  0.160961  0.122248  1
  Lu  Lu13  1  0.135723  0.337949  0.375609  1
  Lu  Lu14  1  0.364687  0.837987  0.623699  1
  Lu  Lu15  1  0.866755  0.661496  0.876888  1
  Lu  Lu16  1  0.196912  0.504638  0.749737  1
  Lu  Lu17  1  0.696889  0.995234  0.750517  1
  Lu  Lu18  1  0.803325  0.495186  0.250379  1
  Lu  Lu19  1  0.303244  0.004131  0.251475  1
  Sn  Sn20  1  0.797985  0.459633  0.458037  1
  Sn  Sn21  1  0.702419  0.959833  0.541259  1
  Sn  Sn22  1  0.206197  0.538074  0.958350  1
  Sn  Sn23  1  0.709485  0.963034  0.957690  1
  Sn  Sn24  1  0.202508  0.539825  0.541243  1
  Sn  Sn25  1  0.298102  0.040242  0.458164  1
  Sn  Sn26  1  0.794103  0.462092  0.042327  1
  Sn  Sn27  1  0.562959  0.622849  0.750474  1
  Sn  Sn28  1  0.063668  0.878834  0.751555  1
  Sn  Sn29  1  0.437637  0.377017  0.248371  1
  Sn  Sn30  1  0.937444  0.121442  0.249003  1
  Sn  Sn31  1  0.331202  0.148666  0.749918  1
  Sn  Sn32  1  0.831417  0.351253  0.749214  1
  Sn  Sn33  1  0.666978  0.850846  0.250160  1
  Sn  Sn34  1  0.168741  0.649278  0.250360  1
  Sb  Sb35  1  0.290057  0.036460  0.043556  1
