# generated using pymatgen
data_Sm2Ta5WO18
_symmetry_space_group_name_H-M   'P 1'
_cell_length_a   7.57086650
_cell_length_b   5.39339369
_cell_length_c   8.31756409
_cell_angle_alpha   87.68236878
_cell_angle_beta   90.12827881
_cell_angle_gamma   89.80599698
_symmetry_Int_Tables_number   1
_chemical_formula_structural   Sm2Ta5WO18
_chemical_formula_sum   'Sm2 Ta5 W1 O18'
_cell_volume   339.34757540
_cell_formula_units_Z   1
loop_
 _symmetry_equiv_pos_site_id
 _symmetry_equiv_pos_as_xyz
  1  'x, y, z'
loop_
 _atom_site_type_symbol
 _atom_site_label
 _atom_site_symmetry_multiplicity
 _atom_site_fract_x
 _atom_site_fract_y
 _atom_site_fract_z
 _atom_site_occupancy
  Sm  Sm0  1  0.247817  0.964776  0.434900  1
  Sm  Sm1  1  0.752183  0.035224  0.565100  1
  Ta  Ta2  1  0.500000  0.000000  0.000000  1
  Ta  Ta3  1  0.494085  0.525792  0.696943  1
  Ta  Ta4  1  0.008022  0.529002  0.697598  1
  Ta  Ta5  1  0.991978  0.470998  0.302402  1
  Ta  Ta6  1  0.505915  0.474208  0.303057  1
  W  W7  1  0.000000  0.000000  0.000000  1
  O  O8  1  0.246811  0.914787  0.980701  1
  O  O9  1  0.937361  0.849767  0.782491  1
  O  O10  1  0.558651  0.845925  0.788392  1
  O  O11  1  0.959994  0.737564  0.468441  1
  O  O12  1  0.540001  0.737774  0.467887  1
  O  O13  1  0.250903  0.655814  0.659383  1
  O  O14  1  0.948931  0.677850  0.123976  1
  O  O15  1  0.548646  0.681552  0.122103  1
  O  O16  1  0.250102  0.567769  0.312815  1
  O  O17  1  0.749898  0.432231  0.687185  1
  O  O18  1  0.051069  0.322150  0.876024  1
  O  O19  1  0.451354  0.318448  0.877897  1
  O  O20  1  0.749097  0.344186  0.340617  1
  O  O21  1  0.040006  0.262436  0.531559  1
  O  O22  1  0.459999  0.262226  0.532113  1
  O  O23  1  0.062639  0.150233  0.217509  1
  O  O24  1  0.441349  0.154075  0.211608  1
  O  O25  1  0.753189  0.085213  0.019299  1
