# generated using pymatgen
data_Hf10CuSn5GeBi
_symmetry_space_group_name_H-M   'P 1'
_cell_length_a   8.66105850
_cell_length_b   8.64852089
_cell_length_c   5.80808369
_cell_angle_alpha   89.95629692
_cell_angle_beta   90.08727305
_cell_angle_gamma   120.04796672
_symmetry_Int_Tables_number   1
_chemical_formula_structural   Hf10CuSn5GeBi
_chemical_formula_sum   'Hf10 Cu1 Sn5 Ge1 Bi1'
_cell_volume   376.58731544
_cell_formula_units_Z   1
loop_
 _symmetry_equiv_pos_site_id
 _symmetry_equiv_pos_as_xyz
  1  'x, y, z'
loop_
 _atom_site_type_symbol
 _atom_site_label
 _atom_site_symmetry_multiplicity
 _atom_site_fract_x
 _atom_site_fract_y
 _atom_site_fract_z
 _atom_site_occupancy
  Hf  Hf0  1  0.330004  0.662805  0.998453  1
  Hf  Hf1  1  0.667332  0.337549  0.501475  1
  Hf  Hf2  1  0.667200  0.337195  0.998453  1
  Hf  Hf3  1  0.329782  0.662451  0.501475  1
  Hf  Hf4  1  0.261277  0.000000  0.250190  1
  Hf  Hf5  1  0.265070  0.266182  0.749470  1
  Hf  Hf6  1  0.998887  0.733818  0.749470  1
  Hf  Hf7  1  0.007337  0.268664  0.250240  1
  Hf  Hf8  1  0.738673  0.731336  0.250240  1
  Hf  Hf9  1  0.735631  0.000000  0.749866  1
  Cu  Cu10  1  0.999768  0.000000  0.502369  1
  Sn  Sn11  1  0.610946  0.613048  0.749327  1
  Sn  Sn12  1  0.997898  0.386952  0.749327  1
  Sn  Sn13  1  0.001103  0.610753  0.250460  1
  Sn  Sn14  1  0.390349  0.389247  0.250460  1
  Sn  Sn15  1  0.387137  0.000000  0.749480  1
  Ge  Ge16  1  0.999405  0.000000  0.998427  1
  Bi  Bi17  1  0.612200  0.000000  0.250817  1
