# generated using pymatgen
data_Er2CoNi3B4
_symmetry_space_group_name_H-M   'P 1'
_cell_length_a   4.89720918
_cell_length_b   4.92594595
_cell_length_c   6.91362702
_cell_angle_alpha   59.11208627
_cell_angle_beta   59.24915071
_cell_angle_gamma   63.21017090
_symmetry_Int_Tables_number   1
_chemical_formula_structural   Er2CoNi3B4
_chemical_formula_sum   'Er2 Co1 Ni3 B4'
_cell_volume   118.92872775
_cell_formula_units_Z   1
loop_
 _symmetry_equiv_pos_site_id
 _symmetry_equiv_pos_as_xyz
  1  'x, y, z'
loop_
 _atom_site_type_symbol
 _atom_site_label
 _atom_site_symmetry_multiplicity
 _atom_site_fract_x
 _atom_site_fract_y
 _atom_site_fract_z
 _atom_site_occupancy
  Er  Er0  1  0.120910  0.875638  0.255192  1
  Er  Er1  1  0.872685  0.117592  0.759059  1
  Co  Co2  1  0.466571  0.279599  0.200861  1
  Ni  Ni3  1  0.730854  0.531632  0.298182  1
  Ni  Ni4  1  0.535457  0.728364  0.793168  1
  Ni  Ni5  1  0.274589  0.470649  0.699142  1
  B  B6  1  0.166794  0.495484  0.021051  1
  B  B7  1  0.493558  0.849149  0.473550  1
  B  B8  1  0.841490  0.486725  0.981161  1
  B  B9  1  0.497091  0.165169  0.518635  1
