# generated using pymatgen
data_TmZnCdCu2Ir
_symmetry_space_group_name_H-M   'P 1'
_cell_length_a   5.26270505
_cell_length_b   5.26270492
_cell_length_c   5.11875992
_cell_angle_alpha   59.19364237
_cell_angle_beta   59.19364749
_cell_angle_gamma   58.53254877
_symmetry_Int_Tables_number   1
_chemical_formula_structural   TmZnCdCu2Ir
_chemical_formula_sum   'Tm1 Zn1 Cd1 Cu2 Ir1'
_cell_volume   97.88912125
_cell_formula_units_Z   1
loop_
 _symmetry_equiv_pos_site_id
 _symmetry_equiv_pos_as_xyz
  1  'x, y, z'
loop_
 _atom_site_type_symbol
 _atom_site_label
 _atom_site_symmetry_multiplicity
 _atom_site_fract_x
 _atom_site_fract_y
 _atom_site_fract_z
 _atom_site_occupancy
  Tm  Tm0  1  0.997878  0.997878  0.993551  1
  Zn  Zn1  1  0.624794  0.624794  0.127332  1
  Cd  Cd2  1  0.253080  0.253080  0.247740  1
  Cu  Cu3  1  0.623812  0.126585  0.626861  1
  Cu  Cu4  1  0.126585  0.623812  0.626861  1
  Ir  Ir5  1  0.623851  0.623851  0.627655  1
