# generated using pymatgen
data_Ho2Ga(Co2P)6
_symmetry_space_group_name_H-M   'P 1'
_cell_length_a   9.09342400
_cell_length_b   9.09342457
_cell_length_c   3.58237100
_cell_angle_alpha   90.00000000
_cell_angle_beta   90.00000000
_cell_angle_gamma   119.99998339
_symmetry_Int_Tables_number   1
_chemical_formula_structural   Ho2Ga(Co2P)6
_chemical_formula_sum   'Ho2 Ga1 Co12 P6'
_cell_volume   256.54064061
_cell_formula_units_Z   1
loop_
 _symmetry_equiv_pos_site_id
 _symmetry_equiv_pos_as_xyz
  1  'x, y, z'
loop_
 _atom_site_type_symbol
 _atom_site_label
 _atom_site_symmetry_multiplicity
 _atom_site_fract_x
 _atom_site_fract_y
 _atom_site_fract_z
 _atom_site_occupancy
  Ho  Ho0  1  0.666667  0.333333  0.500000  1
  Ho  Ho1  1  0.333333  0.666667  0.000000  1
  Ga  Ga2  1  0.000000  0.000000  0.000000  1
  Co  Co3  1  0.128775  0.837270  0.000000  1
  Co  Co4  1  0.386293  0.439522  0.500000  1
  Co  Co5  1  0.708495  0.871225  0.000000  1
  Co  Co6  1  0.560478  0.946771  0.500000  1
  Co  Co7  1  0.256099  0.114727  0.500000  1
  Co  Co8  1  0.858628  0.743901  0.500000  1
  Co  Co9  1  0.885273  0.141372  0.500000  1
  Co  Co10  1  0.939318  0.377689  0.000000  1
  Co  Co11  1  0.622311  0.561628  0.000000  1
  Co  Co12  1  0.438372  0.060682  0.000000  1
  Co  Co13  1  0.053229  0.613707  0.500000  1
  Co  Co14  1  0.162730  0.291505  0.000000  1
  P  P15  1  0.597584  0.708513  0.500000  1
  P  P16  1  0.708941  0.113010  0.000000  1
  P  P17  1  0.886990  0.595931  0.000000  1
  P  P18  1  0.404069  0.291059  0.000000  1
  P  P19  1  0.291487  0.889071  0.500000  1
  P  P20  1  0.110929  0.402416  0.500000  1
