# generated using pymatgen
data_Tb4Dy8Co5Sb
_symmetry_space_group_name_H-M   'P 1'
_cell_length_a   8.29932108
_cell_length_b   8.29931948
_cell_length_c   8.29932011
_cell_angle_alpha   107.05575599
_cell_angle_beta   110.63260696
_cell_angle_gamma   110.75199835
_symmetry_Int_Tables_number   1
_chemical_formula_structural   Tb4Dy8Co5Sb
_chemical_formula_sum   'Tb4 Dy8 Co5 Sb1'
_cell_volume   439.46967984
_cell_formula_units_Z   1
loop_
 _symmetry_equiv_pos_site_id
 _symmetry_equiv_pos_as_xyz
  1  'x, y, z'
loop_
 _atom_site_type_symbol
 _atom_site_label
 _atom_site_symmetry_multiplicity
 _atom_site_fract_x
 _atom_site_fract_y
 _atom_site_fract_z
 _atom_site_occupancy
  Tb  Tb0  1  0.476365  0.291093  0.185271  1
  Tb  Tb1  1  0.105822  0.291093  0.814729  1
  Tb  Tb2  1  0.894178  0.708907  0.185271  1
  Tb  Tb3  1  0.523635  0.708907  0.814729  1
  Dy  Dy4  1  0.308077  0.620973  0.312895  1
  Dy  Dy5  1  0.308077  0.995183  0.687105  1
  Dy  Dy6  1  0.691923  0.379027  0.687105  1
  Dy  Dy7  1  0.691923  0.004817  0.312895  1
  Dy  Dy8  1  0.193289  0.206991  0.400280  1
  Dy  Dy9  1  0.806711  0.793009  0.599720  1
  Dy  Dy10  1  0.193289  0.793009  0.986297  1
  Dy  Dy11  1  0.806711  0.206991  0.013703  1
  Co  Co12  1  0.500000  0.612396  0.112396  1
  Co  Co13  1  0.500000  0.387604  0.887604  1
  Co  Co14  1  0.375295  0.000000  0.375295  1
  Co  Co15  1  0.624705  0.000000  0.624705  1
  Co  Co16  1  0.000000  0.000000  0.000000  1
  Sb  Sb17  1  0.000000  0.500000  0.500000  1
