# generated using pymatgen
data_La9Pr3(GaIr)8
_symmetry_space_group_name_H-M   'P 1'
_cell_length_a   5.80998215
_cell_length_b   8.29108362
_cell_length_c   13.76115100
_cell_angle_alpha   90.00000000
_cell_angle_beta   90.00000000
_cell_angle_gamma   90.07189796
_symmetry_Int_Tables_number   1
_chemical_formula_structural   La9Pr3(GaIr)8
_chemical_formula_sum   'La9 Pr3 Ga8 Ir8'
_cell_volume   662.88854142
_cell_formula_units_Z   1
loop_
 _symmetry_equiv_pos_site_id
 _symmetry_equiv_pos_as_xyz
  1  'x, y, z'
loop_
 _atom_site_type_symbol
 _atom_site_label
 _atom_site_symmetry_multiplicity
 _atom_site_fract_x
 _atom_site_fract_y
 _atom_site_fract_z
 _atom_site_occupancy
  La  La0  1  0.147636  0.896126  0.596668  1
  La  La1  1  0.852087  0.103335  0.096854  1
  La  La2  1  0.147794  0.603568  0.403180  1
  La  La3  1  0.852086  0.396501  0.903462  1
  La  La4  1  0.852087  0.103335  0.403146  1
  La  La5  1  0.147636  0.896126  0.903332  1
  La  La6  1  0.852086  0.396501  0.596538  1
  La  La7  1  0.147794  0.603568  0.096820  1
  La  La8  1  0.373305  0.253768  0.750000  1
  Pr  Pr9  1  0.628559  0.747309  0.250000  1
  Pr  Pr10  1  0.370948  0.247379  0.250000  1
  Pr  Pr11  1  0.629033  0.752607  0.750000  1
  Ga  Ga12  1  0.864354  0.100998  0.750000  1
  Ga  Ga13  1  0.136800  0.897263  0.250000  1
  Ga  Ga14  1  0.863291  0.397031  0.250000  1
  Ga  Ga15  1  0.135515  0.604211  0.750000  1
  Ga  Ga16  1  0.379179  0.250017  0.499423  1
  Ga  Ga17  1  0.621133  0.750004  0.000054  1
  Ga  Ga18  1  0.621133  0.750004  0.499946  1
  Ga  Ga19  1  0.379179  0.250017  0.000577  1
  Ir  Ir20  1  0.643451  0.029980  0.591236  1
  Ir  Ir21  1  0.355990  0.970256  0.091163  1
  Ir  Ir22  1  0.644323  0.470670  0.408834  1
  Ir  Ir23  1  0.355420  0.529260  0.908486  1
  Ir  Ir24  1  0.355990  0.970256  0.408837  1
  Ir  Ir25  1  0.643451  0.029980  0.908764  1
  Ir  Ir26  1  0.355420  0.529260  0.591514  1
  Ir  Ir27  1  0.644323  0.470670  0.091166  1
