# generated using pymatgen
data_ThMgMnIr3
_symmetry_space_group_name_H-M   'P 1'
_cell_length_a   5.17473484
_cell_length_b   5.17473518
_cell_length_c   5.17473449
_cell_angle_alpha   64.09948346
_cell_angle_beta   64.09947864
_cell_angle_gamma   64.09947160
_symmetry_Int_Tables_number   1
_chemical_formula_structural   ThMgMnIr3
_chemical_formula_sum   'Th1 Mg1 Mn1 Ir3'
_cell_volume   106.82182701
_cell_formula_units_Z   1
loop_
 _symmetry_equiv_pos_site_id
 _symmetry_equiv_pos_as_xyz
  1  'x, y, z'
loop_
 _atom_site_type_symbol
 _atom_site_label
 _atom_site_symmetry_multiplicity
 _atom_site_fract_x
 _atom_site_fract_y
 _atom_site_fract_z
 _atom_site_occupancy
  Th  Th0  1  0.001144  0.001144  0.001144  1
  Mg  Mg1  1  0.257707  0.257707  0.257707  1
  Mn  Mn2  1  0.623328  0.623328  0.623328  1
  Ir  Ir3  1  0.126838  0.620492  0.620492  1
  Ir  Ir4  1  0.620492  0.126838  0.620492  1
  Ir  Ir5  1  0.620492  0.620492  0.126838  1
