# generated using pymatgen
data_LiSb19
_symmetry_space_group_name_H-M   'P 1'
_cell_length_a   7.76821766
_cell_length_b   8.71750138
_cell_length_c   9.86716100
_cell_angle_alpha   103.09486417
_cell_angle_beta   96.93454748
_cell_angle_gamma   107.31739290
_symmetry_Int_Tables_number   1
_chemical_formula_structural   LiSb19
_chemical_formula_sum   'Li1 Sb19'
_cell_volume   608.46550114
_cell_formula_units_Z   1
loop_
 _symmetry_equiv_pos_site_id
 _symmetry_equiv_pos_as_xyz
  1  'x, y, z'
loop_
 _atom_site_type_symbol
 _atom_site_label
 _atom_site_symmetry_multiplicity
 _atom_site_fract_x
 _atom_site_fract_y
 _atom_site_fract_z
 _atom_site_occupancy
  Li  Li0  1  0.000000  0.500000  0.000000  1
  Sb  Sb1  1  0.802941  0.597666  0.590579  1
  Sb  Sb2  1  0.568509  0.191209  0.191461  1
  Sb  Sb3  1  0.431491  0.808791  0.808539  1
  Sb  Sb4  1  0.602000  0.701813  0.201708  1
  Sb  Sb5  1  0.197059  0.402334  0.409421  1
  Sb  Sb6  1  0.398000  0.298187  0.798292  1
  Sb  Sb7  1  0.000000  0.000000  0.000000  1
  Sb  Sb8  1  0.192855  0.900267  0.397979  1
  Sb  Sb9  1  0.807145  0.099733  0.602021  1
  Sb  Sb10  1  0.701324  0.648540  0.900634  1
  Sb  Sb11  1  0.500653  0.251267  0.498950  1
  Sb  Sb12  1  0.703791  0.156001  0.898734  1
  Sb  Sb13  1  0.296209  0.843999  0.101266  1
  Sb  Sb14  1  0.499347  0.748733  0.501050  1
  Sb  Sb15  1  0.095923  0.449003  0.700640  1
  Sb  Sb16  1  0.298676  0.351460  0.099366  1
  Sb  Sb17  1  0.902669  0.047889  0.300590  1
  Sb  Sb18  1  0.097331  0.952111  0.699410  1
  Sb  Sb19  1  0.904077  0.550997  0.299360  1
