# generated using pymatgen
data_Na3SiB4(Pt2Rh)3
_symmetry_space_group_name_H-M   'P 1'
_cell_length_a   6.50190255
_cell_length_b   6.50190279
_cell_length_c   14.98223857
_cell_angle_alpha   90.30079266
_cell_angle_beta   89.69920723
_cell_angle_gamma   128.47059260
_symmetry_Int_Tables_number   1
_chemical_formula_structural   Na3SiB4(Pt2Rh)3
_chemical_formula_sum   'Na6 Si2 B8 Pt12 Rh6'
_cell_volume   495.87457436
_cell_formula_units_Z   2
loop_
 _symmetry_equiv_pos_site_id
 _symmetry_equiv_pos_as_xyz
  1  'x, y, z'
loop_
 _atom_site_type_symbol
 _atom_site_label
 _atom_site_symmetry_multiplicity
 _atom_site_fract_x
 _atom_site_fract_y
 _atom_site_fract_z
 _atom_site_occupancy
  Na  Na0  1  0.303618  0.703425  0.750927  1
  Na  Na1  1  0.703425  0.303618  0.249073  1
  Na  Na2  1  0.566341  0.434442  0.082608  1
  Na  Na3  1  0.434442  0.566341  0.917392  1
  Na  Na4  1  0.434146  0.565289  0.583163  1
  Na  Na5  1  0.565289  0.434146  0.416837  1
  Si  Si6  1  0.716942  0.300689  0.755345  1
  Si  Si7  1  0.300689  0.716942  0.244655  1
  B  B8  1  0.942047  0.046205  0.139976  1
  B  B9  1  0.046205  0.942047  0.860024  1
  B  B10  1  0.048283  0.941216  0.641671  1
  B  B11  1  0.941216  0.048283  0.358329  1
  B  B12  1  0.182576  0.814224  0.026215  1
  B  B13  1  0.814224  0.182576  0.973785  1
  B  B14  1  0.811872  0.184923  0.524667  1
  B  B15  1  0.184923  0.811872  0.475333  1
  Pt  Pt16  1  0.297754  0.187529  0.750378  1
  Pt  Pt17  1  0.187529  0.297754  0.249622  1
  Pt  Pt18  1  0.869997  0.125759  0.655961  1
  Pt  Pt19  1  0.125759  0.869997  0.344039  1
  Pt  Pt20  1  0.566829  0.935641  0.084470  1
  Pt  Pt21  1  0.935641  0.566829  0.915530  1
  Pt  Pt22  1  0.432153  0.067324  0.581430  1
  Pt  Pt23  1  0.067324  0.432153  0.418570  1
  Pt  Pt24  1  0.434274  0.065272  0.918429  1
  Pt  Pt25  1  0.065272  0.434274  0.081571  1
  Pt  Pt26  1  0.567041  0.933923  0.416371  1
  Pt  Pt27  1  0.933923  0.567041  0.583629  1
  Rh  Rh28  1  0.999452  0.999452  0.000000  1
  Rh  Rh29  1  0.998450  0.998450  0.500000  1
  Rh  Rh30  1  0.707461  0.815333  0.249834  1
  Rh  Rh31  1  0.815333  0.707461  0.750166  1
  Rh  Rh32  1  0.126246  0.873323  0.154936  1
  Rh  Rh33  1  0.873323  0.126246  0.845064  1
