# generated using pymatgen
data_TaTi4Ga(B2Ru5)2
_symmetry_space_group_name_H-M   'P 1'
_cell_length_a   9.27188147
_cell_length_b   9.26298273
_cell_length_c   3.00917700
_cell_angle_alpha   90.00000000
_cell_angle_beta   90.00000000
_cell_angle_gamma   89.81487286
_symmetry_Int_Tables_number   1
_chemical_formula_structural   TaTi4Ga(B2Ru5)2
_chemical_formula_sum   'Ta1 Ti4 Ga1 B4 Ru10'
_cell_volume   258.44265375
_cell_formula_units_Z   1
loop_
 _symmetry_equiv_pos_site_id
 _symmetry_equiv_pos_as_xyz
  1  'x, y, z'
loop_
 _atom_site_type_symbol
 _atom_site_label
 _atom_site_symmetry_multiplicity
 _atom_site_fract_x
 _atom_site_fract_y
 _atom_site_fract_z
 _atom_site_occupancy
  Ta  Ta0  1  0.675521  0.175372  0.000000  1
  Ti  Ti1  1  0.827789  0.677474  0.000000  1
  Ti  Ti2  1  0.173531  0.324057  0.000000  1
  Ti  Ti3  1  0.321143  0.824832  0.000000  1
  Ti  Ti4  1  0.000996  0.999431  0.000000  1
  Ga  Ga5  1  0.499832  0.500174  0.000000  1
  B  B6  1  0.623062  0.871982  0.000000  1
  B  B7  1  0.375209  0.125804  0.000000  1
  B  B8  1  0.127162  0.622933  0.000000  1
  B  B9  1  0.875983  0.379151  0.000000  1
  Ru  Ru10  1  0.573053  0.712778  0.500000  1
  Ru  Ru11  1  0.429806  0.285706  0.500000  1
  Ru  Ru12  1  0.072721  0.784781  0.500000  1
  Ru  Ru13  1  0.926328  0.214953  0.500000  1
  Ru  Ru14  1  0.286468  0.570811  0.500000  1
  Ru  Ru15  1  0.714026  0.428040  0.500000  1
  Ru  Ru16  1  0.214220  0.074600  0.500000  1
  Ru  Ru17  1  0.784389  0.928430  0.500000  1
  Ru  Ru18  1  0.498540  0.998273  0.500000  1
  Ru  Ru19  1  0.000222  0.500417  0.500000  1
