# generated using pymatgen
data_Al4V10Ni
_symmetry_space_group_name_H-M   'P 1'
_cell_length_a   9.28117700
_cell_length_b   9.28117700
_cell_length_c   4.75935400
_cell_angle_alpha   90.00000000
_cell_angle_beta   90.00000000
_cell_angle_gamma   90.00000000
_symmetry_Int_Tables_number   1
_chemical_formula_structural   Al4V10Ni
_chemical_formula_sum   'Al8 V20 Ni2'
_cell_volume   409.97192677
_cell_formula_units_Z   2
loop_
 _symmetry_equiv_pos_site_id
 _symmetry_equiv_pos_as_xyz
  1  'x, y, z'
loop_
 _atom_site_type_symbol
 _atom_site_label
 _atom_site_symmetry_multiplicity
 _atom_site_fract_x
 _atom_site_fract_y
 _atom_site_fract_z
 _atom_site_occupancy
  Al  Al0  1  0.257909  0.936728  0.000000  1
  Al  Al1  1  0.436728  0.242091  0.500000  1
  Al  Al2  1  0.563272  0.757909  0.500000  1
  Al  Al3  1  0.742091  0.063272  0.000000  1
  Al  Al4  1  0.242091  0.436728  0.500000  1
  Al  Al5  1  0.757909  0.563272  0.500000  1
  Al  Al6  1  0.936728  0.257909  0.000000  1
  Al  Al7  1  0.063272  0.742091  0.000000  1
  V  V8  1  0.400174  0.400174  0.000000  1
  V  V9  1  0.900174  0.099826  0.500000  1
  V  V10  1  0.099826  0.900174  0.500000  1
  V  V11  1  0.599826  0.599826  0.000000  1
  V  V12  1  0.126822  0.466521  0.000000  1
  V  V13  1  0.966521  0.373178  0.500000  1
  V  V14  1  0.033479  0.626822  0.500000  1
  V  V15  1  0.873178  0.533479  0.000000  1
  V  V16  1  0.373178  0.966521  0.500000  1
  V  V17  1  0.626822  0.033479  0.500000  1
  V  V18  1  0.466521  0.126822  0.000000  1
  V  V19  1  0.533479  0.873178  0.000000  1
  V  V20  1  0.179816  0.179816  0.256557  1
  V  V21  1  0.679816  0.320184  0.756557  1
  V  V22  1  0.320184  0.679816  0.756557  1
  V  V23  1  0.820184  0.820184  0.256557  1
  V  V24  1  0.320184  0.679816  0.243443  1
  V  V25  1  0.679816  0.320184  0.243443  1
  V  V26  1  0.179816  0.179816  0.743443  1
  V  V27  1  0.820184  0.820184  0.743443  1
  Ni  Ni28  1  0.000000  0.000000  0.000000  1
  Ni  Ni29  1  0.500000  0.500000  0.500000  1
