# generated using pymatgen
data_Ge3PCl3O4
_symmetry_space_group_name_H-M   'P 1'
_cell_length_a   7.99232310
_cell_length_b   7.99232422
_cell_length_c   7.99232312
_cell_angle_alpha   116.33896914
_cell_angle_beta   116.33897961
_cell_angle_gamma   116.33898275
_symmetry_Int_Tables_number   1
_chemical_formula_structural   Ge3PCl3O4
_chemical_formula_sum   'Ge3 P1 Cl3 O4'
_cell_volume   247.36203411
_cell_formula_units_Z   1
loop_
 _symmetry_equiv_pos_site_id
 _symmetry_equiv_pos_as_xyz
  1  'x, y, z'
loop_
 _atom_site_type_symbol
 _atom_site_label
 _atom_site_symmetry_multiplicity
 _atom_site_fract_x
 _atom_site_fract_y
 _atom_site_fract_z
 _atom_site_occupancy
  Ge  Ge0  1  0.687894  0.408540  0.377844  1
  Ge  Ge1  1  0.408540  0.377844  0.687894  1
  Ge  Ge2  1  0.377844  0.687894  0.408540  1
  P  P3  1  0.966415  0.966415  0.966415  1
  Cl  Cl4  1  0.214380  0.650959  0.594957  1
  Cl  Cl5  1  0.650959  0.594957  0.214380  1
  Cl  Cl6  1  0.594957  0.214380  0.650959  1
  O  O7  1  0.303544  0.303544  0.303544  1
  O  O8  1  0.990479  0.803357  0.800633  1
  O  O9  1  0.800633  0.990479  0.803357  1
  O  O10  1  0.803357  0.800633  0.990479  1
