# generated using pymatgen
data_Mn3In3PdRh5
_symmetry_space_group_name_H-M   'P 1'
_cell_length_a   4.47952440
_cell_length_b   6.31127067
_cell_length_c   13.42909008
_cell_angle_alpha   90.01235753
_cell_angle_beta   90.00926978
_cell_angle_gamma   90.12036600
_symmetry_Int_Tables_number   1
_chemical_formula_structural   Mn3In3PdRh5
_chemical_formula_sum   'Mn6 In6 Pd2 Rh10'
_cell_volume   379.65954711
_cell_formula_units_Z   2
loop_
 _symmetry_equiv_pos_site_id
 _symmetry_equiv_pos_as_xyz
  1  'x, y, z'
loop_
 _atom_site_type_symbol
 _atom_site_label
 _atom_site_symmetry_multiplicity
 _atom_site_fract_x
 _atom_site_fract_y
 _atom_site_fract_z
 _atom_site_occupancy
  Mn  Mn0  1  0.000600  0.999665  0.000112  1
  Mn  Mn1  1  0.499473  0.500189  0.170523  1
  Mn  Mn2  1  0.000155  0.999844  0.334136  1
  Mn  Mn3  1  0.500198  0.500151  0.500086  1
  Mn  Mn4  1  0.000154  0.999641  0.666034  1
  Mn  Mn5  1  0.500117  0.500241  0.829200  1
  In  In6  1  0.000138  0.500101  0.999989  1
  In  In7  1  0.499552  0.999833  0.169292  1
  In  In8  1  0.999293  0.500055  0.333998  1
  In  In9  1  0.499680  0.000017  0.500083  1
  In  In10  1  0.000513  0.499993  0.665884  1
  In  In11  1  0.500137  0.000128  0.830715  1
  Pd  Pd12  1  0.499587  0.249358  0.999989  1
  Pd  Pd13  1  0.499925  0.750977  0.000162  1
  Rh  Rh14  1  0.999647  0.250377  0.165790  1
  Rh  Rh15  1  0.999829  0.749615  0.165823  1
  Rh  Rh16  1  0.499855  0.250619  0.333548  1
  Rh  Rh17  1  0.499799  0.749247  0.333522  1
  Rh  Rh18  1  0.000010  0.249397  0.499987  1
  Rh  Rh19  1  0.000147  0.750450  0.499953  1
  Rh  Rh20  1  0.500576  0.250597  0.666411  1
  Rh  Rh21  1  0.500514  0.749325  0.666453  1
  Rh  Rh22  1  0.999934  0.250456  0.834165  1
  Rh  Rh23  1  0.000172  0.749723  0.834144  1
