# generated using pymatgen
data_Ho4Tm(GaSb)2
_symmetry_space_group_name_H-M   'P 1'
_cell_length_a   8.63819600
_cell_length_b   8.63819701
_cell_length_c   7.88221000
_cell_angle_alpha   90.00000000
_cell_angle_beta   90.00000000
_cell_angle_gamma   125.69702746
_symmetry_Int_Tables_number   1
_chemical_formula_structural   Ho4Tm(GaSb)2
_chemical_formula_sum   'Ho8 Tm2 Ga4 Sb4'
_cell_volume   477.65139490
_cell_formula_units_Z   2
loop_
 _symmetry_equiv_pos_site_id
 _symmetry_equiv_pos_as_xyz
  1  'x, y, z'
loop_
 _atom_site_type_symbol
 _atom_site_label
 _atom_site_symmetry_multiplicity
 _atom_site_fract_x
 _atom_site_fract_y
 _atom_site_fract_z
 _atom_site_occupancy
  Ho  Ho0  1  0.039526  0.301092  0.331744  1
  Ho  Ho1  1  0.960474  0.698908  0.668256  1
  Ho  Ho2  1  0.460474  0.198908  0.831744  1
  Ho  Ho3  1  0.801092  0.539526  0.168256  1
  Ho  Ho4  1  0.539526  0.801092  0.168256  1
  Ho  Ho5  1  0.198908  0.460474  0.831744  1
  Ho  Ho6  1  0.698908  0.960474  0.668256  1
  Ho  Ho7  1  0.301092  0.039526  0.331744  1
  Tm  Tm8  1  0.000000  0.000000  0.000000  1
  Tm  Tm9  1  0.500000  0.500000  0.500000  1
  Ga  Ga10  1  0.375451  0.375451  0.123853  1
  Ga  Ga11  1  0.624549  0.624549  0.876147  1
  Ga  Ga12  1  0.124549  0.124549  0.623853  1
  Ga  Ga13  1  0.875451  0.875451  0.376147  1
  Sb  Sb14  1  0.795172  0.204828  0.000000  1
  Sb  Sb15  1  0.204828  0.795172  0.000000  1
  Sb  Sb16  1  0.704828  0.295172  0.500000  1
  Sb  Sb17  1  0.295172  0.704828  0.500000  1
