# generated using pymatgen
data_LiSc(TeO4)2
_symmetry_space_group_name_H-M   'P 1'
_cell_length_a   7.53008199
_cell_length_b   7.53008130
_cell_length_c   5.11279285
_cell_angle_alpha   87.48078057
_cell_angle_beta   87.48078024
_cell_angle_gamma   100.03723286
_symmetry_Int_Tables_number   1
_chemical_formula_structural   LiSc(TeO4)2
_chemical_formula_sum   'Li2 Sc2 Te4 O16'
_cell_volume   284.80041767
_cell_formula_units_Z   2
loop_
 _symmetry_equiv_pos_site_id
 _symmetry_equiv_pos_as_xyz
  1  'x, y, z'
loop_
 _atom_site_type_symbol
 _atom_site_label
 _atom_site_symmetry_multiplicity
 _atom_site_fract_x
 _atom_site_fract_y
 _atom_site_fract_z
 _atom_site_occupancy
  Li  Li0  1  0.334789  0.665211  0.750000  1
  Li  Li1  1  0.665211  0.334789  0.250000  1
  Sc  Sc2  1  0.815601  0.184399  0.750000  1
  Sc  Sc3  1  0.184399  0.815601  0.250000  1
  Te  Te4  1  0.331975  0.172896  0.747321  1
  Te  Te5  1  0.668025  0.827104  0.252679  1
  Te  Te6  1  0.827104  0.668025  0.752679  1
  Te  Te7  1  0.172896  0.331975  0.247321  1
  O  O8  1  0.695041  0.060131  0.095994  1
  O  O9  1  0.304959  0.939869  0.904006  1
  O  O10  1  0.939869  0.304959  0.404006  1
  O  O11  1  0.060131  0.695041  0.595994  1
  O  O12  1  0.803196  0.913423  0.565601  1
  O  O13  1  0.196804  0.086577  0.434399  1
  O  O14  1  0.086577  0.196804  0.934399  1
  O  O15  1  0.913423  0.803196  0.065601  1
  O  O16  1  0.566740  0.191928  0.597584  1
  O  O17  1  0.433260  0.808072  0.402416  1
  O  O18  1  0.808072  0.433260  0.902416  1
  O  O19  1  0.191928  0.566740  0.097584  1
  O  O20  1  0.592808  0.692404  0.940950  1
  O  O21  1  0.407192  0.307596  0.059050  1
  O  O22  1  0.307596  0.407192  0.559050  1
  O  O23  1  0.692404  0.592808  0.440950  1
