# generated using pymatgen
data_Hg3Bi(Pt2O7)2
_symmetry_space_group_name_H-M   'P 1'
_cell_length_a   7.27270227
_cell_length_b   7.40851262
_cell_length_c   7.27270300
_cell_angle_alpha   60.60457738
_cell_angle_beta   60.00000124
_cell_angle_gamma   60.60457185
_symmetry_Int_Tables_number   1
_chemical_formula_structural   Hg3Bi(Pt2O7)2
_chemical_formula_sum   'Hg3 Bi1 Pt4 O14'
_cell_volume   279.58667817
_cell_formula_units_Z   1
loop_
 _symmetry_equiv_pos_site_id
 _symmetry_equiv_pos_as_xyz
  1  'x, y, z'
loop_
 _atom_site_type_symbol
 _atom_site_label
 _atom_site_symmetry_multiplicity
 _atom_site_fract_x
 _atom_site_fract_y
 _atom_site_fract_z
 _atom_site_occupancy
  Hg  Hg0  1  0.125000  0.125000  0.625000  1
  Hg  Hg1  1  0.625000  0.125000  0.125000  1
  Hg  Hg2  1  0.125000  0.125000  0.125000  1
  Bi  Bi3  1  0.125000  0.625000  0.125000  1
  Pt  Pt4  1  0.625000  0.625000  0.125000  1
  Pt  Pt5  1  0.625000  0.125000  0.625000  1
  Pt  Pt6  1  0.125000  0.625000  0.625000  1
  Pt  Pt7  1  0.625000  0.625000  0.625000  1
  O  O8  1  0.250031  0.249908  0.250031  1
  O  O9  1  0.999969  0.000092  0.999969  1
  O  O10  1  0.546735  0.951305  0.546735  1
  O  O11  1  0.292959  0.701194  0.292959  1
  O  O12  1  0.537112  0.548806  0.957041  1
  O  O13  1  0.957041  0.548806  0.537112  1
  O  O14  1  0.546735  0.951305  0.955224  1
  O  O15  1  0.955224  0.951305  0.546735  1
  O  O16  1  0.957041  0.548806  0.957041  1
  O  O17  1  0.703265  0.298695  0.294776  1
  O  O18  1  0.292959  0.701194  0.712888  1
  O  O19  1  0.703265  0.298695  0.703265  1
  O  O20  1  0.294776  0.298695  0.703265  1
  O  O21  1  0.712888  0.701194  0.292959  1
