# generated using pymatgen
data_Tm3B7Os
_symmetry_space_group_name_H-M   'P 1'
_cell_length_a   7.94742059
_cell_length_b   7.94742137
_cell_length_c   9.23901300
_cell_angle_alpha   90.00000000
_cell_angle_beta   90.00000000
_cell_angle_gamma   154.67964740
_symmetry_Int_Tables_number   1
_chemical_formula_structural   Tm3B7Os
_chemical_formula_sum   'Tm6 B14 Os2'
_cell_volume   249.57203787
_cell_formula_units_Z   2
loop_
 _symmetry_equiv_pos_site_id
 _symmetry_equiv_pos_as_xyz
  1  'x, y, z'
loop_
 _atom_site_type_symbol
 _atom_site_label
 _atom_site_symmetry_multiplicity
 _atom_site_fract_x
 _atom_site_fract_y
 _atom_site_fract_z
 _atom_site_occupancy
  Tm  Tm0  1  0.893617  0.106383  0.440381  1
  Tm  Tm1  1  0.106383  0.893617  0.559619  1
  Tm  Tm2  1  0.893617  0.106383  0.059619  1
  Tm  Tm3  1  0.106383  0.893617  0.940381  1
  Tm  Tm4  1  0.245012  0.754988  0.250000  1
  Tm  Tm5  1  0.754988  0.245012  0.750000  1
  B  B6  1  0.727513  0.272487  0.466082  1
  B  B7  1  0.272487  0.727513  0.533918  1
  B  B8  1  0.727513  0.272487  0.033918  1
  B  B9  1  0.272487  0.727513  0.966082  1
  B  B10  1  0.632537  0.367463  0.150243  1
  B  B11  1  0.367463  0.632537  0.849757  1
  B  B12  1  0.632537  0.367463  0.349757  1
  B  B13  1  0.367463  0.632537  0.650243  1
  B  B14  1  0.519947  0.480053  0.095286  1
  B  B15  1  0.480053  0.519947  0.904714  1
  B  B16  1  0.519947  0.480053  0.404714  1
  B  B17  1  0.480053  0.519947  0.595286  1
  B  B18  1  0.454158  0.545842  0.250000  1
  B  B19  1  0.545842  0.454158  0.750000  1
  Os  Os20  1  0.053367  0.946633  0.250000  1
  Os  Os21  1  0.946633  0.053367  0.750000  1
