# generated using pymatgen
data_Rb5BiAu2
_symmetry_space_group_name_H-M   'P 1'
_cell_length_a   10.73401322
_cell_length_b   10.73401280
_cell_length_c   10.73401242
_cell_angle_alpha   128.99084989
_cell_angle_beta   128.99084968
_cell_angle_gamma   75.02529652
_symmetry_Int_Tables_number   1
_chemical_formula_structural   Rb5BiAu2
_chemical_formula_sum   'Rb10 Bi2 Au4'
_cell_volume   727.53432545
_cell_formula_units_Z   2
loop_
 _symmetry_equiv_pos_site_id
 _symmetry_equiv_pos_as_xyz
  1  'x, y, z'
loop_
 _atom_site_type_symbol
 _atom_site_label
 _atom_site_symmetry_multiplicity
 _atom_site_fract_x
 _atom_site_fract_y
 _atom_site_fract_z
 _atom_site_occupancy
  Rb  Rb0  1  0.500000  0.500000  0.000000  1
  Rb  Rb1  1  0.000000  0.000000  0.000000  1
  Rb  Rb2  1  0.533815  0.033815  0.851258  1
  Rb  Rb3  1  0.182559  0.682559  0.148742  1
  Rb  Rb4  1  0.033815  0.182559  0.500000  1
  Rb  Rb5  1  0.682559  0.533815  0.500000  1
  Rb  Rb6  1  0.466185  0.966185  0.148742  1
  Rb  Rb7  1  0.817441  0.317441  0.851258  1
  Rb  Rb8  1  0.966185  0.817441  0.500000  1
  Rb  Rb9  1  0.317441  0.466185  0.500000  1
  Bi  Bi10  1  0.250000  0.250000  0.000000  1
  Bi  Bi11  1  0.750000  0.750000  0.000000  1
  Au  Au12  1  0.112206  0.612206  0.724410  1
  Au  Au13  1  0.887794  0.387794  0.275590  1
  Au  Au14  1  0.612206  0.887794  0.500000  1
  Au  Au15  1  0.387794  0.112206  0.500000  1
