# generated using pymatgen
data_Sc8V11ReSi16
_symmetry_space_group_name_H-M   'P 1'
_cell_length_a   6.62749065
_cell_length_b   6.62749065
_cell_length_c   12.27360694
_cell_angle_alpha   89.96834387
_cell_angle_beta   90.03165613
_cell_angle_gamma   89.82877811
_symmetry_Int_Tables_number   1
_chemical_formula_structural   Sc8V11ReSi16
_chemical_formula_sum   'Sc8 V11 Re1 Si16'
_cell_volume   539.09882639
_cell_formula_units_Z   1
loop_
 _symmetry_equiv_pos_site_id
 _symmetry_equiv_pos_as_xyz
  1  'x, y, z'
loop_
 _atom_site_type_symbol
 _atom_site_label
 _atom_site_symmetry_multiplicity
 _atom_site_fract_x
 _atom_site_fract_y
 _atom_site_fract_z
 _atom_site_occupancy
  Sc  Sc0  1  0.001747  0.661934  0.029063  1
  Sc  Sc1  1  0.497499  0.162975  0.220104  1
  Sc  Sc2  1  0.837114  0.501291  0.279620  1
  Sc  Sc3  1  0.337409  0.998476  0.470440  1
  Sc  Sc4  1  0.998476  0.337409  0.529560  1
  Sc  Sc5  1  0.501291  0.837114  0.720380  1
  Sc  Sc6  1  0.162975  0.497499  0.779896  1
  Sc  Sc7  1  0.661934  0.001747  0.970936  1
  V  V8  1  0.493812  0.660173  0.124231  1
  V  V9  1  0.004302  0.154474  0.127471  1
  V  V10  1  0.169414  0.832732  0.248847  1
  V  V11  1  0.842604  0.992690  0.373777  1
  V  V12  1  0.343266  0.506431  0.376044  1
  V  V13  1  0.669025  0.669025  0.500000  1
  V  V14  1  0.506431  0.343266  0.623956  1
  V  V15  1  0.992690  0.842604  0.626223  1
  V  V16  1  0.832732  0.169414  0.751153  1
  V  V17  1  0.154474  0.004302  0.872529  1
  V  V18  1  0.660173  0.493812  0.875769  1
  Re  Re19  1  0.332066  0.332066  0.000000  1
  Si  Si20  1  0.292375  0.959811  0.064711  1
  Si  Si21  1  0.704563  0.371912  0.071156  1
  Si  Si22  1  0.795902  0.870218  0.180428  1
  Si  Si23  1  0.205299  0.460520  0.185673  1
  Si  Si24  1  0.540023  0.794461  0.315270  1
  Si  Si25  1  0.129648  0.202914  0.320217  1
  Si  Si26  1  0.629850  0.296651  0.430276  1
  Si  Si27  1  0.040501  0.705916  0.434922  1
  Si  Si28  1  0.705916  0.040501  0.565078  1
  Si  Si29  1  0.296651  0.629850  0.569724  1
  Si  Si30  1  0.202914  0.129648  0.679783  1
  Si  Si31  1  0.794461  0.540023  0.684730  1
  Si  Si32  1  0.460520  0.205299  0.814327  1
  Si  Si33  1  0.870218  0.795902  0.819572  1
  Si  Si34  1  0.371912  0.704563  0.928844  1
  Si  Si35  1  0.959811  0.292375  0.935289  1
