# generated using pymatgen
data_Y5Er3CdInPd2
_symmetry_space_group_name_H-M   'P 1'
_cell_length_a   9.69139759
_cell_length_b   9.70301641
_cell_length_c   9.70579495
_cell_angle_alpha   59.91134361
_cell_angle_beta   60.03009509
_cell_angle_gamma   59.99350693
_symmetry_Int_Tables_number   1
_chemical_formula_structural   Y5Er3CdInPd2
_chemical_formula_sum   'Y10 Er6 Cd2 In2 Pd4'
_cell_volume   645.05197686
_cell_formula_units_Z   2
loop_
 _symmetry_equiv_pos_site_id
 _symmetry_equiv_pos_as_xyz
  1  'x, y, z'
loop_
 _atom_site_type_symbol
 _atom_site_label
 _atom_site_symmetry_multiplicity
 _atom_site_fract_x
 _atom_site_fract_y
 _atom_site_fract_z
 _atom_site_occupancy
  Y  Y0  1  0.190513  0.810068  0.189931  1
  Y  Y1  1  0.810068  0.190513  0.809489  1
  Y  Y2  1  0.189008  0.189008  0.810992  1
  Y  Y3  1  0.808618  0.808618  0.191382  1
  Y  Y4  1  0.937312  0.564730  0.564398  1
  Y  Y5  1  0.564730  0.937312  0.933560  1
  Y  Y6  1  0.564818  0.937304  0.564377  1
  Y  Y7  1  0.937304  0.564818  0.933500  1
  Y  Y8  1  0.565276  0.565276  0.934724  1
  Y  Y9  1  0.937032  0.937032  0.562968  1
  Er  Er10  1  0.352879  0.352373  0.352058  1
  Er  Er11  1  0.352373  0.352879  0.942690  1
  Er  Er12  1  0.353220  0.940241  0.353372  1
  Er  Er13  1  0.940241  0.353220  0.353166  1
  Er  Er14  1  0.809889  0.190484  0.190060  1
  Er  Er15  1  0.190484  0.809889  0.809567  1
  Cd  Cd16  1  0.581267  0.252024  0.583290  1
  Cd  Cd17  1  0.252024  0.581267  0.583420  1
  In  In18  1  0.582252  0.582201  0.583991  1
  In  In19  1  0.582201  0.582252  0.251556  1
  Pd  Pd20  1  0.142842  0.145517  0.146835  1
  Pd  Pd21  1  0.145517  0.142842  0.564805  1
  Pd  Pd22  1  0.144951  0.565180  0.143467  1
  Pd  Pd23  1  0.565180  0.144951  0.146401  1
