# generated using pymatgen
data_Er3Sc5Pt4
_symmetry_space_group_name_H-M   'P 1'
_cell_length_a   4.59730200
_cell_length_b   6.88090244
_cell_length_c   8.31654837
_cell_angle_alpha   90.89092314
_cell_angle_beta   90.00000000
_cell_angle_gamma   90.00000000
_symmetry_Int_Tables_number   1
_chemical_formula_structural   Er3Sc5Pt4
_chemical_formula_sum   'Er3 Sc5 Pt4'
_cell_volume   263.05044804
_cell_formula_units_Z   1
loop_
 _symmetry_equiv_pos_site_id
 _symmetry_equiv_pos_as_xyz
  1  'x, y, z'
loop_
 _atom_site_type_symbol
 _atom_site_label
 _atom_site_symmetry_multiplicity
 _atom_site_fract_x
 _atom_site_fract_y
 _atom_site_fract_z
 _atom_site_occupancy
  Er  Er0  1  0.250000  0.985818  0.322478  1
  Er  Er1  1  0.750000  0.020651  0.678676  1
  Er  Er2  1  0.250000  0.482265  0.174093  1
  Sc  Sc3  1  0.750000  0.514094  0.828553  1
  Sc  Sc4  1  0.750000  0.643747  0.430042  1
  Sc  Sc5  1  0.250000  0.365701  0.580616  1
  Sc  Sc6  1  0.750000  0.141523  0.070582  1
  Sc  Sc7  1  0.250000  0.847181  0.923975  1
  Pt  Pt8  1  0.250000  0.245203  0.898388  1
  Pt  Pt9  1  0.750000  0.747402  0.094906  1
  Pt  Pt10  1  0.250000  0.752064  0.596180  1
  Pt  Pt11  1  0.750000  0.254349  0.401511  1
