# generated using pymatgen
data_Ho8LuSc(SiB4)4
_symmetry_space_group_name_H-M   'P 1'
_cell_length_a   7.17144400
_cell_length_b   7.17144400
_cell_length_c   7.94644000
_cell_angle_alpha   90.00000000
_cell_angle_beta   90.00000000
_cell_angle_gamma   90.00000000
_symmetry_Int_Tables_number   1
_chemical_formula_structural   Ho8LuSc(SiB4)4
_chemical_formula_sum   'Ho8 Lu1 Sc1 Si4 B16'
_cell_volume   408.68230250
_cell_formula_units_Z   1
loop_
 _symmetry_equiv_pos_site_id
 _symmetry_equiv_pos_as_xyz
  1  'x, y, z'
loop_
 _atom_site_type_symbol
 _atom_site_label
 _atom_site_symmetry_multiplicity
 _atom_site_fract_x
 _atom_site_fract_y
 _atom_site_fract_z
 _atom_site_occupancy
  Ho  Ho0  1  0.680778  0.179805  0.226750  1
  Ho  Ho1  1  0.319222  0.820195  0.773250  1
  Ho  Ho2  1  0.319222  0.820195  0.226750  1
  Ho  Ho3  1  0.820195  0.680778  0.226750  1
  Ho  Ho4  1  0.820195  0.680778  0.773250  1
  Ho  Ho5  1  0.680778  0.179805  0.773250  1
  Ho  Ho6  1  0.179805  0.319222  0.773250  1
  Ho  Ho7  1  0.179805  0.319222  0.226750  1
  Lu  Lu8  1  0.500000  0.500000  0.500000  1
  Sc  Sc9  1  0.000000  0.000000  0.500000  1
  Si  Si10  1  0.112405  0.621450  0.500000  1
  Si  Si11  1  0.887595  0.378550  0.500000  1
  Si  Si12  1  0.378550  0.112405  0.500000  1
  Si  Si13  1  0.621450  0.887595  0.500000  1
  B  B14  1  0.173005  0.039107  0.000000  1
  B  B15  1  0.826995  0.960893  0.000000  1
  B  B16  1  0.960893  0.173005  0.000000  1
  B  B17  1  0.327207  0.539285  0.000000  1
  B  B18  1  0.039107  0.826995  0.000000  1
  B  B19  1  0.672793  0.460715  0.000000  1
  B  B20  1  0.539285  0.672793  0.000000  1
  B  B21  1  0.460715  0.327207  0.000000  1
  B  B22  1  0.089483  0.589494  0.000000  1
  B  B23  1  0.910517  0.410506  0.000000  1
  B  B24  1  0.410506  0.089483  0.000000  1
  B  B25  1  0.589494  0.910517  0.000000  1
  B  B26  1  0.000000  0.000000  0.166201  1
  B  B27  1  0.000000  0.000000  0.833799  1
  B  B28  1  0.500000  0.500000  0.834232  1
  B  B29  1  0.500000  0.500000  0.165768  1
