# generated using pymatgen
data_DyHoTa2(ReB6)2
_symmetry_space_group_name_H-M   'P 1'
_cell_length_a   3.55047400
_cell_length_b   8.93728401
_cell_length_c   11.29376103
_cell_angle_alpha   89.99413802
_cell_angle_beta   90.00000000
_cell_angle_gamma   90.00000000
_symmetry_Int_Tables_number   1
_chemical_formula_structural   DyHoTa2(ReB6)2
_chemical_formula_sum   'Dy2 Ho2 Ta4 Re4 B24'
_cell_volume   358.36904328
_cell_formula_units_Z   2
loop_
 _symmetry_equiv_pos_site_id
 _symmetry_equiv_pos_as_xyz
  1  'x, y, z'
loop_
 _atom_site_type_symbol
 _atom_site_label
 _atom_site_symmetry_multiplicity
 _atom_site_fract_x
 _atom_site_fract_y
 _atom_site_fract_z
 _atom_site_occupancy
  Dy  Dy0  1  0.000000  0.323108  0.413604  1
  Dy  Dy1  1  0.000000  0.676892  0.586396  1
  Ho  Ho2  1  0.000000  0.823270  0.086386  1
  Ho  Ho3  1  0.000000  0.176730  0.913614  1
  Ta  Ta4  1  0.000000  0.946180  0.374553  1
  Ta  Ta5  1  0.000000  0.053820  0.625447  1
  Ta  Ta6  1  0.000000  0.446278  0.125316  1
  Ta  Ta7  1  0.000000  0.553722  0.874684  1
  Re  Re8  1  0.000000  0.644094  0.317088  1
  Re  Re9  1  0.000000  0.355906  0.682912  1
  Re  Re10  1  0.000000  0.143747  0.182423  1
  Re  Re11  1  0.000000  0.856253  0.817577  1
  B  B12  1  0.500000  0.554968  0.433604  1
  B  B13  1  0.500000  0.445032  0.566396  1
  B  B14  1  0.500000  0.054836  0.066061  1
  B  B15  1  0.500000  0.945164  0.933939  1
  B  B16  1  0.500000  0.755259  0.417900  1
  B  B17  1  0.500000  0.244741  0.582100  1
  B  B18  1  0.500000  0.255054  0.081665  1
  B  B19  1  0.500000  0.744946  0.918335  1
  B  B20  1  0.500000  0.798014  0.262667  1
  B  B21  1  0.500000  0.201986  0.737333  1
  B  B22  1  0.500000  0.297933  0.236820  1
  B  B23  1  0.500000  0.702067  0.763180  1
  B  B24  1  0.500000  0.630341  0.180790  1
  B  B25  1  0.500000  0.369659  0.819210  1
  B  B26  1  0.500000  0.130034  0.318861  1
  B  B27  1  0.500000  0.869966  0.681139  1
  B  B28  1  0.500000  0.982087  0.213882  1
  B  B29  1  0.500000  0.017913  0.786118  1
  B  B30  1  0.500000  0.482239  0.285643  1
  B  B31  1  0.500000  0.517761  0.714357  1
  B  B32  1  0.500000  0.599225  0.026314  1
  B  B33  1  0.500000  0.400775  0.973686  1
  B  B34  1  0.500000  0.098998  0.473706  1
  B  B35  1  0.500000  0.901002  0.526294  1
