# generated using pymatgen
data_La3WO7
_symmetry_space_group_name_H-M   'P 1'
_cell_length_a   6.77719897
_cell_length_b   6.77438432
_cell_length_c   7.86186207
_cell_angle_alpha   90.00912004
_cell_angle_beta   90.00787202
_cell_angle_gamma   109.72277137
_symmetry_Int_Tables_number   1
_chemical_formula_structural   La3WO7
_chemical_formula_sum   'La6 W2 O14'
_cell_volume   339.77417787
_cell_formula_units_Z   2
loop_
 _symmetry_equiv_pos_site_id
 _symmetry_equiv_pos_as_xyz
  1  'x, y, z'
loop_
 _atom_site_type_symbol
 _atom_site_label
 _atom_site_symmetry_multiplicity
 _atom_site_fract_x
 _atom_site_fract_y
 _atom_site_fract_z
 _atom_site_occupancy
  La  La0  1  0.500000  0.500000  0.500000  1
  La  La1  1  0.500000  0.500000  0.000000  1
  La  La2  1  0.999480  0.531449  0.248419  1
  La  La3  1  0.000520  0.468551  0.751581  1
  La  La4  1  0.531160  0.999498  0.748425  1
  La  La5  1  0.468840  0.000502  0.251575  1
  W  W6  1  0.000000  0.000000  0.500000  1
  W  W7  1  0.000000  0.000000  0.000000  1
  O  O8  1  0.939363  0.060594  0.750010  1
  O  O9  1  0.060637  0.939406  0.249990  1
  O  O10  1  0.365408  0.634324  0.250005  1
  O  O11  1  0.634592  0.365676  0.749995  1
  O  O12  1  0.371285  0.628468  0.749996  1
  O  O13  1  0.628715  0.371532  0.250004  1
  O  O14  1  0.309757  0.070701  0.973978  1
  O  O15  1  0.686286  0.927793  0.474560  1
  O  O16  1  0.313714  0.072207  0.525440  1
  O  O17  1  0.690243  0.929299  0.026022  1
  O  O18  1  0.070410  0.309589  0.473899  1
  O  O19  1  0.928025  0.686440  0.974470  1
  O  O20  1  0.929590  0.690411  0.526101  1
  O  O21  1  0.071975  0.313560  0.025530  1
