# generated using pymatgen
data_Lu8Ga(Pd7Pt5)2
_symmetry_space_group_name_H-M   'P 1'
_cell_length_a   8.31726507
_cell_length_b   8.32434254
_cell_length_c   8.32262400
_cell_angle_alpha   90.02380114
_cell_angle_beta   90.00731588
_cell_angle_gamma   89.97449574
_symmetry_Int_Tables_number   1
_chemical_formula_structural   Lu8Ga(Pd7Pt5)2
_chemical_formula_sum   'Lu8 Ga1 Pd14 Pt10'
_cell_volume   576.22311500
_cell_formula_units_Z   1
loop_
 _symmetry_equiv_pos_site_id
 _symmetry_equiv_pos_as_xyz
  1  'x, y, z'
loop_
 _atom_site_type_symbol
 _atom_site_label
 _atom_site_symmetry_multiplicity
 _atom_site_fract_x
 _atom_site_fract_y
 _atom_site_fract_z
 _atom_site_occupancy
  Lu  Lu0  1  0.252257  0.252695  0.746976  1
  Lu  Lu1  1  0.253237  0.747773  0.253628  1
  Lu  Lu2  1  0.747185  0.253012  0.252793  1
  Lu  Lu3  1  0.747606  0.746476  0.746857  1
  Lu  Lu4  1  0.746727  0.746931  0.253187  1
  Lu  Lu5  1  0.747804  0.253449  0.747290  1
  Lu  Lu6  1  0.252325  0.747305  0.746369  1
  Lu  Lu7  1  0.252905  0.252231  0.253070  1
  Ga  Ga8  1  0.000338  0.000660  0.999733  1
  Pd  Pd9  1  0.999353  0.999379  0.708826  1
  Pd  Pd10  1  0.000069  0.291465  0.000530  1
  Pd  Pd11  1  0.291620  0.999581  0.999981  1
  Pd  Pd12  1  0.999392  0.999633  0.290939  1
  Pd  Pd13  1  0.000037  0.709323  0.000411  1
  Pd  Pd14  1  0.708796  0.999455  0.999919  1
  Pd  Pd15  1  0.500157  0.000297  0.740248  1
  Pd  Pd16  1  0.259357  0.500320  0.999695  1
  Pd  Pd17  1  0.999909  0.500340  0.259616  1
  Pd  Pd18  1  0.500161  0.739840  0.000106  1
  Pd  Pd19  1  0.000221  0.740420  0.499732  1
  Pd  Pd20  1  0.500228  0.000079  0.259521  1
  Pd  Pd21  1  0.740078  0.000183  0.499868  1
  Pd  Pd22  1  0.740877  0.500417  0.999790  1
  Pt  Pt23  1  0.500055  0.499804  0.747945  1
  Pt  Pt24  1  0.499693  0.252458  0.499853  1
  Pt  Pt25  1  0.252256  0.499910  0.500045  1
  Pt  Pt26  1  0.500106  0.499776  0.252131  1
  Pt  Pt27  1  0.499655  0.747290  0.499999  1
  Pt  Pt28  1  0.747638  0.499891  0.500072  1
  Pt  Pt29  1  0.999915  0.500251  0.741002  1
  Pt  Pt30  1  0.500140  0.259787  0.000031  1
  Pt  Pt31  1  0.259345  0.000376  0.499888  1
  Pt  Pt32  1  0.000558  0.259195  0.499946  1
