# generated using pymatgen
data_V3GaTcTe8
_symmetry_space_group_name_H-M   'P 1'
_cell_length_a   7.68801612
_cell_length_b   7.68801637
_cell_length_c   7.68801698
_cell_angle_alpha   61.07688946
_cell_angle_beta   61.07689107
_cell_angle_gamma   61.07689397
_symmetry_Int_Tables_number   1
_chemical_formula_structural   V3GaTcTe8
_chemical_formula_sum   'V3 Ga1 Tc1 Te8'
_cell_volume   329.10268846
_cell_formula_units_Z   1
loop_
 _symmetry_equiv_pos_site_id
 _symmetry_equiv_pos_as_xyz
  1  'x, y, z'
loop_
 _atom_site_type_symbol
 _atom_site_label
 _atom_site_symmetry_multiplicity
 _atom_site_fract_x
 _atom_site_fract_y
 _atom_site_fract_z
 _atom_site_occupancy
  V  V0  1  0.605430  0.194160  0.605430  1
  V  V1  1  0.194160  0.605430  0.605430  1
  V  V2  1  0.605430  0.605430  0.194160  1
  Ga  Ga3  1  0.002374  0.002374  0.002374  1
  Tc  Tc4  1  0.598484  0.598484  0.598484  1
  Te  Te5  1  0.368105  0.368105  0.368105  1
  Te  Te6  1  0.363365  0.902484  0.363365  1
  Te  Te7  1  0.902484  0.363365  0.363365  1
  Te  Te8  1  0.363365  0.363365  0.902484  1
  Te  Te9  1  0.862694  0.862694  0.862694  1
  Te  Te10  1  0.857450  0.419209  0.857450  1
  Te  Te11  1  0.419209  0.857450  0.857450  1
  Te  Te12  1  0.857450  0.857450  0.419209  1
