# generated using pymatgen
data_Lu3Zn2Si3Ir
_symmetry_space_group_name_H-M   'P 1'
_cell_length_a   6.76129418
_cell_length_b   6.76129518
_cell_length_c   4.14614900
_cell_angle_alpha   90.00000000
_cell_angle_beta   90.00000000
_cell_angle_gamma   122.27564154
_symmetry_Int_Tables_number   1
_chemical_formula_structural   Lu3Zn2Si3Ir
_chemical_formula_sum   'Lu3 Zn2 Si3 Ir1'
_cell_volume   160.25535816
_cell_formula_units_Z   1
loop_
 _symmetry_equiv_pos_site_id
 _symmetry_equiv_pos_as_xyz
  1  'x, y, z'
loop_
 _atom_site_type_symbol
 _atom_site_label
 _atom_site_symmetry_multiplicity
 _atom_site_fract_x
 _atom_site_fract_y
 _atom_site_fract_z
 _atom_site_occupancy
  Lu  Lu0  1  0.583017  0.005416  0.500000  1
  Lu  Lu1  1  0.423856  0.423856  0.500000  1
  Lu  Lu2  1  0.005416  0.583018  0.500000  1
  Zn  Zn3  1  0.238709  0.989336  0.000000  1
  Zn  Zn4  1  0.989336  0.238710  0.000000  1
  Si  Si5  1  0.670526  0.352706  0.000000  1
  Si  Si6  1  0.352707  0.670527  0.000000  1
  Si  Si7  1  0.975717  0.975717  0.500000  1
  Ir  Ir8  1  0.760715  0.760715  0.000000  1
