# generated using pymatgen
data_Tb11LuTc4
_symmetry_space_group_name_H-M   'P 1'
_cell_length_a   6.30194896
_cell_length_b   7.43830666
_cell_length_c   9.25970728
_cell_angle_alpha   90.09597541
_cell_angle_beta   89.77339586
_cell_angle_gamma   89.95619146
_symmetry_Int_Tables_number   1
_chemical_formula_structural   Tb11LuTc4
_chemical_formula_sum   'Tb11 Lu1 Tc4'
_cell_volume   434.05232139
_cell_formula_units_Z   1
loop_
 _symmetry_equiv_pos_site_id
 _symmetry_equiv_pos_as_xyz
  1  'x, y, z'
loop_
 _atom_site_type_symbol
 _atom_site_label
 _atom_site_symmetry_multiplicity
 _atom_site_fract_x
 _atom_site_fract_y
 _atom_site_fract_z
 _atom_site_occupancy
  Tb  Tb0  1  0.163373  0.174885  0.436387  1
  Tb  Tb1  1  0.663421  0.325128  0.563440  1
  Tb  Tb2  1  0.838217  0.824941  0.937438  1
  Tb  Tb3  1  0.663897  0.324822  0.937938  1
  Tb  Tb4  1  0.833979  0.824439  0.563535  1
  Tb  Tb5  1  0.334775  0.675398  0.434621  1
  Tb  Tb6  1  0.166019  0.176679  0.063315  1
  Tb  Tb7  1  0.871641  0.543567  0.248019  1
  Tb  Tb8  1  0.627734  0.040631  0.249393  1
  Tb  Tb9  1  0.129566  0.458331  0.751088  1
  Tb  Tb10  1  0.370073  0.957076  0.751288  1
  Lu  Lu11  1  0.337777  0.673728  0.063097  1
  Tc  Tc12  1  0.043407  0.885570  0.247202  1
  Tc  Tc13  1  0.460442  0.387441  0.250143  1
  Tc  Tc14  1  0.958758  0.113872  0.748707  1
  Tc  Tc15  1  0.536918  0.613490  0.754390  1
