# generated using pymatgen
data_LaCdNiSn2
_symmetry_space_group_name_H-M   'P 1'
_cell_length_a   4.59454600
_cell_length_b   4.59454600
_cell_length_c   11.12362400
_cell_angle_alpha   90.00000000
_cell_angle_beta   90.00000000
_cell_angle_gamma   90.00000000
_symmetry_Int_Tables_number   1
_chemical_formula_structural   LaCdNiSn2
_chemical_formula_sum   'La2 Cd2 Ni2 Sn4'
_cell_volume   234.81806687
_cell_formula_units_Z   2
loop_
 _symmetry_equiv_pos_site_id
 _symmetry_equiv_pos_as_xyz
  1  'x, y, z'
loop_
 _atom_site_type_symbol
 _atom_site_label
 _atom_site_symmetry_multiplicity
 _atom_site_fract_x
 _atom_site_fract_y
 _atom_site_fract_z
 _atom_site_occupancy
  La  La0  1  0.000000  0.500000  0.272958  1
  La  La1  1  0.500000  0.000000  0.727042  1
  Cd  Cd2  1  0.000000  0.000000  0.000000  1
  Cd  Cd3  1  0.500000  0.500000  0.000000  1
  Ni  Ni4  1  0.000000  0.500000  0.609685  1
  Ni  Ni5  1  0.500000  0.000000  0.390315  1
  Sn  Sn6  1  0.000000  0.000000  0.500000  1
  Sn  Sn7  1  0.500000  0.500000  0.500000  1
  Sn  Sn8  1  0.000000  0.500000  0.832468  1
  Sn  Sn9  1  0.500000  0.000000  0.167532  1
