# generated using pymatgen
data_LaPr9(Bi3P)2
_symmetry_space_group_name_H-M   'P 1'
_cell_length_a   9.62678586
_cell_length_b   9.62096248
_cell_length_c   6.93146800
_cell_angle_alpha   90.00000000
_cell_angle_beta   90.00000000
_cell_angle_gamma   119.98000041
_symmetry_Int_Tables_number   1
_chemical_formula_structural   LaPr9(Bi3P)2
_chemical_formula_sum   'La1 Pr9 Bi6 P2'
_cell_volume   556.08755272
_cell_formula_units_Z   1
loop_
 _symmetry_equiv_pos_site_id
 _symmetry_equiv_pos_as_xyz
  1  'x, y, z'
loop_
 _atom_site_type_symbol
 _atom_site_label
 _atom_site_symmetry_multiplicity
 _atom_site_fract_x
 _atom_site_fract_y
 _atom_site_fract_z
 _atom_site_occupancy
  La  La0  1  0.000000  0.760741  0.250000  1
  Pr  Pr1  1  0.760604  0.761191  0.750000  1
  Pr  Pr2  1  0.239396  0.000587  0.750000  1
  Pr  Pr3  1  0.000000  0.239538  0.750000  1
  Pr  Pr4  1  0.238944  0.239103  0.250000  1
  Pr  Pr5  1  0.761056  0.000159  0.250000  1
  Pr  Pr6  1  0.666479  0.333084  0.999827  1
  Pr  Pr7  1  0.333521  0.666606  0.999827  1
  Pr  Pr8  1  0.333521  0.666606  0.500173  1
  Pr  Pr9  1  0.666479  0.333084  0.500173  1
  Bi  Bi10  1  0.397064  0.397036  0.750000  1
  Bi  Bi11  1  0.602936  0.999971  0.750000  1
  Bi  Bi12  1  0.000000  0.602924  0.750000  1
  Bi  Bi13  1  0.601369  0.602320  0.250000  1
  Bi  Bi14  1  0.398631  0.000953  0.250000  1
  Bi  Bi15  1  0.000000  0.395646  0.250000  1
  P  P16  1  0.000000  0.000225  0.999710  1
  P  P17  1  0.000000  0.000225  0.500290  1
