# generated using pymatgen
data_Ba2Mn5Fe(PO4)6
_symmetry_space_group_name_H-M   'P 1'
_cell_length_a   9.40635602
_cell_length_b   9.44040114
_cell_length_c   9.40635562
_cell_angle_alpha   137.41214024
_cell_angle_beta   111.21091876
_cell_angle_gamma   84.24100190
_symmetry_Int_Tables_number   1
_chemical_formula_structural   Ba2Mn5Fe(PO4)6
_chemical_formula_sum   'Ba2 Mn5 Fe1 P6 O24'
_cell_volume   508.38315420
_cell_formula_units_Z   1
loop_
 _symmetry_equiv_pos_site_id
 _symmetry_equiv_pos_as_xyz
  1  'x, y, z'
loop_
 _atom_site_type_symbol
 _atom_site_label
 _atom_site_symmetry_multiplicity
 _atom_site_fract_x
 _atom_site_fract_y
 _atom_site_fract_z
 _atom_site_occupancy
  Ba  Ba0  1  0.751664  0.865679  0.114015  1
  Ba  Ba1  1  0.248336  0.134321  0.885985  1
  Mn  Mn2  1  0.616629  0.617773  0.498423  1
  Mn  Mn3  1  0.880650  0.382227  0.998856  1
  Mn  Mn4  1  0.119350  0.617773  0.001144  1
  Mn  Mn5  1  0.383371  0.382227  0.501577  1
  Mn  Mn6  1  0.500000  0.000000  0.500000  1
  Fe  Fe7  1  0.000000  0.500000  0.500000  1
  P  P8  1  0.754491  0.358753  0.604262  1
  P  P9  1  0.245509  0.641247  0.395738  1
  P  P10  1  0.821327  0.822408  0.500426  1
  P  P11  1  0.678018  0.177592  0.998919  1
  P  P12  1  0.321982  0.822408  0.001081  1
  P  P13  1  0.178673  0.177592  0.499574  1
  O  O14  1  0.666353  0.138377  0.472024  1
  O  O15  1  0.333647  0.861623  0.527976  1
  O  O16  1  0.151046  0.667233  0.516187  1
  O  O17  1  0.848954  0.332767  0.483813  1
  O  O18  1  0.635182  0.495616  0.626479  1
  O  O19  1  0.130864  0.504384  0.139568  1
  O  O20  1  0.364818  0.504384  0.373521  1
  O  O21  1  0.869136  0.495616  0.860432  1
  O  O22  1  0.919512  0.059411  0.714898  1
  O  O23  1  0.655488  0.940589  0.860102  1
  O  O24  1  0.421407  0.704824  0.862222  1
  O  O25  1  0.157398  0.295176  0.716583  1
  O  O26  1  0.080488  0.940589  0.285102  1
  O  O27  1  0.344512  0.059411  0.139898  1
  O  O28  1  0.578593  0.295176  0.137778  1
  O  O29  1  0.842602  0.704824  0.283417  1
  O  O30  1  0.636558  0.798573  0.438962  1
  O  O31  1  0.640389  0.201427  0.837985  1
  O  O32  1  0.138922  0.701553  0.841288  1
  O  O33  1  0.139735  0.298447  0.437369  1
  O  O34  1  0.363442  0.201427  0.561038  1
  O  O35  1  0.359611  0.798573  0.162015  1
  O  O36  1  0.861078  0.298447  0.158712  1
  O  O37  1  0.860265  0.701553  0.562631  1
