# generated using pymatgen
data_Pr16Cd4IrPd3
_symmetry_space_group_name_H-M   'P 1'
_cell_length_a   10.08586295
_cell_length_b   10.09440218
_cell_length_c   10.09640309
_cell_angle_alpha   60.04371267
_cell_angle_beta   60.03295848
_cell_angle_gamma   60.03837114
_symmetry_Int_Tables_number   1
_chemical_formula_structural   Pr16Cd4IrPd3
_chemical_formula_sum   'Pr16 Cd4 Ir1 Pd3'
_cell_volume   727.48271034
_cell_formula_units_Z   1
loop_
 _symmetry_equiv_pos_site_id
 _symmetry_equiv_pos_as_xyz
  1  'x, y, z'
loop_
 _atom_site_type_symbol
 _atom_site_label
 _atom_site_symmetry_multiplicity
 _atom_site_fract_x
 _atom_site_fract_y
 _atom_site_fract_z
 _atom_site_occupancy
  Pr  Pr0  1  0.352039  0.352174  0.352168  1
  Pr  Pr1  1  0.346814  0.346910  0.954350  1
  Pr  Pr2  1  0.346819  0.954344  0.346897  1
  Pr  Pr3  1  0.954234  0.346922  0.346900  1
  Pr  Pr4  1  0.813587  0.190299  0.190250  1
  Pr  Pr5  1  0.191935  0.805924  0.805923  1
  Pr  Pr6  1  0.190496  0.813565  0.190133  1
  Pr  Pr7  1  0.806026  0.191685  0.805955  1
  Pr  Pr8  1  0.190466  0.190156  0.813562  1
  Pr  Pr9  1  0.806012  0.805943  0.191651  1
  Pr  Pr10  1  0.933348  0.565141  0.565218  1
  Pr  Pr11  1  0.559345  0.936379  0.936389  1
  Pr  Pr12  1  0.565162  0.933281  0.565337  1
  Pr  Pr13  1  0.936252  0.559493  0.936247  1
  Pr  Pr14  1  0.565207  0.565305  0.933280  1
  Pr  Pr15  1  0.936289  0.936279  0.559510  1
  Cd  Cd16  1  0.579063  0.579019  0.579036  1
  Cd  Cd17  1  0.580532  0.580488  0.261782  1
  Cd  Cd18  1  0.580521  0.261792  0.580500  1
  Cd  Cd19  1  0.261815  0.580508  0.580524  1
  Ir  Ir20  1  0.142743  0.142819  0.142810  1
  Pd  Pd21  1  0.144703  0.144808  0.571960  1
  Pd  Pd22  1  0.144718  0.571954  0.144816  1
  Pd  Pd23  1  0.571871  0.144812  0.144804  1
