# generated using pymatgen
data_Pr2Lu3(SnBi)2
_symmetry_space_group_name_H-M   'P 1'
_cell_length_a   8.24063600
_cell_length_b   8.21519800
_cell_length_c   15.45330800
_cell_angle_alpha   90.00000000
_cell_angle_beta   90.00000000
_cell_angle_gamma   90.00000000
_symmetry_Int_Tables_number   1
_chemical_formula_structural   Pr2Lu3(SnBi)2
_chemical_formula_sum   'Pr8 Lu12 Sn8 Bi8'
_cell_volume   1046.16509766
_cell_formula_units_Z   4
loop_
 _symmetry_equiv_pos_site_id
 _symmetry_equiv_pos_as_xyz
  1  'x, y, z'
loop_
 _atom_site_type_symbol
 _atom_site_label
 _atom_site_symmetry_multiplicity
 _atom_site_fract_x
 _atom_site_fract_y
 _atom_site_fract_z
 _atom_site_occupancy
  Pr  Pr0  1  0.520952  0.323078  0.899698  1
  Pr  Pr1  1  0.020952  0.176922  0.600302  1
  Pr  Pr2  1  0.479048  0.676922  0.399698  1
  Pr  Pr3  1  0.979048  0.823078  0.100302  1
  Pr  Pr4  1  0.479048  0.676922  0.100302  1
  Pr  Pr5  1  0.979048  0.823078  0.399698  1
  Pr  Pr6  1  0.520952  0.323078  0.600302  1
  Pr  Pr7  1  0.020952  0.176922  0.899698  1
  Lu  Lu8  1  0.354253  0.843207  0.871044  1
  Lu  Lu9  1  0.854253  0.656793  0.628956  1
  Lu  Lu10  1  0.645747  0.156793  0.371044  1
  Lu  Lu11  1  0.145747  0.343207  0.128956  1
  Lu  Lu12  1  0.645747  0.156793  0.128956  1
  Lu  Lu13  1  0.145747  0.343207  0.371044  1
  Lu  Lu14  1  0.354253  0.843207  0.628956  1
  Lu  Lu15  1  0.854253  0.656793  0.871044  1
  Lu  Lu16  1  0.184406  0.499757  0.750000  1
  Lu  Lu17  1  0.684406  0.000243  0.750000  1
  Lu  Lu18  1  0.815594  0.500243  0.250000  1
  Lu  Lu19  1  0.315594  0.999757  0.250000  1
  Sn  Sn20  1  0.548375  0.628332  0.750000  1
  Sn  Sn21  1  0.048375  0.871668  0.750000  1
  Sn  Sn22  1  0.451625  0.371668  0.250000  1
  Sn  Sn23  1  0.951625  0.128332  0.250000  1
  Sn  Sn24  1  0.325336  0.147871  0.750000  1
  Sn  Sn25  1  0.825336  0.352129  0.750000  1
  Sn  Sn26  1  0.674664  0.852129  0.250000  1
  Sn  Sn27  1  0.174664  0.647871  0.250000  1
  Bi  Bi28  1  0.297987  0.043661  0.043171  1
  Bi  Bi29  1  0.797987  0.456339  0.456829  1
  Bi  Bi30  1  0.702013  0.956339  0.543171  1
  Bi  Bi31  1  0.202013  0.543661  0.956829  1
  Bi  Bi32  1  0.702013  0.956339  0.956829  1
  Bi  Bi33  1  0.202013  0.543661  0.543171  1
  Bi  Bi34  1  0.297987  0.043661  0.456829  1
  Bi  Bi35  1  0.797987  0.456339  0.043171  1
