# generated using pymatgen
data_MgSc9(In2Pt)4
_symmetry_space_group_name_H-M   'P 1'
_cell_length_a   3.40813500
_cell_length_b   7.77637419
_cell_length_c   17.60898513
_cell_angle_alpha   90.35116920
_cell_angle_beta   90.00000000
_cell_angle_gamma   90.00000000
_symmetry_Int_Tables_number   1
_chemical_formula_structural   MgSc9(In2Pt)4
_chemical_formula_sum   'Mg1 Sc9 In8 Pt4'
_cell_volume   466.68098848
_cell_formula_units_Z   1
loop_
 _symmetry_equiv_pos_site_id
 _symmetry_equiv_pos_as_xyz
  1  'x, y, z'
loop_
 _atom_site_type_symbol
 _atom_site_label
 _atom_site_symmetry_multiplicity
 _atom_site_fract_x
 _atom_site_fract_y
 _atom_site_fract_z
 _atom_site_occupancy
  Mg  Mg0  1  0.000000  0.747889  0.279012  1
  Sc  Sc1  1  0.000000  0.120287  0.416032  1
  Sc  Sc2  1  0.000000  0.880248  0.584914  1
  Sc  Sc3  1  0.000000  0.378764  0.915826  1
  Sc  Sc4  1  0.000000  0.621589  0.083932  1
  Sc  Sc5  1  0.000000  0.249685  0.221511  1
  Sc  Sc6  1  0.000000  0.750306  0.778515  1
  Sc  Sc7  1  0.000000  0.252654  0.721933  1
  Sc  Sc8  1  0.000000  0.998789  0.998706  1
  Sc  Sc9  1  0.000000  0.500468  0.499870  1
  In  In10  1  0.500000  0.426150  0.353089  1
  In  In11  1  0.500000  0.574449  0.647133  1
  In  In12  1  0.500000  0.074227  0.852412  1
  In  In13  1  0.500000  0.926147  0.146595  1
  In  In14  1  0.500000  0.293157  0.064225  1
  In  In15  1  0.500000  0.705601  0.933947  1
  In  In16  1  0.500000  0.207583  0.566292  1
  In  In17  1  0.500000  0.795579  0.435811  1
  Pt  Pt18  1  0.500000  0.032971  0.304910  1
  Pt  Pt19  1  0.500000  0.966350  0.695510  1
  Pt  Pt20  1  0.500000  0.466328  0.804999  1
  Pt  Pt21  1  0.500000  0.530782  0.194826  1
