# generated using pymatgen
data_Yb(Pr2Ru)2
_symmetry_space_group_name_H-M   'P 1'
_cell_length_a   8.89103506
_cell_length_b   8.89103628
_cell_length_c   7.41172708
_cell_angle_alpha   83.88546017
_cell_angle_beta   83.88545825
_cell_angle_gamma   43.79462527
_symmetry_Int_Tables_number   1
_chemical_formula_structural   Yb(Pr2Ru)2
_chemical_formula_sum   'Yb2 Pr8 Ru4'
_cell_volume   402.80682966
_cell_formula_units_Z   2
loop_
 _symmetry_equiv_pos_site_id
 _symmetry_equiv_pos_as_xyz
  1  'x, y, z'
loop_
 _atom_site_type_symbol
 _atom_site_label
 _atom_site_symmetry_multiplicity
 _atom_site_fract_x
 _atom_site_fract_y
 _atom_site_fract_z
 _atom_site_occupancy
  Yb  Yb0  1  0.015489  0.800953  0.914090  1
  Yb  Yb1  1  0.199047  0.984511  0.585910  1
  Pr  Pr2  1  0.983536  0.201946  0.085036  1
  Pr  Pr3  1  0.798054  0.016464  0.414964  1
  Pr  Pr4  1  0.359924  0.208580  0.814443  1
  Pr  Pr5  1  0.791420  0.640076  0.685557  1
  Pr  Pr6  1  0.640825  0.793114  0.184592  1
  Pr  Pr7  1  0.206886  0.359175  0.315408  1
  Pr  Pr8  1  0.568663  0.431337  0.750000  1
  Pr  Pr9  1  0.423893  0.576107  0.250000  1
  Ru  Ru10  1  0.177877  0.593472  0.570868  1
  Ru  Ru11  1  0.406528  0.822123  0.929132  1
  Ru  Ru12  1  0.824160  0.396302  0.423386  1
  Ru  Ru13  1  0.603698  0.175840  0.076614  1
