# generated using pymatgen
data_TbDy3Fe3Os5
_symmetry_space_group_name_H-M   'P 1'
_cell_length_a   5.28124464
_cell_length_b   5.31623830
_cell_length_c   9.16452384
_cell_angle_alpha   73.13938239
_cell_angle_beta   90.91636782
_cell_angle_gamma   120.21942800
_symmetry_Int_Tables_number   1
_chemical_formula_structural   TbDy3Fe3Os5
_chemical_formula_sum   'Tb1 Dy3 Fe3 Os5'
_cell_volume   210.13664336
_cell_formula_units_Z   1
loop_
 _symmetry_equiv_pos_site_id
 _symmetry_equiv_pos_as_xyz
  1  'x, y, z'
loop_
 _atom_site_type_symbol
 _atom_site_label
 _atom_site_symmetry_multiplicity
 _atom_site_fract_x
 _atom_site_fract_y
 _atom_site_fract_z
 _atom_site_occupancy
  Tb  Tb0  1  0.875449  0.750022  0.375405  1
  Dy  Dy1  1  0.378885  0.752611  0.873663  1
  Dy  Dy2  1  0.996152  0.997455  0.001243  1
  Dy  Dy3  1  0.499461  0.999859  0.499742  1
  Fe  Fe4  1  0.687455  0.375011  0.937434  1
  Fe  Fe5  1  0.939924  0.375912  0.188100  1
  Fe  Fe6  1  0.435042  0.374097  0.686848  1
  Os  Os7  1  0.440232  0.373834  0.184000  1
  Os  Os8  1  0.934790  0.376155  0.690979  1
  Os  Os9  1  0.440232  0.882398  0.184000  1
  Os  Os10  1  0.934790  0.867654  0.690979  1
  Os  Os11  1  0.187587  0.374991  0.437605  1
