# generated using pymatgen
data_Re2Tc3RuRh2
_symmetry_space_group_name_H-M   'P 1'
_cell_length_a   5.53117071
_cell_length_b   5.53117014
_cell_length_c   4.36966000
_cell_angle_alpha   90.00000000
_cell_angle_beta   90.00000000
_cell_angle_gamma   120.05800336
_symmetry_Int_Tables_number   1
_chemical_formula_structural   Re2Tc3RuRh2
_chemical_formula_sum   'Re2 Tc3 Ru1 Rh2'
_cell_volume   115.70662454
_cell_formula_units_Z   1
loop_
 _symmetry_equiv_pos_site_id
 _symmetry_equiv_pos_as_xyz
  1  'x, y, z'
loop_
 _atom_site_type_symbol
 _atom_site_label
 _atom_site_symmetry_multiplicity
 _atom_site_fract_x
 _atom_site_fract_y
 _atom_site_fract_z
 _atom_site_occupancy
  Re  Re0  1  0.836943  0.676592  0.750000  1
  Re  Re1  1  0.323408  0.163057  0.750000  1
  Tc  Tc2  1  0.156688  0.321218  0.250000  1
  Tc  Tc3  1  0.678782  0.843312  0.250000  1
  Tc  Tc4  1  0.161807  0.838193  0.250000  1
  Ru  Ru5  1  0.837978  0.162022  0.750000  1
  Rh  Rh6  1  0.336038  0.663962  0.750000  1
  Rh  Rh7  1  0.668355  0.331645  0.250000  1
