# generated using pymatgen
data_Ca3LuSb6Rh7
_symmetry_space_group_name_H-M   'P 1'
_cell_length_a   7.68824881
_cell_length_b   7.58581365
_cell_length_c   7.58581311
_cell_angle_alpha   109.19606254
_cell_angle_beta   109.74500951
_cell_angle_gamma   109.74499751
_symmetry_Int_Tables_number   1
_chemical_formula_structural   Ca3LuSb6Rh7
_chemical_formula_sum   'Ca3 Lu1 Sb6 Rh7'
_cell_volume   339.41515263
_cell_formula_units_Z   1
loop_
 _symmetry_equiv_pos_site_id
 _symmetry_equiv_pos_as_xyz
  1  'x, y, z'
loop_
 _atom_site_type_symbol
 _atom_site_label
 _atom_site_symmetry_multiplicity
 _atom_site_fract_x
 _atom_site_fract_y
 _atom_site_fract_z
 _atom_site_occupancy
  Ca  Ca0  1  0.000000  0.500000  0.000000  1
  Ca  Ca1  1  0.000000  0.000000  0.500000  1
  Ca  Ca2  1  0.500000  0.500000  0.500000  1
  Lu  Lu3  1  0.500000  0.000000  0.000000  1
  Sb  Sb4  1  0.317144  0.000000  0.319700  1
  Sb  Sb5  1  0.997444  0.680300  0.680300  1
  Sb  Sb6  1  0.682856  0.680300  0.000000  1
  Sb  Sb7  1  0.682856  0.000000  0.680300  1
  Sb  Sb8  1  0.002556  0.319700  0.319700  1
  Sb  Sb9  1  0.317144  0.319700  0.000000  1
  Rh  Rh10  1  0.254065  0.508130  0.754065  1
  Rh  Rh11  1  0.500000  0.245935  0.754065  1
  Rh  Rh12  1  0.745935  0.245935  0.491870  1
  Rh  Rh13  1  0.500000  0.754065  0.245935  1
  Rh  Rh14  1  0.000000  0.000000  0.000000  1
  Rh  Rh15  1  0.254065  0.754065  0.508130  1
  Rh  Rh16  1  0.745935  0.491870  0.245935  1
