# generated using pymatgen
data_Nd7Y(ErBi)12
_symmetry_space_group_name_H-M   'P 1'
_cell_length_a   8.32060000
_cell_length_b   9.52868600
_cell_length_c   12.28275200
_cell_angle_alpha   90.00000000
_cell_angle_beta   89.99779314
_cell_angle_gamma   90.00000000
_symmetry_Int_Tables_number   1
_chemical_formula_structural   Nd7Y(ErBi)12
_chemical_formula_sum   'Nd7 Y1 Er12 Bi12'
_cell_volume   973.83043478
_cell_formula_units_Z   1
loop_
 _symmetry_equiv_pos_site_id
 _symmetry_equiv_pos_as_xyz
  1  'x, y, z'
loop_
 _atom_site_type_symbol
 _atom_site_label
 _atom_site_symmetry_multiplicity
 _atom_site_fract_x
 _atom_site_fract_y
 _atom_site_fract_z
 _atom_site_occupancy
  Nd  Nd0  1  0.185049  0.750000  0.719804  1
  Nd  Nd1  1  0.685918  0.750000  0.779955  1
  Nd  Nd2  1  0.815787  0.250000  0.281056  1
  Nd  Nd3  1  0.314858  0.250000  0.220242  1
  Nd  Nd4  1  0.353114  0.750000  0.215301  1
  Nd  Nd5  1  0.853405  0.750000  0.284337  1
  Nd  Nd6  1  0.646128  0.250000  0.784351  1
  Y  Y7  1  0.147476  0.250000  0.716291  1
  Er  Er8  1  0.025927  0.750000  0.987757  1
  Er  Er9  1  0.525280  0.750000  0.512039  1
  Er  Er10  1  0.974444  0.250000  0.010649  1
  Er  Er11  1  0.474116  0.250000  0.488574  1
  Er  Er12  1  0.307452  0.435076  0.940214  1
  Er  Er13  1  0.807378  0.064568  0.559573  1
  Er  Er14  1  0.692521  0.935361  0.058776  1
  Er  Er15  1  0.192405  0.564700  0.441096  1
  Er  Er16  1  0.692521  0.564639  0.058776  1
  Er  Er17  1  0.192405  0.935300  0.441096  1
  Er  Er18  1  0.307452  0.064924  0.940214  1
  Er  Er19  1  0.807378  0.435432  0.559573  1
  Bi  Bi20  1  0.432284  0.006078  0.668050  1
  Bi  Bi21  1  0.937770  0.493231  0.829726  1
  Bi  Bi22  1  0.564747  0.504453  0.332456  1
  Bi  Bi23  1  0.064995  0.995850  0.167620  1
  Bi  Bi24  1  0.564747  0.995547  0.332456  1
  Bi  Bi25  1  0.064995  0.504150  0.167620  1
  Bi  Bi26  1  0.432284  0.493922  0.668050  1
  Bi  Bi27  1  0.937770  0.006769  0.829726  1
  Bi  Bi28  1  0.406997  0.750000  0.957516  1
  Bi  Bi29  1  0.906541  0.750000  0.542168  1
  Bi  Bi30  1  0.592950  0.250000  0.042366  1
  Bi  Bi31  1  0.092904  0.250000  0.462572  1
