# generated using pymatgen
data_Ho5Tm3Sc12GaSi15
_symmetry_space_group_name_H-M   'P 1'
_cell_length_a   7.07222824
_cell_length_b   7.36942202
_cell_length_c   13.96852227
_cell_angle_alpha   89.93641314
_cell_angle_beta   89.99967712
_cell_angle_gamma   90.01509709
_symmetry_Int_Tables_number   1
_chemical_formula_structural   Ho5Tm3Sc12GaSi15
_chemical_formula_sum   'Ho5 Tm3 Sc12 Ga1 Si15'
_cell_volume   728.01424561
_cell_formula_units_Z   1
loop_
 _symmetry_equiv_pos_site_id
 _symmetry_equiv_pos_as_xyz
  1  'x, y, z'
loop_
 _atom_site_type_symbol
 _atom_site_label
 _atom_site_symmetry_multiplicity
 _atom_site_fract_x
 _atom_site_fract_y
 _atom_site_fract_z
 _atom_site_occupancy
  Ho  Ho0  1  0.011860  0.176035  0.096683  1
  Ho  Ho1  1  0.988090  0.824226  0.903682  1
  Ho  Ho2  1  0.487834  0.676841  0.903752  1
  Ho  Ho3  1  0.987509  0.825889  0.597116  1
  Ho  Ho4  1  0.512033  0.323377  0.096531  1
  Tm  Tm5  1  0.011072  0.174893  0.401762  1
  Tm  Tm6  1  0.512724  0.322674  0.401792  1
  Tm  Tm7  1  0.489950  0.678941  0.597342  1
  Sc  Sc8  1  0.161244  0.503300  0.751541  1
  Sc  Sc9  1  0.838820  0.496763  0.250079  1
  Sc  Sc10  1  0.338766  0.003535  0.249832  1
  Sc  Sc11  1  0.661487  0.995795  0.750084  1
  Sc  Sc12  1  0.332736  0.174045  0.626071  1
  Sc  Sc13  1  0.668323  0.824080  0.374331  1
  Sc  Sc14  1  0.169939  0.677523  0.373467  1
  Sc  Sc15  1  0.669428  0.823669  0.125460  1
  Sc  Sc16  1  0.828474  0.323229  0.625477  1
  Sc  Sc17  1  0.330359  0.175883  0.874886  1
  Sc  Sc18  1  0.830640  0.323004  0.874856  1
  Sc  Sc19  1  0.169027  0.676877  0.125533  1
  Ga  Ga20  1  0.161415  0.462700  0.539197  1
  Si  Si21  1  0.033383  0.116324  0.750552  1
  Si  Si22  1  0.966828  0.885153  0.249874  1
  Si  Si23  1  0.467931  0.614229  0.250124  1
  Si  Si24  1  0.531810  0.386384  0.749638  1
  Si  Si25  1  0.284783  0.871270  0.750142  1
  Si  Si26  1  0.714801  0.128912  0.249982  1
  Si  Si27  1  0.214518  0.370899  0.249822  1
  Si  Si28  1  0.785262  0.628375  0.750516  1
  Si  Si29  1  0.840148  0.534896  0.460175  1
  Si  Si30  1  0.340707  0.965058  0.460172  1
  Si  Si31  1  0.841291  0.535176  0.038654  1
  Si  Si32  1  0.658223  0.035329  0.538966  1
  Si  Si33  1  0.158614  0.464598  0.961662  1
  Si  Si34  1  0.658327  0.035040  0.960729  1
  Si  Si35  1  0.341641  0.965077  0.039522  1
