# generated using pymatgen
data_Li21In6Ag5
_symmetry_space_group_name_H-M   'P 1'
_cell_length_a   9.32466300
_cell_length_b   9.32469135
_cell_length_c   9.32468000
_cell_angle_alpha   120.00037077
_cell_angle_beta   89.99961904
_cell_angle_gamma   120.00084745
_symmetry_Int_Tables_number   1
_chemical_formula_structural   Li21In6Ag5
_chemical_formula_sum   'Li21 In6 Ag5'
_cell_volume   573.29743224
_cell_formula_units_Z   1
loop_
 _symmetry_equiv_pos_site_id
 _symmetry_equiv_pos_as_xyz
  1  'x, y, z'
loop_
 _atom_site_type_symbol
 _atom_site_label
 _atom_site_symmetry_multiplicity
 _atom_site_fract_x
 _atom_site_fract_y
 _atom_site_fract_z
 _atom_site_occupancy
  Li  Li0  1  0.506708  0.500001  0.006707  1
  Li  Li1  1  0.506707  0.013411  0.006708  1
  Li  Li2  1  0.993293  0.499998  0.006706  1
  Li  Li3  1  0.370468  0.740936  0.111402  1
  Li  Li4  1  0.358613  0.239073  0.119535  1
  Li  Li5  1  0.880464  0.760928  0.119542  1
  Li  Li6  1  0.880461  0.239078  0.119538  1
  Li  Li7  1  0.744253  0.999994  0.255739  1
  Li  Li8  1  0.255740  0.999998  0.255742  1
  Li  Li9  1  0.255745  0.511489  0.255747  1
  Li  Li10  1  0.993292  0.499997  0.493289  1
  Li  Li11  1  0.993290  0.986588  0.493292  1
  Li  Li12  1  0.506704  0.499999  0.493292  1
  Li  Li13  1  0.888605  0.259065  0.629534  1
  Li  Li14  1  0.370466  0.740932  0.629533  1
  Li  Li15  1  0.370469  0.259069  0.629538  1
  Li  Li16  1  0.880460  0.760920  0.641384  1
  Li  Li17  1  0.255746  0.000003  0.744257  1
  Li  Li18  1  0.744257  0.488515  0.744257  1
  Li  Li19  1  0.744258  0.000003  0.744260  1
  Li  Li20  1  0.250000  0.500000  0.750002  1
  In  In21  1  0.750013  0.500015  0.249999  1
  In  In22  1  0.125951  0.251902  0.377854  1
  In  In23  1  0.499998  0.999997  0.499999  1
  In  In24  1  0.125951  0.251903  0.874049  1
  In  In25  1  0.125950  0.748097  0.874049  1
  In  In26  1  0.622145  0.748096  0.874048  1
  Ag  Ag27  1  0.000001  0.000002  0.000001  1
  Ag  Ag28  1  0.625073  0.250147  0.374928  1
  Ag  Ag29  1  0.124780  0.749853  0.374927  1
  Ag  Ag30  1  0.625072  0.749851  0.374926  1
  Ag  Ag31  1  0.625072  0.250146  0.875218  1
