# generated using pymatgen
data_Li4Pr16Si15Bi
_symmetry_space_group_name_H-M   'P 1'
_cell_length_a   7.40545544
_cell_length_b   7.99562554
_cell_length_c   15.29773500
_cell_angle_alpha   90.02904336
_cell_angle_beta   89.94476577
_cell_angle_gamma   90.02050094
_symmetry_Int_Tables_number   1
_chemical_formula_structural   Li4Pr16Si15Bi
_chemical_formula_sum   'Li4 Pr16 Si15 Bi1'
_cell_volume   905.79739566
_cell_formula_units_Z   1
loop_
 _symmetry_equiv_pos_site_id
 _symmetry_equiv_pos_as_xyz
  1  'x, y, z'
loop_
 _atom_site_type_symbol
 _atom_site_label
 _atom_site_symmetry_multiplicity
 _atom_site_fract_x
 _atom_site_fract_y
 _atom_site_fract_z
 _atom_site_occupancy
  Li  Li0  1  0.663243  0.965198  0.756086  1
  Li  Li1  1  0.157655  0.532826  0.753397  1
  Li  Li2  1  0.341538  0.035026  0.247603  1
  Li  Li3  1  0.841623  0.467730  0.249614  1
  Pr  Pr4  1  0.529082  0.309779  0.102322  1
  Pr  Pr5  1  0.023851  0.186885  0.393217  1
  Pr  Pr6  1  0.489118  0.700756  0.605845  1
  Pr  Pr7  1  0.970230  0.808055  0.898790  1
  Pr  Pr8  1  0.470206  0.690368  0.897900  1
  Pr  Pr9  1  0.969484  0.816429  0.603652  1
  Pr  Pr10  1  0.528166  0.307113  0.394947  1
  Pr  Pr11  1  0.029591  0.192406  0.101914  1
  Pr  Pr12  1  0.816169  0.313406  0.629611  1
  Pr  Pr13  1  0.322466  0.182438  0.872389  1
  Pr  Pr14  1  0.176840  0.683502  0.127332  1
  Pr  Pr15  1  0.671566  0.819631  0.368502  1
  Pr  Pr16  1  0.170777  0.691074  0.365839  1
  Pr  Pr17  1  0.675463  0.816106  0.127749  1
  Pr  Pr18  1  0.823134  0.316221  0.871238  1
  Pr  Pr19  1  0.335783  0.163848  0.636086  1
  Si  Si20  1  0.650155  0.033436  0.528643  1
  Si  Si21  1  0.147215  0.470340  0.966422  1
  Si  Si22  1  0.352426  0.970697  0.033471  1
  Si  Si23  1  0.828934  0.534513  0.464642  1
  Si  Si24  1  0.349492  0.968645  0.468088  1
  Si  Si25  1  0.851830  0.529100  0.033231  1
  Si  Si26  1  0.647507  0.029858  0.966126  1
  Si  Si27  1  0.516995  0.430127  0.751801  1
  Si  Si28  1  0.017848  0.072856  0.750836  1
  Si  Si29  1  0.479897  0.572436  0.248847  1
  Si  Si30  1  0.979373  0.928608  0.247112  1
  Si  Si31  1  0.767396  0.623474  0.751274  1
  Si  Si32  1  0.258410  0.869140  0.752735  1
  Si  Si33  1  0.235212  0.376214  0.249249  1
  Si  Si34  1  0.736787  0.125989  0.247299  1
  Bi  Bi35  1  0.174544  0.465767  0.536192  1
