# generated using pymatgen
data_NpSc5H18
_symmetry_space_group_name_H-M   'P 1'
_cell_length_a   5.94222008
_cell_length_b   5.94236109
_cell_length_c   6.20262656
_cell_angle_alpha   90.29012301
_cell_angle_beta   89.85493304
_cell_angle_gamma   120.00078099
_symmetry_Int_Tables_number   1
_chemical_formula_structural   NpSc5H18
_chemical_formula_sum   'Np1 Sc5 H18'
_cell_volume   189.67279841
_cell_formula_units_Z   1
loop_
 _symmetry_equiv_pos_site_id
 _symmetry_equiv_pos_as_xyz
  1  'x, y, z'
loop_
 _atom_site_type_symbol
 _atom_site_label
 _atom_site_symmetry_multiplicity
 _atom_site_fract_x
 _atom_site_fract_y
 _atom_site_fract_z
 _atom_site_occupancy
  Np  Np0  1  0.000000  0.665488  0.253473  1
  Sc  Sc1  1  0.667531  0.671945  0.750843  1
  Sc  Sc2  1  0.332469  0.004414  0.750843  1
  Sc  Sc3  1  0.000000  0.325025  0.751079  1
  Sc  Sc4  1  0.329217  0.327566  0.249008  1
  Sc  Sc5  1  0.670783  0.998350  0.249008  1
  H  H6  1  0.302855  0.302185  0.590159  1
  H  H7  1  0.697145  0.999330  0.590159  1
  H  H8  1  0.000000  0.708325  0.600310  1
  H  H9  1  0.692296  0.697985  0.085322  1
  H  H10  1  0.307704  0.005690  0.085322  1
  H  H11  1  0.000000  0.316797  0.096417  1
  H  H12  1  0.353939  0.355590  0.908648  1
  H  H13  1  0.646061  0.001650  0.908648  1
  H  H14  1  0.000000  0.641522  0.901947  1
  H  H15  1  0.645820  0.642828  0.408402  1
  H  H16  1  0.354180  0.997010  0.408402  1
  H  H17  1  0.000000  0.341618  0.419299  1
  H  H18  1  0.000000  0.998401  0.812446  1
  H  H19  1  0.000000  0.013647  0.314009  1
  H  H20  1  0.329803  0.666479  0.707033  1
  H  H21  1  0.670197  0.336675  0.707033  1
  H  H22  1  0.649021  0.315250  0.204103  1
  H  H23  1  0.350979  0.666230  0.204103  1
