# generated using pymatgen
data_Hf2AlV2Tc
_symmetry_space_group_name_H-M   'P 1'
_cell_length_a   5.26059414
_cell_length_b   5.31294979
_cell_length_c   8.33055900
_cell_angle_alpha   90.00000000
_cell_angle_beta   90.00000000
_cell_angle_gamma   120.32976364
_symmetry_Int_Tables_number   1
_chemical_formula_structural   Hf2AlV2Tc
_chemical_formula_sum   'Hf4 Al2 V4 Tc2'
_cell_volume   200.96598098
_cell_formula_units_Z   2
loop_
 _symmetry_equiv_pos_site_id
 _symmetry_equiv_pos_as_xyz
  1  'x, y, z'
loop_
 _atom_site_type_symbol
 _atom_site_label
 _atom_site_symmetry_multiplicity
 _atom_site_fract_x
 _atom_site_fract_y
 _atom_site_fract_z
 _atom_site_occupancy
  Hf  Hf0  1  0.336770  0.668385  0.444185  1
  Hf  Hf1  1  0.666211  0.333105  0.566364  1
  Hf  Hf2  1  0.666211  0.333105  0.933636  1
  Hf  Hf3  1  0.336770  0.668385  0.055815  1
  Al  Al4  1  0.814550  0.161875  0.250000  1
  Al  Al5  1  0.814550  0.652675  0.250000  1
  V  V6  1  0.315706  0.157853  0.250000  1
  V  V7  1  0.181172  0.833102  0.750000  1
  V  V8  1  0.181172  0.348070  0.750000  1
  V  V9  1  0.671294  0.835647  0.750000  1
  Tc  Tc10  1  0.007797  0.003898  0.503620  1
  Tc  Tc11  1  0.007797  0.003898  0.996380  1
