# generated using pymatgen
data_MgNi(AsO2)4
_symmetry_space_group_name_H-M   'P 1'
_cell_length_a   8.38467400
_cell_length_b   8.38467400
_cell_length_c   5.78163600
_cell_angle_alpha   90.00000000
_cell_angle_beta   90.00000000
_cell_angle_gamma   90.00000000
_symmetry_Int_Tables_number   1
_chemical_formula_structural   MgNi(AsO2)4
_chemical_formula_sum   'Mg2 Ni2 As8 O16'
_cell_volume   406.46495705
_cell_formula_units_Z   2
loop_
 _symmetry_equiv_pos_site_id
 _symmetry_equiv_pos_as_xyz
  1  'x, y, z'
loop_
 _atom_site_type_symbol
 _atom_site_label
 _atom_site_symmetry_multiplicity
 _atom_site_fract_x
 _atom_site_fract_y
 _atom_site_fract_z
 _atom_site_occupancy
  Mg  Mg0  1  0.500000  0.000000  0.250000  1
  Mg  Mg1  1  0.000000  0.500000  0.750000  1
  Ni  Ni2  1  0.500000  0.000000  0.750000  1
  Ni  Ni3  1  0.000000  0.500000  0.250000  1
  As  As4  1  0.171997  0.186489  0.000827  1
  As  As5  1  0.186489  0.828003  0.500827  1
  As  As6  1  0.828003  0.813511  0.000827  1
  As  As7  1  0.813511  0.171997  0.500827  1
  As  As8  1  0.328003  0.686489  0.999173  1
  As  As9  1  0.671997  0.313511  0.999173  1
  As  As10  1  0.686489  0.671997  0.499173  1
  As  As11  1  0.313511  0.328003  0.499173  1
  O  O12  1  0.317928  0.182072  0.250000  1
  O  O13  1  0.182072  0.682072  0.750000  1
  O  O14  1  0.682072  0.817928  0.250000  1
  O  O15  1  0.817928  0.317928  0.750000  1
  O  O16  1  0.682488  0.817512  0.750000  1
  O  O17  1  0.817512  0.317512  0.250000  1
  O  O18  1  0.317512  0.182488  0.750000  1
  O  O19  1  0.182488  0.682488  0.250000  1
  O  O20  1  0.634872  0.106893  0.000700  1
  O  O21  1  0.106893  0.365128  0.500700  1
  O  O22  1  0.365128  0.893107  0.000700  1
  O  O23  1  0.893107  0.634872  0.500700  1
  O  O24  1  0.865128  0.606893  0.999300  1
  O  O25  1  0.134872  0.393107  0.999300  1
  O  O26  1  0.606893  0.134872  0.499300  1
  O  O27  1  0.393107  0.865128  0.499300  1
