# generated using pymatgen
data_YbDy(NiB4)2
_symmetry_space_group_name_H-M   'P 1'
_cell_length_a   6.80997102
_cell_length_b   6.80997087
_cell_length_c   6.80997037
_cell_angle_alpha   112.84751578
_cell_angle_beta   112.84752356
_cell_angle_gamma   102.91116420
_symmetry_Int_Tables_number   1
_chemical_formula_structural   YbDy(NiB4)2
_chemical_formula_sum   'Yb2 Dy2 Ni4 B16'
_cell_volume   240.76363827
_cell_formula_units_Z   2
loop_
 _symmetry_equiv_pos_site_id
 _symmetry_equiv_pos_as_xyz
  1  'x, y, z'
loop_
 _atom_site_type_symbol
 _atom_site_label
 _atom_site_symmetry_multiplicity
 _atom_site_fract_x
 _atom_site_fract_y
 _atom_site_fract_z
 _atom_site_occupancy
  Yb  Yb0  1  0.796361  0.796361  0.000000  1
  Yb  Yb1  1  0.203639  0.203639  0.000000  1
  Dy  Dy2  1  0.750000  0.250000  0.500000  1
  Dy  Dy3  1  0.250000  0.750000  0.500000  1
  Ni  Ni4  1  0.273180  0.500000  0.773180  1
  Ni  Ni5  1  0.726820  0.500000  0.226820  1
  Ni  Ni6  1  0.500000  0.726820  0.226820  1
  Ni  Ni7  1  0.500000  0.273180  0.773180  1
  B  B8  1  0.276301  0.112064  0.388364  1
  B  B9  1  0.723699  0.887936  0.611636  1
  B  B10  1  0.276301  0.887936  0.164237  1
  B  B11  1  0.723699  0.112064  0.835763  1
  B  B12  1  0.112064  0.723699  0.835763  1
  B  B13  1  0.887936  0.276301  0.164237  1
  B  B14  1  0.112064  0.276301  0.388364  1
  B  B15  1  0.887936  0.723699  0.611636  1
  B  B16  1  0.113397  0.113397  0.530759  1
  B  B17  1  0.582637  0.582637  0.469241  1
  B  B18  1  0.113397  0.582637  0.000000  1
  B  B19  1  0.582637  0.113397  0.000000  1
  B  B20  1  0.886603  0.886603  0.469241  1
  B  B21  1  0.417363  0.417363  0.530759  1
  B  B22  1  0.886603  0.417363  0.000000  1
  B  B23  1  0.417363  0.886603  0.000000  1
