# generated using pymatgen
data_Er2Co12Si4P3
_symmetry_space_group_name_H-M   'P 1'
_cell_length_a   9.05986300
_cell_length_b   9.05986267
_cell_length_c   3.58103900
_cell_angle_alpha   90.00000000
_cell_angle_beta   90.00000000
_cell_angle_gamma   119.99999024
_symmetry_Int_Tables_number   1
_chemical_formula_structural   Er2Co12Si4P3
_chemical_formula_sum   'Er2 Co12 Si4 P3'
_cell_volume   254.55578455
_cell_formula_units_Z   1
loop_
 _symmetry_equiv_pos_site_id
 _symmetry_equiv_pos_as_xyz
  1  'x, y, z'
loop_
 _atom_site_type_symbol
 _atom_site_label
 _atom_site_symmetry_multiplicity
 _atom_site_fract_x
 _atom_site_fract_y
 _atom_site_fract_z
 _atom_site_occupancy
  Er  Er0  1  0.666667  0.333333  0.500000  1
  Er  Er1  1  0.333333  0.666667  0.000000  1
  Co  Co2  1  0.129789  0.849700  0.000000  1
  Co  Co3  1  0.380177  0.439105  0.500000  1
  Co  Co4  1  0.719911  0.870211  0.000000  1
  Co  Co5  1  0.560895  0.941072  0.500000  1
  Co  Co6  1  0.235075  0.104288  0.500000  1
  Co  Co7  1  0.869213  0.764925  0.500000  1
  Co  Co8  1  0.895712  0.130787  0.500000  1
  Co  Co9  1  0.945535  0.381271  0.000000  1
  Co  Co10  1  0.618729  0.564264  0.000000  1
  Co  Co11  1  0.435736  0.054465  0.000000  1
  Co  Co12  1  0.058928  0.619823  0.500000  1
  Co  Co13  1  0.150300  0.280089  0.000000  1
  Si  Si14  1  0.000000  0.000000  0.000000  1
  Si  Si15  1  0.713098  0.112318  0.000000  1
  Si  Si16  1  0.887682  0.600780  0.000000  1
  Si  Si17  1  0.399220  0.286902  0.000000  1
  P  P18  1  0.598053  0.707430  0.500000  1
  P  P19  1  0.292570  0.890623  0.500000  1
  P  P20  1  0.109377  0.401947  0.500000  1
