# generated using pymatgen
data_Nd9Sc11Sn16
_symmetry_space_group_name_H-M   'P 1'
_cell_length_a   7.91049526
_cell_length_b   8.08750037
_cell_length_c   15.23092700
_cell_angle_alpha   90.21055138
_cell_angle_beta   90.06607798
_cell_angle_gamma   90.22547640
_symmetry_Int_Tables_number   1
_chemical_formula_structural   Nd9Sc11Sn16
_chemical_formula_sum   'Nd9 Sc11 Sn16'
_cell_volume   974.40102753
_cell_formula_units_Z   1
loop_
 _symmetry_equiv_pos_site_id
 _symmetry_equiv_pos_as_xyz
  1  'x, y, z'
loop_
 _atom_site_type_symbol
 _atom_site_label
 _atom_site_symmetry_multiplicity
 _atom_site_fract_x
 _atom_site_fract_y
 _atom_site_fract_z
 _atom_site_occupancy
  Nd  Nd0  1  0.853300  0.665908  0.879001  1
  Nd  Nd1  1  0.514380  0.324860  0.902882  1
  Nd  Nd2  1  0.013918  0.174474  0.592446  1
  Nd  Nd3  1  0.487465  0.674594  0.404681  1
  Nd  Nd4  1  0.987516  0.824162  0.099364  1
  Nd  Nd5  1  0.488259  0.673694  0.098386  1
  Nd  Nd6  1  0.987051  0.825550  0.403551  1
  Nd  Nd7  1  0.511603  0.323033  0.593665  1
  Nd  Nd8  1  0.012565  0.176265  0.904143  1
  Sc  Sc9  1  0.351348  0.834719  0.872045  1
  Sc  Sc10  1  0.851712  0.662799  0.624674  1
  Sc  Sc11  1  0.648048  0.162483  0.374145  1
  Sc  Sc12  1  0.147588  0.337799  0.126338  1
  Sc  Sc13  1  0.644613  0.162253  0.131493  1
  Sc  Sc14  1  0.147810  0.336529  0.374098  1
  Sc  Sc15  1  0.352445  0.839766  0.621919  1
  Sc  Sc16  1  0.186154  0.504900  0.748372  1
  Sc  Sc17  1  0.683477  0.996295  0.746959  1
  Sc  Sc18  1  0.814457  0.493615  0.252182  1
  Sc  Sc19  1  0.314309  0.005935  0.250292  1
  Sn  Sn20  1  0.315723  0.044373  0.043182  1
  Sn  Sn21  1  0.817017  0.455582  0.456628  1
  Sn  Sn22  1  0.686287  0.954340  0.542003  1
  Sn  Sn23  1  0.201510  0.541892  0.959217  1
  Sn  Sn24  1  0.673031  0.966869  0.961233  1
  Sn  Sn25  1  0.182531  0.544858  0.542237  1
  Sn  Sn26  1  0.315583  0.045082  0.454608  1
  Sn  Sn27  1  0.812163  0.446959  0.051018  1
  Sn  Sn28  1  0.543498  0.632583  0.743773  1
  Sn  Sn29  1  0.053300  0.873970  0.745049  1
  Sn  Sn30  1  0.449404  0.368140  0.252394  1
  Sn  Sn31  1  0.952246  0.132574  0.250516  1
  Sn  Sn32  1  0.322087  0.141444  0.748254  1
  Sn  Sn33  1  0.821285  0.353414  0.746327  1
  Sn  Sn34  1  0.678133  0.858794  0.251962  1
  Sn  Sn35  1  0.178186  0.639494  0.250963  1
