# generated using pymatgen
data_Pr6YRhO12
_symmetry_space_group_name_H-M   'P 1'
_cell_length_a   6.89990465
_cell_length_b   6.89990576
_cell_length_c   6.89990524
_cell_angle_alpha   97.05918302
_cell_angle_beta   97.05918191
_cell_angle_gamma   97.05918640
_symmetry_Int_Tables_number   1
_chemical_formula_structural   Pr6YRhO12
_chemical_formula_sum   'Pr6 Y1 Rh1 O12'
_cell_volume   320.34264338
_cell_formula_units_Z   1
loop_
 _symmetry_equiv_pos_site_id
 _symmetry_equiv_pos_as_xyz
  1  'x, y, z'
loop_
 _atom_site_type_symbol
 _atom_site_label
 _atom_site_symmetry_multiplicity
 _atom_site_fract_x
 _atom_site_fract_y
 _atom_site_fract_z
 _atom_site_occupancy
  Pr  Pr0  1  0.724613  0.898554  0.412785  1
  Pr  Pr1  1  0.412785  0.724613  0.898554  1
  Pr  Pr2  1  0.101446  0.587215  0.275387  1
  Pr  Pr3  1  0.898554  0.412785  0.724613  1
  Pr  Pr4  1  0.587215  0.275387  0.101446  1
  Pr  Pr5  1  0.275387  0.101446  0.587215  1
  Y  Y6  1  0.000000  0.000000  0.000000  1
  Rh  Rh7  1  0.500000  0.500000  0.500000  1
  O  O8  1  0.061852  0.923821  0.315176  1
  O  O9  1  0.684824  0.938148  0.076179  1
  O  O10  1  0.439538  0.792530  0.571754  1
  O  O11  1  0.076179  0.684824  0.938148  1
  O  O12  1  0.792530  0.571754  0.439538  1
  O  O13  1  0.428246  0.560462  0.207470  1
  O  O14  1  0.571754  0.439538  0.792530  1
  O  O15  1  0.207470  0.428246  0.560462  1
  O  O16  1  0.923821  0.315176  0.061852  1
  O  O17  1  0.560462  0.207470  0.428246  1
  O  O18  1  0.315176  0.061852  0.923821  1
  O  O19  1  0.938148  0.076179  0.684824  1
