# generated using pymatgen
data_Ac2MgAu2
_symmetry_space_group_name_H-M   'P 1'
_cell_length_a   8.42171800
_cell_length_b   4.18081600
_cell_length_c   8.42171800
_cell_angle_alpha   90.00000000
_cell_angle_beta   90.00000000
_cell_angle_gamma   90.00000000
_symmetry_Int_Tables_number   1
_chemical_formula_structural   Ac2MgAu2
_chemical_formula_sum   'Ac4 Mg2 Au4'
_cell_volume   296.52577149
_cell_formula_units_Z   2
loop_
 _symmetry_equiv_pos_site_id
 _symmetry_equiv_pos_as_xyz
  1  'x, y, z'
loop_
 _atom_site_type_symbol
 _atom_site_label
 _atom_site_symmetry_multiplicity
 _atom_site_fract_x
 _atom_site_fract_y
 _atom_site_fract_z
 _atom_site_occupancy
  Ac  Ac0  1  0.331259  0.500000  0.168741  1
  Ac  Ac1  1  0.831259  0.500000  0.331259  1
  Ac  Ac2  1  0.168741  0.500000  0.668742  1
  Ac  Ac3  1  0.668742  0.500000  0.831259  1
  Mg  Mg4  1  0.000000  0.000000  0.000000  1
  Mg  Mg5  1  0.500000  0.000000  0.500000  1
  Au  Au6  1  0.632392  0.000000  0.132391  1
  Au  Au7  1  0.132391  0.000000  0.367610  1
  Au  Au8  1  0.867611  0.000000  0.632392  1
  Au  Au9  1  0.367610  0.000000  0.867611  1
