# generated using pymatgen
data_HfZrCo3Cu4
_symmetry_space_group_name_H-M   'P 1'
_cell_length_a   4.77294467
_cell_length_b   4.75653219
_cell_length_c   6.44659860
_cell_angle_alpha   82.39237501
_cell_angle_beta   74.70039870
_cell_angle_gamma   59.88579394
_symmetry_Int_Tables_number   1
_chemical_formula_structural   HfZrCo3Cu4
_chemical_formula_sum   'Hf1 Zr1 Co3 Cu4'
_cell_volume   122.11417223
_cell_formula_units_Z   1
loop_
 _symmetry_equiv_pos_site_id
 _symmetry_equiv_pos_as_xyz
  1  'x, y, z'
loop_
 _atom_site_type_symbol
 _atom_site_label
 _atom_site_symmetry_multiplicity
 _atom_site_fract_x
 _atom_site_fract_y
 _atom_site_fract_z
 _atom_site_occupancy
  Hf  Hf0  1  0.907113  0.000000  0.748191  1
  Zr  Zr1  1  0.092512  0.000000  0.251692  1
  Co  Co2  1  0.499778  0.499961  0.500807  1
  Co  Co3  1  0.999740  0.500039  0.500807  1
  Co  Co4  1  0.499573  0.000000  0.500807  1
  Cu  Cu5  1  0.536895  0.674440  0.846612  1
  Cu  Cu6  1  0.211335  0.325560  0.846612  1
  Cu  Cu7  1  0.463939  0.325177  0.152236  1
  Cu  Cu8  1  0.789116  0.674823  0.152236  1
