# generated using pymatgen
data_Dy4Sc4Re3B24Ru
_symmetry_space_group_name_H-M   'P 1'
_cell_length_a   3.57994400
_cell_length_b   9.00003580
_cell_length_c   11.38746801
_cell_angle_alpha   90.04832848
_cell_angle_beta   90.00000000
_cell_angle_gamma   90.00000000
_symmetry_Int_Tables_number   1
_chemical_formula_structural   Dy4Sc4Re3B24Ru
_chemical_formula_sum   'Dy4 Sc4 Re3 B24 Ru1'
_cell_volume   366.89980902
_cell_formula_units_Z   1
loop_
 _symmetry_equiv_pos_site_id
 _symmetry_equiv_pos_as_xyz
  1  'x, y, z'
loop_
 _atom_site_type_symbol
 _atom_site_label
 _atom_site_symmetry_multiplicity
 _atom_site_fract_x
 _atom_site_fract_y
 _atom_site_fract_z
 _atom_site_occupancy
  Dy  Dy0  1  0.000000  0.320919  0.414539  1
  Dy  Dy1  1  0.000000  0.678801  0.586662  1
  Dy  Dy2  1  0.000000  0.822233  0.084660  1
  Dy  Dy3  1  0.000000  0.178173  0.913627  1
  Sc  Sc4  1  0.000000  0.944544  0.370466  1
  Sc  Sc5  1  0.000000  0.055180  0.629369  1
  Sc  Sc6  1  0.000000  0.443727  0.129180  1
  Sc  Sc7  1  0.000000  0.555810  0.870750  1
  Re  Re8  1  0.000000  0.359633  0.681015  1
  Re  Re9  1  0.000000  0.140649  0.182166  1
  Re  Re10  1  0.000000  0.859539  0.818509  1
  B  B11  1  0.500000  0.555429  0.432244  1
  B  B12  1  0.500000  0.445709  0.567128  1
  B  B13  1  0.500000  0.054352  0.067365  1
  B  B14  1  0.500000  0.945404  0.932641  1
  B  B15  1  0.500000  0.753624  0.417846  1
  B  B16  1  0.500000  0.245263  0.581596  1
  B  B17  1  0.500000  0.254505  0.081585  1
  B  B18  1  0.500000  0.745524  0.918390  1
  B  B19  1  0.500000  0.793917  0.265017  1
  B  B20  1  0.500000  0.204827  0.735179  1
  B  B21  1  0.500000  0.295344  0.235495  1
  B  B22  1  0.500000  0.704942  0.764979  1
  B  B23  1  0.500000  0.629316  0.183332  1
  B  B24  1  0.500000  0.371059  0.816928  1
  B  B25  1  0.500000  0.129261  0.317378  1
  B  B26  1  0.500000  0.870765  0.682922  1
  B  B27  1  0.500000  0.981285  0.213903  1
  B  B28  1  0.500000  0.018383  0.786001  1
  B  B29  1  0.500000  0.482734  0.286387  1
  B  B30  1  0.500000  0.518689  0.713910  1
  B  B31  1  0.500000  0.596454  0.026634  1
  B  B32  1  0.500000  0.403917  0.974166  1
  B  B33  1  0.500000  0.095882  0.473673  1
  B  B34  1  0.500000  0.903428  0.525949  1
  Ru  Ru35  1  0.000000  0.640780  0.318410  1
