# generated using pymatgen
data_Re2Os5Ru
_symmetry_space_group_name_H-M   'P 1'
_cell_length_a   5.53312732
_cell_length_b   5.53312786
_cell_length_c   4.36950000
_cell_angle_alpha   90.00000000
_cell_angle_beta   90.00000000
_cell_angle_gamma   120.03876962
_symmetry_Int_Tables_number   1
_chemical_formula_structural   Re2Os5Ru
_chemical_formula_sum   'Re2 Os5 Ru1'
_cell_volume   115.80676959
_cell_formula_units_Z   1
loop_
 _symmetry_equiv_pos_site_id
 _symmetry_equiv_pos_as_xyz
  1  'x, y, z'
loop_
 _atom_site_type_symbol
 _atom_site_label
 _atom_site_symmetry_multiplicity
 _atom_site_fract_x
 _atom_site_fract_y
 _atom_site_fract_z
 _atom_site_occupancy
  Re  Re0  1  0.334875  0.665125  0.750000  1
  Re  Re1  1  0.667503  0.332497  0.250000  1
  Os  Os2  1  0.165863  0.332926  0.250000  1
  Os  Os3  1  0.667074  0.834137  0.250000  1
  Os  Os4  1  0.167038  0.832962  0.250000  1
  Os  Os5  1  0.829557  0.665084  0.750000  1
  Os  Os6  1  0.334916  0.170443  0.750000  1
  Ru  Ru7  1  0.833175  0.166825  0.750000  1
