# generated using pymatgen
data_TaNb3(Si4Pt3)4
_symmetry_space_group_name_H-M   'P 1'
_cell_length_a   3.59670100
_cell_length_b   5.56379101
_cell_length_c   24.80565103
_cell_angle_alpha   89.99466502
_cell_angle_beta   90.00000000
_cell_angle_gamma   90.00000000
_symmetry_Int_Tables_number   1
_chemical_formula_structural   TaNb3(Si4Pt3)4
_chemical_formula_sum   'Ta1 Nb3 Si16 Pt12'
_cell_volume   496.39314055
_cell_formula_units_Z   1
loop_
 _symmetry_equiv_pos_site_id
 _symmetry_equiv_pos_as_xyz
  1  'x, y, z'
loop_
 _atom_site_type_symbol
 _atom_site_label
 _atom_site_symmetry_multiplicity
 _atom_site_fract_x
 _atom_site_fract_y
 _atom_site_fract_z
 _atom_site_occupancy
  Ta  Ta0  1  0.250000  0.502906  0.710863  1
  Nb  Nb1  1  0.750000  0.996623  0.210943  1
  Nb  Nb2  1  0.250000  0.003493  0.788970  1
  Nb  Nb3  1  0.750000  0.496577  0.289039  1
  Si  Si4  1  0.250000  0.180513  0.520216  1
  Si  Si5  1  0.750000  0.319470  0.020231  1
  Si  Si6  1  0.250000  0.680471  0.979800  1
  Si  Si7  1  0.750000  0.819468  0.479781  1
  Si  Si8  1  0.750000  0.314970  0.644946  1
  Si  Si9  1  0.250000  0.185911  0.145141  1
  Si  Si10  1  0.750000  0.813918  0.854921  1
  Si  Si11  1  0.250000  0.686072  0.354826  1
  Si  Si12  1  0.250000  0.656481  0.608580  1
  Si  Si13  1  0.750000  0.843139  0.108573  1
  Si  Si14  1  0.250000  0.157271  0.891436  1
  Si  Si15  1  0.750000  0.343037  0.391450  1
  Si  Si16  1  0.750000  0.838766  0.723806  1
  Si  Si17  1  0.250000  0.661401  0.223616  1
  Si  Si18  1  0.750000  0.337333  0.776462  1
  Si  Si19  1  0.250000  0.161449  0.276406  1
  Pt  Pt20  1  0.750000  0.002774  0.572651  1
  Pt  Pt21  1  0.250000  0.497298  0.072545  1
  Pt  Pt22  1  0.750000  0.502685  0.927413  1
  Pt  Pt23  1  0.250000  0.997282  0.427474  1
  Pt  Pt24  1  0.250000  0.004581  0.667266  1
  Pt  Pt25  1  0.750000  0.495546  0.167132  1
  Pt  Pt26  1  0.250000  0.504925  0.832658  1
  Pt  Pt27  1  0.750000  0.995514  0.332878  1
  Pt  Pt28  1  0.750000  0.504829  0.547688  1
  Pt  Pt29  1  0.250000  0.995235  0.047635  1
  Pt  Pt30  1  0.750000  0.004833  0.952300  1
  Pt  Pt31  1  0.250000  0.495227  0.452352  1
