# generated using pymatgen
data_Tb10Y6Cd3Ni4Ag
_symmetry_space_group_name_H-M   'P 1'
_cell_length_a   9.53701662
_cell_length_b   9.53701774
_cell_length_c   9.53701718
_cell_angle_alpha   60.15710450
_cell_angle_beta   60.15710067
_cell_angle_gamma   60.15709845
_symmetry_Int_Tables_number   1
_chemical_formula_structural   Tb10Y6Cd3Ni4Ag
_chemical_formula_sum   'Tb10 Y6 Cd3 Ni4 Ag1'
_cell_volume   615.55281044
_cell_formula_units_Z   1
loop_
 _symmetry_equiv_pos_site_id
 _symmetry_equiv_pos_as_xyz
  1  'x, y, z'
loop_
 _atom_site_type_symbol
 _atom_site_label
 _atom_site_symmetry_multiplicity
 _atom_site_fract_x
 _atom_site_fract_y
 _atom_site_fract_z
 _atom_site_occupancy
  Tb  Tb0  1  0.596874  0.596874  0.596874  1
  Tb  Tb1  1  0.600183  0.600183  0.200432  1
  Tb  Tb2  1  0.600183  0.200432  0.600183  1
  Tb  Tb3  1  0.200432  0.600183  0.600183  1
  Tb  Tb4  1  0.061824  0.440101  0.440101  1
  Tb  Tb5  1  0.438971  0.061308  0.061308  1
  Tb  Tb6  1  0.440101  0.061824  0.440101  1
  Tb  Tb7  1  0.061308  0.438971  0.061308  1
  Tb  Tb8  1  0.440101  0.440101  0.061824  1
  Tb  Tb9  1  0.061308  0.061308  0.438971  1
  Y  Y10  1  0.184527  0.813223  0.813223  1
  Y  Y11  1  0.812703  0.186194  0.186194  1
  Y  Y12  1  0.813223  0.184527  0.813223  1
  Y  Y13  1  0.186194  0.812703  0.186194  1
  Y  Y14  1  0.813223  0.813223  0.184527  1
  Y  Y15  1  0.186194  0.186194  0.812703  1
  Cd  Cd16  1  0.831270  0.831270  0.507164  1
  Cd  Cd17  1  0.831270  0.507164  0.831270  1
  Cd  Cd18  1  0.507164  0.831270  0.831270  1
  Ni  Ni19  1  0.393762  0.393762  0.393762  1
  Ni  Ni20  1  0.391857  0.391857  0.823051  1
  Ni  Ni21  1  0.391857  0.823051  0.391857  1
  Ni  Ni22  1  0.823051  0.391857  0.391857  1
  Ag  Ag23  1  0.832421  0.832421  0.832421  1
