# generated using pymatgen
data_Sm3Y2Er(Si3Ru)8
_symmetry_space_group_name_H-M   'P 1'
_cell_length_a   10.13892296
_cell_length_b   10.13941699
_cell_length_c   8.17809853
_cell_angle_alpha   90.02446520
_cell_angle_beta   89.94938270
_cell_angle_gamma   132.45633030
_symmetry_Int_Tables_number   1
_chemical_formula_structural   Sm3Y2Er(Si3Ru)8
_chemical_formula_sum   'Sm3 Y2 Er1 Si24 Ru8'
_cell_volume   620.28450549
_cell_formula_units_Z   1
loop_
 _symmetry_equiv_pos_site_id
 _symmetry_equiv_pos_as_xyz
  1  'x, y, z'
loop_
 _atom_site_type_symbol
 _atom_site_label
 _atom_site_symmetry_multiplicity
 _atom_site_fract_x
 _atom_site_fract_y
 _atom_site_fract_z
 _atom_site_occupancy
  Sm  Sm0  1  0.497657  0.997541  0.249709  1
  Sm  Sm1  1  0.002516  0.502339  0.750271  1
  Sm  Sm2  1  0.502477  0.002595  0.750299  1
  Y  Y3  1  0.997604  0.497769  0.249683  1
  Y  Y4  1  0.500005  0.500024  0.499846  1
  Er  Er5  1  0.000146  0.000041  0.000135  1
  Si  Si6  1  0.388147  0.155128  0.004793  1
  Si  Si7  1  0.654806  0.887697  0.495194  1
  Si  Si8  1  0.112145  0.344663  0.504160  1
  Si  Si9  1  0.844331  0.611678  0.995952  1
  Si  Si10  1  0.612001  0.845022  0.995376  1
  Si  Si11  1  0.345326  0.112437  0.504722  1
  Si  Si12  1  0.887914  0.655112  0.494553  1
  Si  Si13  1  0.155413  0.388367  0.005361  1
  Si  Si14  1  0.613363  0.379829  0.227779  1
  Si  Si15  1  0.878797  0.111811  0.271658  1
  Si  Si16  1  0.888296  0.121443  0.728689  1
  Si  Si17  1  0.620561  0.386855  0.771889  1
  Si  Si18  1  0.387033  0.620858  0.771919  1
  Si  Si19  1  0.121829  0.888515  0.728627  1
  Si  Si20  1  0.706718  0.295338  0.001091  1
  Si  Si21  1  0.795785  0.206306  0.498840  1
  Si  Si22  1  0.293325  0.704763  0.001034  1
  Si  Si23  1  0.204364  0.793787  0.498967  1
  Si  Si24  1  0.167845  0.167989  0.333071  1
  Si  Si25  1  0.667516  0.667376  0.167084  1
  Si  Si26  1  0.332530  0.332641  0.832813  1
  Si  Si27  1  0.832090  0.832055  0.667006  1
  Si  Si28  1  0.378762  0.612573  0.227929  1
  Si  Si29  1  0.111089  0.877824  0.271499  1
  Ru  Ru30  1  0.626119  0.626391  0.874240  1
  Ru  Ru31  1  0.125355  0.125042  0.627640  1
  Ru  Ru32  1  0.874735  0.874572  0.372557  1
  Ru  Ru33  1  0.373472  0.373669  0.125583  1
  Ru  Ru34  1  0.330616  0.666938  0.499327  1
  Ru  Ru35  1  0.166174  0.831430  0.000657  1
  Ru  Ru36  1  0.669349  0.333024  0.498983  1
  Ru  Ru37  1  0.833792  0.168559  0.001065  1
