# generated using pymatgen
data_La2TbIn3Sn2
_symmetry_space_group_name_H-M   'P 1'
_cell_length_a   6.67860900
_cell_length_b   6.67860946
_cell_length_c   10.40656700
_cell_angle_alpha   90.00000000
_cell_angle_beta   90.00000000
_cell_angle_gamma   103.01136497
_symmetry_Int_Tables_number   1
_chemical_formula_structural   La2TbIn3Sn2
_chemical_formula_sum   'La4 Tb2 In6 Sn4'
_cell_volume   452.25521860
_cell_formula_units_Z   2
loop_
 _symmetry_equiv_pos_site_id
 _symmetry_equiv_pos_as_xyz
  1  'x, y, z'
loop_
 _atom_site_type_symbol
 _atom_site_label
 _atom_site_symmetry_multiplicity
 _atom_site_fract_x
 _atom_site_fract_y
 _atom_site_fract_z
 _atom_site_occupancy
  La  La0  1  0.206926  0.793074  0.500000  1
  La  La1  1  0.206926  0.793074  0.000000  1
  La  La2  1  0.793074  0.206926  0.500000  1
  La  La3  1  0.793074  0.206926  0.000000  1
  Tb  Tb4  1  0.634936  0.634936  0.250000  1
  Tb  Tb5  1  0.365064  0.365064  0.750000  1
  In  In6  1  0.016889  0.016889  0.250000  1
  In  In7  1  0.983111  0.983111  0.750000  1
  In  In8  1  0.307815  0.307815  0.048000  1
  In  In9  1  0.692185  0.692185  0.952000  1
  In  In10  1  0.307815  0.307815  0.452000  1
  In  In11  1  0.692185  0.692185  0.548000  1
  Sn  Sn12  1  0.496391  0.072666  0.250000  1
  Sn  Sn13  1  0.927334  0.503609  0.750000  1
  Sn  Sn14  1  0.503609  0.927334  0.750000  1
  Sn  Sn15  1  0.072666  0.496391  0.250000  1
