# generated using pymatgen
data_Nd17Er3Sn9Pb7
_symmetry_space_group_name_H-M   'P 1'
_cell_length_a   8.29766715
_cell_length_b   8.45976333
_cell_length_c   16.07842739
_cell_angle_alpha   90.02798065
_cell_angle_beta   89.96140230
_cell_angle_gamma   90.01552393
_symmetry_Int_Tables_number   1
_chemical_formula_structural   Nd17Er3Sn9Pb7
_chemical_formula_sum   'Nd17 Er3 Sn9 Pb7'
_cell_volume   1128.64568426
_cell_formula_units_Z   1
loop_
 _symmetry_equiv_pos_site_id
 _symmetry_equiv_pos_as_xyz
  1  'x, y, z'
loop_
 _atom_site_type_symbol
 _atom_site_label
 _atom_site_symmetry_multiplicity
 _atom_site_fract_x
 _atom_site_fract_y
 _atom_site_fract_z
 _atom_site_occupancy
  Nd  Nd0  1  0.019669  0.180653  0.398419  1
  Nd  Nd1  1  0.368838  0.838729  0.122655  1
  Nd  Nd2  1  0.133847  0.337437  0.623111  1
  Nd  Nd3  1  0.480635  0.682462  0.899557  1
  Nd  Nd4  1  0.865603  0.664108  0.123692  1
  Nd  Nd5  1  0.134190  0.337393  0.877010  1
  Nd  Nd6  1  0.479475  0.681278  0.601073  1
  Nd  Nd7  1  0.632416  0.161768  0.622634  1
  Nd  Nd8  1  0.803368  0.498371  0.750020  1
  Nd  Nd9  1  0.866487  0.661899  0.375605  1
  Nd  Nd10  1  0.017172  0.178615  0.100928  1
  Nd  Nd11  1  0.978721  0.821101  0.899932  1
  Nd  Nd12  1  0.633165  0.159980  0.878856  1
  Nd  Nd13  1  0.521029  0.316946  0.101830  1
  Nd  Nd14  1  0.366970  0.838425  0.376793  1
  Nd  Nd15  1  0.980443  0.819954  0.601102  1
  Nd  Nd16  1  0.519981  0.319192  0.397697  1
  Er  Er17  1  0.198679  0.501779  0.249800  1
  Er  Er18  1  0.699251  0.998476  0.248073  1
  Er  Er19  1  0.301675  0.002393  0.750264  1
  Sn  Sn20  1  0.673489  0.856604  0.750068  1
  Sn  Sn21  1  0.825737  0.351493  0.249729  1
  Sn  Sn22  1  0.561897  0.617276  0.249978  1
  Sn  Sn23  1  0.434274  0.380853  0.750257  1
  Sn  Sn24  1  0.177112  0.649852  0.750345  1
  Sn  Sn25  1  0.938509  0.115712  0.750115  1
  Sn  Sn26  1  0.708416  0.965270  0.044480  1
  Sn  Sn27  1  0.324019  0.147979  0.249810  1
  Sn  Sn28  1  0.063619  0.882239  0.249971  1
  Pb  Pb29  1  0.791375  0.463405  0.540894  1
  Pb  Pb30  1  0.708777  0.964466  0.456173  1
  Pb  Pb31  1  0.208540  0.535032  0.456382  1
  Pb  Pb32  1  0.290926  0.035337  0.956786  1
  Pb  Pb33  1  0.791681  0.463355  0.959053  1
  Pb  Pb34  1  0.208604  0.534842  0.043702  1
  Pb  Pb35  1  0.291412  0.035327  0.543207  1
