# generated using pymatgen
data_Y7Er9(CdPd)4
_symmetry_space_group_name_H-M   'P 1'
_cell_length_a   9.66754069
_cell_length_b   9.66754140
_cell_length_c   9.66440200
_cell_angle_alpha   60.01074159
_cell_angle_beta   60.01073916
_cell_angle_gamma   60.14950234
_symmetry_Int_Tables_number   1
_chemical_formula_structural   Y7Er9(CdPd)4
_chemical_formula_sum   'Y7 Er9 Cd4 Pd4'
_cell_volume   639.51535136
_cell_formula_units_Z   1
loop_
 _symmetry_equiv_pos_site_id
 _symmetry_equiv_pos_as_xyz
  1  'x, y, z'
loop_
 _atom_site_type_symbol
 _atom_site_label
 _atom_site_symmetry_multiplicity
 _atom_site_fract_x
 _atom_site_fract_y
 _atom_site_fract_z
 _atom_site_occupancy
  Y  Y0  1  0.812001  0.812001  0.187999  1
  Y  Y1  1  0.934879  0.564658  0.566037  1
  Y  Y2  1  0.564658  0.934879  0.934426  1
  Y  Y3  1  0.564658  0.934879  0.566037  1
  Y  Y4  1  0.934879  0.564658  0.934426  1
  Y  Y5  1  0.564959  0.564959  0.935041  1
  Y  Y6  1  0.934691  0.934691  0.565309  1
  Er  Er7  1  0.353858  0.353858  0.353802  1
  Er  Er8  1  0.353858  0.353858  0.938482  1
  Er  Er9  1  0.353068  0.939030  0.353951  1
  Er  Er10  1  0.939030  0.353068  0.353951  1
  Er  Er11  1  0.811904  0.188474  0.187740  1
  Er  Er12  1  0.188474  0.811904  0.811882  1
  Er  Er13  1  0.188474  0.811904  0.187740  1
  Er  Er14  1  0.811904  0.188474  0.811882  1
  Er  Er15  1  0.187765  0.187765  0.812235  1
  Cd  Cd16  1  0.582144  0.582144  0.582201  1
  Cd  Cd17  1  0.582144  0.582144  0.253513  1
  Cd  Cd18  1  0.582240  0.253569  0.582096  1
  Cd  Cd19  1  0.253569  0.582240  0.582096  1
  Pd  Pd20  1  0.144532  0.144532  0.144739  1
  Pd  Pd21  1  0.144532  0.144532  0.566196  1
  Pd  Pd22  1  0.147588  0.564193  0.144109  1
  Pd  Pd23  1  0.564193  0.147588  0.144109  1
