# generated using pymatgen
data_Sr6Co2IrRhO12
_symmetry_space_group_name_H-M   'P 1'
_cell_length_a   6.76216597
_cell_length_b   6.69918395
_cell_length_c   6.76365835
_cell_angle_alpha   92.12825591
_cell_angle_beta   91.76754259
_cell_angle_gamma   91.82718818
_symmetry_Int_Tables_number   1
_chemical_formula_structural   Sr6Co2IrRhO12
_chemical_formula_sum   'Sr6 Co2 Ir1 Rh1 O12'
_cell_volume   305.87601874
_cell_formula_units_Z   1
loop_
 _symmetry_equiv_pos_site_id
 _symmetry_equiv_pos_as_xyz
  1  'x, y, z'
loop_
 _atom_site_type_symbol
 _atom_site_label
 _atom_site_symmetry_multiplicity
 _atom_site_fract_x
 _atom_site_fract_y
 _atom_site_fract_z
 _atom_site_occupancy
  Sr  Sr0  1  0.612590  0.882126  0.255569  1
  Sr  Sr1  1  0.885123  0.256141  0.609838  1
  Sr  Sr2  1  0.251351  0.612731  0.885422  1
  Sr  Sr3  1  0.114874  0.743786  0.390138  1
  Sr  Sr4  1  0.748670  0.387275  0.114623  1
  Sr  Sr5  1  0.387424  0.117852  0.744518  1
  Co  Co6  1  0.260905  0.245352  0.248357  1
  Co  Co7  1  0.739280  0.754335  0.751865  1
  Ir  Ir8  1  0.999973  0.999985  0.999889  1
  Rh  Rh9  1  0.500018  0.500096  0.500043  1
  O  O10  1  0.541096  0.210886  0.406195  1
  O  O11  1  0.213703  0.403651  0.541257  1
  O  O12  1  0.400347  0.531470  0.211446  1
  O  O13  1  0.038091  0.907593  0.716862  1
  O  O14  1  0.912937  0.716398  0.048149  1
  O  O15  1  0.712863  0.031173  0.904661  1
  O  O16  1  0.458737  0.789145  0.593729  1
  O  O17  1  0.786256  0.596441  0.458858  1
  O  O18  1  0.599639  0.468621  0.788603  1
  O  O19  1  0.961940  0.092490  0.283017  1
  O  O20  1  0.087031  0.283608  0.951743  1
  O  O21  1  0.287150  0.968845  0.095218  1
