# generated using pymatgen
data_Cs2YHf6CBr18
_symmetry_space_group_name_H-M   'P 1'
_cell_length_a   11.08289532
_cell_length_b   11.08289646
_cell_length_c   11.08289562
_cell_angle_alpha   55.51872916
_cell_angle_beta   55.51872494
_cell_angle_gamma   55.51872851
_symmetry_Int_Tables_number   1
_chemical_formula_structural   Cs2YHf6CBr18
_chemical_formula_sum   'Cs2 Y1 Hf6 C1 Br18'
_cell_volume   862.45015084
_cell_formula_units_Z   1
loop_
 _symmetry_equiv_pos_site_id
 _symmetry_equiv_pos_as_xyz
  1  'x, y, z'
loop_
 _atom_site_type_symbol
 _atom_site_label
 _atom_site_symmetry_multiplicity
 _atom_site_fract_x
 _atom_site_fract_y
 _atom_site_fract_z
 _atom_site_occupancy
  Cs  Cs0  1  0.775326  0.775326  0.775326  1
  Cs  Cs1  1  0.224674  0.224674  0.224674  1
  Y  Y2  1  0.500000  0.500000  0.500000  1
  Hf  Hf3  1  0.150883  0.906139  0.804537  1
  Hf  Hf4  1  0.849117  0.093861  0.195463  1
  Hf  Hf5  1  0.093861  0.195463  0.849117  1
  Hf  Hf6  1  0.195463  0.849117  0.093861  1
  Hf  Hf7  1  0.906139  0.804537  0.150883  1
  Hf  Hf8  1  0.804537  0.150883  0.906139  1
  C  C9  1  0.000000  0.000000  0.000000  1
  Br  Br10  1  0.206289  0.463433  0.654595  1
  Br  Br11  1  0.793711  0.536567  0.345405  1
  Br  Br12  1  0.340699  0.053482  0.933422  1
  Br  Br13  1  0.659301  0.946518  0.066578  1
  Br  Br14  1  0.933422  0.340699  0.053482  1
  Br  Br15  1  0.714548  0.878932  0.407435  1
  Br  Br16  1  0.345405  0.793711  0.536567  1
  Br  Br17  1  0.592565  0.285452  0.121068  1
  Br  Br18  1  0.285452  0.121068  0.592565  1
  Br  Br19  1  0.121068  0.592565  0.285452  1
  Br  Br20  1  0.946518  0.066578  0.659301  1
  Br  Br21  1  0.407435  0.714548  0.878932  1
  Br  Br22  1  0.878932  0.407435  0.714548  1
  Br  Br23  1  0.066578  0.659301  0.946518  1
  Br  Br24  1  0.463433  0.654595  0.206289  1
  Br  Br25  1  0.654595  0.206289  0.463433  1
  Br  Br26  1  0.536567  0.345405  0.793711  1
  Br  Br27  1  0.053482  0.933422  0.340699  1
