# generated using pymatgen
data_Pr2Re3Si2WC2
_symmetry_space_group_name_H-M   'P 1'
_cell_length_a   5.89207860
_cell_length_b   5.89207874
_cell_length_c   7.49248430
_cell_angle_alpha   88.89404281
_cell_angle_beta   91.10595512
_cell_angle_gamma   140.24821511
_symmetry_Int_Tables_number   1
_chemical_formula_structural   Pr2Re3Si2WC2
_chemical_formula_sum   'Pr2 Re3 Si2 W1 C2'
_cell_volume   166.29791916
_cell_formula_units_Z   1
loop_
 _symmetry_equiv_pos_site_id
 _symmetry_equiv_pos_as_xyz
  1  'x, y, z'
loop_
 _atom_site_type_symbol
 _atom_site_label
 _atom_site_symmetry_multiplicity
 _atom_site_fract_x
 _atom_site_fract_y
 _atom_site_fract_z
 _atom_site_occupancy
  Pr  Pr0  1  0.542098  0.457902  0.251048  1
  Pr  Pr1  1  0.458483  0.541517  0.749797  1
  Re  Re2  1  0.180476  0.819524  0.943596  1
  Re  Re3  1  0.169106  0.830894  0.565771  1
  Re  Re4  1  0.829219  0.170781  0.432602  1
  Si  Si5  1  0.262608  0.737392  0.266351  1
  Si  Si6  1  0.733925  0.266075  0.734093  1
  W  W7  1  0.822367  0.177633  0.057958  1
  C  C8  1  0.002210  0.997790  0.998982  1
  C  C9  1  0.999509  0.000491  0.499803  1
