# generated using pymatgen
data_BaInSn5Rh4
_symmetry_space_group_name_H-M   'P 1'
_cell_length_a   7.08548831
_cell_length_b   6.99771070
_cell_length_c   7.06112968
_cell_angle_alpha   119.30185303
_cell_angle_beta   119.71603835
_cell_angle_gamma   90.69645785
_symmetry_Int_Tables_number   1
_chemical_formula_structural   BaInSn5Rh4
_chemical_formula_sum   'Ba1 In1 Sn5 Rh4'
_cell_volume   249.70987354
_cell_formula_units_Z   1
loop_
 _symmetry_equiv_pos_site_id
 _symmetry_equiv_pos_as_xyz
  1  'x, y, z'
loop_
 _atom_site_type_symbol
 _atom_site_label
 _atom_site_symmetry_multiplicity
 _atom_site_fract_x
 _atom_site_fract_y
 _atom_site_fract_z
 _atom_site_occupancy
  Ba  Ba0  1  0.000103  0.998998  0.000000  1
  In  In1  1  0.881443  0.520878  0.000000  1
  Sn  Sn2  1  0.526027  0.874595  0.000000  1
  Sn  Sn3  1  0.475917  0.478095  0.354492  1
  Sn  Sn4  1  0.499229  0.001507  0.501556  1
  Sn  Sn5  1  0.997673  0.499951  0.498444  1
  Sn  Sn6  1  0.121424  0.123602  0.645508  1
  Rh  Rh7  1  0.582828  0.247703  0.000000  1
  Rh  Rh8  1  0.255513  0.588902  0.000000  1
  Rh  Rh9  1  0.754308  0.757271  0.348771  1
  Rh  Rh10  1  0.405535  0.408498  0.651229  1
