# generated using pymatgen
data_Tb11ErTlCo4Ni
_symmetry_space_group_name_H-M   'P 1'
_cell_length_a   8.34472612
_cell_length_b   8.35509051
_cell_length_c   8.35509063
_cell_angle_alpha   110.76770442
_cell_angle_beta   110.55898939
_cell_angle_gamma   107.16054263
_symmetry_Int_Tables_number   1
_chemical_formula_structural   Tb11ErTlCo4Ni
_chemical_formula_sum   'Tb11 Er1 Tl1 Co4 Ni1'
_cell_volume   447.60450852
_cell_formula_units_Z   1
loop_
 _symmetry_equiv_pos_site_id
 _symmetry_equiv_pos_as_xyz
  1  'x, y, z'
loop_
 _atom_site_type_symbol
 _atom_site_label
 _atom_site_symmetry_multiplicity
 _atom_site_fract_x
 _atom_site_fract_y
 _atom_site_fract_z
 _atom_site_occupancy
  Tb  Tb0  1  0.598759  0.793006  0.805753  1
  Tb  Tb1  1  0.013526  0.207266  0.806260  1
  Tb  Tb2  1  0.986357  0.791278  0.195079  1
  Tb  Tb3  1  0.186317  0.293843  0.479374  1
  Tb  Tb4  1  0.813047  0.704169  0.518014  1
  Tb  Tb5  1  0.186317  0.706944  0.892474  1
  Tb  Tb6  1  0.813047  0.295032  0.108879  1
  Tb  Tb7  1  0.315334  0.619564  0.305646  1
  Tb  Tb8  1  0.684152  0.378967  0.693881  1
  Tb  Tb9  1  0.315334  0.009687  0.695769  1
  Tb  Tb10  1  0.684152  0.990271  0.305185  1
  Er  Er11  1  0.405955  0.209764  0.196190  1
  Tl  Tl12  1  0.499145  0.499335  0.999810  1
  Co  Co13  1  0.376753  0.000430  0.376323  1
  Co  Co14  1  0.618419  0.999386  0.619033  1
  Co  Co15  1  0.112007  0.611740  0.500267  1
  Co  Co16  1  0.884920  0.387254  0.497667  1
  Ni  Ni17  1  0.006459  0.002063  0.004397  1
