# generated using pymatgen
data_CsY2TmS5
_symmetry_space_group_name_H-M   'P 1'
_cell_length_a   3.99155000
_cell_length_b   12.17919600
_cell_length_c   21.24745400
_cell_angle_alpha   90.00000000
_cell_angle_beta   90.00000000
_cell_angle_gamma   90.00000000
_symmetry_Int_Tables_number   1
_chemical_formula_structural   CsY2TmS5
_chemical_formula_sum   'Cs4 Y8 Tm4 S20'
_cell_volume   1032.92096221
_cell_formula_units_Z   4
loop_
 _symmetry_equiv_pos_site_id
 _symmetry_equiv_pos_as_xyz
  1  'x, y, z'
loop_
 _atom_site_type_symbol
 _atom_site_label
 _atom_site_symmetry_multiplicity
 _atom_site_fract_x
 _atom_site_fract_y
 _atom_site_fract_z
 _atom_site_occupancy
  Cs  Cs0  1  0.250000  0.847981  0.094596  1
  Cs  Cs1  1  0.750000  0.152019  0.905404  1
  Cs  Cs2  1  0.750000  0.347981  0.405404  1
  Cs  Cs3  1  0.250000  0.652019  0.594596  1
  Y  Y4  1  0.750000  0.797907  0.828237  1
  Y  Y5  1  0.250000  0.202093  0.171763  1
  Y  Y6  1  0.250000  0.297907  0.671763  1
  Y  Y7  1  0.750000  0.702093  0.328237  1
  Y  Y8  1  0.250000  0.960533  0.698679  1
  Y  Y9  1  0.750000  0.039467  0.301321  1
  Y  Y10  1  0.750000  0.460533  0.801321  1
  Y  Y11  1  0.250000  0.539467  0.198679  1
  Tm  Tm12  1  0.750000  0.393644  0.052424  1
  Tm  Tm13  1  0.250000  0.606356  0.947576  1
  Tm  Tm14  1  0.250000  0.893644  0.447576  1
  Tm  Tm15  1  0.750000  0.106356  0.552424  1
  S  S16  1  0.250000  0.953856  0.568610  1
  S  S17  1  0.750000  0.046144  0.431390  1
  S  S18  1  0.750000  0.453856  0.931390  1
  S  S19  1  0.250000  0.546144  0.068610  1
  S  S20  1  0.750000  0.754511  0.954302  1
  S  S21  1  0.250000  0.245489  0.045698  1
  S  S22  1  0.250000  0.254511  0.545698  1
  S  S23  1  0.750000  0.745489  0.454302  1
  S  S24  1  0.250000  0.946761  0.827064  1
  S  S25  1  0.750000  0.053239  0.172936  1
  S  S26  1  0.750000  0.446761  0.672936  1
  S  S27  1  0.250000  0.553239  0.327064  1
  S  S28  1  0.750000  0.127229  0.681449  1
  S  S29  1  0.250000  0.872771  0.318551  1
  S  S30  1  0.250000  0.627229  0.818551  1
  S  S31  1  0.750000  0.372771  0.181449  1
  S  S32  1  0.750000  0.686567  0.200440  1
  S  S33  1  0.250000  0.313433  0.799560  1
  S  S34  1  0.250000  0.186567  0.299560  1
  S  S35  1  0.750000  0.813433  0.700440  1
