# generated using pymatgen
data_La5Pr12(NdIr4)3
_symmetry_space_group_name_H-M   'P 1'
_cell_length_a   11.36155466
_cell_length_b   11.35508438
_cell_length_c   6.64916246
_cell_angle_alpha   89.90428399
_cell_angle_beta   89.97652772
_cell_angle_gamma   89.92515672
_symmetry_Int_Tables_number   1
_chemical_formula_structural   La5Pr12(NdIr4)3
_chemical_formula_sum   'La5 Pr12 Nd3 Ir12'
_cell_volume   857.81583649
_cell_formula_units_Z   1
loop_
 _symmetry_equiv_pos_site_id
 _symmetry_equiv_pos_as_xyz
  1  'x, y, z'
loop_
 _atom_site_type_symbol
 _atom_site_label
 _atom_site_symmetry_multiplicity
 _atom_site_fract_x
 _atom_site_fract_y
 _atom_site_fract_z
 _atom_site_occupancy
  La  La0  1  0.590450  0.792626  0.888474  1
  La  La1  1  0.092470  0.709206  0.612802  1
  La  La2  1  0.907706  0.290608  0.612398  1
  La  La3  1  0.209793  0.407461  0.612921  1
  La  La4  1  0.790670  0.591856  0.612270  1
  Pr  Pr5  1  0.089582  0.291958  0.113807  1
  Pr  Pr6  1  0.791362  0.410150  0.113187  1
  Pr  Pr7  1  0.208608  0.589499  0.114053  1
  Pr  Pr8  1  0.910922  0.707849  0.114600  1
  Pr  Pr9  1  0.409589  0.791445  0.385241  1
  Pr  Pr10  1  0.589405  0.208186  0.385648  1
  Pr  Pr11  1  0.292028  0.089323  0.385232  1
  Pr  Pr12  1  0.708796  0.911449  0.385108  1
  Pr  Pr13  1  0.410398  0.207914  0.886714  1
  Pr  Pr14  1  0.708162  0.091069  0.886377  1
  Pr  Pr15  1  0.291415  0.910473  0.885927  1
  Pr  Pr16  1  0.999892  0.000232  0.000935  1
  Nd  Nd17  1  0.499497  0.499351  0.000651  1
  Nd  Nd18  1  0.500269  0.500034  0.498685  1
  Nd  Nd19  1  0.999933  0.999923  0.500064  1
  Ir  Ir20  1  0.152457  0.845724  0.252556  1
  Ir  Ir21  1  0.346336  0.347934  0.251741  1
  Ir  Ir22  1  0.653138  0.653104  0.249471  1
  Ir  Ir23  1  0.847750  0.154517  0.252506  1
  Ir  Ir24  1  0.347126  0.652297  0.750368  1
  Ir  Ir25  1  0.153288  0.153206  0.749293  1
  Ir  Ir26  1  0.846477  0.846565  0.750400  1
  Ir  Ir27  1  0.652287  0.347398  0.750568  1
  Ir  Ir28  1  0.999696  0.500046  0.383456  1
  Ir  Ir29  1  0.499780  0.999887  0.119126  1
  Ir  Ir30  1  0.500463  0.998830  0.622521  1
  Ir  Ir31  1  0.000256  0.499881  0.872900  1
