# generated using pymatgen
data_Lu16In3HgPt4
_symmetry_space_group_name_H-M   'P 1'
_cell_length_a   9.50498488
_cell_length_b   9.50498484
_cell_length_c   9.50498583
_cell_angle_alpha   60.10172820
_cell_angle_beta   60.10172776
_cell_angle_gamma   60.10172526
_symmetry_Int_Tables_number   1
_chemical_formula_structural   Lu16In3HgPt4
_chemical_formula_sum   'Lu16 In3 Hg1 Pt4'
_cell_volume   608.61016050
_cell_formula_units_Z   1
loop_
 _symmetry_equiv_pos_site_id
 _symmetry_equiv_pos_as_xyz
  1  'x, y, z'
loop_
 _atom_site_type_symbol
 _atom_site_label
 _atom_site_symmetry_multiplicity
 _atom_site_fract_x
 _atom_site_fract_y
 _atom_site_fract_z
 _atom_site_occupancy
  Lu  Lu0  1  0.599699  0.599699  0.599699  1
  Lu  Lu1  1  0.603031  0.603031  0.192260  1
  Lu  Lu2  1  0.603031  0.192260  0.603031  1
  Lu  Lu3  1  0.192260  0.603031  0.603031  1
  Lu  Lu4  1  0.060159  0.440123  0.440123  1
  Lu  Lu5  1  0.440777  0.059599  0.059599  1
  Lu  Lu6  1  0.440123  0.060159  0.440123  1
  Lu  Lu7  1  0.059599  0.440777  0.059599  1
  Lu  Lu8  1  0.440123  0.440123  0.060159  1
  Lu  Lu9  1  0.059599  0.059599  0.440777  1
  Lu  Lu10  1  0.183201  0.814114  0.814114  1
  Lu  Lu11  1  0.811468  0.187882  0.187882  1
  Lu  Lu12  1  0.814114  0.183201  0.814114  1
  Lu  Lu13  1  0.187882  0.811468  0.187882  1
  Lu  Lu14  1  0.814114  0.814114  0.183201  1
  Lu  Lu15  1  0.187882  0.187882  0.811468  1
  In  In16  1  0.833347  0.833347  0.500140  1
  In  In17  1  0.833347  0.500140  0.833347  1
  In  In18  1  0.500140  0.833347  0.833347  1
  Hg  Hg19  1  0.837904  0.837904  0.837904  1
  Pt  Pt20  1  0.393337  0.393337  0.393337  1
  Pt  Pt21  1  0.391253  0.391253  0.822358  1
  Pt  Pt22  1  0.391253  0.822358  0.391253  1
  Pt  Pt23  1  0.822358  0.391253  0.391253  1
