# generated using pymatgen
data_NdTh3(Ga5Ir3)2
_symmetry_space_group_name_H-M   'P 1'
_cell_length_a   8.65098764
_cell_length_b   8.69517778
_cell_length_c   8.69517698
_cell_angle_alpha   140.88471194
_cell_angle_beta   108.28103958
_cell_angle_gamma   84.92776450
_symmetry_Int_Tables_number   1
_chemical_formula_structural   NdTh3(Ga5Ir3)2
_chemical_formula_sum   'Nd1 Th3 Ga10 Ir6'
_cell_volume   378.47687269
_cell_formula_units_Z   1
loop_
 _symmetry_equiv_pos_site_id
 _symmetry_equiv_pos_as_xyz
  1  'x, y, z'
loop_
 _atom_site_type_symbol
 _atom_site_label
 _atom_site_symmetry_multiplicity
 _atom_site_fract_x
 _atom_site_fract_y
 _atom_site_fract_z
 _atom_site_occupancy
  Nd  Nd0  1  0.589811  0.862729  0.727081  1
  Th  Th1  1  0.863992  0.639568  0.224423  1
  Th  Th2  1  0.135040  0.360960  0.774081  1
  Th  Th3  1  0.416805  0.141192  0.275615  1
  Ga  Ga4  1  0.500346  0.752233  0.254699  1
  Ga  Ga5  1  0.500346  0.245647  0.748113  1
  Ga  Ga6  1  0.208383  0.954444  0.749242  1
  Ga  Ga7  1  0.791287  0.544253  0.748171  1
  Ga  Ga8  1  0.791287  0.043116  0.247034  1
  Ga  Ga9  1  0.208383  0.459141  0.253938  1
  Ga  Ga10  1  0.075479  0.909868  0.165613  1
  Ga  Ga11  1  0.923029  0.089229  0.833799  1
  Ga  Ga12  1  0.738255  0.408071  0.330184  1
  Ga  Ga13  1  0.260902  0.591837  0.669065  1
  Ir  Ir14  1  0.001363  0.749425  0.749639  1
  Ir  Ir15  1  0.001363  0.251724  0.251938  1
  Ir  Ir16  1  0.245716  0.849134  0.396584  1
  Ir  Ir17  1  0.753264  0.150805  0.602458  1
  Ir  Ir18  1  0.445068  0.350253  0.094816  1
  Ir  Ir19  1  0.549880  0.646372  0.903508  1
