# generated using pymatgen
data_Sm2Ho3Pb4
_symmetry_space_group_name_H-M   'P 1'
_cell_length_a   8.23759800
_cell_length_b   8.34725390
_cell_length_c   15.73781300
_cell_angle_alpha   90.02659811
_cell_angle_beta   90.00000000
_cell_angle_gamma   90.00000000
_symmetry_Int_Tables_number   1
_chemical_formula_structural   Sm2Ho3Pb4
_chemical_formula_sum   'Sm8 Ho12 Pb16'
_cell_volume   1082.15271110
_cell_formula_units_Z   4
loop_
 _symmetry_equiv_pos_site_id
 _symmetry_equiv_pos_as_xyz
  1  'x, y, z'
loop_
 _atom_site_type_symbol
 _atom_site_label
 _atom_site_symmetry_multiplicity
 _atom_site_fract_x
 _atom_site_fract_y
 _atom_site_fract_z
 _atom_site_occupancy
  Sm  Sm0  1  0.476632  0.677757  0.903226  1
  Sm  Sm1  1  0.976632  0.822243  0.596774  1
  Sm  Sm2  1  0.475339  0.677173  0.597464  1
  Sm  Sm3  1  0.975339  0.822827  0.902536  1
  Sm  Sm4  1  0.524214  0.322113  0.097522  1
  Sm  Sm5  1  0.024214  0.177887  0.402478  1
  Sm  Sm6  1  0.524320  0.322448  0.402458  1
  Sm  Sm7  1  0.024320  0.177552  0.097542  1
  Ho  Ho8  1  0.633810  0.158232  0.622146  1
  Ho  Ho9  1  0.133810  0.341768  0.877854  1
  Ho  Ho10  1  0.366284  0.842025  0.122270  1
  Ho  Ho11  1  0.866284  0.657975  0.377730  1
  Ho  Ho12  1  0.365980  0.841713  0.377562  1
  Ho  Ho13  1  0.865980  0.658287  0.122438  1
  Ho  Ho14  1  0.633445  0.158086  0.877846  1
  Ho  Ho15  1  0.133445  0.341914  0.622154  1
  Ho  Ho16  1  0.799345  0.495663  0.749979  1
  Ho  Ho17  1  0.299345  0.004337  0.750021  1
  Ho  Ho18  1  0.200542  0.504417  0.250129  1
  Ho  Ho19  1  0.700542  0.995583  0.249871  1
  Pb  Pb20  1  0.706579  0.960826  0.456485  1
  Pb  Pb21  1  0.206579  0.539174  0.043515  1
  Pb  Pb22  1  0.291802  0.040294  0.957227  1
  Pb  Pb23  1  0.791802  0.459706  0.542773  1
  Pb  Pb24  1  0.293790  0.040872  0.542629  1
  Pb  Pb25  1  0.793790  0.459128  0.957371  1
  Pb  Pb26  1  0.707973  0.960325  0.042882  1
  Pb  Pb27  1  0.207973  0.539675  0.457118  1
  Pb  Pb28  1  0.437557  0.372081  0.749942  1
  Pb  Pb29  1  0.937557  0.127919  0.750058  1
  Pb  Pb30  1  0.562395  0.627462  0.249950  1
  Pb  Pb31  1  0.062395  0.872538  0.250050  1
  Pb  Pb32  1  0.663204  0.848504  0.749593  1
  Pb  Pb33  1  0.163204  0.651496  0.750407  1
  Pb  Pb34  1  0.336788  0.152096  0.250025  1
  Pb  Pb35  1  0.836788  0.347904  0.249975  1
