# generated using pymatgen
data_Er3FeCoNi7P6
_symmetry_space_group_name_H-M   'P 1'
_cell_length_a   3.73553800
_cell_length_b   10.51417100
_cell_length_c   12.26208300
_cell_angle_alpha   90.00000000
_cell_angle_beta   90.00000000
_cell_angle_gamma   90.00000000
_symmetry_Int_Tables_number   1
_chemical_formula_structural   Er3FeCoNi7P6
_chemical_formula_sum   'Er6 Fe2 Co2 Ni14 P12'
_cell_volume   481.60661797
_cell_formula_units_Z   2
loop_
 _symmetry_equiv_pos_site_id
 _symmetry_equiv_pos_as_xyz
  1  'x, y, z'
loop_
 _atom_site_type_symbol
 _atom_site_label
 _atom_site_symmetry_multiplicity
 _atom_site_fract_x
 _atom_site_fract_y
 _atom_site_fract_z
 _atom_site_occupancy
  Er  Er0  1  0.750000  0.250000  0.477343  1
  Er  Er1  1  0.250000  0.750000  0.522657  1
  Er  Er2  1  0.250000  0.933277  0.793760  1
  Er  Er3  1  0.250000  0.566723  0.793760  1
  Er  Er4  1  0.750000  0.066723  0.206240  1
  Er  Er5  1  0.750000  0.433277  0.206240  1
  Fe  Fe6  1  0.250000  0.250000  0.844917  1
  Fe  Fe7  1  0.750000  0.750000  0.155083  1
  Co  Co8  1  0.750000  0.250000  0.014716  1
  Co  Co9  1  0.250000  0.750000  0.985284  1
  Ni  Ni10  1  0.250000  0.250000  0.297993  1
  Ni  Ni11  1  0.750000  0.750000  0.702007  1
  Ni  Ni12  1  0.250000  0.417881  0.007923  1
  Ni  Ni13  1  0.250000  0.082119  0.007923  1
  Ni  Ni14  1  0.750000  0.582119  0.992077  1
  Ni  Ni15  1  0.750000  0.917881  0.992077  1
  Ni  Ni16  1  0.250000  0.448751  0.570509  1
  Ni  Ni17  1  0.250000  0.051249  0.570509  1
  Ni  Ni18  1  0.750000  0.551249  0.429491  1
  Ni  Ni19  1  0.750000  0.948751  0.429491  1
  Ni  Ni20  1  0.250000  0.870571  0.289988  1
  Ni  Ni21  1  0.250000  0.629429  0.289988  1
  Ni  Ni22  1  0.750000  0.129429  0.710012  1
  Ni  Ni23  1  0.750000  0.370571  0.710012  1
  P  P24  1  0.250000  0.250000  0.120481  1
  P  P25  1  0.750000  0.750000  0.879519  1
  P  P26  1  0.250000  0.250000  0.654879  1
  P  P27  1  0.750000  0.750000  0.345121  1
  P  P28  1  0.250000  0.435289  0.384887  1
  P  P29  1  0.250000  0.064711  0.384887  1
  P  P30  1  0.750000  0.564711  0.615113  1
  P  P31  1  0.750000  0.935289  0.615113  1
  P  P32  1  0.250000  0.900010  0.108138  1
  P  P33  1  0.250000  0.599990  0.108138  1
  P  P34  1  0.750000  0.099990  0.891862  1
  P  P35  1  0.750000  0.400010  0.891862  1
