# generated using pymatgen
data_Tb3Dy5Cd2IrPt
_symmetry_space_group_name_H-M   'P 1'
_cell_length_a   9.67009488
_cell_length_b   9.67009632
_cell_length_c   9.64653100
_cell_angle_alpha   60.08057679
_cell_angle_beta   60.08057188
_cell_angle_gamma   60.22357922
_symmetry_Int_Tables_number   1
_chemical_formula_structural   Tb3Dy5Cd2IrPt
_chemical_formula_sum   'Tb6 Dy10 Cd4 Ir2 Pt2'
_cell_volume   639.69918211
_cell_formula_units_Z   2
loop_
 _symmetry_equiv_pos_site_id
 _symmetry_equiv_pos_as_xyz
  1  'x, y, z'
loop_
 _atom_site_type_symbol
 _atom_site_label
 _atom_site_symmetry_multiplicity
 _atom_site_fract_x
 _atom_site_fract_y
 _atom_site_fract_z
 _atom_site_occupancy
  Tb  Tb0  1  0.188333  0.813583  0.811393  1
  Tb  Tb1  1  0.813583  0.188333  0.186690  1
  Tb  Tb2  1  0.813583  0.188333  0.811393  1
  Tb  Tb3  1  0.188333  0.813583  0.186690  1
  Tb  Tb4  1  0.812788  0.812788  0.187212  1
  Tb  Tb5  1  0.187643  0.187643  0.812357  1
  Dy  Dy6  1  0.600949  0.600949  0.596112  1
  Dy  Dy7  1  0.600949  0.600949  0.201990  1
  Dy  Dy8  1  0.605929  0.194857  0.599607  1
  Dy  Dy9  1  0.194857  0.605929  0.599607  1
  Dy  Dy10  1  0.056578  0.439474  0.441205  1
  Dy  Dy11  1  0.439474  0.056578  0.062743  1
  Dy  Dy12  1  0.439474  0.056578  0.441205  1
  Dy  Dy13  1  0.056578  0.439474  0.062743  1
  Dy  Dy14  1  0.441502  0.441502  0.058498  1
  Dy  Dy15  1  0.061064  0.061064  0.438936  1
  Cd  Cd16  1  0.831135  0.831135  0.831241  1
  Cd  Cd17  1  0.831135  0.831135  0.506489  1
  Cd  Cd18  1  0.830926  0.506056  0.831510  1
  Cd  Cd19  1  0.506056  0.830926  0.831510  1
  Ir  Ir20  1  0.391794  0.822649  0.392779  1
  Ir  Ir21  1  0.822649  0.391794  0.392779  1
  Pt  Pt22  1  0.392344  0.392344  0.394195  1
  Pt  Pt23  1  0.392344  0.392344  0.821118  1
