# generated using pymatgen
data_Ho4Tm6Ru3Rh
_symmetry_space_group_name_H-M   'P 1'
_cell_length_a   6.27598671
_cell_length_b   7.26094196
_cell_length_c   8.37016319
_cell_angle_alpha   96.86758523
_cell_angle_beta   111.93754332
_cell_angle_gamma   90.04082208
_symmetry_Int_Tables_number   1
_chemical_formula_structural   Ho4Tm6Ru3Rh
_chemical_formula_sum   'Ho4 Tm6 Ru3 Rh1'
_cell_volume   350.84111722
_cell_formula_units_Z   1
loop_
 _symmetry_equiv_pos_site_id
 _symmetry_equiv_pos_as_xyz
  1  'x, y, z'
loop_
 _atom_site_type_symbol
 _atom_site_label
 _atom_site_symmetry_multiplicity
 _atom_site_fract_x
 _atom_site_fract_y
 _atom_site_fract_z
 _atom_site_occupancy
  Ho  Ho0  1  0.791580  0.081670  0.814021  1
  Ho  Ho1  1  0.979300  0.415545  0.189340  1
  Ho  Ho2  1  0.209610  0.915878  0.186871  1
  Ho  Ho3  1  0.024743  0.585503  0.813926  1
  Tm  Tm4  1  0.203278  0.182771  0.564006  1
  Tm  Tm5  1  0.642022  0.315394  0.432642  1
  Tm  Tm6  1  0.793516  0.815391  0.434574  1
  Tm  Tm7  1  0.357566  0.686165  0.564009  1
  Tm  Tm8  1  0.419053  0.249127  0.000826  1
  Tm  Tm9  1  0.580513  0.752014  0.001262  1
  Ru  Ru10  1  0.822606  0.076837  0.219814  1
  Ru  Ru11  1  0.397618  0.575586  0.221037  1
  Ru  Ru12  1  0.178689  0.924129  0.779193  1
  Rh  Rh13  1  0.599904  0.423989  0.778479  1
