# generated using pymatgen
data_Tb7Y(ZrIr3)2
_symmetry_space_group_name_H-M   'P 1'
_cell_length_a   10.88907701
_cell_length_b   10.89800200
_cell_length_c   6.29102457
_cell_angle_alpha   90.00000000
_cell_angle_beta   90.04912335
_cell_angle_gamma   90.00000000
_symmetry_Int_Tables_number   1
_chemical_formula_structural   Tb7Y(ZrIr3)2
_chemical_formula_sum   'Tb14 Y2 Zr4 Ir12'
_cell_volume   746.55047209
_cell_formula_units_Z   2
loop_
 _symmetry_equiv_pos_site_id
 _symmetry_equiv_pos_as_xyz
  1  'x, y, z'
loop_
 _atom_site_type_symbol
 _atom_site_label
 _atom_site_symmetry_multiplicity
 _atom_site_fract_x
 _atom_site_fract_y
 _atom_site_fract_z
 _atom_site_occupancy
  Tb  Tb0  1  0.710359  0.086917  0.874414  1
  Tb  Tb1  1  0.710359  0.913083  0.374414  1
  Tb  Tb2  1  0.586651  0.789704  0.874506  1
  Tb  Tb3  1  0.586651  0.210296  0.374506  1
  Tb  Tb4  1  0.413007  0.789949  0.374508  1
  Tb  Tb5  1  0.413007  0.210051  0.874508  1
  Tb  Tb6  1  0.210250  0.413079  0.625364  1
  Tb  Tb7  1  0.210250  0.586921  0.125364  1
  Tb  Tb8  1  0.789731  0.413114  0.125613  1
  Tb  Tb9  1  0.789731  0.586886  0.625613  1
  Tb  Tb10  1  0.913149  0.710285  0.125395  1
  Tb  Tb11  1  0.913149  0.289715  0.625395  1
  Tb  Tb12  1  0.086942  0.710250  0.625773  1
  Tb  Tb13  1  0.086942  0.289750  0.125773  1
  Y  Y14  1  0.289466  0.086709  0.374484  1
  Y  Y15  1  0.289466  0.913291  0.874484  1
  Zr  Zr16  1  0.000274  0.000214  0.500019  1
  Zr  Zr17  1  0.000274  0.999786  0.000019  1
  Zr  Zr18  1  0.499947  0.500079  0.999680  1
  Zr  Zr19  1  0.499947  0.499921  0.499680  1
  Ir  Ir20  1  0.855688  0.144187  0.249888  1
  Ir  Ir21  1  0.855688  0.855813  0.749888  1
  Ir  Ir22  1  0.144045  0.144363  0.750639  1
  Ir  Ir23  1  0.144045  0.855637  0.250639  1
  Ir  Ir24  1  0.644271  0.355756  0.750046  1
  Ir  Ir25  1  0.644271  0.644244  0.250046  1
  Ir  Ir26  1  0.355729  0.355906  0.249720  1
  Ir  Ir27  1  0.355729  0.644094  0.749720  1
  Ir  Ir28  1  0.500528  0.000043  0.119952  1
  Ir  Ir29  1  0.500528  0.999957  0.619952  1
  Ir  Ir30  1  0.999962  0.500015  0.879999  1
  Ir  Ir31  1  0.999962  0.499985  0.379999  1
