# generated using pymatgen
data_PaH3OF6
_symmetry_space_group_name_H-M   'P 1'
_cell_length_a   5.64003102
_cell_length_b   7.11713508
_cell_length_c   8.73308541
_cell_angle_alpha   86.07889222
_cell_angle_beta   79.96075681
_cell_angle_gamma   84.26008145
_symmetry_Int_Tables_number   1
_chemical_formula_structural   PaH3OF6
_chemical_formula_sum   'Pa2 H6 O2 F12'
_cell_volume   342.99070491
_cell_formula_units_Z   2
loop_
 _symmetry_equiv_pos_site_id
 _symmetry_equiv_pos_as_xyz
  1  'x, y, z'
loop_
 _atom_site_type_symbol
 _atom_site_label
 _atom_site_symmetry_multiplicity
 _atom_site_fract_x
 _atom_site_fract_y
 _atom_site_fract_z
 _atom_site_occupancy
  Pa  Pa0  1  0.436033  0.761236  0.764849  1
  Pa  Pa1  1  0.563967  0.238764  0.235151  1
  H  H2  1  0.104022  0.356375  0.727679  1
  H  H3  1  0.895978  0.643625  0.272321  1
  H  H4  1  0.055055  0.136829  0.690846  1
  H  H5  1  0.944945  0.863171  0.309154  1
  H  H6  1  0.901554  0.239174  0.847041  1
  H  H7  1  0.098446  0.760826  0.152959  1
  O  O8  1  0.979260  0.261427  0.733862  1
  O  O9  1  0.020740  0.738573  0.266138  1
  F  F10  1  0.273314  0.507335  0.738385  1
  F  F11  1  0.726686  0.492665  0.261615  1
  F  F12  1  0.164818  0.929277  0.656774  1
  F  F13  1  0.835182  0.070723  0.343226  1
  F  F14  1  0.192524  0.801101  0.981678  1
  F  F15  1  0.807476  0.198899  0.018322  1
  F  F16  1  0.571489  0.017274  0.788482  1
  F  F17  1  0.428511  0.982726  0.211518  1
  F  F18  1  0.695978  0.612044  0.879890  1
  F  F19  1  0.304022  0.387956  0.120110  1
  F  F20  1  0.659707  0.726658  0.550476  1
  F  F21  1  0.340293  0.273342  0.449524  1
