# generated using pymatgen
data_Ho2Lu3V2Co17P12
_symmetry_space_group_name_H-M   'P 1'
_cell_length_a   11.98756927
_cell_length_b   11.94138845
_cell_length_c   3.64475300
_cell_angle_alpha   90.00000000
_cell_angle_beta   90.00000000
_cell_angle_gamma   119.87264772
_symmetry_Int_Tables_number   1
_chemical_formula_structural   Ho2Lu3V2Co17P12
_chemical_formula_sum   'Ho2 Lu3 V2 Co17 P12'
_cell_volume   452.41873854
_cell_formula_units_Z   1
loop_
 _symmetry_equiv_pos_site_id
 _symmetry_equiv_pos_as_xyz
  1  'x, y, z'
loop_
 _atom_site_type_symbol
 _atom_site_label
 _atom_site_symmetry_multiplicity
 _atom_site_fract_x
 _atom_site_fract_y
 _atom_site_fract_z
 _atom_site_occupancy
  Ho  Ho0  1  0.664881  0.332766  0.000000  1
  Ho  Ho1  1  0.335119  0.667886  0.000000  1
  Lu  Lu2  1  0.813713  0.814884  0.500000  1
  Lu  Lu3  1  0.186287  0.001172  0.500000  1
  Lu  Lu4  1  0.000000  0.187795  0.500000  1
  V  V5  1  0.442868  0.443395  0.000000  1
  V  V6  1  0.557132  0.000527  0.000000  1
  Co  Co7  1  0.873357  0.356942  0.500000  1
  Co  Co8  1  0.644530  0.519647  0.500000  1
  Co  Co9  1  0.481531  0.126518  0.500000  1
  Co  Co10  1  0.355470  0.875116  0.500000  1
  Co  Co11  1  0.518469  0.644986  0.500000  1
  Co  Co12  1  0.126643  0.483584  0.500000  1
  Co  Co13  1  0.000000  0.551016  0.000000  1
  Co  Co14  1  0.803012  0.178826  0.000000  1
  Co  Co15  1  0.823795  0.622993  0.000000  1
  Co  Co16  1  0.373634  0.197014  0.000000  1
  Co  Co17  1  0.176205  0.799199  0.000000  1
  Co  Co18  1  0.626366  0.823381  0.000000  1
  Co  Co19  1  0.196988  0.375815  0.000000  1
  Co  Co20  1  0.280053  0.280558  0.500000  1
  Co  Co21  1  0.719947  0.000505  0.500000  1
  Co  Co22  1  0.000000  0.715726  0.500000  1
  Co  Co23  1  0.000000  0.998071  0.000000  1
  P  P24  1  0.684444  0.164995  0.500000  1
  P  P25  1  0.835175  0.519629  0.500000  1
  P  P26  1  0.479232  0.315951  0.500000  1
  P  P27  1  0.164825  0.684456  0.500000  1
  P  P28  1  0.520768  0.836719  0.500000  1
  P  P29  1  0.315556  0.480551  0.500000  1
  P  P30  1  0.176923  0.177860  0.000000  1
  P  P31  1  0.823077  0.000937  0.000000  1
  P  P32  1  0.000000  0.819839  0.000000  1
  P  P33  1  0.638250  0.636754  0.000000  1
  P  P34  1  0.361750  0.998504  0.000000  1
  P  P35  1  0.000000  0.365480  0.000000  1
