# generated using pymatgen
data_La9Nd7Mg2Cd2(OsPt)2
_symmetry_space_group_name_H-M   'P 1'
_cell_length_a   10.06086929
_cell_length_b   10.06086747
_cell_length_c   10.14736300
_cell_angle_alpha   59.71519298
_cell_angle_beta   59.71519904
_cell_angle_gamma   59.86378344
_symmetry_Int_Tables_number   1
_chemical_formula_structural   La9Nd7Mg2Cd2(OsPt)2
_chemical_formula_sum   'La9 Nd7 Mg2 Cd2 Os2 Pt2'
_cell_volume   722.40526626
_cell_formula_units_Z   1
loop_
 _symmetry_equiv_pos_site_id
 _symmetry_equiv_pos_as_xyz
  1  'x, y, z'
loop_
 _atom_site_type_symbol
 _atom_site_label
 _atom_site_symmetry_multiplicity
 _atom_site_fract_x
 _atom_site_fract_y
 _atom_site_fract_z
 _atom_site_occupancy
  La  La0  1  0.347265  0.347265  0.353127  1
  La  La1  1  0.347265  0.347265  0.952344  1
  La  La2  1  0.342841  0.963678  0.346741  1
  La  La3  1  0.963678  0.342841  0.346741  1
  La  La4  1  0.815240  0.187812  0.192052  1
  La  La5  1  0.187812  0.815240  0.804898  1
  La  La6  1  0.187812  0.815240  0.192052  1
  La  La7  1  0.815240  0.187812  0.804898  1
  La  La8  1  0.189800  0.189800  0.810200  1
  Nd  Nd9  1  0.804756  0.804756  0.195244  1
  Nd  Nd10  1  0.934582  0.560054  0.568121  1
  Nd  Nd11  1  0.560054  0.934582  0.937243  1
  Nd  Nd12  1  0.560054  0.934582  0.568121  1
  Nd  Nd13  1  0.934582  0.560054  0.937243  1
  Nd  Nd14  1  0.564180  0.564180  0.935820  1
  Nd  Nd15  1  0.935544  0.935544  0.564456  1
  Mg  Mg16  1  0.578991  0.578991  0.577930  1
  Mg  Mg17  1  0.578991  0.578991  0.264091  1
  Cd  Cd18  1  0.582170  0.257417  0.580207  1
  Cd  Cd19  1  0.257417  0.582170  0.580207  1
  Os  Os20  1  0.143041  0.143041  0.135860  1
  Os  Os21  1  0.143041  0.143041  0.578058  1
  Pt  Pt22  1  0.148189  0.577460  0.137175  1
  Pt  Pt23  1  0.577460  0.148189  0.137175  1
