# generated using pymatgen
data_TbPa2(GaNi)3
_symmetry_space_group_name_H-M   'P 1'
_cell_length_a   6.83685695
_cell_length_b   6.75535551
_cell_length_c   3.97800800
_cell_angle_alpha   90.00000000
_cell_angle_beta   90.00000000
_cell_angle_gamma   119.60699892
_symmetry_Int_Tables_number   1
_chemical_formula_structural   TbPa2(GaNi)3
_chemical_formula_sum   'Tb1 Pa2 Ga3 Ni3'
_cell_volume   159.73764103
_cell_formula_units_Z   1
loop_
 _symmetry_equiv_pos_site_id
 _symmetry_equiv_pos_as_xyz
  1  'x, y, z'
loop_
 _atom_site_type_symbol
 _atom_site_label
 _atom_site_symmetry_multiplicity
 _atom_site_fract_x
 _atom_site_fract_y
 _atom_site_fract_z
 _atom_site_occupancy
  Tb  Tb0  1  0.000003  0.582706  0.500000  1
  Pa  Pa1  1  0.422229  0.421003  0.500000  1
  Pa  Pa2  1  0.577771  0.998750  0.500000  1
  Ga  Ga3  1  0.235380  0.993893  0.000000  1
  Ga  Ga4  1  0.764649  0.758517  0.000000  1
  Ga  Ga5  1  0.999997  0.246036  0.000000  1
  Ni  Ni6  1  0.647662  0.316773  0.000000  1
  Ni  Ni7  1  0.352268  0.669121  0.000000  1
  Ni  Ni8  1  0.000042  0.013199  0.500000  1
