# generated using pymatgen
data_Y2Ho3Ru2
_symmetry_space_group_name_H-M   'P 1'
_cell_length_a   6.35736449
_cell_length_b   7.29447015
_cell_length_c   8.45952929
_cell_angle_alpha   96.75211548
_cell_angle_beta   112.07077532
_cell_angle_gamma   90.00000203
_symmetry_Int_Tables_number   1
_chemical_formula_structural   Y2Ho3Ru2
_chemical_formula_sum   'Y4 Ho6 Ru4'
_cell_volume   360.61358979
_cell_formula_units_Z   2
loop_
 _symmetry_equiv_pos_site_id
 _symmetry_equiv_pos_as_xyz
  1  'x, y, z'
loop_
 _atom_site_type_symbol
 _atom_site_label
 _atom_site_symmetry_multiplicity
 _atom_site_fract_x
 _atom_site_fract_y
 _atom_site_fract_z
 _atom_site_occupancy
  Y  Y0  1  0.977682  0.916369  0.187147  1
  Y  Y1  1  0.790534  0.583631  0.812853  1
  Y  Y2  1  0.022318  0.083631  0.812853  1
  Y  Y3  1  0.209466  0.416369  0.187147  1
  Ho  Ho4  1  0.640014  0.814999  0.434361  1
  Ho  Ho5  1  0.205653  0.685001  0.565639  1
  Ho  Ho6  1  0.359986  0.185001  0.565639  1
  Ho  Ho7  1  0.794347  0.314999  0.434361  1
  Ho  Ho8  1  0.420038  0.750000  0.000000  1
  Ho  Ho9  1  0.579962  0.250000  0.000000  1
  Ru  Ru10  1  0.820585  0.575081  0.221321  1
  Ru  Ru11  1  0.599264  0.924919  0.778679  1
  Ru  Ru12  1  0.179415  0.424919  0.778679  1
  Ru  Ru13  1  0.400736  0.075081  0.221321  1
