# generated using pymatgen
data_LiGaSe2
_symmetry_space_group_name_H-M   'P 1'
_cell_length_a   6.90225623
_cell_length_b   6.90225623
_cell_length_c   6.90225623
_cell_angle_alpha   129.31737767
_cell_angle_beta   129.31737767
_cell_angle_gamma   74.50043295
_symmetry_Int_Tables_number   1
_chemical_formula_structural   LiGaSe2
_chemical_formula_sum   'Li2 Ga2 Se4'
_cell_volume   191.80202046
_cell_formula_units_Z   2
loop_
 _symmetry_equiv_pos_site_id
 _symmetry_equiv_pos_as_xyz
  1  'x, y, z'
loop_
 _atom_site_type_symbol
 _atom_site_label
 _atom_site_symmetry_multiplicity
 _atom_site_fract_x
 _atom_site_fract_y
 _atom_site_fract_z
 _atom_site_occupancy
  Li  Li0  1  0.750000  0.250000  0.500000  1
  Li  Li1  1  0.000000  0.000000  0.000000  1
  Ga  Ga2  1  0.500000  0.500000  0.000000  1
  Ga  Ga3  1  0.250000  0.750000  0.500000  1
  Se  Se4  1  0.875000  0.858499  0.483499  1
  Se  Se5  1  0.141501  0.625000  0.016501  1
  Se  Se6  1  0.375000  0.391501  0.516501  1
  Se  Se7  1  0.608499  0.125000  0.983499  1
