# generated using pymatgen
data_PrDy2V(Co4P3)2
_symmetry_space_group_name_H-M   'P 1'
_cell_length_a   3.71147600
_cell_length_b   10.59390300
_cell_length_c   12.29076100
_cell_angle_alpha   90.00000000
_cell_angle_beta   90.00000000
_cell_angle_gamma   90.00000000
_symmetry_Int_Tables_number   1
_chemical_formula_structural   PrDy2V(Co4P3)2
_chemical_formula_sum   'Pr2 Dy4 V2 Co16 P12'
_cell_volume   483.26063739
_cell_formula_units_Z   2
loop_
 _symmetry_equiv_pos_site_id
 _symmetry_equiv_pos_as_xyz
  1  'x, y, z'
loop_
 _atom_site_type_symbol
 _atom_site_label
 _atom_site_symmetry_multiplicity
 _atom_site_fract_x
 _atom_site_fract_y
 _atom_site_fract_z
 _atom_site_occupancy
  Pr  Pr0  1  0.000000  0.500000  0.523844  1
  Pr  Pr1  1  0.500000  0.000000  0.476156  1
  Dy  Dy2  1  0.500000  0.818606  0.203123  1
  Dy  Dy3  1  0.500000  0.181394  0.203123  1
  Dy  Dy4  1  0.000000  0.681394  0.796877  1
  Dy  Dy5  1  0.000000  0.318606  0.796877  1
  V  V6  1  0.500000  0.500000  0.151282  1
  V  V7  1  0.000000  0.000000  0.848718  1
  Co  Co8  1  0.500000  0.500000  0.705925  1
  Co  Co9  1  0.000000  0.000000  0.294075  1
  Co  Co10  1  0.000000  0.500000  0.986922  1
  Co  Co11  1  0.500000  0.000000  0.013078  1
  Co  Co12  1  0.500000  0.332241  0.993130  1
  Co  Co13  1  0.500000  0.667759  0.993130  1
  Co  Co14  1  0.000000  0.167759  0.006870  1
  Co  Co15  1  0.000000  0.832241  0.006870  1
  Co  Co16  1  0.500000  0.295245  0.429569  1
  Co  Co17  1  0.500000  0.704755  0.429569  1
  Co  Co18  1  0.000000  0.204755  0.570431  1
  Co  Co19  1  0.000000  0.795245  0.570431  1
  Co  Co20  1  0.500000  0.879287  0.710865  1
  Co  Co21  1  0.500000  0.120713  0.710865  1
  Co  Co22  1  0.000000  0.620713  0.289135  1
  Co  Co23  1  0.000000  0.379287  0.289135  1
  P  P24  1  0.500000  0.500000  0.883566  1
  P  P25  1  0.000000  0.000000  0.116434  1
  P  P26  1  0.500000  0.500000  0.341708  1
  P  P27  1  0.000000  0.000000  0.658292  1
  P  P28  1  0.500000  0.307449  0.617915  1
  P  P29  1  0.500000  0.692551  0.617915  1
  P  P30  1  0.000000  0.192551  0.382085  1
  P  P31  1  0.000000  0.807449  0.382085  1
  P  P32  1  0.500000  0.845792  0.893105  1
  P  P33  1  0.500000  0.154208  0.893105  1
  P  P34  1  0.000000  0.654208  0.106895  1
  P  P35  1  0.000000  0.345792  0.106895  1
