# generated using pymatgen
data_CsSc(AgTe2)4
_symmetry_space_group_name_H-M   'P 1'
_cell_length_a   12.18199634
_cell_length_b   12.18199668
_cell_length_c   10.91133371
_cell_angle_alpha   88.88007833
_cell_angle_beta   88.88007753
_cell_angle_gamma   14.85735075
_symmetry_Int_Tables_number   1
_chemical_formula_structural   CsSc(AgTe2)4
_chemical_formula_sum   'Cs1 Sc1 Ag4 Te8'
_cell_volume   415.11754171
_cell_formula_units_Z   1
loop_
 _symmetry_equiv_pos_site_id
 _symmetry_equiv_pos_as_xyz
  1  'x, y, z'
loop_
 _atom_site_type_symbol
 _atom_site_label
 _atom_site_symmetry_multiplicity
 _atom_site_fract_x
 _atom_site_fract_y
 _atom_site_fract_z
 _atom_site_occupancy
  Cs  Cs0  1  0.000000  0.000000  0.000000  1
  Sc  Sc1  1  0.500000  0.500000  0.500000  1
  Ag  Ag2  1  0.233208  0.233208  0.119513  1
  Ag  Ag3  1  0.839037  0.839037  0.477556  1
  Ag  Ag4  1  0.160963  0.160963  0.522444  1
  Ag  Ag5  1  0.766792  0.766792  0.880487  1
  Te  Te6  1  0.924030  0.924030  0.663906  1
  Te  Te7  1  0.075970  0.075970  0.336094  1
  Te  Te8  1  0.583894  0.583894  0.697933  1
  Te  Te9  1  0.416106  0.416106  0.302067  1
  Te  Te10  1  0.652317  0.652317  0.978525  1
  Te  Te11  1  0.347683  0.347683  0.021475  1
  Te  Te12  1  0.737525  0.737525  0.342808  1
  Te  Te13  1  0.262475  0.262475  0.657192  1
