# generated using pymatgen
data_Ho4Al18AgPdRh4
_symmetry_space_group_name_H-M   'P 1'
_cell_length_a   7.61777574
_cell_length_b   7.61777402
_cell_length_c   9.44467726
_cell_angle_alpha   90.00867968
_cell_angle_beta   90.00867613
_cell_angle_gamma   119.64361107
_symmetry_Int_Tables_number   1
_chemical_formula_structural   Ho4Al18AgPdRh4
_chemical_formula_sum   'Ho4 Al18 Ag1 Pd1 Rh4'
_cell_volume   476.34594277
_cell_formula_units_Z   1
loop_
 _symmetry_equiv_pos_site_id
 _symmetry_equiv_pos_as_xyz
  1  'x, y, z'
loop_
 _atom_site_type_symbol
 _atom_site_label
 _atom_site_symmetry_multiplicity
 _atom_site_fract_x
 _atom_site_fract_y
 _atom_site_fract_z
 _atom_site_occupancy
  Ho  Ho0  1  0.990547  0.665561  0.250050  1
  Ho  Ho1  1  0.000742  0.328136  0.750250  1
  Ho  Ho2  1  0.671864  0.999258  0.249750  1
  Ho  Ho3  1  0.334439  0.009453  0.749950  1
  Al  Al4  1  0.125635  0.122535  0.251069  1
  Al  Al5  1  0.877465  0.874365  0.748931  1
  Al  Al6  1  0.012322  0.335236  0.078330  1
  Al  Al7  1  0.009786  0.674935  0.922301  1
  Al  Al8  1  0.006165  0.670018  0.575011  1
  Al  Al9  1  0.329982  0.993835  0.424989  1
  Al  Al10  1  0.003780  0.334936  0.424343  1
  Al  Al11  1  0.665064  0.996220  0.575657  1
  Al  Al12  1  0.664764  0.987678  0.921670  1
  Al  Al13  1  0.325065  0.990214  0.077699  1
  Al  Al14  1  0.328050  0.332047  0.551310  1
  Al  Al15  1  0.667953  0.671951  0.448690  1
  Al  Al16  1  0.666557  0.673135  0.057201  1
  Al  Al17  1  0.326866  0.333443  0.942799  1
  Al  Al18  1  0.341817  0.553959  0.251286  1
  Al  Al19  1  0.660381  0.460129  0.744262  1
  Al  Al20  1  0.539871  0.339619  0.255738  1
  Al  Al21  1  0.446041  0.658183  0.748714  1
  Ag  Ag22  1  0.674613  0.325387  0.000000  1
  Pd  Pd23  1  0.673235  0.326765  0.500000  1
  Rh  Rh24  1  0.328760  0.671240  0.000000  1
  Rh  Rh25  1  0.328173  0.671827  0.500000  1
  Rh  Rh26  1  0.000170  0.999830  0.000000  1
  Rh  Rh27  1  0.999893  0.000107  0.500000  1
