# generated using pymatgen
data_Y9Hf(IrRh2)2
_symmetry_space_group_name_H-M   'P 1'
_cell_length_a   10.93051600
_cell_length_b   10.93051600
_cell_length_c   6.32594900
_cell_angle_alpha   90.00000000
_cell_angle_beta   90.00000000
_cell_angle_gamma   90.00000000
_symmetry_Int_Tables_number   1
_chemical_formula_structural   Y9Hf(IrRh2)2
_chemical_formula_sum   'Y18 Hf2 Ir4 Rh8'
_cell_volume   755.80022156
_cell_formula_units_Z   2
loop_
 _symmetry_equiv_pos_site_id
 _symmetry_equiv_pos_as_xyz
  1  'x, y, z'
loop_
 _atom_site_type_symbol
 _atom_site_label
 _atom_site_symmetry_multiplicity
 _atom_site_fract_x
 _atom_site_fract_y
 _atom_site_fract_z
 _atom_site_occupancy
  Y  Y0  1  0.292348  0.089636  0.377448  1
  Y  Y1  1  0.292348  0.910364  0.877448  1
  Y  Y2  1  0.707652  0.089636  0.877448  1
  Y  Y3  1  0.707652  0.910364  0.377448  1
  Y  Y4  1  0.586160  0.786169  0.878671  1
  Y  Y5  1  0.586160  0.213831  0.378671  1
  Y  Y6  1  0.413840  0.786169  0.378671  1
  Y  Y7  1  0.413840  0.213831  0.878671  1
  Y  Y8  1  0.213831  0.413840  0.621329  1
  Y  Y9  1  0.213831  0.586160  0.121329  1
  Y  Y10  1  0.786169  0.413840  0.121329  1
  Y  Y11  1  0.786169  0.586160  0.621329  1
  Y  Y12  1  0.910364  0.707652  0.122552  1
  Y  Y13  1  0.910364  0.292348  0.622552  1
  Y  Y14  1  0.089636  0.707652  0.622552  1
  Y  Y15  1  0.089636  0.292348  0.122552  1
  Y  Y16  1  0.000000  0.000000  0.500000  1
  Y  Y17  1  0.000000  0.000000  0.000000  1
  Hf  Hf18  1  0.500000  0.500000  0.000000  1
  Hf  Hf19  1  0.500000  0.500000  0.500000  1
  Ir  Ir20  1  0.641714  0.358286  0.750000  1
  Ir  Ir21  1  0.641714  0.641714  0.250000  1
  Ir  Ir22  1  0.358286  0.358286  0.250000  1
  Ir  Ir23  1  0.358286  0.641714  0.750000  1
  Rh  Rh24  1  0.845540  0.154460  0.250000  1
  Rh  Rh25  1  0.845540  0.845540  0.750000  1
  Rh  Rh26  1  0.154460  0.154460  0.750000  1
  Rh  Rh27  1  0.154460  0.845540  0.250000  1
  Rh  Rh28  1  0.500000  0.000000  0.126665  1
  Rh  Rh29  1  0.500000  0.000000  0.626665  1
  Rh  Rh30  1  0.000000  0.500000  0.873335  1
  Rh  Rh31  1  0.000000  0.500000  0.373335  1
