# generated using pymatgen
data_Nd3MgZn(CdGa)2
_symmetry_space_group_name_H-M   'P 1'
_cell_length_a   7.45479869
_cell_length_b   7.45479829
_cell_length_c   4.49531100
_cell_angle_alpha   90.00000000
_cell_angle_beta   90.00000000
_cell_angle_gamma   119.82504400
_symmetry_Int_Tables_number   1
_chemical_formula_structural   Nd3MgZn(CdGa)2
_chemical_formula_sum   'Nd3 Mg1 Zn1 Cd2 Ga2'
_cell_volume   216.73305092
_cell_formula_units_Z   1
loop_
 _symmetry_equiv_pos_site_id
 _symmetry_equiv_pos_as_xyz
  1  'x, y, z'
loop_
 _atom_site_type_symbol
 _atom_site_label
 _atom_site_symmetry_multiplicity
 _atom_site_fract_x
 _atom_site_fract_y
 _atom_site_fract_z
 _atom_site_occupancy
  Nd  Nd0  1  0.416632  0.416632  0.500000  1
  Nd  Nd1  1  0.580858  0.000489  0.500000  1
  Nd  Nd2  1  0.000489  0.580858  0.500000  1
  Mg  Mg3  1  0.761005  0.761005  0.000000  1
  Zn  Zn4  1  0.997949  0.997949  0.500000  1
  Cd  Cd5  1  0.242880  0.999351  0.000000  1
  Cd  Cd6  1  0.999351  0.242880  0.000000  1
  Ga  Ga7  1  0.666048  0.334788  0.000000  1
  Ga  Ga8  1  0.334788  0.666048  0.000000  1
