# generated using pymatgen
data_Pr7Nd9MgHg3Rh4
_symmetry_space_group_name_H-M   'P 1'
_cell_length_a   9.92663435
_cell_length_b   9.99016539
_cell_length_c   9.99035061
_cell_angle_alpha   59.99266845
_cell_angle_beta   59.96535652
_cell_angle_gamma   59.94555556
_symmetry_Int_Tables_number   1
_chemical_formula_structural   Pr7Nd9MgHg3Rh4
_chemical_formula_sum   'Pr7 Nd9 Mg1 Hg3 Rh4'
_cell_volume   700.04126638
_cell_formula_units_Z   1
loop_
 _symmetry_equiv_pos_site_id
 _symmetry_equiv_pos_as_xyz
  1  'x, y, z'
loop_
 _atom_site_type_symbol
 _atom_site_label
 _atom_site_symmetry_multiplicity
 _atom_site_fract_x
 _atom_site_fract_y
 _atom_site_fract_z
 _atom_site_occupancy
  Pr  Pr0  1  0.806623  0.808350  0.191351  1
  Pr  Pr1  1  0.939119  0.562193  0.562513  1
  Pr  Pr2  1  0.559362  0.939474  0.938749  1
  Pr  Pr3  1  0.560028  0.939138  0.562728  1
  Pr  Pr4  1  0.939488  0.561010  0.936945  1
  Pr  Pr5  1  0.560244  0.562400  0.938890  1
  Pr  Pr6  1  0.939069  0.937266  0.561318  1
  Nd  Nd7  1  0.348456  0.347505  0.347676  1
  Nd  Nd8  1  0.349703  0.348671  0.953600  1
  Nd  Nd9  1  0.349108  0.954048  0.348949  1
  Nd  Nd10  1  0.946151  0.350840  0.351791  1
  Nd  Nd11  1  0.807680  0.192207  0.191477  1
  Nd  Nd12  1  0.186670  0.811091  0.810878  1
  Nd  Nd13  1  0.187927  0.811652  0.188739  1
  Nd  Nd14  1  0.806589  0.191894  0.808044  1
  Nd  Nd15  1  0.187407  0.188785  0.811862  1
  Mg  Mg16  1  0.288129  0.570318  0.570094  1
  Hg  Hg17  1  0.580241  0.585743  0.586276  1
  Hg  Hg18  1  0.580559  0.585970  0.247502  1
  Hg  Hg19  1  0.580746  0.247448  0.586192  1
  Rh  Rh20  1  0.140146  0.142576  0.143103  1
  Rh  Rh21  1  0.141379  0.143390  0.574622  1
  Rh  Rh22  1  0.142326  0.573989  0.143482  1
  Rh  Rh23  1  0.572850  0.144043  0.143214  1
