# generated using pymatgen
data_AcSmCuNi7B2
_symmetry_space_group_name_H-M   'P 1'
_cell_length_a   5.13573140
_cell_length_b   5.13125404
_cell_length_c   7.02491400
_cell_angle_alpha   90.00000000
_cell_angle_beta   90.00000000
_cell_angle_gamma   119.98380258
_symmetry_Int_Tables_number   1
_chemical_formula_structural   AcSmCuNi7B2
_chemical_formula_sum   'Ac1 Sm1 Cu1 Ni7 B2'
_cell_volume   160.34976287
_cell_formula_units_Z   1
loop_
 _symmetry_equiv_pos_site_id
 _symmetry_equiv_pos_as_xyz
  1  'x, y, z'
loop_
 _atom_site_type_symbol
 _atom_site_label
 _atom_site_symmetry_multiplicity
 _atom_site_fract_x
 _atom_site_fract_y
 _atom_site_fract_z
 _atom_site_occupancy
  Ac  Ac0  1  0.999925  0.999985  0.000000  1
  Sm  Sm1  1  0.999981  0.000007  0.500000  1
  Cu  Cu2  1  0.333329  0.666590  0.000000  1
  Ni  Ni3  1  0.666682  0.333432  0.000000  1
  Ni  Ni4  1  0.501032  0.002068  0.299662  1
  Ni  Ni5  1  0.501038  0.498969  0.299712  1
  Ni  Ni6  1  0.997888  0.498949  0.299827  1
  Ni  Ni7  1  0.501032  0.002068  0.700338  1
  Ni  Ni8  1  0.501038  0.498969  0.700288  1
  Ni  Ni9  1  0.997888  0.498949  0.700173  1
  B  B10  1  0.333288  0.666648  0.500000  1
  B  B11  1  0.666674  0.333367  0.500000  1
