# generated using pymatgen
data_Tb2Ta3Sn(B2Ru5)2
_symmetry_space_group_name_H-M   'P 1'
_cell_length_a   9.53221218
_cell_length_b   9.66551042
_cell_length_c   3.09499100
_cell_angle_alpha   90.00000000
_cell_angle_beta   90.00000000
_cell_angle_gamma   91.36138212
_symmetry_Int_Tables_number   1
_chemical_formula_structural   Tb2Ta3Sn(B2Ru5)2
_chemical_formula_sum   'Tb2 Ta3 Sn1 B4 Ru10'
_cell_volume   285.07247017
_cell_formula_units_Z   1
loop_
 _symmetry_equiv_pos_site_id
 _symmetry_equiv_pos_as_xyz
  1  'x, y, z'
loop_
 _atom_site_type_symbol
 _atom_site_label
 _atom_site_symmetry_multiplicity
 _atom_site_fract_x
 _atom_site_fract_y
 _atom_site_fract_z
 _atom_site_occupancy
  Tb  Tb0  1  0.817866  0.672018  0.000000  1
  Tb  Tb1  1  0.182134  0.327982  0.000000  1
  Ta  Ta2  1  0.318949  0.830753  0.000000  1
  Ta  Ta3  1  0.681051  0.169247  0.000000  1
  Ta  Ta4  1  0.000000  0.000000  0.000000  1
  Sn  Sn5  1  0.500000  0.500000  0.000000  1
  B  B6  1  0.617700  0.879825  0.000000  1
  B  B7  1  0.382300  0.120175  0.000000  1
  B  B8  1  0.119948  0.624474  0.000000  1
  B  B9  1  0.880052  0.375526  0.000000  1
  Ru  Ru10  1  0.552444  0.730272  0.500000  1
  Ru  Ru11  1  0.447556  0.269728  0.500000  1
  Ru  Ru12  1  0.075774  0.787026  0.500000  1
  Ru  Ru13  1  0.924226  0.212974  0.500000  1
  Ru  Ru14  1  0.282002  0.595181  0.500000  1
  Ru  Ru15  1  0.717998  0.404819  0.500000  1
  Ru  Ru16  1  0.222998  0.059719  0.500000  1
  Ru  Ru17  1  0.777002  0.940281  0.500000  1
  Ru  Ru18  1  0.500000  0.000000  0.500000  1
  Ru  Ru19  1  0.000000  0.500000  0.500000  1
