# generated using pymatgen
data_BeNb3Tc3Ge2
_symmetry_space_group_name_H-M   'P 1'
_cell_length_a   6.75114600
_cell_length_b   6.75114605
_cell_length_c   3.27134600
_cell_angle_alpha   90.00000000
_cell_angle_beta   90.00000000
_cell_angle_gamma   119.99999975
_symmetry_Int_Tables_number   1
_chemical_formula_structural   BeNb3Tc3Ge2
_chemical_formula_sum   'Be1 Nb3 Tc3 Ge2'
_cell_volume   129.12552993
_cell_formula_units_Z   1
loop_
 _symmetry_equiv_pos_site_id
 _symmetry_equiv_pos_as_xyz
  1  'x, y, z'
loop_
 _atom_site_type_symbol
 _atom_site_label
 _atom_site_symmetry_multiplicity
 _atom_site_fract_x
 _atom_site_fract_y
 _atom_site_fract_z
 _atom_site_occupancy
  Be  Be0  1  0.000000  0.000000  0.500000  1
  Nb  Nb1  1  0.391049  0.391049  0.500000  1
  Nb  Nb2  1  0.608951  0.000000  0.500000  1
  Nb  Nb3  1  0.000000  0.608951  0.500000  1
  Tc  Tc4  1  0.756025  0.756025  0.000000  1
  Tc  Tc5  1  0.243975  0.000000  0.000000  1
  Tc  Tc6  1  0.000000  0.243975  0.000000  1
  Ge  Ge7  1  0.666667  0.333333  0.000000  1
  Ge  Ge8  1  0.333333  0.666667  0.000000  1
