# generated using pymatgen
data_Tb11CeTc3Rh
_symmetry_space_group_name_H-M   'P 1'
_cell_length_a   6.34712950
_cell_length_b   7.34391958
_cell_length_c   9.37305700
_cell_angle_alpha   90.00000000
_cell_angle_beta   90.00000000
_cell_angle_gamma   91.21733238
_symmetry_Int_Tables_number   1
_chemical_formula_structural   Tb11CeTc3Rh
_chemical_formula_sum   'Tb11 Ce1 Tc3 Rh1'
_cell_volume   436.80590381
_cell_formula_units_Z   1
loop_
 _symmetry_equiv_pos_site_id
 _symmetry_equiv_pos_as_xyz
  1  'x, y, z'
loop_
 _atom_site_type_symbol
 _atom_site_label
 _atom_site_symmetry_multiplicity
 _atom_site_fract_x
 _atom_site_fract_y
 _atom_site_fract_z
 _atom_site_occupancy
  Tb  Tb0  1  0.329160  0.675011  0.066587  1
  Tb  Tb1  1  0.164255  0.177785  0.436676  1
  Tb  Tb2  1  0.670468  0.319880  0.564830  1
  Tb  Tb3  1  0.831346  0.826171  0.934344  1
  Tb  Tb4  1  0.670468  0.319880  0.935170  1
  Tb  Tb5  1  0.831346  0.826171  0.565656  1
  Tb  Tb6  1  0.329160  0.675011  0.433413  1
  Tb  Tb7  1  0.164255  0.177785  0.063324  1
  Tb  Tb8  1  0.624089  0.040729  0.250000  1
  Tb  Tb9  1  0.138071  0.459187  0.750000  1
  Tb  Tb10  1  0.366584  0.958556  0.750000  1
  Ce  Ce11  1  0.853723  0.560536  0.250000  1
  Tc  Tc12  1  0.015769  0.861996  0.250000  1
  Tc  Tc13  1  0.502278  0.393296  0.250000  1
  Tc  Tc14  1  0.963988  0.114375  0.750000  1
  Rh  Rh15  1  0.545040  0.613630  0.750000  1
