# generated using pymatgen
data_Sm8Er12Si15P
_symmetry_space_group_name_H-M   'P 1'
_cell_length_a   7.49815767
_cell_length_b   7.67222401
_cell_length_c   14.62375154
_cell_angle_alpha   89.82524011
_cell_angle_beta   86.91134776
_cell_angle_gamma   89.96154613
_symmetry_Int_Tables_number   1
_chemical_formula_structural   Sm8Er12Si15P
_chemical_formula_sum   'Sm8 Er12 Si15 P1'
_cell_volume   840.04245464
_cell_formula_units_Z   1
loop_
 _symmetry_equiv_pos_site_id
 _symmetry_equiv_pos_as_xyz
  1  'x, y, z'
loop_
 _atom_site_type_symbol
 _atom_site_label
 _atom_site_symmetry_multiplicity
 _atom_site_fract_x
 _atom_site_fract_y
 _atom_site_fract_z
 _atom_site_occupancy
  Sm  Sm0  1  0.022551  0.183044  0.100719  1
  Sm  Sm1  1  0.978302  0.819205  0.898664  1
  Sm  Sm2  1  0.479461  0.682404  0.899157  1
  Sm  Sm3  1  0.999381  0.818983  0.598181  1
  Sm  Sm4  1  0.521491  0.318290  0.100391  1
  Sm  Sm5  1  0.999782  0.178731  0.400964  1
  Sm  Sm6  1  0.498777  0.316550  0.401498  1
  Sm  Sm7  1  0.500218  0.679925  0.598191  1
  Er  Er8  1  0.170199  0.505968  0.746894  1
  Er  Er9  1  0.830108  0.496071  0.254995  1
  Er  Er10  1  0.328212  0.002304  0.254740  1
  Er  Er11  1  0.671191  0.996347  0.745148  1
  Er  Er12  1  0.351263  0.169278  0.620190  1
  Er  Er13  1  0.648651  0.834174  0.379579  1
  Er  Er14  1  0.149285  0.659152  0.385250  1
  Er  Er15  1  0.672280  0.822436  0.123293  1
  Er  Er16  1  0.855012  0.336030  0.617785  1
  Er  Er17  1  0.327128  0.177755  0.875508  1
  Er  Er18  1  0.827465  0.323236  0.876145  1
  Er  Er19  1  0.172269  0.677392  0.122422  1
  Si  Si20  1  0.043844  0.113969  0.750108  1
  Si  Si21  1  0.956168  0.885589  0.249011  1
  Si  Si22  1  0.454129  0.612129  0.249299  1
  Si  Si23  1  0.545025  0.387690  0.749915  1
  Si  Si24  1  0.286918  0.874927  0.750772  1
  Si  Si25  1  0.714345  0.125134  0.248386  1
  Si  Si26  1  0.214094  0.374674  0.248966  1
  Si  Si27  1  0.787019  0.625695  0.750560  1
  Si  Si28  1  0.796125  0.536622  0.456191  1
  Si  Si29  1  0.303813  0.960153  0.458576  1
  Si  Si30  1  0.853247  0.531221  0.040287  1
  Si  Si31  1  0.694385  0.039063  0.542852  1
  Si  Si32  1  0.146050  0.470296  0.958202  1
  Si  Si33  1  0.645420  0.031301  0.958492  1
  Si  Si34  1  0.354108  0.969935  0.040648  1
  P  P35  1  0.202282  0.464326  0.548020  1
