# generated using pymatgen
data_Sc10Tl5Bi
_symmetry_space_group_name_H-M   'P 1'
_cell_length_a   8.55501800
_cell_length_b   8.53671301
_cell_length_c   6.19442800
_cell_angle_alpha   90.00000000
_cell_angle_beta   90.00000000
_cell_angle_gamma   120.07096491
_symmetry_Int_Tables_number   1
_chemical_formula_structural   Sc10Tl5Bi
_chemical_formula_sum   'Sc10 Tl5 Bi1'
_cell_volume   391.50061303
_cell_formula_units_Z   1
loop_
 _symmetry_equiv_pos_site_id
 _symmetry_equiv_pos_as_xyz
  1  'x, y, z'
loop_
 _atom_site_type_symbol
 _atom_site_label
 _atom_site_symmetry_multiplicity
 _atom_site_fract_x
 _atom_site_fract_y
 _atom_site_fract_z
 _atom_site_occupancy
  Sc  Sc0  1  0.333030  0.662625  0.496028  1
  Sc  Sc1  1  0.670406  0.337375  0.003972  1
  Sc  Sc2  1  0.670406  0.337375  0.496028  1
  Sc  Sc3  1  0.333030  0.662625  0.003972  1
  Sc  Sc4  1  0.769752  0.000000  0.750000  1
  Sc  Sc5  1  0.765107  0.765371  0.250000  1
  Sc  Sc6  1  0.234464  0.000000  0.250000  1
  Sc  Sc7  1  0.233101  0.239600  0.750000  1
  Sc  Sc8  1  0.993500  0.760400  0.750000  1
  Sc  Sc9  1  0.999735  0.234629  0.250000  1
  Tl  Tl10  1  0.396865  0.394701  0.250000  1
  Tl  Tl11  1  0.002165  0.605299  0.250000  1
  Tl  Tl12  1  0.998816  0.397735  0.750000  1
  Tl  Tl13  1  0.601080  0.602265  0.750000  1
  Tl  Tl14  1  0.606143  0.000000  0.250000  1
  Bi  Bi15  1  0.392400  0.000000  0.750000  1
