# generated using pymatgen
data_Tb3Y3(RuI3)2
_symmetry_space_group_name_H-M   'P 1'
_cell_length_a   8.89970632
_cell_length_b   4.23044700
_cell_length_c   12.29895762
_cell_angle_alpha   90.00000000
_cell_angle_beta   94.12610832
_cell_angle_gamma   90.00000000
_symmetry_Int_Tables_number   1
_chemical_formula_structural   Tb3Y3(RuI3)2
_chemical_formula_sum   'Tb3 Y3 Ru2 I6'
_cell_volume   461.85232041
_cell_formula_units_Z   1
loop_
 _symmetry_equiv_pos_site_id
 _symmetry_equiv_pos_as_xyz
  1  'x, y, z'
loop_
 _atom_site_type_symbol
 _atom_site_label
 _atom_site_symmetry_multiplicity
 _atom_site_fract_x
 _atom_site_fract_y
 _atom_site_fract_z
 _atom_site_occupancy
  Tb  Tb0  1  0.130240  0.250000  0.875203  1
  Tb  Tb1  1  0.868727  0.750001  0.124418  1
  Tb  Tb2  1  0.263163  0.750001  0.105148  1
  Y  Y3  1  0.735663  0.250000  0.894100  1
  Y  Y4  1  0.100073  0.250000  0.318731  1
  Y  Y5  1  0.899649  0.750001  0.681884  1
  Ru  Ru6  1  0.055634  0.250000  0.094477  1
  Ru  Ru7  1  0.945132  0.750001  0.906069  1
  I  I8  1  0.430009  0.750001  0.866081  1
  I  I9  1  0.571885  0.250000  0.133302  1
  I  I10  1  0.140801  0.250000  0.607254  1
  I  I11  1  0.859040  0.750001  0.393025  1
  I  I12  1  0.353612  0.750001  0.366742  1
  I  I13  1  0.646374  0.250000  0.633568  1
