# generated using pymatgen
data_CsNb(GeO3)3
_symmetry_space_group_name_H-M   'P 1'
_cell_length_a   7.26361100
_cell_length_b   7.26361105
_cell_length_c   10.29448000
_cell_angle_alpha   90.00000000
_cell_angle_beta   90.00000000
_cell_angle_gamma   119.99999520
_symmetry_Int_Tables_number   1
_chemical_formula_structural   CsNb(GeO3)3
_chemical_formula_sum   'Cs2 Nb2 Ge6 O18'
_cell_volume   470.37066132
_cell_formula_units_Z   2
loop_
 _symmetry_equiv_pos_site_id
 _symmetry_equiv_pos_as_xyz
  1  'x, y, z'
loop_
 _atom_site_type_symbol
 _atom_site_label
 _atom_site_symmetry_multiplicity
 _atom_site_fract_x
 _atom_site_fract_y
 _atom_site_fract_z
 _atom_site_occupancy
  Cs  Cs0  1  0.666667  0.333333  0.000000  1
  Cs  Cs1  1  0.666667  0.333333  0.500000  1
  Nb  Nb2  1  0.333333  0.666667  0.000000  1
  Nb  Nb3  1  0.333333  0.666667  0.500000  1
  Ge  Ge4  1  0.079853  0.286568  0.250000  1
  Ge  Ge5  1  0.206716  0.920147  0.250000  1
  Ge  Ge6  1  0.713432  0.793284  0.250000  1
  Ge  Ge7  1  0.713432  0.920147  0.750000  1
  Ge  Ge8  1  0.206716  0.286568  0.750000  1
  Ge  Ge9  1  0.079853  0.793284  0.750000  1
  O  O10  1  0.262186  0.189521  0.250000  1
  O  O11  1  0.927335  0.737814  0.250000  1
  O  O12  1  0.810479  0.072665  0.250000  1
  O  O13  1  0.810479  0.737814  0.750000  1
  O  O14  1  0.927335  0.189521  0.750000  1
  O  O15  1  0.262186  0.072665  0.750000  1
  O  O16  1  0.108669  0.437755  0.110988  1
  O  O17  1  0.329086  0.891331  0.389012  1
  O  O18  1  0.562245  0.670914  0.389012  1
  O  O19  1  0.562245  0.670914  0.110988  1
  O  O20  1  0.329086  0.891331  0.110988  1
  O  O21  1  0.562245  0.891331  0.889012  1
  O  O22  1  0.329086  0.437755  0.889012  1
  O  O23  1  0.108669  0.670914  0.889012  1
  O  O24  1  0.329086  0.437755  0.610988  1
  O  O25  1  0.108669  0.670914  0.610988  1
  O  O26  1  0.108669  0.437755  0.389012  1
  O  O27  1  0.562245  0.891331  0.610988  1
