# generated using pymatgen
data_VMoI18
_symmetry_space_group_name_H-M   'P 1'
_cell_length_a   10.10153315
_cell_length_b   10.11347414
_cell_length_c   10.12881080
_cell_angle_alpha   92.49362751
_cell_angle_beta   92.53139446
_cell_angle_gamma   92.45201524
_symmetry_Int_Tables_number   1
_chemical_formula_structural   VMoI18
_chemical_formula_sum   'V1 Mo1 I18'
_cell_volume   1031.75029072
_cell_formula_units_Z   1
loop_
 _symmetry_equiv_pos_site_id
 _symmetry_equiv_pos_as_xyz
  1  'x, y, z'
loop_
 _atom_site_type_symbol
 _atom_site_label
 _atom_site_symmetry_multiplicity
 _atom_site_fract_x
 _atom_site_fract_y
 _atom_site_fract_z
 _atom_site_occupancy
  V  V0  1  0.500000  0.500000  0.500000  1
  Mo  Mo1  1  0.000000  0.000000  0.000000  1
  I  I2  1  0.771592  0.483094  0.517223  1
  I  I3  1  0.516333  0.770685  0.482951  1
  I  I4  1  0.483343  0.516891  0.770653  1
  I  I5  1  0.228408  0.516906  0.482777  1
  I  I6  1  0.483667  0.229315  0.517049  1
  I  I7  1  0.516657  0.483109  0.229347  1
  I  I8  1  0.886607  0.369767  0.757771  1
  I  I9  1  0.757138  0.885241  0.369439  1
  I  I10  1  0.370112  0.757384  0.886338  1
  I  I11  1  0.113393  0.630233  0.242229  1
  I  I12  1  0.242862  0.114759  0.630561  1
  I  I13  1  0.629888  0.242616  0.113662  1
  I  I14  1  0.007659  0.968163  0.725332  1
  I  I15  1  0.724687  0.007370  0.967207  1
  I  I16  1  0.967590  0.724795  0.006956  1
  I  I17  1  0.992341  0.031837  0.274668  1
  I  I18  1  0.275313  0.992630  0.032793  1
  I  I19  1  0.032410  0.275205  0.993044  1
