# generated using pymatgen
data_CaNd2HoIn4
_symmetry_space_group_name_H-M   'P 1'
_cell_length_a   6.68676851
_cell_length_b   6.68676890
_cell_length_c   10.19669300
_cell_angle_alpha   90.00000000
_cell_angle_beta   90.00000000
_cell_angle_gamma   99.34988687
_symmetry_Int_Tables_number   1
_chemical_formula_structural   CaNd2HoIn4
_chemical_formula_sum   'Ca2 Nd4 Ho2 In8'
_cell_volume   449.86635769
_cell_formula_units_Z   2
loop_
 _symmetry_equiv_pos_site_id
 _symmetry_equiv_pos_as_xyz
  1  'x, y, z'
loop_
 _atom_site_type_symbol
 _atom_site_label
 _atom_site_symmetry_multiplicity
 _atom_site_fract_x
 _atom_site_fract_y
 _atom_site_fract_z
 _atom_site_occupancy
  Ca  Ca0  1  0.533304  0.533304  0.250000  1
  Ca  Ca1  1  0.466696  0.466696  0.750000  1
  Nd  Nd2  1  0.252075  0.747925  0.500000  1
  Nd  Nd3  1  0.252075  0.747925  0.000000  1
  Nd  Nd4  1  0.747925  0.252075  0.500000  1
  Nd  Nd5  1  0.747925  0.252075  0.000000  1
  Ho  Ho6  1  0.962415  0.962414  0.250000  1
  Ho  Ho7  1  0.037586  0.037585  0.750000  1
  In  In8  1  0.247965  0.247965  0.025391  1
  In  In9  1  0.752035  0.752035  0.974609  1
  In  In10  1  0.247965  0.247965  0.474609  1
  In  In11  1  0.752035  0.752035  0.525391  1
  In  In12  1  0.475657  0.025276  0.250000  1
  In  In13  1  0.974724  0.524343  0.750000  1
  In  In14  1  0.524343  0.974724  0.750000  1
  In  In15  1  0.025276  0.475657  0.250000  1
