# generated using pymatgen
data_TbYb(Si7Rh3)2
_symmetry_space_group_name_H-M   'P 1'
_cell_length_a   8.03134406
_cell_length_b   8.03134513
_cell_length_c   8.03134400
_cell_angle_alpha   56.76437422
_cell_angle_beta   56.76436922
_cell_angle_gamma   56.76437599
_symmetry_Int_Tables_number   1
_chemical_formula_structural   TbYb(Si7Rh3)2
_chemical_formula_sum   'Tb1 Yb1 Si14 Rh6'
_cell_volume   338.95023918
_cell_formula_units_Z   1
loop_
 _symmetry_equiv_pos_site_id
 _symmetry_equiv_pos_as_xyz
  1  'x, y, z'
loop_
 _atom_site_type_symbol
 _atom_site_label
 _atom_site_symmetry_multiplicity
 _atom_site_fract_x
 _atom_site_fract_y
 _atom_site_fract_z
 _atom_site_occupancy
  Tb  Tb0  1  0.000000  0.000000  0.000000  1
  Yb  Yb1  1  0.500000  0.500000  0.500000  1
  Si  Si2  1  0.849346  0.065916  0.672032  1
  Si  Si3  1  0.672032  0.849346  0.065916  1
  Si  Si4  1  0.065916  0.672032  0.849346  1
  Si  Si5  1  0.648288  0.826780  0.435186  1
  Si  Si6  1  0.249879  0.249879  0.249879  1
  Si  Si7  1  0.750121  0.750121  0.750121  1
  Si  Si8  1  0.173220  0.564814  0.351712  1
  Si  Si9  1  0.564814  0.351712  0.173220  1
  Si  Si10  1  0.351712  0.173220  0.564814  1
  Si  Si11  1  0.934084  0.327968  0.150654  1
  Si  Si12  1  0.327968  0.150654  0.934084  1
  Si  Si13  1  0.150654  0.934084  0.327968  1
  Si  Si14  1  0.826780  0.435186  0.648288  1
  Si  Si15  1  0.435186  0.648288  0.826780  1
  Rh  Rh16  1  0.750948  0.069418  0.428629  1
  Rh  Rh17  1  0.428629  0.750948  0.069418  1
  Rh  Rh18  1  0.069418  0.428629  0.750948  1
  Rh  Rh19  1  0.249052  0.930582  0.571371  1
  Rh  Rh20  1  0.571371  0.249052  0.930582  1
  Rh  Rh21  1  0.930582  0.571371  0.249052  1
