# generated using pymatgen
data_Tm12ZnNi4Pb
_symmetry_space_group_name_H-M   'P 1'
_cell_length_a   8.35073938
_cell_length_b   8.35495796
_cell_length_c   8.35090761
_cell_angle_alpha   106.41539843
_cell_angle_beta   109.47932292
_cell_angle_gamma   112.60813456
_symmetry_Int_Tables_number   1
_chemical_formula_structural   Tm12ZnNi4Pb
_chemical_formula_sum   'Tm12 Zn1 Ni4 Pb1'
_cell_volume   447.04334278
_cell_formula_units_Z   1
loop_
 _symmetry_equiv_pos_site_id
 _symmetry_equiv_pos_as_xyz
  1  'x, y, z'
loop_
 _atom_site_type_symbol
 _atom_site_label
 _atom_site_symmetry_multiplicity
 _atom_site_fract_x
 _atom_site_fract_y
 _atom_site_fract_z
 _atom_site_occupancy
  Tm  Tm0  1  0.700291  0.274445  0.974477  1
  Tm  Tm1  1  0.299708  0.725616  0.025581  1
  Tm  Tm2  1  0.700297  0.725914  0.425914  1
  Tm  Tm3  1  0.299706  0.274035  0.574038  1
  Tm  Tm4  1  0.809210  0.133050  0.323851  1
  Tm  Tm5  1  0.809113  0.485424  0.676028  1
  Tm  Tm6  1  0.190793  0.866954  0.676147  1
  Tm  Tm7  1  0.190880  0.514569  0.323971  1
  Tm  Tm8  1  0.610242  0.789486  0.820800  1
  Tm  Tm9  1  0.968930  0.789642  0.179354  1
  Tm  Tm10  1  0.031051  0.210359  0.820631  1
  Tm  Tm11  1  0.389744  0.210521  0.179183  1
  Zn  Zn12  1  0.499942  0.500003  0.999942  1
  Ni  Ni13  1  0.851230  0.499946  0.351429  1
  Ni  Ni14  1  0.148854  0.500052  0.648650  1
  Ni  Ni15  1  0.000021  0.124569  0.124572  1
  Ni  Ni16  1  0.999980  0.875420  0.875420  1
  Pb  Pb17  1  0.500012  0.999995  0.500012  1
