# generated using pymatgen
data_Ho16In6TcPt
_symmetry_space_group_name_H-M   'P 1'
_cell_length_a   10.42180200
_cell_length_b   10.42180262
_cell_length_c   7.02800800
_cell_angle_alpha   90.00000000
_cell_angle_beta   90.00000000
_cell_angle_gamma   119.99999804
_symmetry_Int_Tables_number   1
_chemical_formula_structural   Ho16In6TcPt
_chemical_formula_sum   'Ho16 In6 Tc1 Pt1'
_cell_volume   661.07167467
_cell_formula_units_Z   1
loop_
 _symmetry_equiv_pos_site_id
 _symmetry_equiv_pos_as_xyz
  1  'x, y, z'
loop_
 _atom_site_type_symbol
 _atom_site_label
 _atom_site_symmetry_multiplicity
 _atom_site_fract_x
 _atom_site_fract_y
 _atom_site_fract_z
 _atom_site_occupancy
  Ho  Ho0  1  0.530171  0.060342  0.509112  1
  Ho  Ho1  1  0.939658  0.469829  0.509112  1
  Ho  Ho2  1  0.530171  0.469829  0.509112  1
  Ho  Ho3  1  0.466246  0.932494  0.008631  1
  Ho  Ho4  1  0.067506  0.533754  0.008631  1
  Ho  Ho5  1  0.466246  0.533754  0.008631  1
  Ho  Ho6  1  0.176216  0.352431  0.713706  1
  Ho  Ho7  1  0.647569  0.823784  0.713706  1
  Ho  Ho8  1  0.176216  0.823784  0.713706  1
  Ho  Ho9  1  0.824718  0.649437  0.212935  1
  Ho  Ho10  1  0.350563  0.175282  0.212935  1
  Ho  Ho11  1  0.824718  0.175282  0.212935  1
  Ho  Ho12  1  0.666667  0.333333  0.883973  1
  Ho  Ho13  1  0.333333  0.666667  0.384506  1
  Ho  Ho14  1  0.000000  0.000000  0.491243  1
  Ho  Ho15  1  0.000000  0.000000  0.990796  1
  In  In16  1  0.837138  0.674276  0.751342  1
  In  In17  1  0.325724  0.162862  0.751342  1
  In  In18  1  0.837138  0.162862  0.751342  1
  In  In19  1  0.162727  0.325455  0.252091  1
  In  In20  1  0.674545  0.837273  0.252091  1
  In  In21  1  0.162727  0.837273  0.252091  1
  Tc  Tc22  1  0.333333  0.666667  0.781969  1
  Pt  Pt23  1  0.666667  0.333333  0.282095  1
