# generated using pymatgen
data_Ho12Zn2Ni3Os
_symmetry_space_group_name_H-M   'P 1'
_cell_length_a   8.28803867
_cell_length_b   8.28798137
_cell_length_c   8.28793360
_cell_angle_alpha   112.12564752
_cell_angle_beta   110.19510161
_cell_angle_gamma   106.14936985
_symmetry_Int_Tables_number   1
_chemical_formula_structural   Ho12Zn2Ni3Os
_chemical_formula_sum   'Ho12 Zn2 Ni3 Os1'
_cell_volume   437.02447377
_cell_formula_units_Z   1
loop_
 _symmetry_equiv_pos_site_id
 _symmetry_equiv_pos_as_xyz
  1  'x, y, z'
loop_
 _atom_site_type_symbol
 _atom_site_label
 _atom_site_symmetry_multiplicity
 _atom_site_fract_x
 _atom_site_fract_y
 _atom_site_fract_z
 _atom_site_occupancy
  Ho  Ho0  1  0.438274  0.246354  0.191950  1
  Ho  Ho1  1  0.571857  0.764685  0.807145  1
  Ho  Ho2  1  0.042450  0.235291  0.807143  1
  Ho  Ho3  1  0.945596  0.753665  0.191927  1
  Ho  Ho4  1  0.184303  0.276805  0.461116  1
  Ho  Ho5  1  0.824425  0.722111  0.546539  1
  Ho  Ho6  1  0.184325  0.723209  0.907516  1
  Ho  Ho7  1  0.824416  0.277877  0.102315  1
  Ho  Ho8  1  0.324990  0.636382  0.307987  1
  Ho  Ho9  1  0.671607  0.363603  0.688600  1
  Ho  Ho10  1  0.324942  0.016980  0.688609  1
  Ho  Ho11  1  0.671646  0.983029  0.307980  1
  Zn  Zn12  1  0.493422  0.500005  0.993429  1
  Zn  Zn13  1  0.011859  0.000009  0.011862  1
  Ni  Ni14  1  0.654799  0.000006  0.654797  1
  Ni  Ni15  1  0.117713  0.617531  0.500179  1
  Ni  Ni16  1  0.882665  0.382455  0.500198  1
  Os  Os17  1  0.330709  0.000004  0.330707  1
