# generated using pymatgen
data_Nd4YGa2Sn
_symmetry_space_group_name_H-M   'P 1'
_cell_length_a   9.07382270
_cell_length_b   9.07382356
_cell_length_c   9.07382235
_cell_angle_alpha   126.95264254
_cell_angle_beta   126.95264720
_cell_angle_gamma   78.32795946
_symmetry_Int_Tables_number   1
_chemical_formula_structural   Nd4YGa2Sn
_chemical_formula_sum   'Nd8 Y2 Ga4 Sn2'
_cell_volume   462.06007761
_cell_formula_units_Z   2
loop_
 _symmetry_equiv_pos_site_id
 _symmetry_equiv_pos_as_xyz
  1  'x, y, z'
loop_
 _atom_site_type_symbol
 _atom_site_label
 _atom_site_symmetry_multiplicity
 _atom_site_fract_x
 _atom_site_fract_y
 _atom_site_fract_z
 _atom_site_occupancy
  Nd  Nd0  1  0.523533  0.023533  0.836144  1
  Nd  Nd1  1  0.187387  0.687387  0.163856  1
  Nd  Nd2  1  0.023533  0.187387  0.500000  1
  Nd  Nd3  1  0.687387  0.523533  0.500000  1
  Nd  Nd4  1  0.476467  0.976467  0.163856  1
  Nd  Nd5  1  0.812613  0.312613  0.836144  1
  Nd  Nd6  1  0.976467  0.812613  0.500000  1
  Nd  Nd7  1  0.312613  0.476467  0.500000  1
  Y  Y8  1  0.500000  0.500000  0.000000  1
  Y  Y9  1  0.000000  0.000000  0.000000  1
  Ga  Ga10  1  0.873615  0.373615  0.247229  1
  Ga  Ga11  1  0.126385  0.626385  0.752771  1
  Ga  Ga12  1  0.373615  0.126385  0.500000  1
  Ga  Ga13  1  0.626385  0.873615  0.500000  1
  Sn  Sn14  1  0.250000  0.250000  0.000000  1
  Sn  Sn15  1  0.750000  0.750000  0.000000  1
