# generated using pymatgen
data_Tb11Er(In2Ru)4
_symmetry_space_group_name_H-M   'P 1'
_cell_length_a   3.81986400
_cell_length_b   12.97664058
_cell_length_c   12.97664101
_cell_angle_alpha   112.21225399
_cell_angle_beta   90.00000000
_cell_angle_gamma   90.00000000
_symmetry_Int_Tables_number   1
_chemical_formula_structural   Tb11Er(In2Ru)4
_chemical_formula_sum   'Tb11 Er1 In8 Ru4'
_cell_volume   595.50421117
_cell_formula_units_Z   1
loop_
 _symmetry_equiv_pos_site_id
 _symmetry_equiv_pos_as_xyz
  1  'x, y, z'
loop_
 _atom_site_type_symbol
 _atom_site_label
 _atom_site_symmetry_multiplicity
 _atom_site_fract_x
 _atom_site_fract_y
 _atom_site_fract_z
 _atom_site_occupancy
  Tb  Tb0  1  0.000000  0.914044  0.577922  1
  Tb  Tb1  1  0.000000  0.085956  0.422078  1
  Tb  Tb2  1  0.000000  0.577922  0.914044  1
  Tb  Tb3  1  0.000000  0.422078  0.085956  1
  Tb  Tb4  1  0.000000  0.161842  0.838158  1
  Tb  Tb5  1  0.000000  0.838158  0.161842  1
  Tb  Tb6  1  0.000000  0.359962  0.640038  1
  Tb  Tb7  1  0.000000  0.640038  0.359962  1
  Tb  Tb8  1  0.000000  0.706075  0.706075  1
  Tb  Tb9  1  0.000000  0.293925  0.293925  1
  Tb  Tb10  1  0.000000  0.000000  0.000000  1
  Er  Er11  1  0.500000  0.500000  0.500000  1
  In  In12  1  0.500000  0.149399  0.633417  1
  In  In13  1  0.500000  0.850601  0.366583  1
  In  In14  1  0.500000  0.633417  0.149399  1
  In  In15  1  0.500000  0.366583  0.850601  1
  In  In16  1  0.500000  0.933177  0.783401  1
  In  In17  1  0.500000  0.066823  0.216599  1
  In  In18  1  0.500000  0.783401  0.933177  1
  In  In19  1  0.500000  0.216599  0.066823  1
  Ru  Ru20  1  0.500000  0.736621  0.547444  1
  Ru  Ru21  1  0.500000  0.263379  0.452556  1
  Ru  Ru22  1  0.500000  0.547444  0.736621  1
  Ru  Ru23  1  0.500000  0.452556  0.263379  1
