# generated using pymatgen
data_TbPu(NbS2)6
_symmetry_space_group_name_H-M   'P 1'
_cell_length_a   5.83837600
_cell_length_b   5.83837656
_cell_length_c   14.03059500
_cell_angle_alpha   90.00000000
_cell_angle_beta   90.00000000
_cell_angle_gamma   120.00000817
_symmetry_Int_Tables_number   1
_chemical_formula_structural   TbPu(NbS2)6
_chemical_formula_sum   'Tb1 Pu1 Nb6 S12'
_cell_volume   414.18164405
_cell_formula_units_Z   1
loop_
 _symmetry_equiv_pos_site_id
 _symmetry_equiv_pos_as_xyz
  1  'x, y, z'
loop_
 _atom_site_type_symbol
 _atom_site_label
 _atom_site_symmetry_multiplicity
 _atom_site_fract_x
 _atom_site_fract_y
 _atom_site_fract_z
 _atom_site_occupancy
  Tb  Tb0  1  0.000000  0.000000  0.500000  1
  Pu  Pu1  1  0.000000  0.000000  0.000000  1
  Nb  Nb2  1  0.333333  0.666667  0.251612  1
  Nb  Nb3  1  0.000000  0.000000  0.251549  1
  Nb  Nb4  1  0.000000  0.000000  0.748451  1
  Nb  Nb5  1  0.333333  0.666667  0.748388  1
  Nb  Nb6  1  0.666667  0.333333  0.748388  1
  Nb  Nb7  1  0.666667  0.333333  0.251612  1
  S  S8  1  0.000000  0.662878  0.635687  1
  S  S9  1  0.000000  0.662942  0.860474  1
  S  S10  1  0.000000  0.337058  0.139526  1
  S  S11  1  0.000000  0.337122  0.364313  1
  S  S12  1  0.337122  0.337122  0.635687  1
  S  S13  1  0.337058  0.337058  0.860474  1
  S  S14  1  0.662942  0.662942  0.139526  1
  S  S15  1  0.662878  0.662878  0.364313  1
  S  S16  1  0.337058  0.000000  0.139526  1
  S  S17  1  0.337122  0.000000  0.364313  1
  S  S18  1  0.662878  0.000000  0.635687  1
  S  S19  1  0.662942  0.000000  0.860474  1
