# generated using pymatgen
data_Nd5Bi3C
_symmetry_space_group_name_H-M   'P 1'
_cell_length_a   9.47329301
_cell_length_b   9.47323971
_cell_length_c   6.72812500
_cell_angle_alpha   89.99985763
_cell_angle_beta   90.00010553
_cell_angle_gamma   119.99624702
_symmetry_Int_Tables_number   1
_chemical_formula_structural   Nd5Bi3C
_chemical_formula_sum   'Nd10 Bi6 C2'
_cell_volume   522.92644217
_cell_formula_units_Z   2
loop_
 _symmetry_equiv_pos_site_id
 _symmetry_equiv_pos_as_xyz
  1  'x, y, z'
loop_
 _atom_site_type_symbol
 _atom_site_label
 _atom_site_symmetry_multiplicity
 _atom_site_fract_x
 _atom_site_fract_y
 _atom_site_fract_z
 _atom_site_occupancy
  Nd  Nd0  1  0.666678  0.333319  0.000001  1
  Nd  Nd1  1  0.333320  0.666680  0.000001  1
  Nd  Nd2  1  0.211822  0.000019  0.250000  1
  Nd  Nd3  1  0.000023  0.211822  0.249999  1
  Nd  Nd4  1  0.788270  0.788271  0.249999  1
  Nd  Nd5  1  0.666681  0.333321  0.500002  1
  Nd  Nd6  1  0.333323  0.666681  0.500002  1
  Nd  Nd7  1  0.788176  0.999977  0.750001  1
  Nd  Nd8  1  0.211728  0.211730  0.750001  1
  Nd  Nd9  1  0.999981  0.788178  0.750000  1
  Bi  Bi10  1  0.402275  0.402280  0.250001  1
  Bi  Bi11  1  0.597718  0.999998  0.250001  1
  Bi  Bi12  1  0.000004  0.597721  0.250000  1
  Bi  Bi13  1  0.597721  0.597724  0.750001  1
  Bi  Bi14  1  0.402280  0.999996  0.750000  1
  Bi  Bi15  1  0.000001  0.402283  0.750001  1
  C  C16  1  0.000001  0.000002  0.999998  1
  C  C17  1  0.999999  0.999998  0.499998  1
