# generated using pymatgen
data_YTm3(TcB4)4
_symmetry_space_group_name_H-M   'P 1'
_cell_length_a   3.58088900
_cell_length_b   5.94357823
_cell_length_c   11.49809305
_cell_angle_alpha   90.05493971
_cell_angle_beta   90.00000000
_cell_angle_gamma   90.00000000
_symmetry_Int_Tables_number   1
_chemical_formula_structural   YTm3(TcB4)4
_chemical_formula_sum   'Y1 Tm3 Tc4 B16'
_cell_volume   244.71718106
_cell_formula_units_Z   1
loop_
 _symmetry_equiv_pos_site_id
 _symmetry_equiv_pos_as_xyz
  1  'x, y, z'
loop_
 _atom_site_type_symbol
 _atom_site_label
 _atom_site_symmetry_multiplicity
 _atom_site_fract_x
 _atom_site_fract_y
 _atom_site_fract_z
 _atom_site_occupancy
  Y  Y0  1  0.000000  0.872129  0.849963  1
  Tm  Tm1  1  0.000000  0.627354  0.349950  1
  Tm  Tm2  1  0.000000  0.372528  0.649774  1
  Tm  Tm3  1  0.000000  0.127762  0.149984  1
  Tc  Tc4  1  0.000000  0.633185  0.088845  1
  Tc  Tc5  1  0.000000  0.366519  0.912376  1
  Tc  Tc6  1  0.000000  0.133785  0.411854  1
  Tc  Tc7  1  0.000000  0.866357  0.586965  1
  B  B8  1  0.500000  0.788567  0.185706  1
  B  B9  1  0.500000  0.212847  0.814574  1
  B  B10  1  0.500000  0.288342  0.314760  1
  B  B11  1  0.500000  0.711369  0.684378  1
  B  B12  1  0.500000  0.864711  0.032100  1
  B  B13  1  0.500000  0.135428  0.969539  1
  B  B14  1  0.500000  0.365058  0.468446  1
  B  B15  1  0.500000  0.634912  0.530749  1
  B  B16  1  0.500000  0.886110  0.451890  1
  B  B17  1  0.500000  0.114438  0.547207  1
  B  B18  1  0.500000  0.385691  0.048329  1
  B  B19  1  0.500000  0.612538  0.953162  1
  B  B20  1  0.500000  0.977593  0.306878  1
  B  B21  1  0.500000  0.023596  0.692060  1
  B  B22  1  0.500000  0.477032  0.193475  1
  B  B23  1  0.500000  0.522149  0.807037  1
