# generated using pymatgen
data_Sm2ErZr(NiAs)4
_symmetry_space_group_name_H-M   'P 1'
_cell_length_a   4.03887300
_cell_length_b   4.03887271
_cell_length_c   15.35537600
_cell_angle_alpha   90.00000000
_cell_angle_beta   90.00000000
_cell_angle_gamma   120.00001055
_symmetry_Int_Tables_number   1
_chemical_formula_structural   Sm2ErZr(NiAs)4
_chemical_formula_sum   'Sm2 Er1 Zr1 Ni4 As4'
_cell_volume   216.92589822
_cell_formula_units_Z   1
loop_
 _symmetry_equiv_pos_site_id
 _symmetry_equiv_pos_as_xyz
  1  'x, y, z'
loop_
 _atom_site_type_symbol
 _atom_site_label
 _atom_site_symmetry_multiplicity
 _atom_site_fract_x
 _atom_site_fract_y
 _atom_site_fract_z
 _atom_site_occupancy
  Sm  Sm0  1  0.000000  0.000000  0.005558  1
  Sm  Sm1  1  0.000000  0.000000  0.494442  1
  Er  Er2  1  0.000000  0.000000  0.750000  1
  Zr  Zr3  1  0.000000  0.000000  0.250000  1
  Ni  Ni4  1  0.333333  0.666667  0.159147  1
  Ni  Ni5  1  0.666667  0.333333  0.865159  1
  Ni  Ni6  1  0.666667  0.333333  0.634841  1
  Ni  Ni7  1  0.333333  0.666667  0.340853  1
  As  As8  1  0.333333  0.666667  0.621479  1
  As  As9  1  0.666667  0.333333  0.373414  1
  As  As10  1  0.666667  0.333333  0.126586  1
  As  As11  1  0.333333  0.666667  0.878521  1
