# generated using pymatgen
data_Ho3Tm5Ti11Si16W
_symmetry_space_group_name_H-M   'P 1'
_cell_length_a   7.00565520
_cell_length_b   7.00597396
_cell_length_c   12.87833409
_cell_angle_alpha   89.97134913
_cell_angle_beta   90.04450225
_cell_angle_gamma   90.01078046
_symmetry_Int_Tables_number   1
_chemical_formula_structural   Ho3Tm5Ti11Si16W
_chemical_formula_sum   'Ho3 Tm5 Ti11 Si16 W1'
_cell_volume   632.08687457
_cell_formula_units_Z   1
loop_
 _symmetry_equiv_pos_site_id
 _symmetry_equiv_pos_as_xyz
  1  'x, y, z'
loop_
 _atom_site_type_symbol
 _atom_site_label
 _atom_site_symmetry_multiplicity
 _atom_site_fract_x
 _atom_site_fract_y
 _atom_site_fract_z
 _atom_site_occupancy
  Ho  Ho0  1  0.658049  0.998233  0.967068  1
  Ho  Ho1  1  0.003292  0.340684  0.532906  1
  Ho  Ho2  1  0.998236  0.658058  0.033000  1
  Tm  Tm3  1  0.341094  0.002690  0.466957  1
  Tm  Tm4  1  0.497304  0.840513  0.717362  1
  Tm  Tm5  1  0.500848  0.159178  0.215771  1
  Tm  Tm6  1  0.840382  0.497345  0.282570  1
  Tm  Tm7  1  0.159266  0.500928  0.784299  1
  Ti  Ti8  1  0.173989  0.827359  0.249617  1
  Ti  Ti9  1  0.827325  0.173791  0.750421  1
  Ti  Ti10  1  0.672850  0.673225  0.499995  1
  Ti  Ti11  1  0.153698  0.008362  0.876324  1
  Ti  Ti12  1  0.492111  0.650940  0.124503  1
  Ti  Ti13  1  0.506631  0.349297  0.626254  1
  Ti  Ti14  1  0.650857  0.492139  0.875549  1
  Ti  Ti15  1  0.349378  0.506859  0.373704  1
  Ti  Ti16  1  0.848409  0.992939  0.375671  1
  Ti  Ti17  1  0.008468  0.153640  0.123681  1
  Ti  Ti18  1  0.992967  0.848363  0.624264  1
  Si  Si19  1  0.202829  0.130949  0.684235  1
  Si  Si20  1  0.368940  0.700877  0.933613  1
  Si  Si21  1  0.630811  0.297120  0.433597  1
  Si  Si22  1  0.700839  0.368955  0.066436  1
  Si  Si23  1  0.297588  0.631803  0.566249  1
  Si  Si24  1  0.797201  0.869072  0.184348  1
  Si  Si25  1  0.131433  0.202371  0.315897  1
  Si  Si26  1  0.869070  0.797275  0.815636  1
  Si  Si27  1  0.291269  0.954427  0.064954  1
  Si  Si28  1  0.546374  0.792331  0.314911  1
  Si  Si29  1  0.452414  0.207907  0.815286  1
  Si  Si30  1  0.792032  0.546749  0.685291  1
  Si  Si31  1  0.207979  0.452384  0.184719  1
  Si  Si32  1  0.707792  0.046798  0.564996  1
  Si  Si33  1  0.954468  0.291245  0.935061  1
  Si  Si34  1  0.047330  0.708722  0.434859  1
  W  W35  1  0.326475  0.326471  0.999997  1
