# generated using pymatgen
data_Tb4Re2OsRu5
_symmetry_space_group_name_H-M   'P 1'
_cell_length_a   5.33766396
_cell_length_b   5.12640268
_cell_length_c   9.05708800
_cell_angle_alpha   90.00000000
_cell_angle_beta   90.00000000
_cell_angle_gamma   117.71883950
_symmetry_Int_Tables_number   1
_chemical_formula_structural   Tb4Re2OsRu5
_chemical_formula_sum   'Tb4 Re2 Os1 Ru5'
_cell_volume   219.38853193
_cell_formula_units_Z   1
loop_
 _symmetry_equiv_pos_site_id
 _symmetry_equiv_pos_as_xyz
  1  'x, y, z'
loop_
 _atom_site_type_symbol
 _atom_site_label
 _atom_site_symmetry_multiplicity
 _atom_site_fract_x
 _atom_site_fract_y
 _atom_site_fract_z
 _atom_site_occupancy
  Tb  Tb0  1  0.329180  0.658125  0.434985  1
  Tb  Tb1  1  0.670417  0.328824  0.564846  1
  Tb  Tb2  1  0.670417  0.328824  0.935154  1
  Tb  Tb3  1  0.329180  0.658125  0.065015  1
  Re  Re4  1  0.844480  0.684174  0.250000  1
  Re  Re5  1  0.160974  0.840713  0.750000  1
  Os  Os6  1  0.831119  0.184392  0.250000  1
  Ru  Ru7  1  0.997973  0.977780  0.500937  1
  Ru  Ru8  1  0.997973  0.977780  0.999063  1
  Ru  Ru9  1  0.349462  0.176152  0.250000  1
  Ru  Ru10  1  0.166137  0.353409  0.750000  1
  Ru  Ru11  1  0.652690  0.831700  0.750000  1
