# generated using pymatgen
data_Er4Sc3AlPt4
_symmetry_space_group_name_H-M   'P 1'
_cell_length_a   4.50018000
_cell_length_b   6.98418172
_cell_length_c   8.23654059
_cell_angle_alpha   87.43861799
_cell_angle_beta   90.00000000
_cell_angle_gamma   90.00000000
_symmetry_Int_Tables_number   1
_chemical_formula_structural   Er4Sc3AlPt4
_chemical_formula_sum   'Er4 Sc3 Al1 Pt4'
_cell_volume   258.61645026
_cell_formula_units_Z   1
loop_
 _symmetry_equiv_pos_site_id
 _symmetry_equiv_pos_as_xyz
  1  'x, y, z'
loop_
 _atom_site_type_symbol
 _atom_site_label
 _atom_site_symmetry_multiplicity
 _atom_site_fract_x
 _atom_site_fract_y
 _atom_site_fract_z
 _atom_site_occupancy
  Er  Er0  1  0.250000  0.469515  0.184846  1
  Er  Er1  1  0.750000  0.519977  0.815451  1
  Er  Er2  1  0.750000  0.037462  0.671645  1
  Er  Er3  1  0.250000  0.985711  0.336382  1
  Sc  Sc4  1  0.250000  0.860594  0.928315  1
  Sc  Sc5  1  0.750000  0.139308  0.069930  1
  Sc  Sc6  1  0.750000  0.639911  0.436012  1
  Al  Al7  1  0.250000  0.357066  0.567608  1
  Pt  Pt8  1  0.250000  0.729632  0.612613  1
  Pt  Pt9  1  0.750000  0.263876  0.387374  1
  Pt  Pt10  1  0.750000  0.752365  0.103703  1
  Pt  Pt11  1  0.250000  0.244584  0.886121  1
