# generated using pymatgen
data_Nd4Al24Ir2Pt7
_symmetry_space_group_name_H-M   'P 1'
_cell_length_a   7.52461832
_cell_length_b   7.55292851
_cell_length_c   13.35834317
_cell_angle_alpha   84.67094590
_cell_angle_beta   100.79416898
_cell_angle_gamma   119.52837585
_symmetry_Int_Tables_number   1
_chemical_formula_structural   Nd4Al24Ir2Pt7
_chemical_formula_sum   'Nd4 Al24 Ir2 Pt7'
_cell_volume   648.89480978
_cell_formula_units_Z   1
loop_
 _symmetry_equiv_pos_site_id
 _symmetry_equiv_pos_as_xyz
  1  'x, y, z'
loop_
 _atom_site_type_symbol
 _atom_site_label
 _atom_site_symmetry_multiplicity
 _atom_site_fract_x
 _atom_site_fract_y
 _atom_site_fract_z
 _atom_site_occupancy
  Nd  Nd0  1  0.732209  0.998098  0.190186  1
  Nd  Nd1  1  0.267724  0.002221  0.809855  1
  Nd  Nd2  1  0.061841  0.668729  0.190848  1
  Nd  Nd3  1  0.937803  0.331274  0.809323  1
  Al  Al4  1  0.807530  0.868117  0.818234  1
  Al  Al5  1  0.193040  0.131155  0.181661  1
  Al  Al6  1  0.984068  0.669143  0.948057  1
  Al  Al7  1  0.021669  0.334332  0.051743  1
  Al  Al8  1  0.398151  0.663176  0.819256  1
  Al  Al9  1  0.600177  0.335485  0.182863  1
  Al  Al10  1  0.879449  0.665257  0.670751  1
  Al  Al11  1  0.120545  0.334597  0.328552  1
  Al  Al12  1  0.603281  0.461311  0.816668  1
  Al  Al13  1  0.397637  0.541394  0.181004  1
  Al  Al14  1  0.231602  0.341636  0.667157  1
  Al  Al15  1  0.768543  0.658293  0.332882  1
  Al  Al16  1  0.854531  0.334016  0.557452  1
  Al  Al17  1  0.186555  0.999833  0.557799  1
  Al  Al18  1  0.814196  0.000092  0.442295  1
  Al  Al19  1  0.348433  0.997269  0.051524  1
  Al  Al20  1  0.648178  0.996909  0.948785  1
  Al  Al21  1  0.555884  0.990886  0.670769  1
  Al  Al22  1  0.444351  0.008854  0.329656  1
  Al  Al23  1  0.522632  0.669674  0.558913  1
  Al  Al24  1  0.477239  0.330410  0.440854  1
  Al  Al25  1  0.680474  0.670389  0.038917  1
  Al  Al26  1  0.316263  0.332888  0.961078  1
  Al  Al27  1  0.145614  0.665104  0.442945  1
  Ir  Ir28  1  0.329067  0.670356  0.000058  1
  Ir  Ir29  1  0.999692  0.000206  0.999992  1
  Pt  Pt30  1  0.546761  0.326888  0.635072  1
  Pt  Pt31  1  0.453063  0.672710  0.364285  1
  Pt  Pt32  1  0.885577  0.006219  0.636478  1
  Pt  Pt33  1  0.114704  0.993781  0.363568  1
  Pt  Pt34  1  0.671062  0.329510  0.999936  1
  Pt  Pt35  1  0.205858  0.667413  0.637081  1
  Pt  Pt36  1  0.794595  0.332372  0.363505  1
