# generated using pymatgen
data_Li2La3Pr3Au10
_symmetry_space_group_name_H-M   'P 1'
_cell_length_a   8.18120299
_cell_length_b   8.18120191
_cell_length_c   8.18120300
_cell_angle_alpha   65.87134109
_cell_angle_beta   65.87134447
_cell_angle_gamma   65.87132819
_symmetry_Int_Tables_number   1
_chemical_formula_structural   Li2La3Pr3Au10
_chemical_formula_sum   'Li2 La3 Pr3 Au10'
_cell_volume   436.45698469
_cell_formula_units_Z   1
loop_
 _symmetry_equiv_pos_site_id
 _symmetry_equiv_pos_as_xyz
  1  'x, y, z'
loop_
 _atom_site_type_symbol
 _atom_site_label
 _atom_site_symmetry_multiplicity
 _atom_site_fract_x
 _atom_site_fract_y
 _atom_site_fract_z
 _atom_site_occupancy
  Li  Li0  1  0.654007  0.654007  0.654007  1
  Li  Li1  1  0.345689  0.345689  0.345689  1
  La  La2  1  0.108342  0.806781  0.379407  1
  La  La3  1  0.379407  0.108342  0.806781  1
  La  La4  1  0.806781  0.379407  0.108342  1
  Pr  Pr5  1  0.891096  0.194552  0.620378  1
  Pr  Pr6  1  0.620378  0.891096  0.194552  1
  Pr  Pr7  1  0.194552  0.620378  0.891096  1
  Au  Au8  1  0.998546  0.998546  0.998546  1
  Au  Au9  1  0.500634  0.500634  0.500634  1
  Au  Au10  1  0.798025  0.798025  0.798025  1
  Au  Au11  1  0.203366  0.203366  0.203366  1
  Au  Au12  1  0.942722  0.551201  0.317319  1
  Au  Au13  1  0.317319  0.942722  0.551201  1
  Au  Au14  1  0.551201  0.317319  0.942722  1
  Au  Au15  1  0.056657  0.449860  0.681416  1
  Au  Au16  1  0.681416  0.056657  0.449860  1
  Au  Au17  1  0.449860  0.681416  0.056657  1
