# generated using pymatgen
data_Yb5CuHgPt
_symmetry_space_group_name_H-M   'P 1'
_cell_length_a   8.93434208
_cell_length_b   8.93434186
_cell_length_c   8.97538171
_cell_angle_alpha   128.91414759
_cell_angle_beta   128.91414187
_cell_angle_gamma   74.80639427
_symmetry_Int_Tables_number   1
_chemical_formula_structural   Yb5CuHgPt
_chemical_formula_sum   'Yb10 Cu2 Hg2 Pt2'
_cell_volume   423.23131691
_cell_formula_units_Z   2
loop_
 _symmetry_equiv_pos_site_id
 _symmetry_equiv_pos_as_xyz
  1  'x, y, z'
loop_
 _atom_site_type_symbol
 _atom_site_label
 _atom_site_symmetry_multiplicity
 _atom_site_fract_x
 _atom_site_fract_y
 _atom_site_fract_z
 _atom_site_occupancy
  Yb  Yb0  1  0.500000  0.500000  0.000000  1
  Yb  Yb1  1  0.000000  0.000000  0.000000  1
  Yb  Yb2  1  0.534158  0.034158  0.839426  1
  Yb  Yb3  1  0.194732  0.694732  0.160574  1
  Yb  Yb4  1  0.030316  0.201934  0.500000  1
  Yb  Yb5  1  0.701934  0.530316  0.500000  1
  Yb  Yb6  1  0.465842  0.965842  0.160574  1
  Yb  Yb7  1  0.805268  0.305268  0.839426  1
  Yb  Yb8  1  0.969684  0.798066  0.500000  1
  Yb  Yb9  1  0.298066  0.469684  0.500000  1
  Cu  Cu10  1  0.617180  0.882820  0.500000  1
  Cu  Cu11  1  0.382820  0.117180  0.500000  1
  Hg  Hg12  1  0.250000  0.250000  0.000000  1
  Hg  Hg13  1  0.750000  0.750000  0.000000  1
  Pt  Pt14  1  0.133884  0.633884  0.767769  1
  Pt  Pt15  1  0.866116  0.366116  0.232231  1
