# generated using pymatgen
data_HoEr5(Sc2Sb3)2
_symmetry_space_group_name_H-M   'P 1'
_cell_length_a   8.75928821
_cell_length_b   8.75595881
_cell_length_c   6.08300400
_cell_angle_alpha   90.00000000
_cell_angle_beta   90.00000000
_cell_angle_gamma   119.98741831
_symmetry_Int_Tables_number   1
_chemical_formula_structural   HoEr5(Sc2Sb3)2
_chemical_formula_sum   'Ho1 Er5 Sc4 Sb6'
_cell_volume   404.08832846
_cell_formula_units_Z   1
loop_
 _symmetry_equiv_pos_site_id
 _symmetry_equiv_pos_as_xyz
  1  'x, y, z'
loop_
 _atom_site_type_symbol
 _atom_site_label
 _atom_site_symmetry_multiplicity
 _atom_site_fract_x
 _atom_site_fract_y
 _atom_site_fract_z
 _atom_site_occupancy
  Ho  Ho0  1  0.000000  0.754720  0.750000  1
  Er  Er1  1  0.000000  0.245186  0.250000  1
  Er  Er2  1  0.754551  0.754685  0.250000  1
  Er  Er3  1  0.754623  0.000013  0.750000  1
  Er  Er4  1  0.245377  0.245390  0.750000  1
  Er  Er5  1  0.245449  0.000134  0.250000  1
  Sc  Sc6  1  0.333308  0.666659  0.499994  1
  Sc  Sc7  1  0.666692  0.333350  0.000006  1
  Sc  Sc8  1  0.666692  0.333350  0.499994  1
  Sc  Sc9  1  0.333308  0.666659  0.000006  1
  Sb  Sb10  1  0.395000  0.000354  0.750000  1
  Sb  Sb11  1  0.394541  0.394549  0.250000  1
  Sb  Sb12  1  0.000000  0.605457  0.250000  1
  Sb  Sb13  1  0.000000  0.394131  0.750000  1
  Sb  Sb14  1  0.605000  0.605354  0.750000  1
  Sb  Sb15  1  0.605459  0.000008  0.250000  1
