# generated using pymatgen
data_Dy6Er4Si5Sn
_symmetry_space_group_name_H-M   'P 1'
_cell_length_a   8.49175400
_cell_length_b   8.51853627
_cell_length_c   6.35452300
_cell_angle_alpha   90.00000000
_cell_angle_beta   90.00000000
_cell_angle_gamma   119.89605173
_symmetry_Int_Tables_number   1
_chemical_formula_structural   Dy6Er4Si5Sn
_chemical_formula_sum   'Dy6 Er4 Si5 Sn1'
_cell_volume   398.50146210
_cell_formula_units_Z   1
loop_
 _symmetry_equiv_pos_site_id
 _symmetry_equiv_pos_as_xyz
  1  'x, y, z'
loop_
 _atom_site_type_symbol
 _atom_site_label
 _atom_site_symmetry_multiplicity
 _atom_site_fract_x
 _atom_site_fract_y
 _atom_site_fract_z
 _atom_site_occupancy
  Dy  Dy0  1  0.989823  0.748931  0.750000  1
  Dy  Dy1  1  0.998247  0.242509  0.250000  1
  Dy  Dy2  1  0.755738  0.757491  0.250000  1
  Dy  Dy3  1  0.765425  0.000000  0.750000  1
  Dy  Dy4  1  0.240892  0.251069  0.750000  1
  Dy  Dy5  1  0.241382  0.000000  0.250000  1
  Er  Er6  1  0.331251  0.657425  0.497023  1
  Er  Er7  1  0.673827  0.342575  0.002977  1
  Er  Er8  1  0.673827  0.342575  0.497023  1
  Er  Er9  1  0.331251  0.657425  0.002977  1
  Si  Si10  1  0.393776  0.392335  0.250000  1
  Si  Si11  1  0.001441  0.607665  0.250000  1
  Si  Si12  1  0.998543  0.394623  0.750000  1
  Si  Si13  1  0.603920  0.605377  0.750000  1
  Si  Si14  1  0.604668  0.000000  0.250000  1
  Sn  Sn15  1  0.395991  0.000000  0.750000  1
