# generated using pymatgen
data_Lu7(GeS3)2
_symmetry_space_group_name_H-M   'P 1'
_cell_length_a   7.75265200
_cell_length_b   7.75240547
_cell_length_c   7.75262000
_cell_angle_alpha   120.00147866
_cell_angle_beta   90.00054690
_cell_angle_gamma   120.00013026
_symmetry_Int_Tables_number   1
_chemical_formula_structural   Lu7(GeS3)2
_chemical_formula_sum   'Lu7 Ge2 S6'
_cell_volume   329.46374726
_cell_formula_units_Z   1
loop_
 _symmetry_equiv_pos_site_id
 _symmetry_equiv_pos_as_xyz
  1  'x, y, z'
loop_
 _atom_site_type_symbol
 _atom_site_label
 _atom_site_symmetry_multiplicity
 _atom_site_fract_x
 _atom_site_fract_y
 _atom_site_fract_z
 _atom_site_occupancy
  Lu  Lu0  1  0.250078  0.000028  0.250032  1
  Lu  Lu1  1  0.249999  0.500026  0.249986  1
  Lu  Lu2  1  0.749942  0.999996  0.250041  1
  Lu  Lu3  1  0.250083  0.500040  0.750013  1
  Lu  Lu4  1  0.250008  0.999946  0.749949  1
  Lu  Lu5  1  0.750036  0.000017  0.750025  1
  Lu  Lu6  1  0.749972  0.499933  0.749936  1
  Ge  Ge7  1  0.999796  0.999858  0.000187  1
  Ge  Ge8  1  0.499965  0.000135  0.499875  1
  S  S9  1  0.003726  0.007420  0.503707  1
  S  S10  1  0.003737  0.499997  0.503704  1
  S  S11  1  0.496321  0.500013  0.503684  1
  S  S12  1  0.003716  0.499998  0.996290  1
  S  S13  1  0.496305  0.499984  0.996289  1
  S  S14  1  0.496317  0.992612  0.996288  1
