# generated using pymatgen
data_Zr6Al7(Cu3Au)4
_symmetry_space_group_name_H-M   'P 1'
_cell_length_a   8.60558952
_cell_length_b   8.60558938
_cell_length_c   8.60559000
_cell_angle_alpha   59.99999762
_cell_angle_beta   59.99999815
_cell_angle_gamma   59.99999601
_symmetry_Int_Tables_number   1
_chemical_formula_structural   Zr6Al7(Cu3Au)4
_chemical_formula_sum   'Zr6 Al7 Cu12 Au4'
_cell_volume   450.63702645
_cell_formula_units_Z   1
loop_
 _symmetry_equiv_pos_site_id
 _symmetry_equiv_pos_as_xyz
  1  'x, y, z'
loop_
 _atom_site_type_symbol
 _atom_site_label
 _atom_site_symmetry_multiplicity
 _atom_site_fract_x
 _atom_site_fract_y
 _atom_site_fract_z
 _atom_site_occupancy
  Zr  Zr0  1  0.700435  0.700435  0.299565  1
  Zr  Zr1  1  0.299565  0.700435  0.299565  1
  Zr  Zr2  1  0.700435  0.299565  0.299565  1
  Zr  Zr3  1  0.299565  0.299565  0.700435  1
  Zr  Zr4  1  0.700435  0.299565  0.700435  1
  Zr  Zr5  1  0.299565  0.700435  0.700435  1
  Al  Al6  1  0.000000  0.000000  0.000000  1
  Al  Al7  1  0.002653  0.002653  0.497347  1
  Al  Al8  1  0.497347  0.002653  0.497347  1
  Al  Al9  1  0.002653  0.497347  0.497347  1
  Al  Al10  1  0.497347  0.497347  0.002653  1
  Al  Al11  1  0.002653  0.497347  0.002653  1
  Al  Al12  1  0.497347  0.002653  0.002653  1
  Cu  Cu13  1  0.122172  0.122172  0.633482  1
  Cu  Cu14  1  0.122172  0.633482  0.122172  1
  Cu  Cu15  1  0.633482  0.122172  0.122172  1
  Cu  Cu16  1  0.122172  0.122172  0.122172  1
  Cu  Cu17  1  0.667927  0.667927  0.996218  1
  Cu  Cu18  1  0.667927  0.996218  0.667927  1
  Cu  Cu19  1  0.996218  0.667927  0.667927  1
  Cu  Cu20  1  0.667927  0.667927  0.667927  1
  Cu  Cu21  1  0.329470  0.329470  0.011591  1
  Cu  Cu22  1  0.329470  0.011591  0.329470  1
  Cu  Cu23  1  0.011591  0.329470  0.329470  1
  Cu  Cu24  1  0.329470  0.329470  0.329470  1
  Au  Au25  1  0.882267  0.882267  0.353199  1
  Au  Au26  1  0.882267  0.353199  0.882267  1
  Au  Au27  1  0.353199  0.882267  0.882267  1
  Au  Au28  1  0.882267  0.882267  0.882267  1
