# generated using pymatgen
data_Sc5Bi2Te
_symmetry_space_group_name_H-M   'P 1'
_cell_length_a   7.75919200
_cell_length_b   8.90578900
_cell_length_c   11.22880800
_cell_angle_alpha   90.00000000
_cell_angle_beta   90.00000000
_cell_angle_gamma   90.00000000
_symmetry_Int_Tables_number   1
_chemical_formula_structural   Sc5Bi2Te
_chemical_formula_sum   'Sc20 Bi8 Te4'
_cell_volume   775.93002228
_cell_formula_units_Z   4
loop_
 _symmetry_equiv_pos_site_id
 _symmetry_equiv_pos_as_xyz
  1  'x, y, z'
loop_
 _atom_site_type_symbol
 _atom_site_label
 _atom_site_symmetry_multiplicity
 _atom_site_fract_x
 _atom_site_fract_y
 _atom_site_fract_z
 _atom_site_occupancy
  Sc  Sc0  1  0.190284  0.063258  0.937381  1
  Sc  Sc1  1  0.309716  0.063258  0.437381  1
  Sc  Sc2  1  0.309716  0.436742  0.437381  1
  Sc  Sc3  1  0.324069  0.750000  0.728634  1
  Sc  Sc4  1  0.478243  0.750000  0.005778  1
  Sc  Sc5  1  0.157639  0.250000  0.211496  1
  Sc  Sc6  1  0.809716  0.936742  0.062619  1
  Sc  Sc7  1  0.657639  0.750000  0.288504  1
  Sc  Sc8  1  0.021757  0.750000  0.505778  1
  Sc  Sc9  1  0.690284  0.936742  0.562619  1
  Sc  Sc10  1  0.190284  0.436742  0.937381  1
  Sc  Sc11  1  0.342361  0.250000  0.711496  1
  Sc  Sc12  1  0.175931  0.750000  0.228634  1
  Sc  Sc13  1  0.978243  0.250000  0.494222  1
  Sc  Sc14  1  0.690284  0.563258  0.562619  1
  Sc  Sc15  1  0.675931  0.250000  0.271366  1
  Sc  Sc16  1  0.809716  0.563258  0.062619  1
  Sc  Sc17  1  0.521757  0.250000  0.994222  1
  Sc  Sc18  1  0.824069  0.250000  0.771366  1
  Sc  Sc19  1  0.842361  0.750000  0.788504  1
  Bi  Bi20  1  0.065473  0.490378  0.675544  1
  Bi  Bi21  1  0.565473  0.509622  0.824456  1
  Bi  Bi22  1  0.934527  0.990378  0.324456  1
  Bi  Bi23  1  0.434527  0.009622  0.175544  1
  Bi  Bi24  1  0.565473  0.990378  0.824456  1
  Bi  Bi25  1  0.434527  0.490378  0.175544  1
  Bi  Bi26  1  0.065473  0.009622  0.675544  1
  Bi  Bi27  1  0.934527  0.509622  0.324456  1
  Te  Te28  1  0.400767  0.750000  0.475752  1
  Te  Te29  1  0.099233  0.750000  0.975752  1
  Te  Te30  1  0.599233  0.250000  0.524248  1
  Te  Te31  1  0.900767  0.250000  0.024248  1
