# generated using pymatgen
data_Er2Ga(Ni2P)6
_symmetry_space_group_name_H-M   'P 1'
_cell_length_a   9.07872000
_cell_length_b   9.07871900
_cell_length_c   3.65830600
_cell_angle_alpha   90.00000000
_cell_angle_beta   90.00000000
_cell_angle_gamma   120.00000364
_symmetry_Int_Tables_number   1
_chemical_formula_structural   Er2Ga(Ni2P)6
_chemical_formula_sum   'Er2 Ga1 Ni12 P6'
_cell_volume   261.13184755
_cell_formula_units_Z   1
loop_
 _symmetry_equiv_pos_site_id
 _symmetry_equiv_pos_as_xyz
  1  'x, y, z'
loop_
 _atom_site_type_symbol
 _atom_site_label
 _atom_site_symmetry_multiplicity
 _atom_site_fract_x
 _atom_site_fract_y
 _atom_site_fract_z
 _atom_site_occupancy
  Er  Er0  1  0.000000  0.000000  0.000000  1
  Er  Er1  1  0.333333  0.666667  0.500000  1
  Ga  Ga2  1  0.666667  0.333333  0.000000  1
  Ni  Ni3  1  0.104653  0.396151  0.000000  1
  Ni  Ni4  1  0.603849  0.708501  0.000000  1
  Ni  Ni5  1  0.291499  0.895347  0.000000  1
  Ni  Ni6  1  0.050444  0.768499  0.500000  1
  Ni  Ni7  1  0.231501  0.281944  0.500000  1
  Ni  Ni8  1  0.718056  0.949556  0.500000  1
  Ni  Ni9  1  0.829950  0.626369  0.000000  1
  Ni  Ni10  1  0.373631  0.203583  0.000000  1
  Ni  Ni11  1  0.796417  0.170050  0.000000  1
  Ni  Ni12  1  0.905264  0.438252  0.500000  1
  Ni  Ni13  1  0.561748  0.467012  0.500000  1
  Ni  Ni14  1  0.532988  0.094736  0.500000  1
  P  P15  1  0.778369  0.739047  0.500000  1
  P  P16  1  0.260953  0.039322  0.500000  1
  P  P17  1  0.960678  0.221631  0.500000  1
  P  P18  1  0.072739  0.624990  0.000000  1
  P  P19  1  0.375010  0.447749  0.000000  1
  P  P20  1  0.552251  0.927261  0.000000  1
