# generated using pymatgen
data_YLu3ReSi4Rh
_symmetry_space_group_name_H-M   'P 1'
_cell_length_a   5.63902264
_cell_length_b   5.63902276
_cell_length_c   9.92156541
_cell_angle_alpha   63.79794452
_cell_angle_beta   63.79794361
_cell_angle_gamma   43.74655960
_symmetry_Int_Tables_number   1
_chemical_formula_structural   YLu3ReSi4Rh
_chemical_formula_sum   'Y1 Lu3 Re1 Si4 Rh1'
_cell_volume   191.87832714
_cell_formula_units_Z   1
loop_
 _symmetry_equiv_pos_site_id
 _symmetry_equiv_pos_as_xyz
  1  'x, y, z'
loop_
 _atom_site_type_symbol
 _atom_site_label
 _atom_site_symmetry_multiplicity
 _atom_site_fract_x
 _atom_site_fract_y
 _atom_site_fract_z
 _atom_site_occupancy
  Y  Y0  1  0.811924  0.811924  0.108314  1
  Lu  Lu1  1  0.005563  0.005563  0.322811  1
  Lu  Lu2  1  0.184001  0.184001  0.888847  1
  Lu  Lu3  1  0.996789  0.996789  0.676893  1
  Re  Re4  1  0.729274  0.729274  0.628478  1
  Si  Si5  1  0.359375  0.359375  0.562344  1
  Si  Si6  1  0.493918  0.493918  0.877068  1
  Si  Si7  1  0.638448  0.638448  0.439282  1
  Si  Si8  1  0.510229  0.510229  0.122349  1
  Rh  Rh9  1  0.270480  0.270480  0.373613  1
