# generated using pymatgen
data_Ti10GaSiP4O
_symmetry_space_group_name_H-M   'P 1'
_cell_length_a   7.32831349
_cell_length_b   7.36360349
_cell_length_c   5.09907701
_cell_angle_alpha   90.18267687
_cell_angle_beta   89.81203608
_cell_angle_gamma   120.06024091
_symmetry_Int_Tables_number   1
_chemical_formula_structural   Ti10GaSiP4O
_chemical_formula_sum   'Ti10 Ga1 Si1 P4 O1'
_cell_volume   238.14949211
_cell_formula_units_Z   1
loop_
 _symmetry_equiv_pos_site_id
 _symmetry_equiv_pos_as_xyz
  1  'x, y, z'
loop_
 _atom_site_type_symbol
 _atom_site_label
 _atom_site_symmetry_multiplicity
 _atom_site_fract_x
 _atom_site_fract_y
 _atom_site_fract_z
 _atom_site_occupancy
  Ti  Ti0  1  0.000075  0.753558  0.254787  1
  Ti  Ti1  1  0.243728  0.241871  0.256175  1
  Ti  Ti2  1  0.760594  0.998135  0.254600  1
  Ti  Ti3  1  0.003553  0.250003  0.743003  1
  Ti  Ti4  1  0.759274  0.754778  0.745050  1
  Ti  Ti5  1  0.236396  0.999197  0.749661  1
  Ti  Ti6  1  0.324606  0.659653  0.498566  1
  Ti  Ti7  1  0.674014  0.342687  0.498630  1
  Ti  Ti8  1  0.673405  0.341319  0.002354  1
  Ti  Ti9  1  0.324301  0.661502  0.002203  1
  Ga  Ga10  1  0.600628  0.999462  0.754810  1
  Si  Si11  1  0.398941  0.398016  0.757784  1
  P  P12  1  0.998424  0.389544  0.243175  1
  P  P13  1  0.599768  0.602936  0.240994  1
  P  P14  1  0.401632  0.001363  0.241556  1
  P  P15  1  0.000886  0.608087  0.757527  1
  O  O16  1  0.999774  0.997891  0.499126  1
