# generated using pymatgen
data_Yb8TaNb3O18
_symmetry_space_group_name_H-M   'P 1'
_cell_length_a   5.60661400
_cell_length_b   5.60661337
_cell_length_c   14.71713100
_cell_angle_alpha   90.00000000
_cell_angle_beta   90.00000000
_cell_angle_gamma   119.99999193
_symmetry_Int_Tables_number   1
_chemical_formula_structural   Yb8TaNb3O18
_chemical_formula_sum   'Yb8 Ta1 Nb3 O18'
_cell_volume   400.64072022
_cell_formula_units_Z   1
loop_
 _symmetry_equiv_pos_site_id
 _symmetry_equiv_pos_as_xyz
  1  'x, y, z'
loop_
 _atom_site_type_symbol
 _atom_site_label
 _atom_site_symmetry_multiplicity
 _atom_site_fract_x
 _atom_site_fract_y
 _atom_site_fract_z
 _atom_site_occupancy
  Yb  Yb0  1  0.333333  0.666667  0.023024  1
  Yb  Yb1  1  0.333333  0.666667  0.305549  1
  Yb  Yb2  1  0.333333  0.666667  0.806519  1
  Yb  Yb3  1  0.333333  0.666667  0.523289  1
  Yb  Yb4  1  0.666667  0.333333  0.194264  1
  Yb  Yb5  1  0.666667  0.333333  0.694827  1
  Yb  Yb6  1  0.666667  0.333333  0.475816  1
  Yb  Yb7  1  0.666667  0.333333  0.975741  1
  Ta  Ta8  1  0.000000  0.000000  0.853476  1
  Nb  Nb9  1  0.000000  0.000000  0.144826  1
  Nb  Nb10  1  0.000000  0.000000  0.354628  1
  Nb  Nb11  1  0.000000  0.000000  0.644614  1
  O  O12  1  0.998883  0.733312  0.750681  1
  O  O13  1  0.043438  0.712756  0.412601  1
  O  O14  1  0.285176  0.957130  0.912112  1
  O  O15  1  0.042870  0.328046  0.912112  1
  O  O16  1  0.999925  0.267212  0.250207  1
  O  O17  1  0.266688  0.265571  0.750681  1
  O  O18  1  0.287244  0.330682  0.412601  1
  O  O19  1  0.669318  0.956562  0.412601  1
  O  O20  1  0.330745  0.287409  0.087743  1
  O  O21  1  0.267288  0.000075  0.250207  1
  O  O22  1  0.671954  0.714824  0.912112  1
  O  O23  1  0.330799  0.043472  0.587799  1
  O  O24  1  0.712673  0.669201  0.587799  1
  O  O25  1  0.732788  0.732712  0.250207  1
  O  O26  1  0.956664  0.669255  0.087743  1
  O  O27  1  0.712591  0.043336  0.087743  1
  O  O28  1  0.734429  0.001117  0.750681  1
  O  O29  1  0.956528  0.287327  0.587799  1
