# generated using pymatgen
data_Th4Si10Ir5Os
_symmetry_space_group_name_H-M   'P 1'
_cell_length_a   8.25181107
_cell_length_b   8.25180992
_cell_length_c   8.25180993
_cell_angle_alpha   137.46440670
_cell_angle_beta   104.97847701
_cell_angle_gamma   90.26851010
_symmetry_Int_Tables_number   1
_chemical_formula_structural   Th4Si10Ir5Os
_chemical_formula_sum   'Th4 Si10 Ir5 Os1'
_cell_volume   350.19229491
_cell_formula_units_Z   1
loop_
 _symmetry_equiv_pos_site_id
 _symmetry_equiv_pos_as_xyz
  1  'x, y, z'
loop_
 _atom_site_type_symbol
 _atom_site_label
 _atom_site_symmetry_multiplicity
 _atom_site_fract_x
 _atom_site_fract_y
 _atom_site_fract_z
 _atom_site_occupancy
  Th  Th0  1  0.861397  0.630982  0.232759  1
  Th  Th1  1  0.138604  0.371361  0.769585  1
  Th  Th2  1  0.398223  0.128639  0.267241  1
  Th  Th3  1  0.601777  0.869018  0.730415  1
  Si  Si4  1  0.500000  0.750000  0.250000  1
  Si  Si5  1  0.500000  0.250000  0.750000  1
  Si  Si6  1  0.226627  0.976627  0.750000  1
  Si  Si7  1  0.773373  0.523373  0.750000  1
  Si  Si8  1  0.771973  0.021973  0.250000  1
  Si  Si9  1  0.228027  0.478027  0.250000  1
  Si  Si10  1  0.042908  0.891208  0.148987  1
  Si  Si11  1  0.957092  0.106080  0.848300  1
  Si  Si12  1  0.742221  0.393920  0.351013  1
  Si  Si13  1  0.257779  0.608792  0.651700  1
  Ir  Ir14  1  0.000000  0.250000  0.250000  1
  Ir  Ir15  1  0.247118  0.862014  0.387216  1
  Ir  Ir16  1  0.752882  0.140100  0.614898  1
  Ir  Ir17  1  0.474797  0.359900  0.112784  1
  Ir  Ir18  1  0.525203  0.637986  0.885102  1
  Os  Os19  1  0.000000  0.750000  0.750000  1
