# generated using pymatgen
data_Nd2Sm4Zn4Pd3Pt10
_symmetry_space_group_name_H-M   'P 1'
_cell_length_a   8.35922852
_cell_length_b   8.35922880
_cell_length_c   8.35925501
_cell_angle_alpha   109.45842822
_cell_angle_beta   109.45842324
_cell_angle_gamma   109.46158372
_symmetry_Int_Tables_number   1
_chemical_formula_structural   Nd2Sm4Zn4Pd3Pt10
_chemical_formula_sum   'Nd2 Sm4 Zn4 Pd3 Pt10'
_cell_volume   449.84899753
_cell_formula_units_Z   1
loop_
 _symmetry_equiv_pos_site_id
 _symmetry_equiv_pos_as_xyz
  1  'x, y, z'
loop_
 _atom_site_type_symbol
 _atom_site_label
 _atom_site_symmetry_multiplicity
 _atom_site_fract_x
 _atom_site_fract_y
 _atom_site_fract_z
 _atom_site_occupancy
  Nd  Nd0  1  0.700802  0.001777  0.700943  1
  Nd  Nd1  1  0.001777  0.700802  0.700943  1
  Sm  Sm2  1  0.699488  0.699488  0.002110  1
  Sm  Sm3  1  0.300475  0.999387  0.300510  1
  Sm  Sm4  1  0.999387  0.300475  0.300510  1
  Sm  Sm5  1  0.300592  0.300592  0.999585  1
  Zn  Zn6  1  0.999292  0.999292  0.498472  1
  Zn  Zn7  1  0.999279  0.499425  0.999155  1
  Zn  Zn8  1  0.499425  0.999279  0.999155  1
  Zn  Zn9  1  0.498953  0.498953  0.498935  1
  Pd  Pd10  1  0.667703  0.667703  0.336051  1
  Pd  Pd11  1  0.668162  0.337695  0.668355  1
  Pd  Pd12  1  0.337695  0.668162  0.668355  1
  Pt  Pt13  1  0.331262  0.331262  0.660801  1
  Pt  Pt14  1  0.670233  0.001006  0.330293  1
  Pt  Pt15  1  0.001006  0.670233  0.330293  1
  Pt  Pt16  1  0.669575  0.332274  0.001381  1
  Pt  Pt17  1  0.330011  0.659387  0.330043  1
  Pt  Pt18  1  0.001435  0.331030  0.669876  1
  Pt  Pt19  1  0.332274  0.669575  0.001381  1
  Pt  Pt20  1  0.331030  0.001435  0.669876  1
  Pt  Pt21  1  0.659387  0.330011  0.330043  1
  Pt  Pt22  1  0.000755  0.000755  0.002936  1
