# generated using pymatgen
data_ReH9Pb
_symmetry_space_group_name_H-M   'P 1'
_cell_length_a   5.06597000
_cell_length_b   5.06597025
_cell_length_c   9.26662800
_cell_angle_alpha   90.00000000
_cell_angle_beta   90.00000000
_cell_angle_gamma   119.99999839
_symmetry_Int_Tables_number   1
_chemical_formula_structural   ReH9Pb
_chemical_formula_sum   'Re2 H18 Pb2'
_cell_volume   205.95750222
_cell_formula_units_Z   2
loop_
 _symmetry_equiv_pos_site_id
 _symmetry_equiv_pos_as_xyz
  1  'x, y, z'
loop_
 _atom_site_type_symbol
 _atom_site_label
 _atom_site_symmetry_multiplicity
 _atom_site_fract_x
 _atom_site_fract_y
 _atom_site_fract_z
 _atom_site_occupancy
  Re  Re0  1  0.333333  0.666667  0.250000  1
  Re  Re1  1  0.666667  0.333333  0.750000  1
  H  H2  1  0.472269  0.527731  0.379724  1
  H  H3  1  0.472269  0.944539  0.379724  1
  H  H4  1  0.055461  0.527731  0.379724  1
  H  H5  1  0.944539  0.472269  0.879724  1
  H  H6  1  0.142377  0.284754  0.250000  1
  H  H7  1  0.857623  0.142377  0.750000  1
  H  H8  1  0.284754  0.142377  0.750000  1
  H  H9  1  0.715246  0.857623  0.250000  1
  H  H10  1  0.142377  0.857623  0.250000  1
  H  H11  1  0.857623  0.715246  0.750000  1
  H  H12  1  0.472269  0.944539  0.120276  1
  H  H13  1  0.527731  0.472269  0.620276  1
  H  H14  1  0.944539  0.472269  0.620276  1
  H  H15  1  0.055461  0.527731  0.120276  1
  H  H16  1  0.472269  0.527731  0.120276  1
  H  H17  1  0.527731  0.055461  0.879724  1
  H  H18  1  0.527731  0.472269  0.879724  1
  H  H19  1  0.527731  0.055461  0.620276  1
  Pb  Pb20  1  0.000000  0.000000  0.000000  1
  Pb  Pb21  1  0.000000  0.000000  0.500000  1
