# generated using pymatgen
data_Er2Sc3(In2Cu)2
_symmetry_space_group_name_H-M   'P 1'
_cell_length_a   3.55851700
_cell_length_b   7.71564300
_cell_length_c   17.45723200
_cell_angle_alpha   90.00000000
_cell_angle_beta   90.00000000
_cell_angle_gamma   90.00000000
_symmetry_Int_Tables_number   1
_chemical_formula_structural   Er2Sc3(In2Cu)2
_chemical_formula_sum   'Er4 Sc6 In8 Cu4'
_cell_volume   479.31006991
_cell_formula_units_Z   2
loop_
 _symmetry_equiv_pos_site_id
 _symmetry_equiv_pos_as_xyz
  1  'x, y, z'
loop_
 _atom_site_type_symbol
 _atom_site_label
 _atom_site_symmetry_multiplicity
 _atom_site_fract_x
 _atom_site_fract_y
 _atom_site_fract_z
 _atom_site_occupancy
  Er  Er0  1  0.000000  0.240892  0.217290  1
  Er  Er1  1  0.000000  0.759108  0.782710  1
  Er  Er2  1  0.000000  0.259108  0.717290  1
  Er  Er3  1  0.000000  0.740892  0.282710  1
  Sc  Sc4  1  0.000000  0.119166  0.417751  1
  Sc  Sc5  1  0.000000  0.880834  0.582249  1
  Sc  Sc6  1  0.000000  0.380834  0.917751  1
  Sc  Sc7  1  0.000000  0.619166  0.082249  1
  Sc  Sc8  1  0.000000  0.000000  0.000000  1
  Sc  Sc9  1  0.000000  0.500000  0.500000  1
  In  In10  1  0.500000  0.415950  0.353257  1
  In  In11  1  0.500000  0.584050  0.646743  1
  In  In12  1  0.500000  0.084050  0.853257  1
  In  In13  1  0.500000  0.915950  0.146743  1
  In  In14  1  0.500000  0.296414  0.062108  1
  In  In15  1  0.500000  0.703586  0.937892  1
  In  In16  1  0.500000  0.203586  0.562108  1
  In  In17  1  0.500000  0.796414  0.437892  1
  Cu  Cu18  1  0.500000  0.033057  0.306881  1
  Cu  Cu19  1  0.500000  0.966943  0.693119  1
  Cu  Cu20  1  0.500000  0.466943  0.806881  1
  Cu  Cu21  1  0.500000  0.533057  0.193119  1
