# generated using pymatgen
data_SmY3GeBr6
_symmetry_space_group_name_H-M   'P 1'
_cell_length_a   4.11675600
_cell_length_b   13.36572704
_cell_length_c   14.14801078
_cell_angle_alpha   89.69916360
_cell_angle_beta   90.00000000
_cell_angle_gamma   90.00000000
_symmetry_Int_Tables_number   1
_chemical_formula_structural   SmY3GeBr6
_chemical_formula_sum   'Sm2 Y6 Ge2 Br12'
_cell_volume   778.46144871
_cell_formula_units_Z   2
loop_
 _symmetry_equiv_pos_site_id
 _symmetry_equiv_pos_as_xyz
  1  'x, y, z'
loop_
 _atom_site_type_symbol
 _atom_site_label
 _atom_site_symmetry_multiplicity
 _atom_site_fract_x
 _atom_site_fract_y
 _atom_site_fract_z
 _atom_site_occupancy
  Sm  Sm0  1  0.000000  0.121050  0.580407  1
  Sm  Sm1  1  0.000000  0.878950  0.419593  1
  Y  Y2  1  0.500000  0.118688  0.340367  1
  Y  Y3  1  0.500000  0.881312  0.659633  1
  Y  Y4  1  0.500000  0.618373  0.159434  1
  Y  Y5  1  0.500000  0.381627  0.840566  1
  Y  Y6  1  0.000000  0.618361  0.921329  1
  Y  Y7  1  0.000000  0.381639  0.078671  1
  Ge  Ge8  1  0.500000  0.000000  0.500000  1
  Ge  Ge9  1  0.500000  0.500000  0.000000  1
  Br  Br10  1  0.500000  0.245779  0.162522  1
  Br  Br11  1  0.500000  0.754221  0.837478  1
  Br  Br12  1  0.500000  0.740085  0.333824  1
  Br  Br13  1  0.500000  0.259915  0.666176  1
  Br  Br14  1  0.000000  0.254785  0.408028  1
  Br  Br15  1  0.000000  0.745215  0.591972  1
  Br  Br16  1  0.000000  0.753113  0.088474  1
  Br  Br17  1  0.000000  0.246887  0.911526  1
  Br  Br18  1  0.000000  0.005273  0.242445  1
  Br  Br19  1  0.000000  0.994727  0.757555  1
  Br  Br20  1  0.000000  0.502172  0.254853  1
  Br  Br21  1  0.000000  0.497828  0.745147  1
