# generated using pymatgen
data_Nd5Er(CBr5)2
_symmetry_space_group_name_H-M   'P 1'
_cell_length_a   7.54859948
_cell_length_b   9.15011106
_cell_length_c   9.22968168
_cell_angle_alpha   107.13382874
_cell_angle_beta   96.08507540
_cell_angle_gamma   104.82394744
_symmetry_Int_Tables_number   1
_chemical_formula_structural   Nd5Er(CBr5)2
_chemical_formula_sum   'Nd5 Er1 C2 Br10'
_cell_volume   577.46699753
_cell_formula_units_Z   1
loop_
 _symmetry_equiv_pos_site_id
 _symmetry_equiv_pos_as_xyz
  1  'x, y, z'
loop_
 _atom_site_type_symbol
 _atom_site_label
 _atom_site_symmetry_multiplicity
 _atom_site_fract_x
 _atom_site_fract_y
 _atom_site_fract_z
 _atom_site_occupancy
  Nd  Nd0  1  0.028304  0.722024  0.917472  1
  Nd  Nd1  1  0.111480  0.042140  0.766645  1
  Nd  Nd2  1  0.969417  0.277404  0.081285  1
  Nd  Nd3  1  0.884975  0.955479  0.232381  1
  Nd  Nd4  1  0.385575  0.142612  0.189932  1
  Er  Er5  1  0.621548  0.861683  0.815191  1
  C  C6  1  0.088991  0.030274  0.042462  1
  C  C7  1  0.904424  0.967792  0.956155  1
  Br  Br8  1  0.211906  0.741228  0.652988  1
  Br  Br9  1  0.910188  0.628609  0.178382  1
  Br  Br10  1  0.087130  0.369437  0.819308  1
  Br  Br11  1  0.740982  0.913600  0.549031  1
  Br  Br12  1  0.247095  0.081003  0.458977  1
  Br  Br13  1  0.649755  0.555712  0.729120  1
  Br  Br14  1  0.460380  0.813559  0.080442  1
  Br  Br15  1  0.809525  0.264411  0.356718  1
  Br  Br16  1  0.343561  0.457320  0.269142  1
  Br  Br17  1  0.544760  0.175712  0.904373  1
