# generated using pymatgen
data_Dy10IrOs2Rh
_symmetry_space_group_name_H-M   'P 1'
_cell_length_a   6.42884845
_cell_length_b   7.28627393
_cell_length_c   8.47616485
_cell_angle_alpha   96.65361712
_cell_angle_beta   112.28029234
_cell_angle_gamma   89.99418291
_symmetry_Int_Tables_number   1
_chemical_formula_structural   Dy10IrOs2Rh
_chemical_formula_sum   'Dy10 Ir1 Os2 Rh1'
_cell_volume   364.51063293
_cell_formula_units_Z   1
loop_
 _symmetry_equiv_pos_site_id
 _symmetry_equiv_pos_as_xyz
  1  'x, y, z'
loop_
 _atom_site_type_symbol
 _atom_site_label
 _atom_site_symmetry_multiplicity
 _atom_site_fract_x
 _atom_site_fract_y
 _atom_site_fract_z
 _atom_site_occupancy
  Dy  Dy0  1  0.791773  0.084407  0.818432  1
  Dy  Dy1  1  0.972795  0.414864  0.181572  1
  Dy  Dy2  1  0.207521  0.918235  0.184961  1
  Dy  Dy3  1  0.021940  0.582336  0.813479  1
  Dy  Dy4  1  0.211150  0.184698  0.561045  1
  Dy  Dy5  1  0.649966  0.314721  0.438949  1
  Dy  Dy6  1  0.791179  0.818458  0.437568  1
  Dy  Dy7  1  0.351977  0.682635  0.564675  1
  Dy  Dy8  1  0.426495  0.248972  0.999617  1
  Dy  Dy9  1  0.575807  0.750591  0.999373  1
  Ir  Ir10  1  0.174043  0.923687  0.778432  1
  Os  Os11  1  0.605977  0.426272  0.781807  1
  Os  Os12  1  0.824410  0.074023  0.218649  1
  Rh  Rh13  1  0.394971  0.576101  0.221442  1
