# generated using pymatgen
data_Tb3Y9In2(CoTc)2
_symmetry_space_group_name_H-M   'P 1'
_cell_length_a   8.46988796
_cell_length_b   8.47584150
_cell_length_c   8.46988786
_cell_angle_alpha   112.83819741
_cell_angle_beta   110.72983282
_cell_angle_gamma   104.91906437
_symmetry_Int_Tables_number   1
_chemical_formula_structural   Tb3Y9In2(CoTc)2
_chemical_formula_sum   'Tb3 Y9 In2 Co2 Tc2'
_cell_volume   465.87916665
_cell_formula_units_Z   1
loop_
 _symmetry_equiv_pos_site_id
 _symmetry_equiv_pos_as_xyz
  1  'x, y, z'
loop_
 _atom_site_type_symbol
 _atom_site_label
 _atom_site_symmetry_multiplicity
 _atom_site_fract_x
 _atom_site_fract_y
 _atom_site_fract_z
 _atom_site_occupancy
  Tb  Tb0  1  0.672943  0.352780  0.679837  1
  Tb  Tb1  1  0.327294  0.006270  0.678974  1
  Tb  Tb2  1  0.672487  0.992833  0.320347  1
  Y  Y3  1  0.443824  0.243957  0.199115  1
  Y  Y4  1  0.556323  0.756118  0.800323  1
  Y  Y5  1  0.044840  0.243957  0.800132  1
  Y  Y6  1  0.955796  0.756118  0.199795  1
  Y  Y7  1  0.184297  0.286950  0.471117  1
  Y  Y8  1  0.815439  0.713432  0.528981  1
  Y  Y9  1  0.184450  0.713432  0.897993  1
  Y  Y10  1  0.815834  0.286950  0.102653  1
  Y  Y11  1  0.326795  0.645881  0.319086  1
  In  In12  1  0.499707  0.500071  0.000364  1
  In  In13  1  0.000047  0.000143  0.000095  1
  Co  Co14  1  0.109281  0.609769  0.500488  1
  Co  Co15  1  0.890189  0.390180  0.499991  1
  Tc  Tc16  1  0.324087  0.000581  0.324216  1
  Tc  Tc17  1  0.676365  0.000581  0.676494  1
