# generated using pymatgen
data_CaLa15(MgOs)4
_symmetry_space_group_name_H-M   'P 1'
_cell_length_a   10.17747193
_cell_length_b   10.16648846
_cell_length_c   10.17747074
_cell_angle_alpha   60.03569378
_cell_angle_beta   59.75795592
_cell_angle_gamma   60.03568839
_symmetry_Int_Tables_number   1
_chemical_formula_structural   CaLa15(MgOs)4
_chemical_formula_sum   'Ca1 La15 Mg4 Os4'
_cell_volume   743.64941807
_cell_formula_units_Z   1
loop_
 _symmetry_equiv_pos_site_id
 _symmetry_equiv_pos_as_xyz
  1  'x, y, z'
loop_
 _atom_site_type_symbol
 _atom_site_label
 _atom_site_symmetry_multiplicity
 _atom_site_fract_x
 _atom_site_fract_y
 _atom_site_fract_z
 _atom_site_occupancy
  Ca  Ca0  1  0.561559  0.938441  0.561559  1
  La  La1  1  0.189506  0.185480  0.812491  1
  La  La2  1  0.558600  0.556972  0.941741  1
  La  La3  1  0.968293  0.344372  0.342963  1
  La  La4  1  0.812907  0.187093  0.812907  1
  La  La5  1  0.188251  0.811749  0.188251  1
  La  La6  1  0.342963  0.344372  0.968293  1
  La  La7  1  0.343525  0.970565  0.343525  1
  La  La8  1  0.941741  0.942687  0.558600  1
  La  La9  1  0.941741  0.556972  0.558600  1
  La  La10  1  0.343525  0.342386  0.343525  1
  La  La11  1  0.812491  0.812524  0.189506  1
  La  La12  1  0.812491  0.185480  0.189506  1
  La  La13  1  0.558600  0.942687  0.941741  1
  La  La14  1  0.942461  0.557539  0.942461  1
  La  La15  1  0.189506  0.812524  0.812491  1
  Mg  Mg16  1  0.577937  0.576579  0.577937  1
  Mg  Mg17  1  0.577937  0.267550  0.577937  1
  Mg  Mg18  1  0.577196  0.578661  0.265484  1
  Mg  Mg19  1  0.265484  0.578661  0.577196  1
  Os  Os20  1  0.137447  0.587532  0.137447  1
  Os  Os21  1  0.587532  0.140802  0.130867  1
  Os  Os22  1  0.130867  0.140802  0.587532  1
  Os  Os23  1  0.137447  0.137577  0.137447  1
