# generated using pymatgen
data_ScP4N7
_symmetry_space_group_name_H-M   'P 1'
_cell_length_a   4.89787364
_cell_length_b   7.29374461
_cell_length_c   8.36037600
_cell_angle_alpha   73.49028622
_cell_angle_beta   107.31375312
_cell_angle_gamma   98.02716648
_symmetry_Int_Tables_number   1
_chemical_formula_structural   ScP4N7
_chemical_formula_sum   'Sc2 P8 N14'
_cell_volume   272.88127740
_cell_formula_units_Z   2
loop_
 _symmetry_equiv_pos_site_id
 _symmetry_equiv_pos_as_xyz
  1  'x, y, z'
loop_
 _atom_site_type_symbol
 _atom_site_label
 _atom_site_symmetry_multiplicity
 _atom_site_fract_x
 _atom_site_fract_y
 _atom_site_fract_z
 _atom_site_occupancy
  Sc  Sc0  1  0.338703  0.780268  0.225212  1
  Sc  Sc1  1  0.661285  0.219733  0.774790  1
  P  P2  1  0.315005  0.264326  0.070938  1
  P  P3  1  0.864762  0.119257  0.228404  1
  P  P4  1  0.732424  0.488526  0.252562  1
  P  P5  1  0.021203  0.248349  0.564096  1
  P  P6  1  0.978793  0.751650  0.435905  1
  P  P7  1  0.267580  0.511474  0.747439  1
  P  P8  1  0.135241  0.880743  0.771597  1
  P  P9  1  0.684998  0.735674  0.929062  1
  N  N10  1  0.603047  0.182679  0.053269  1
  N  N11  1  0.894315  0.654118  0.123421  1
  N  N12  1  0.144593  0.080967  0.176253  1
  N  N13  1  0.407320  0.433694  0.168189  1
  N  N14  1  0.926264  0.292636  0.336902  1
  N  N15  1  0.759119  0.929215  0.356006  1
  N  N16  1  0.719257  0.577998  0.406004  1
  N  N17  1  0.280743  0.422000  0.593997  1
  N  N18  1  0.240879  0.070785  0.643990  1
  N  N19  1  0.073732  0.707362  0.663099  1
  N  N20  1  0.592674  0.566307  0.831809  1
  N  N21  1  0.855413  0.919034  0.823747  1
  N  N22  1  0.105686  0.345878  0.876578  1
  N  N23  1  0.396958  0.817326  0.946730  1
