# generated using pymatgen
data_Li2Tb4Co18(SiP3)3
_symmetry_space_group_name_H-M   'P 1'
_cell_length_a   3.68287000
_cell_length_b   10.31972400
_cell_length_c   11.86990644
_cell_angle_alpha   90.15928814
_cell_angle_beta   90.00000000
_cell_angle_gamma   90.00000000
_symmetry_Int_Tables_number   1
_chemical_formula_structural   Li2Tb4Co18(SiP3)3
_chemical_formula_sum   'Li2 Tb4 Co18 Si3 P9'
_cell_volume   451.12831739
_cell_formula_units_Z   1
loop_
 _symmetry_equiv_pos_site_id
 _symmetry_equiv_pos_as_xyz
  1  'x, y, z'
loop_
 _atom_site_type_symbol
 _atom_site_label
 _atom_site_symmetry_multiplicity
 _atom_site_fract_x
 _atom_site_fract_y
 _atom_site_fract_z
 _atom_site_occupancy
  Li  Li0  1  0.250000  0.702927  0.992360  1
  Li  Li1  1  0.250000  0.798217  0.491410  1
  Tb  Tb2  1  0.250000  0.581470  0.701537  1
  Tb  Tb3  1  0.250000  0.917936  0.202328  1
  Tb  Tb4  1  0.750000  0.418925  0.298546  1
  Tb  Tb5  1  0.750000  0.078401  0.799199  1
  Co  Co6  1  0.750000  0.288243  0.010017  1
  Co  Co7  1  0.750000  0.210897  0.509380  1
  Co  Co8  1  0.250000  0.402459  0.486821  1
  Co  Co9  1  0.250000  0.092528  0.991587  1
  Co  Co10  1  0.750000  0.588447  0.513815  1
  Co  Co11  1  0.750000  0.909157  0.015346  1
  Co  Co12  1  0.250000  0.215503  0.176135  1
  Co  Co13  1  0.250000  0.285002  0.672828  1
  Co  Co14  1  0.750000  0.782068  0.826977  1
  Co  Co15  1  0.750000  0.718553  0.327389  1
  Co  Co16  1  0.250000  0.878764  0.698920  1
  Co  Co17  1  0.250000  0.620572  0.199724  1
  Co  Co18  1  0.750000  0.120633  0.300777  1
  Co  Co19  1  0.750000  0.383007  0.798685  1
  Co  Co20  1  0.250000  0.472090  0.927621  1
  Co  Co21  1  0.250000  0.034570  0.426870  1
  Co  Co22  1  0.750000  0.536792  0.064591  1
  Co  Co23  1  0.750000  0.963250  0.563604  1
  Si  Si24  1  0.250000  0.417410  0.107478  1
  Si  Si25  1  0.250000  0.081847  0.609147  1
  Si  Si26  1  0.250000  0.270865  0.870857  1
  P  P27  1  0.750000  0.578968  0.884509  1
  P  P28  1  0.750000  0.922367  0.384274  1
  P  P29  1  0.250000  0.229996  0.367314  1
  P  P30  1  0.750000  0.727444  0.139906  1
  P  P31  1  0.750000  0.771910  0.639005  1
  P  P32  1  0.250000  0.601578  0.392854  1
  P  P33  1  0.250000  0.897566  0.893097  1
  P  P34  1  0.750000  0.395138  0.607307  1
  P  P35  1  0.750000  0.104500  0.107787  1
