# generated using pymatgen
data_Sc2MnC3
_symmetry_space_group_name_H-M   'P 1'
_cell_length_a   13.96017500
_cell_length_b   5.78084400
_cell_length_c   3.27623100
_cell_angle_alpha   90.00000000
_cell_angle_beta   90.00000000
_cell_angle_gamma   90.00000000
_symmetry_Int_Tables_number   1
_chemical_formula_structural   Sc2MnC3
_chemical_formula_sum   'Sc8 Mn4 C12'
_cell_volume   264.39706364
_cell_formula_units_Z   4
loop_
 _symmetry_equiv_pos_site_id
 _symmetry_equiv_pos_as_xyz
  1  'x, y, z'
loop_
 _atom_site_type_symbol
 _atom_site_label
 _atom_site_symmetry_multiplicity
 _atom_site_fract_x
 _atom_site_fract_y
 _atom_site_fract_z
 _atom_site_occupancy
  Sc  Sc0  1  0.000000  0.000000  0.000000  1
  Sc  Sc1  1  0.311392  0.117654  0.000000  1
  Sc  Sc2  1  0.811392  0.382345  0.000000  1
  Sc  Sc3  1  0.500000  0.500000  0.000000  1
  Sc  Sc4  1  0.188608  0.617654  0.000000  1
  Sc  Sc5  1  0.688608  0.882345  0.000000  1
  Sc  Sc6  1  0.500000  0.000000  0.500000  1
  Sc  Sc7  1  0.000000  0.500000  0.500000  1
  Mn  Mn8  1  0.154233  0.206269  0.500000  1
  Mn  Mn9  1  0.654233  0.293730  0.500000  1
  Mn  Mn10  1  0.345767  0.706269  0.500000  1
  Mn  Mn11  1  0.845766  0.793730  0.500000  1
  C  C12  1  0.592908  0.185353  0.000000  1
  C  C13  1  0.092908  0.314646  0.000000  1
  C  C14  1  0.907092  0.685353  0.000000  1
  C  C15  1  0.407092  0.814647  0.000000  1
  C  C16  1  0.778995  0.104142  0.500000  1
  C  C17  1  0.881494  0.138390  0.500000  1
  C  C18  1  0.381494  0.361609  0.500000  1
  C  C19  1  0.278995  0.395857  0.500000  1
  C  C20  1  0.721005  0.604142  0.500000  1
  C  C21  1  0.618506  0.638390  0.500000  1
  C  C22  1  0.118506  0.861611  0.500000  1
  C  C23  1  0.221005  0.895859  0.500000  1
