# generated using pymatgen
data_RbNb2Br9
_symmetry_space_group_name_H-M   'P 1'
_cell_length_a   7.35093500
_cell_length_b   10.34080000
_cell_length_c   13.21165021
_cell_angle_alpha   62.90667521
_cell_angle_beta   90.00000000
_cell_angle_gamma   90.00000000
_symmetry_Int_Tables_number   1
_chemical_formula_structural   RbNb2Br9
_chemical_formula_sum   'Rb2 Nb4 Br18'
_cell_volume   894.07409747
_cell_formula_units_Z   2
loop_
 _symmetry_equiv_pos_site_id
 _symmetry_equiv_pos_as_xyz
  1  'x, y, z'
loop_
 _atom_site_type_symbol
 _atom_site_label
 _atom_site_symmetry_multiplicity
 _atom_site_fract_x
 _atom_site_fract_y
 _atom_site_fract_z
 _atom_site_occupancy
  Rb  Rb0  1  0.579047  0.500000  0.750000  1
  Rb  Rb1  1  0.420953  0.500000  0.250000  1
  Nb  Nb2  1  0.259392  0.851958  0.847018  1
  Nb  Nb3  1  0.740608  0.148042  0.152982  1
  Nb  Nb4  1  0.259392  0.148042  0.652982  1
  Nb  Nb5  1  0.740608  0.851958  0.347018  1
  Br  Br6  1  0.120989  0.791250  0.038177  1
  Br  Br7  1  0.879011  0.208750  0.961823  1
  Br  Br8  1  0.120989  0.208750  0.461823  1
  Br  Br9  1  0.879011  0.791250  0.538177  1
  Br  Br10  1  0.124741  0.632941  0.837287  1
  Br  Br11  1  0.875259  0.367059  0.162713  1
  Br  Br12  1  0.124741  0.367059  0.662713  1
  Br  Br13  1  0.875259  0.632941  0.337287  1
  Br  Br14  1  0.962588  0.000000  0.750000  1
  Br  Br15  1  0.037412  0.000000  0.250000  1
  Br  Br16  1  0.418712  0.081135  0.850962  1
  Br  Br17  1  0.581288  0.918865  0.149038  1
  Br  Br18  1  0.418712  0.918865  0.649038  1
  Br  Br19  1  0.581288  0.081135  0.350962  1
  Br  Br20  1  0.550360  0.711647  0.941003  1
  Br  Br21  1  0.449640  0.288353  0.058997  1
  Br  Br22  1  0.550360  0.288353  0.558997  1
  Br  Br23  1  0.449640  0.711647  0.441003  1
