# generated using pymatgen
data_Gd2Co9Mo3As6P
_symmetry_space_group_name_H-M   'P 1'
_cell_length_a   3.82714700
_cell_length_b   9.35800916
_cell_length_c   9.35800900
_cell_angle_alpha   119.99999589
_cell_angle_beta   90.00000000
_cell_angle_gamma   90.00000000
_symmetry_Int_Tables_number   1
_chemical_formula_structural   Gd2Co9Mo3As6P
_chemical_formula_sum   'Gd2 Co9 Mo3 As6 P1'
_cell_volume   290.25032724
_cell_formula_units_Z   1
loop_
 _symmetry_equiv_pos_site_id
 _symmetry_equiv_pos_as_xyz
  1  'x, y, z'
loop_
 _atom_site_type_symbol
 _atom_site_label
 _atom_site_symmetry_multiplicity
 _atom_site_fract_x
 _atom_site_fract_y
 _atom_site_fract_z
 _atom_site_occupancy
  Gd  Gd0  1  0.000000  0.666667  0.333333  1
  Gd  Gd1  1  0.500000  0.333333  0.666667  1
  Co  Co2  1  0.000000  0.572796  0.941383  1
  Co  Co3  1  0.000000  0.368587  0.427204  1
  Co  Co4  1  0.000000  0.058617  0.631413  1
  Co  Co5  1  0.000000  0.881579  0.153039  1
  Co  Co6  1  0.000000  0.271461  0.118421  1
  Co  Co7  1  0.000000  0.846961  0.728539  1
  Co  Co8  1  0.500000  0.949451  0.380115  1
  Co  Co9  1  0.500000  0.430664  0.050549  1
  Co  Co10  1  0.500000  0.619885  0.569336  1
  Mo  Mo11  1  0.500000  0.790222  0.905498  1
  Mo  Mo12  1  0.500000  0.115277  0.209778  1
  Mo  Mo13  1  0.500000  0.094502  0.884723  1
  As  As14  1  0.500000  0.707048  0.118077  1
  As  As15  1  0.500000  0.411030  0.292952  1
  As  As16  1  0.500000  0.881923  0.588970  1
  As  As17  1  0.000000  0.586336  0.698956  1
  As  As18  1  0.000000  0.112621  0.413664  1
  As  As19  1  0.000000  0.301044  0.887379  1
  P  P20  1  0.000000  0.000000  0.000000  1
