# generated using pymatgen
data_Sm2Ga5IrPt2
_symmetry_space_group_name_H-M   'P 1'
_cell_length_a   8.66688196
_cell_length_b   8.66688261
_cell_length_c   8.66688200
_cell_angle_alpha   140.29933119
_cell_angle_beta   107.25483991
_cell_angle_gamma   86.21490296
_symmetry_Int_Tables_number   1
_chemical_formula_structural   Sm2Ga5IrPt2
_chemical_formula_sum   'Sm4 Ga10 Ir2 Pt4'
_cell_volume   382.83938650
_cell_formula_units_Z   2
loop_
 _symmetry_equiv_pos_site_id
 _symmetry_equiv_pos_as_xyz
  1  'x, y, z'
loop_
 _atom_site_type_symbol
 _atom_site_label
 _atom_site_symmetry_multiplicity
 _atom_site_fract_x
 _atom_site_fract_y
 _atom_site_fract_z
 _atom_site_occupancy
  Sm  Sm0  1  0.635930  0.862930  0.773000  1
  Sm  Sm1  1  0.364070  0.137070  0.227000  1
  Sm  Sm2  1  0.089930  0.362930  0.727000  1
  Sm  Sm3  1  0.910070  0.637070  0.273000  1
  Ga  Ga4  1  0.290268  0.040268  0.750000  1
  Ga  Ga5  1  0.709732  0.959732  0.250000  1
  Ga  Ga6  1  0.709732  0.459732  0.750000  1
  Ga  Ga7  1  0.290268  0.540268  0.250000  1
  Ga  Ga8  1  0.430551  0.593438  0.837113  1
  Ga  Ga9  1  0.569449  0.406562  0.162887  1
  Ga  Ga10  1  0.756325  0.093438  0.662887  1
  Ga  Ga11  1  0.243675  0.906562  0.337113  1
  Ga  Ga12  1  0.000000  0.750000  0.750000  1
  Ga  Ga13  1  0.000000  0.250000  0.250000  1
  Ir  Ir14  1  0.500000  0.750000  0.250000  1
  Ir  Ir15  1  0.500000  0.250000  0.750000  1
  Pt  Pt16  1  0.247648  0.645528  0.602121  1
  Pt  Pt17  1  0.752352  0.354472  0.397879  1
  Pt  Pt18  1  0.043406  0.145528  0.897879  1
  Pt  Pt19  1  0.956594  0.854472  0.102121  1
