# generated using pymatgen
data_LiNd16TlCd2(CoIr)2
_symmetry_space_group_name_H-M   'P 1'
_cell_length_a   9.89226975
_cell_length_b   9.89286353
_cell_length_c   9.82771006
_cell_angle_alpha   60.23032682
_cell_angle_beta   60.22736577
_cell_angle_gamma   60.34490780
_symmetry_Int_Tables_number   1
_chemical_formula_structural   LiNd16TlCd2(CoIr)2
_chemical_formula_sum   'Li1 Nd16 Tl1 Cd2 Co2 Ir2'
_cell_volume   684.18885557
_cell_formula_units_Z   1
loop_
 _symmetry_equiv_pos_site_id
 _symmetry_equiv_pos_as_xyz
  1  'x, y, z'
loop_
 _atom_site_type_symbol
 _atom_site_label
 _atom_site_symmetry_multiplicity
 _atom_site_fract_x
 _atom_site_fract_y
 _atom_site_fract_z
 _atom_site_occupancy
  Li  Li0  1  0.570150  0.570209  0.288126  1
  Nd  Nd1  1  0.343642  0.343646  0.352009  1
  Nd  Nd2  1  0.346586  0.346478  0.951573  1
  Nd  Nd3  1  0.341635  0.958912  0.350791  1
  Nd  Nd4  1  0.958902  0.341668  0.350820  1
  Nd  Nd5  1  0.817020  0.188130  0.186150  1
  Nd  Nd6  1  0.193513  0.813445  0.801098  1
  Nd  Nd7  1  0.188111  0.816995  0.186100  1
  Nd  Nd8  1  0.813448  0.193508  0.801117  1
  Nd  Nd9  1  0.190847  0.190904  0.806527  1
  Nd  Nd10  1  0.810471  0.810470  0.187150  1
  Nd  Nd11  1  0.941808  0.563444  0.558420  1
  Nd  Nd12  1  0.560792  0.939421  0.941470  1
  Nd  Nd13  1  0.563482  0.941848  0.558245  1
  Nd  Nd14  1  0.939408  0.560772  0.941527  1
  Nd  Nd15  1  0.558649  0.558691  0.944902  1
  Nd  Nd16  1  0.937221  0.937319  0.561972  1
  Tl  Tl17  1  0.583687  0.583709  0.577217  1
  Cd  Cd18  1  0.581253  0.257023  0.578025  1
  Cd  Cd19  1  0.257039  0.581317  0.577976  1
  Co  Co20  1  0.140750  0.140711  0.141116  1
  Co  Co21  1  0.143076  0.142932  0.574960  1
  Ir  Ir22  1  0.142588  0.575914  0.141341  1
  Ir  Ir23  1  0.575920  0.142532  0.141363  1
