# generated using pymatgen
data_Gd6Al2Tc14F
_symmetry_space_group_name_H-M   'P 1'
_cell_length_a   8.05321214
_cell_length_b   8.08010475
_cell_length_c   8.05220600
_cell_angle_alpha   109.07949338
_cell_angle_beta   108.94291753
_cell_angle_gamma   110.46661642
_symmetry_Int_Tables_number   1
_chemical_formula_structural   Gd6Al2Tc14F
_chemical_formula_sum   'Gd6 Al2 Tc14 F1'
_cell_volume   402.90600323
_cell_formula_units_Z   1
loop_
 _symmetry_equiv_pos_site_id
 _symmetry_equiv_pos_as_xyz
  1  'x, y, z'
loop_
 _atom_site_type_symbol
 _atom_site_label
 _atom_site_symmetry_multiplicity
 _atom_site_fract_x
 _atom_site_fract_y
 _atom_site_fract_z
 _atom_site_occupancy
  Gd  Gd0  1  0.275919  0.003145  0.269552  1
  Gd  Gd1  1  0.002169  0.268635  0.268599  1
  Gd  Gd2  1  0.006367  0.733593  0.730448  1
  Gd  Gd3  1  0.280752  0.278119  0.000000  1
  Gd  Gd4  1  0.724868  0.723910  0.000000  1
  Gd  Gd5  1  0.733570  0.000037  0.731401  1
  Al  Al6  1  0.343322  0.999940  0.654255  1
  Al  Al7  1  0.689068  0.345684  0.345745  1
  Tc  Tc8  1  0.998982  0.999046  0.491174  1
  Tc  Tc9  1  0.516651  0.999316  0.000000  1
  Tc  Tc10  1  0.000688  0.499381  0.000000  1
  Tc  Tc11  1  0.507808  0.507872  0.508826  1
  Tc  Tc12  1  0.990073  0.339613  0.655636  1
  Tc  Tc13  1  0.651719  0.657559  0.319305  1
  Tc  Tc14  1  0.338702  0.654611  0.000000  1
  Tc  Tc15  1  0.334437  0.683977  0.344364  1
  Tc  Tc16  1  0.654253  0.318590  0.659665  1
  Tc  Tc17  1  0.332413  0.338253  0.680695  1
  Tc  Tc18  1  0.310215  0.656107  0.657635  1
  Tc  Tc19  1  0.655741  0.334848  0.000000  1
  Tc  Tc20  1  0.994588  0.658926  0.340335  1
  Tc  Tc21  1  0.652581  0.998472  0.342365  1
  F  F22  1  0.005119  0.000370  0.000000  1
