# generated using pymatgen
data_YLu9(InSb2)2
_symmetry_space_group_name_H-M   'P 1'
_cell_length_a   6.32775904
_cell_length_b   8.77924796
_cell_length_c   8.84616915
_cell_angle_alpha   120.19507140
_cell_angle_beta   89.99997975
_cell_angle_gamma   90.01004003
_symmetry_Int_Tables_number   1
_chemical_formula_structural   YLu9(InSb2)2
_chemical_formula_sum   'Y1 Lu9 In2 Sb4'
_cell_volume   424.75262434
_cell_formula_units_Z   1
loop_
 _symmetry_equiv_pos_site_id
 _symmetry_equiv_pos_as_xyz
  1  'x, y, z'
loop_
 _atom_site_type_symbol
 _atom_site_label
 _atom_site_symmetry_multiplicity
 _atom_site_fract_x
 _atom_site_fract_y
 _atom_site_fract_z
 _atom_site_occupancy
  Y  Y0  1  0.249970  0.999913  0.756376  1
  Lu  Lu1  1  0.500557  0.336552  0.669042  1
  Lu  Lu2  1  0.500314  0.663750  0.331570  1
  Lu  Lu3  1  0.999712  0.663665  0.331760  1
  Lu  Lu4  1  0.999473  0.336426  0.668752  1
  Lu  Lu5  1  0.750004  0.241732  0.007520  1
  Lu  Lu6  1  0.750062  0.757003  0.764563  1
  Lu  Lu7  1  0.750023  0.000046  0.238180  1
  Lu  Lu8  1  0.250146  0.760359  0.995224  1
  Lu  Lu9  1  0.249903  0.240240  0.236056  1
  In  In10  1  0.750312  0.603875  0.001770  1
  In  In11  1  0.749418  0.395587  0.397075  1
  Sb  Sb12  1  0.750007  0.999991  0.612576  1
  Sb  Sb13  1  0.250013  0.397333  0.999698  1
  Sb  Sb14  1  0.250055  0.603231  0.602293  1
  Sb  Sb15  1  0.250032  0.000297  0.387545  1
