# generated using pymatgen
data_Nd5TiMoO12
_symmetry_space_group_name_H-M   'P 1'
_cell_length_a   7.05808400
_cell_length_b   7.05808417
_cell_length_c   7.63004441
_cell_angle_alpha   74.39193400
_cell_angle_beta   74.39193338
_cell_angle_gamma   51.02645390
_symmetry_Int_Tables_number   1
_chemical_formula_structural   Nd5TiMoO12
_chemical_formula_sum   'Nd5 Ti1 Mo1 O12'
_cell_volume   282.06777513
_cell_formula_units_Z   1
loop_
 _symmetry_equiv_pos_site_id
 _symmetry_equiv_pos_as_xyz
  1  'x, y, z'
loop_
 _atom_site_type_symbol
 _atom_site_label
 _atom_site_symmetry_multiplicity
 _atom_site_fract_x
 _atom_site_fract_y
 _atom_site_fract_z
 _atom_site_occupancy
  Nd  Nd0  1  0.313525  0.298032  0.358946  1
  Nd  Nd1  1  0.701968  0.686475  0.641054  1
  Nd  Nd2  1  0.308308  0.307313  0.831435  1
  Nd  Nd3  1  0.692687  0.691692  0.168565  1
  Nd  Nd4  1  0.001022  0.998978  0.500000  1
  Ti  Ti5  1  0.758656  0.241344  0.000000  1
  Mo  Mo6  1  0.238719  0.761281  0.000000  1
  O  O7  1  0.896670  0.422912  0.921124  1
  O  O8  1  0.417644  0.897433  0.920847  1
  O  O9  1  0.102567  0.582356  0.079153  1
  O  O10  1  0.577088  0.103330  0.078876  1
  O  O11  1  0.098445  0.595280  0.575705  1
  O  O12  1  0.595912  0.092162  0.579191  1
  O  O13  1  0.907838  0.404088  0.420809  1
  O  O14  1  0.404720  0.901555  0.424295  1
  O  O15  1  0.992920  0.008134  0.821354  1
  O  O16  1  0.991866  0.007080  0.178646  1
  O  O17  1  0.498737  0.499291  0.823027  1
  O  O18  1  0.500709  0.501263  0.176973  1
