# generated using pymatgen
data_Tb3Dy2Er(Al3Os)8
_symmetry_space_group_name_H-M   'P 1'
_cell_length_a   8.82893504
_cell_length_b   8.83413763
_cell_length_c   9.58195000
_cell_angle_alpha   90.00000000
_cell_angle_beta   90.00000000
_cell_angle_gamma   120.03603843
_symmetry_Int_Tables_number   1
_chemical_formula_structural   Tb3Dy2Er(Al3Os)8
_chemical_formula_sum   'Tb3 Dy2 Er1 Al24 Os8'
_cell_volume   646.99241152
_cell_formula_units_Z   1
loop_
 _symmetry_equiv_pos_site_id
 _symmetry_equiv_pos_as_xyz
  1  'x, y, z'
loop_
 _atom_site_type_symbol
 _atom_site_label
 _atom_site_symmetry_multiplicity
 _atom_site_fract_x
 _atom_site_fract_y
 _atom_site_fract_z
 _atom_site_occupancy
  Tb  Tb0  1  0.612963  0.806571  0.250000  1
  Tb  Tb1  1  0.386355  0.193019  0.750000  1
  Tb  Tb2  1  0.193696  0.806587  0.250000  1
  Dy  Dy3  1  0.193187  0.386295  0.250000  1
  Dy  Dy4  1  0.807237  0.614450  0.750000  1
  Er  Er5  1  0.806216  0.193522  0.750000  1
  Al  Al6  1  0.333281  0.666397  0.017718  1
  Al  Al7  1  0.666907  0.333394  0.982462  1
  Al  Al8  1  0.666907  0.333394  0.517538  1
  Al  Al9  1  0.333281  0.666397  0.482282  1
  Al  Al10  1  0.162468  0.325565  0.575672  1
  Al  Al11  1  0.837111  0.674178  0.424465  1
  Al  Al12  1  0.674261  0.837212  0.575193  1
  Al  Al13  1  0.837111  0.674178  0.075535  1
  Al  Al14  1  0.325991  0.163187  0.424940  1
  Al  Al15  1  0.162468  0.325565  0.924328  1
  Al  Al16  1  0.162662  0.836877  0.575210  1
  Al  Al17  1  0.325991  0.163187  0.075060  1
  Al  Al18  1  0.837300  0.163140  0.425286  1
  Al  Al19  1  0.674261  0.837212  0.924807  1
  Al  Al20  1  0.837300  0.163140  0.074714  1
  Al  Al21  1  0.162662  0.836877  0.924790  1
  Al  Al22  1  0.561321  0.122519  0.250000  1
  Al  Al23  1  0.439469  0.878229  0.750000  1
  Al  Al24  1  0.877896  0.438823  0.250000  1
  Al  Al25  1  0.121362  0.560391  0.750000  1
  Al  Al26  1  0.560949  0.438922  0.250000  1
  Al  Al27  1  0.439057  0.561044  0.750000  1
  Al  Al28  1  0.999768  0.999474  0.250000  1
  Al  Al29  1  0.999839  0.000942  0.750000  1
  Os  Os30  1  0.500507  0.000381  0.999543  1
  Os  Os31  1  0.999611  0.499491  0.999549  1
  Os  Os32  1  0.500507  0.000381  0.500457  1
  Os  Os33  1  0.500207  0.499810  0.999728  1
  Os  Os34  1  0.999611  0.499491  0.500451  1
  Os  Os35  1  0.500207  0.499810  0.500272  1
  Os  Os36  1  0.000037  0.999974  0.999778  1
  Os  Os37  1  0.000037  0.999974  0.500222  1
