# generated using pymatgen
data_Y4Er6Sn3Pb5
_symmetry_space_group_name_H-M   'P 1'
_cell_length_a   8.11127400
_cell_length_b   15.49809300
_cell_length_c   8.18202000
_cell_angle_alpha   90.00000000
_cell_angle_beta   90.00000000
_cell_angle_gamma   90.00000000
_symmetry_Int_Tables_number   1
_chemical_formula_structural   Y4Er6Sn3Pb5
_chemical_formula_sum   'Y8 Er12 Sn6 Pb10'
_cell_volume   1028.55583333
_cell_formula_units_Z   2
loop_
 _symmetry_equiv_pos_site_id
 _symmetry_equiv_pos_as_xyz
  1  'x, y, z'
loop_
 _atom_site_type_symbol
 _atom_site_label
 _atom_site_symmetry_multiplicity
 _atom_site_fract_x
 _atom_site_fract_y
 _atom_site_fract_z
 _atom_site_occupancy
  Y  Y0  1  0.465384  0.603294  0.676497  1
  Y  Y1  1  0.965384  0.896706  0.823503  1
  Y  Y2  1  0.534355  0.100346  0.325162  1
  Y  Y3  1  0.034355  0.399654  0.174838  1
  Y  Y4  1  0.534355  0.399654  0.325162  1
  Y  Y5  1  0.034355  0.100346  0.174838  1
  Y  Y6  1  0.465384  0.896706  0.676497  1
  Y  Y7  1  0.965384  0.603294  0.823503  1
  Er  Er8  1  0.622140  0.623589  0.160199  1
  Er  Er9  1  0.122140  0.876411  0.339801  1
  Er  Er10  1  0.377501  0.122405  0.838418  1
  Er  Er11  1  0.877501  0.377595  0.661582  1
  Er  Er12  1  0.377501  0.377595  0.838418  1
  Er  Er13  1  0.877501  0.122405  0.661582  1
  Er  Er14  1  0.622140  0.876411  0.160199  1
  Er  Er15  1  0.122140  0.623589  0.339801  1
  Er  Er16  1  0.790735  0.750000  0.496018  1
  Er  Er17  1  0.290735  0.750000  0.003982  1
  Er  Er18  1  0.209785  0.250000  0.507702  1
  Er  Er19  1  0.709785  0.250000  0.992298  1
  Sn  Sn20  1  0.425957  0.750000  0.376030  1
  Sn  Sn21  1  0.925957  0.750000  0.123970  1
  Sn  Sn22  1  0.573567  0.250000  0.624960  1
  Sn  Sn23  1  0.073567  0.250000  0.875040  1
  Sn  Sn24  1  0.657143  0.750000  0.852137  1
  Sn  Sn25  1  0.157143  0.750000  0.647863  1
  Pb  Pb26  1  0.716474  0.458538  0.966094  1
  Pb  Pb27  1  0.216474  0.041462  0.533906  1
  Pb  Pb28  1  0.283063  0.957908  0.034025  1
  Pb  Pb29  1  0.783063  0.542092  0.465975  1
  Pb  Pb30  1  0.283063  0.542092  0.034025  1
  Pb  Pb31  1  0.783063  0.957908  0.465975  1
  Pb  Pb32  1  0.716474  0.041462  0.966094  1
  Pb  Pb33  1  0.216474  0.458538  0.533906  1
  Pb  Pb34  1  0.344979  0.250000  0.151259  1
  Pb  Pb35  1  0.844979  0.250000  0.348741  1
