# generated using pymatgen
data_Tm5TcOsC7
_symmetry_space_group_name_H-M   'P 1'
_cell_length_a   8.13949133
_cell_length_b   8.13949252
_cell_length_c   3.43089200
_cell_angle_alpha   90.00000000
_cell_angle_beta   90.00000000
_cell_angle_gamma   121.80486586
_symmetry_Int_Tables_number   1
_chemical_formula_structural   Tm5TcOsC7
_chemical_formula_sum   'Tm5 Tc1 Os1 C7'
_cell_volume   193.17141692
_cell_formula_units_Z   1
loop_
 _symmetry_equiv_pos_site_id
 _symmetry_equiv_pos_as_xyz
  1  'x, y, z'
loop_
 _atom_site_type_symbol
 _atom_site_label
 _atom_site_symmetry_multiplicity
 _atom_site_fract_x
 _atom_site_fract_y
 _atom_site_fract_z
 _atom_site_occupancy
  Tm  Tm0  1  0.500507  0.499493  0.000000  1
  Tm  Tm1  1  0.077668  0.338706  0.500000  1
  Tm  Tm2  1  0.921564  0.661863  0.500000  1
  Tm  Tm3  1  0.661294  0.922332  0.500000  1
  Tm  Tm4  1  0.338137  0.078436  0.500000  1
  Tc  Tc5  1  0.285077  0.714923  0.000000  1
  Os  Os6  1  0.713486  0.286514  0.000000  1
  C  C7  1  0.628790  0.371210  0.500000  1
  C  C8  1  0.376450  0.623550  0.500000  1
  C  C9  1  0.999620  0.000380  0.000000  1
  C  C10  1  0.171158  0.171881  0.000000  1
  C  C11  1  0.828119  0.828842  0.000000  1
  C  C12  1  0.998190  0.500060  0.000000  1
  C  C13  1  0.499940  0.001810  0.000000  1
