# generated using pymatgen
data_Nd5Tm3Sc12Si15Rh
_symmetry_space_group_name_H-M   'P 1'
_cell_length_a   7.18441777
_cell_length_b   7.43015698
_cell_length_c   14.12229152
_cell_angle_alpha   89.83334584
_cell_angle_beta   90.02330118
_cell_angle_gamma   90.25758138
_symmetry_Int_Tables_number   1
_chemical_formula_structural   Nd5Tm3Sc12Si15Rh
_chemical_formula_sum   'Nd5 Tm3 Sc12 Si15 Rh1'
_cell_volume   753.85614673
_cell_formula_units_Z   1
loop_
 _symmetry_equiv_pos_site_id
 _symmetry_equiv_pos_as_xyz
  1  'x, y, z'
loop_
 _atom_site_type_symbol
 _atom_site_label
 _atom_site_symmetry_multiplicity
 _atom_site_fract_x
 _atom_site_fract_y
 _atom_site_fract_z
 _atom_site_occupancy
  Nd  Nd0  1  0.012200  0.172443  0.098787  1
  Nd  Nd1  1  0.988636  0.827800  0.901140  1
  Nd  Nd2  1  0.487031  0.673266  0.902710  1
  Nd  Nd3  1  0.988755  0.824576  0.593584  1
  Nd  Nd4  1  0.511934  0.327977  0.097344  1
  Tm  Tm5  1  0.013345  0.182984  0.402672  1
  Tm  Tm6  1  0.507970  0.323309  0.403033  1
  Tm  Tm7  1  0.484594  0.670320  0.596894  1
  Sc  Sc8  1  0.163232  0.501310  0.742829  1
  Sc  Sc9  1  0.837665  0.497851  0.254346  1
  Sc  Sc10  1  0.339762  0.998596  0.253149  1
  Sc  Sc11  1  0.662339  0.999623  0.747535  1
  Sc  Sc12  1  0.330560  0.189149  0.619035  1
  Sc  Sc13  1  0.668624  0.822732  0.375676  1
  Sc  Sc14  1  0.172070  0.662822  0.379903  1
  Sc  Sc15  1  0.672132  0.825143  0.128998  1
  Sc  Sc16  1  0.832296  0.326643  0.621037  1
  Sc  Sc17  1  0.328888  0.176736  0.874507  1
  Sc  Sc18  1  0.830408  0.323080  0.874282  1
  Sc  Sc19  1  0.170414  0.676110  0.127656  1
  Si  Si20  1  0.036133  0.122746  0.748083  1
  Si  Si21  1  0.969981  0.879415  0.255275  1
  Si  Si22  1  0.466967  0.617841  0.251551  1
  Si  Si23  1  0.537908  0.380385  0.750074  1
  Si  Si24  1  0.290016  0.881888  0.746900  1
  Si  Si25  1  0.712847  0.125778  0.254569  1
  Si  Si26  1  0.215273  0.373310  0.252791  1
  Si  Si27  1  0.781781  0.621238  0.748615  1
  Si  Si28  1  0.835236  0.529488  0.458362  1
  Si  Si29  1  0.345278  0.965187  0.459750  1
  Si  Si30  1  0.848636  0.538489  0.039424  1
  Si  Si31  1  0.649565  0.035037  0.537967  1
  Si  Si32  1  0.150381  0.463450  0.961373  1
  Si  Si33  1  0.652654  0.036526  0.961910  1
  Si  Si34  1  0.348621  0.962314  0.039757  1
  Rh  Rh35  1  0.155866  0.464437  0.538483  1
