# generated using pymatgen
data_Ho19TmFe2(CoBi4)2
_symmetry_space_group_name_H-M   'P 1'
_cell_length_a   7.94191173
_cell_length_b   8.88024431
_cell_length_c   12.34834177
_cell_angle_alpha   89.97525730
_cell_angle_beta   89.94780196
_cell_angle_gamma   89.98243629
_symmetry_Int_Tables_number   1
_chemical_formula_structural   Ho19TmFe2(CoBi4)2
_chemical_formula_sum   'Ho19 Tm1 Fe2 Co2 Bi8'
_cell_volume   870.88010638
_cell_formula_units_Z   1
loop_
 _symmetry_equiv_pos_site_id
 _symmetry_equiv_pos_as_xyz
  1  'x, y, z'
loop_
 _atom_site_type_symbol
 _atom_site_label
 _atom_site_symmetry_multiplicity
 _atom_site_fract_x
 _atom_site_fract_y
 _atom_site_fract_z
 _atom_site_occupancy
  Ho  Ho0  1  0.347395  0.749825  0.700255  1
  Ho  Ho1  1  0.652980  0.250034  0.299799  1
  Ho  Ho2  1  0.848625  0.250084  0.799910  1
  Ho  Ho3  1  0.151306  0.749973  0.200001  1
  Ho  Ho4  1  0.886033  0.749984  0.810874  1
  Ho  Ho5  1  0.113962  0.249991  0.189111  1
  Ho  Ho6  1  0.385590  0.250187  0.687419  1
  Ho  Ho7  1  0.614864  0.749709  0.312679  1
  Ho  Ho8  1  0.325195  0.462268  0.436623  1
  Ho  Ho9  1  0.173980  0.463664  0.937913  1
  Ho  Ho10  1  0.324636  0.037738  0.436473  1
  Ho  Ho11  1  0.825851  0.536456  0.062149  1
  Ho  Ho12  1  0.675187  0.961961  0.563551  1
  Ho  Ho13  1  0.825837  0.963609  0.062118  1
  Ho  Ho14  1  0.173985  0.036270  0.937924  1
  Ho  Ho15  1  0.051955  0.749863  0.496611  1
  Ho  Ho16  1  0.947408  0.250185  0.503401  1
  Ho  Ho17  1  0.556171  0.249973  0.004010  1
  Ho  Ho18  1  0.444013  0.749997  0.995957  1
  Tm  Tm19  1  0.673736  0.538093  0.563329  1
  Fe  Fe20  1  0.070904  0.750011  0.990236  1
  Fe  Fe21  1  0.929331  0.249978  0.009698  1
  Co  Co22  1  0.565910  0.250443  0.507882  1
  Co  Co23  1  0.435260  0.749532  0.492327  1
  Bi  Bi24  1  0.571959  0.508440  0.826651  1
  Bi  Bi25  1  0.428186  0.491619  0.173175  1
  Bi  Bi26  1  0.071762  0.491638  0.672838  1
  Bi  Bi27  1  0.428138  0.008389  0.173165  1
  Bi  Bi28  1  0.927907  0.508468  0.327048  1
  Bi  Bi29  1  0.571871  0.991621  0.826887  1
  Bi  Bi30  1  0.927831  0.991559  0.327017  1
  Bi  Bi31  1  0.072231  0.008439  0.672970  1
