# generated using pymatgen
data_LaSm4Y(SiPd5)2
_symmetry_space_group_name_H-M   'P 1'
_cell_length_a   8.35625787
_cell_length_b   8.37190223
_cell_length_c   8.37190178
_cell_angle_alpha   127.58227187
_cell_angle_beta   125.96309096
_cell_angle_gamma   78.67152082
_symmetry_Int_Tables_number   1
_chemical_formula_structural   LaSm4Y(SiPd5)2
_chemical_formula_sum   'La1 Sm4 Y1 Si2 Pd10'
_cell_volume   363.53251676
_cell_formula_units_Z   1
loop_
 _symmetry_equiv_pos_site_id
 _symmetry_equiv_pos_as_xyz
  1  'x, y, z'
loop_
 _atom_site_type_symbol
 _atom_site_label
 _atom_site_symmetry_multiplicity
 _atom_site_fract_x
 _atom_site_fract_y
 _atom_site_fract_z
 _atom_site_occupancy
  La  La0  1  0.616767  0.750031  0.866736  1
  Sm  Sm1  1  0.825155  0.050817  0.774338  1
  Sm  Sm2  1  0.224740  0.449486  0.775255  1
  Sm  Sm3  1  0.176883  0.950621  0.226263  1
  Sm  Sm4  1  0.389390  0.250274  0.139116  1
  Y  Y5  1  0.776497  0.549192  0.227305  1
  Si  Si6  1  0.210067  0.749526  0.460541  1
  Si  Si7  1  0.782542  0.250069  0.532473  1
  Pd  Pd8  1  0.833776  0.596886  0.639318  1
  Pd  Pd9  1  0.543937  0.307245  0.642009  1
  Pd  Pd10  1  0.453816  0.097399  0.763955  1
  Pd  Pd11  1  0.833776  0.194458  0.236891  1
  Pd  Pd12  1  0.165408  0.403986  0.356460  1
  Pd  Pd13  1  0.453816  0.689862  0.356418  1
  Pd  Pd14  1  0.543937  0.901928  0.236691  1
  Pd  Pd15  1  0.165408  0.808947  0.761421  1
  Pd  Pd16  1  0.002043  0.004871  0.507643  1
  Pd  Pd17  1  0.002043  0.494401  0.997172  1
