# generated using pymatgen
data_Ce2NdHfSb5
_symmetry_space_group_name_H-M   'P 1'
_cell_length_a   9.53255300
_cell_length_b   9.49829553
_cell_length_c   6.28797400
_cell_angle_alpha   90.00000000
_cell_angle_beta   90.00000000
_cell_angle_gamma   120.11937001
_symmetry_Int_Tables_number   1
_chemical_formula_structural   Ce2NdHfSb5
_chemical_formula_sum   'Ce4 Nd2 Hf2 Sb10'
_cell_volume   492.46188831
_cell_formula_units_Z   2
loop_
 _symmetry_equiv_pos_site_id
 _symmetry_equiv_pos_as_xyz
  1  'x, y, z'
loop_
 _atom_site_type_symbol
 _atom_site_label
 _atom_site_symmetry_multiplicity
 _atom_site_fract_x
 _atom_site_fract_y
 _atom_site_fract_z
 _atom_site_occupancy
  Ce  Ce0  1  0.000449  0.616113  0.250000  1
  Ce  Ce1  1  0.999551  0.383887  0.750000  1
  Ce  Ce2  1  0.384336  0.383887  0.250000  1
  Ce  Ce3  1  0.615664  0.616113  0.750000  1
  Nd  Nd4  1  0.617414  0.000000  0.250000  1
  Nd  Nd5  1  0.382586  0.000000  0.750000  1
  Hf  Hf6  1  0.000000  0.000000  0.000000  1
  Hf  Hf7  1  0.000000  0.000000  0.500000  1
  Sb  Sb8  1  0.261707  0.000000  0.250000  1
  Sb  Sb9  1  0.738293  0.000000  0.750000  1
  Sb  Sb10  1  0.001709  0.265166  0.250000  1
  Sb  Sb11  1  0.998291  0.734834  0.750000  1
  Sb  Sb12  1  0.736543  0.734834  0.250000  1
  Sb  Sb13  1  0.263457  0.265166  0.750000  1
  Sb  Sb14  1  0.332495  0.664990  0.000000  1
  Sb  Sb15  1  0.667505  0.335010  0.000000  1
  Sb  Sb16  1  0.667505  0.335010  0.500000  1
  Sb  Sb17  1  0.332495  0.664990  0.500000  1
