# generated using pymatgen
data_Ho5Er3(BCl6)2
_symmetry_space_group_name_H-M   'P 1'
_cell_length_a   3.83312600
_cell_length_b   12.58544215
_cell_length_c   13.05046415
_cell_angle_alpha   89.98252237
_cell_angle_beta   90.00000000
_cell_angle_gamma   90.00000000
_symmetry_Int_Tables_number   1
_chemical_formula_structural   Ho5Er3(BCl6)2
_chemical_formula_sum   'Ho5 Er3 B2 Cl12'
_cell_volume   629.57505307
_cell_formula_units_Z   1
loop_
 _symmetry_equiv_pos_site_id
 _symmetry_equiv_pos_as_xyz
  1  'x, y, z'
loop_
 _atom_site_type_symbol
 _atom_site_label
 _atom_site_symmetry_multiplicity
 _atom_site_fract_x
 _atom_site_fract_y
 _atom_site_fract_z
 _atom_site_occupancy
  Ho  Ho0  1  0.000000  0.105871  0.083888  1
  Ho  Ho1  1  0.500000  0.126012  0.851665  1
  Ho  Ho2  1  0.500000  0.873870  0.148236  1
  Ho  Ho3  1  0.500000  0.626018  0.648241  1
  Ho  Ho4  1  0.500000  0.373944  0.351726  1
  Er  Er5  1  0.000000  0.894319  0.916250  1
  Er  Er6  1  0.000000  0.605535  0.416363  1
  Er  Er7  1  0.000000  0.394454  0.583616  1
  B  B8  1  0.500000  0.999739  0.999795  1
  B  B9  1  0.500000  0.500007  0.500014  1
  Cl  Cl10  1  0.500000  0.268332  0.682009  1
  Cl  Cl11  1  0.500000  0.731657  0.317990  1
  Cl  Cl12  1  0.500000  0.768280  0.817943  1
  Cl  Cl13  1  0.500000  0.232120  0.182380  1
  Cl  Cl14  1  0.000000  0.256732  0.929744  1
  Cl  Cl15  1  0.000000  0.743382  0.069968  1
  Cl  Cl16  1  0.000000  0.478885  0.243550  1
  Cl  Cl17  1  0.000000  0.521121  0.756452  1
  Cl  Cl18  1  0.000000  0.978606  0.256686  1
  Cl  Cl19  1  0.000000  0.021110  0.743485  1
  Cl  Cl20  1  0.000000  0.243446  0.430042  1
  Cl  Cl21  1  0.000000  0.756560  0.569956  1
