# generated using pymatgen
data_ErTm7(SiI6)2
_symmetry_space_group_name_H-M   'P 1'
_cell_length_a   4.18124000
_cell_length_b   13.83336718
_cell_length_c   14.61955419
_cell_angle_alpha   90.01858196
_cell_angle_beta   90.00000000
_cell_angle_gamma   90.00000000
_symmetry_Int_Tables_number   1
_chemical_formula_structural   ErTm7(SiI6)2
_chemical_formula_sum   'Er1 Tm7 Si2 I12'
_cell_volume   845.60415395
_cell_formula_units_Z   1
loop_
 _symmetry_equiv_pos_site_id
 _symmetry_equiv_pos_as_xyz
  1  'x, y, z'
loop_
 _atom_site_type_symbol
 _atom_site_label
 _atom_site_symmetry_multiplicity
 _atom_site_fract_x
 _atom_site_fract_y
 _atom_site_fract_z
 _atom_site_occupancy
  Er  Er0  1  0.500000  0.114063  0.347960  1
  Tm  Tm1  1  0.500000  0.886176  0.652079  1
  Tm  Tm2  1  0.500000  0.613696  0.151920  1
  Tm  Tm3  1  0.500000  0.386304  0.848071  1
  Tm  Tm4  1  0.000000  0.109396  0.573402  1
  Tm  Tm5  1  0.000000  0.890662  0.426488  1
  Tm  Tm6  1  0.000000  0.609316  0.926575  1
  Tm  Tm7  1  0.000000  0.390712  0.073364  1
  Si  Si8  1  0.500000  0.999784  0.500288  1
  Si  Si9  1  0.500000  0.500021  0.999979  1
  I  I10  1  0.500000  0.248262  0.162492  1
  I  I11  1  0.500000  0.751953  0.837164  1
  I  I12  1  0.500000  0.747924  0.337156  1
  I  I13  1  0.500000  0.251962  0.662970  1
  I  I14  1  0.000000  0.259139  0.415283  1
  I  I15  1  0.000000  0.741565  0.585320  1
  I  I16  1  0.000000  0.758352  0.085310  1
  I  I17  1  0.000000  0.241605  0.914618  1
  I  I18  1  0.000000  0.999192  0.239933  1
  I  I19  1  0.000000  0.999921  0.759652  1
  I  I20  1  0.000000  0.500088  0.259602  1
  I  I21  1  0.000000  0.499907  0.740374  1
