# generated using pymatgen
data_Tb2Ho8Cd6InHgPd4
_symmetry_space_group_name_H-M   'P 1'
_cell_length_a   3.62586900
_cell_length_b   7.97452264
_cell_length_c   18.37967900
_cell_angle_alpha   89.73916017
_cell_angle_beta   90.00000000
_cell_angle_gamma   90.00000000
_symmetry_Int_Tables_number   1
_chemical_formula_structural   Tb2Ho8Cd6InHgPd4
_chemical_formula_sum   'Tb2 Ho8 Cd6 In1 Hg1 Pd4'
_cell_volume   531.43508913
_cell_formula_units_Z   1
loop_
 _symmetry_equiv_pos_site_id
 _symmetry_equiv_pos_as_xyz
  1  'x, y, z'
loop_
 _atom_site_type_symbol
 _atom_site_label
 _atom_site_symmetry_multiplicity
 _atom_site_fract_x
 _atom_site_fract_y
 _atom_site_fract_z
 _atom_site_occupancy
  Tb  Tb0  1  0.000000  0.498005  0.500459  1
  Tb  Tb1  1  0.000000  0.999151  0.998283  1
  Ho  Ho2  1  0.000000  0.740535  0.280951  1
  Ho  Ho3  1  0.000000  0.259315  0.718305  1
  Ho  Ho4  1  0.000000  0.757277  0.782045  1
  Ho  Ho5  1  0.000000  0.242178  0.219258  1
  Ho  Ho6  1  0.000000  0.614560  0.083794  1
  Ho  Ho7  1  0.000000  0.389557  0.916295  1
  Ho  Ho8  1  0.000000  0.885371  0.583800  1
  Ho  Ho9  1  0.000000  0.113964  0.416075  1
  Cd  Cd10  1  0.500000  0.286548  0.068641  1
  Cd  Cd11  1  0.500000  0.785674  0.431729  1
  Cd  Cd12  1  0.500000  0.211820  0.568608  1
  Cd  Cd13  1  0.500000  0.576164  0.648418  1
  Cd  Cd14  1  0.500000  0.425345  0.351489  1
  Cd  Cd15  1  0.500000  0.926076  0.148774  1
  In  In16  1  0.500000  0.077250  0.850158  1
  Hg  Hg17  1  0.500000  0.713138  0.933034  1
  Pd  Pd18  1  0.500000  0.526579  0.195560  1
  Pd  Pd19  1  0.500000  0.471774  0.803540  1
  Pd  Pd20  1  0.500000  0.973162  0.696229  1
  Pd  Pd21  1  0.500000  0.026554  0.304560  1
