# generated using pymatgen
data_EuCo3P3Rh2
_symmetry_space_group_name_H-M   'P 1'
_cell_length_a   3.75913500
_cell_length_b   10.55298700
_cell_length_c   12.13470400
_cell_angle_alpha   90.00000000
_cell_angle_beta   90.00000000
_cell_angle_gamma   90.00000000
_symmetry_Int_Tables_number   1
_chemical_formula_structural   EuCo3P3Rh2
_chemical_formula_sum   'Eu4 Co12 P12 Rh8'
_cell_volume   481.38495496
_cell_formula_units_Z   4
loop_
 _symmetry_equiv_pos_site_id
 _symmetry_equiv_pos_as_xyz
  1  'x, y, z'
loop_
 _atom_site_type_symbol
 _atom_site_label
 _atom_site_symmetry_multiplicity
 _atom_site_fract_x
 _atom_site_fract_y
 _atom_site_fract_z
 _atom_site_occupancy
  Eu  Eu0  1  0.250000  0.585440  0.709281  1
  Eu  Eu1  1  0.250000  0.914560  0.209281  1
  Eu  Eu2  1  0.750000  0.414560  0.290719  1
  Eu  Eu3  1  0.750000  0.085440  0.790719  1
  Co  Co4  1  0.250000  0.220043  0.177617  1
  Co  Co5  1  0.250000  0.279957  0.677617  1
  Co  Co6  1  0.750000  0.779957  0.822383  1
  Co  Co7  1  0.750000  0.720043  0.322383  1
  Co  Co8  1  0.250000  0.881940  0.696353  1
  Co  Co9  1  0.250000  0.618060  0.196353  1
  Co  Co10  1  0.750000  0.118060  0.303647  1
  Co  Co11  1  0.750000  0.381940  0.803647  1
  Co  Co12  1  0.250000  0.463403  0.933008  1
  Co  Co13  1  0.250000  0.036597  0.433008  1
  Co  Co14  1  0.750000  0.536597  0.066992  1
  Co  Co15  1  0.750000  0.963403  0.566992  1
  P  P16  1  0.250000  0.422696  0.110233  1
  P  P17  1  0.250000  0.077304  0.610233  1
  P  P18  1  0.750000  0.577304  0.889767  1
  P  P19  1  0.750000  0.922696  0.389767  1
  P  P20  1  0.250000  0.277191  0.862510  1
  P  P21  1  0.250000  0.222809  0.362510  1
  P  P22  1  0.750000  0.722809  0.137490  1
  P  P23  1  0.750000  0.777191  0.637490  1
  P  P24  1  0.250000  0.605801  0.380145  1
  P  P25  1  0.250000  0.894199  0.880145  1
  P  P26  1  0.750000  0.394199  0.619855  1
  P  P27  1  0.750000  0.105801  0.119855  1
  Rh  Rh28  1  0.250000  0.711365  0.986674  1
  Rh  Rh29  1  0.250000  0.788635  0.486674  1
  Rh  Rh30  1  0.750000  0.288635  0.013326  1
  Rh  Rh31  1  0.750000  0.211365  0.513326  1
  Rh  Rh32  1  0.250000  0.405668  0.485084  1
  Rh  Rh33  1  0.250000  0.094332  0.985084  1
  Rh  Rh34  1  0.750000  0.594332  0.514916  1
  Rh  Rh35  1  0.750000  0.905668  0.014916  1
