# generated using pymatgen
data_Cr2Pb(SeO3)4
_symmetry_space_group_name_H-M   'P 1'
_cell_length_a   6.93477807
_cell_length_b   9.37131866
_cell_length_c   9.29224906
_cell_angle_alpha   68.62318071
_cell_angle_beta   95.70052167
_cell_angle_gamma   89.77858516
_symmetry_Int_Tables_number   1
_chemical_formula_structural   Cr2Pb(SeO3)4
_chemical_formula_sum   'Cr4 Pb2 Se8 O24'
_cell_volume   559.03517600
_cell_formula_units_Z   2
loop_
 _symmetry_equiv_pos_site_id
 _symmetry_equiv_pos_as_xyz
  1  'x, y, z'
loop_
 _atom_site_type_symbol
 _atom_site_label
 _atom_site_symmetry_multiplicity
 _atom_site_fract_x
 _atom_site_fract_y
 _atom_site_fract_z
 _atom_site_occupancy
  Cr  Cr0  1  0.000197  0.750006  0.751148  1
  Cr  Cr1  1  0.499971  0.749643  0.249388  1
  Cr  Cr2  1  0.000198  0.250008  0.251086  1
  Cr  Cr3  1  0.500133  0.249629  0.749386  1
  Pb  Pb4  1  0.007817  0.531689  0.480409  1
  Pb  Pb5  1  0.007850  0.031725  0.980386  1
  Se  Se6  1  0.552785  0.128484  0.132484  1
  Se  Se7  1  0.552816  0.628465  0.632512  1
  Se  Se8  1  0.447881  0.871241  0.868328  1
  Se  Se9  1  0.447845  0.371257  0.368290  1
  Se  Se10  1  0.798159  0.097666  0.576812  1
  Se  Se11  1  0.798104  0.597700  0.076878  1
  Se  Se12  1  0.200865  0.904456  0.421378  1
  Se  Se13  1  0.200916  0.404426  0.921320  1
  O  O14  1  0.714250  0.725074  0.711359  1
  O  O15  1  0.714246  0.225051  0.211334  1
  O  O16  1  0.286732  0.274169  0.289053  1
  O  O17  1  0.286740  0.774183  0.789110  1
  O  O18  1  0.990014  0.183680  0.479729  1
  O  O19  1  0.989999  0.683700  0.979789  1
  O  O20  1  0.011306  0.812366  0.520205  1
  O  O21  1  0.011305  0.312350  0.020143  1
  O  O22  1  0.652720  0.625077  0.465229  1
  O  O23  1  0.652832  0.125035  0.965246  1
  O  O24  1  0.348578  0.375334  0.534788  1
  O  O25  1  0.348472  0.875408  0.034774  1
  O  O26  1  0.926850  0.962346  0.742081  1
  O  O27  1  0.926886  0.462314  0.242071  1
  O  O28  1  0.071947  0.036991  0.256567  1
  O  O29  1  0.071929  0.537029  0.756578  1
  O  O30  1  0.594089  0.944516  0.267619  1
  O  O31  1  0.594169  0.444493  0.767625  1
  O  O32  1  0.400377  0.055414  0.734276  1
  O  O33  1  0.400294  0.555435  0.234259  1
  O  O34  1  0.750638  0.232976  0.658455  1
  O  O35  1  0.750449  0.732950  0.158522  1
  O  O36  1  0.250637  0.763445  0.346622  1
  O  O37  1  0.250802  0.263466  0.846560  1
