# generated using pymatgen
data_Hf3Zr2Sn3As
_symmetry_space_group_name_H-M   'P 1'
_cell_length_a   8.65129156
_cell_length_b   8.65669990
_cell_length_c   5.92447400
_cell_angle_alpha   90.00000000
_cell_angle_beta   90.00000000
_cell_angle_gamma   120.02068338
_symmetry_Int_Tables_number   1
_chemical_formula_structural   Hf3Zr2Sn3As
_chemical_formula_sum   'Hf6 Zr4 Sn6 As2'
_cell_volume   384.16976988
_cell_formula_units_Z   2
loop_
 _symmetry_equiv_pos_site_id
 _symmetry_equiv_pos_as_xyz
  1  'x, y, z'
loop_
 _atom_site_type_symbol
 _atom_site_label
 _atom_site_symmetry_multiplicity
 _atom_site_fract_x
 _atom_site_fract_y
 _atom_site_fract_z
 _atom_site_occupancy
  Hf  Hf0  1  0.666434  0.333549  0.999836  1
  Hf  Hf1  1  0.333566  0.667116  0.999836  1
  Hf  Hf2  1  0.333566  0.667116  0.500164  1
  Hf  Hf3  1  0.666434  0.333549  0.500164  1
  Hf  Hf4  1  0.736541  0.736893  0.750000  1
  Hf  Hf5  1  0.263459  0.000352  0.750000  1
  Zr  Zr6  1  0.000000  0.263611  0.750000  1
  Zr  Zr7  1  0.262209  0.261754  0.250000  1
  Zr  Zr8  1  0.737791  0.999544  0.250000  1
  Zr  Zr9  1  0.000000  0.737368  0.250000  1
  Sn  Sn10  1  0.395825  0.395751  0.750000  1
  Sn  Sn11  1  0.604175  0.999926  0.750000  1
  Sn  Sn12  1  0.000000  0.605562  0.750000  1
  Sn  Sn13  1  0.604385  0.604450  0.250000  1
  Sn  Sn14  1  0.395615  0.000065  0.250000  1
  Sn  Sn15  1  0.000000  0.395447  0.250000  1
  As  As16  1  0.000000  0.998974  0.997655  1
  As  As17  1  0.000000  0.998974  0.502345  1
