# generated using pymatgen
data_Zr6InBiAs
_symmetry_space_group_name_H-M   'P 1'
_cell_length_a   7.77013600
_cell_length_b   7.77013586
_cell_length_c   3.88208500
_cell_angle_alpha   90.00000000
_cell_angle_beta   90.00000000
_cell_angle_gamma   120.00000062
_symmetry_Int_Tables_number   1
_chemical_formula_structural   Zr6InBiAs
_chemical_formula_sum   'Zr6 In1 Bi1 As1'
_cell_volume   202.97983808
_cell_formula_units_Z   1
loop_
 _symmetry_equiv_pos_site_id
 _symmetry_equiv_pos_as_xyz
  1  'x, y, z'
loop_
 _atom_site_type_symbol
 _atom_site_label
 _atom_site_symmetry_multiplicity
 _atom_site_fract_x
 _atom_site_fract_y
 _atom_site_fract_z
 _atom_site_occupancy
  Zr  Zr0  1  0.383253  0.384405  0.500000  1
  Zr  Zr1  1  0.615595  0.998848  0.500000  1
  Zr  Zr2  1  0.001152  0.616747  0.500000  1
  Zr  Zr3  1  0.756872  0.751247  0.000000  1
  Zr  Zr4  1  0.248753  0.005625  0.000000  1
  Zr  Zr5  1  0.994375  0.243128  0.000000  1
  In  In6  1  0.666667  0.333333  0.000000  1
  Bi  Bi7  1  0.333333  0.666667  0.000000  1
  As  As8  1  0.000000  0.000000  0.500000  1
