# generated using pymatgen
data_PrSn6IrRu3
_symmetry_space_group_name_H-M   'P 1'
_cell_length_a   6.96962074
_cell_length_b   6.97898730
_cell_length_c   6.97898656
_cell_angle_alpha   89.91009560
_cell_angle_beta   119.97815899
_cell_angle_gamma   119.97815936
_symmetry_Int_Tables_number   1
_chemical_formula_structural   PrSn6IrRu3
_chemical_formula_sum   'Pr1 Sn6 Ir1 Ru3'
_cell_volume   240.38308766
_cell_formula_units_Z   1
loop_
 _symmetry_equiv_pos_site_id
 _symmetry_equiv_pos_as_xyz
  1  'x, y, z'
loop_
 _atom_site_type_symbol
 _atom_site_label
 _atom_site_symmetry_multiplicity
 _atom_site_fract_x
 _atom_site_fract_y
 _atom_site_fract_z
 _atom_site_occupancy
  Pr  Pr0  1  0.999101  0.000128  0.000128  1
  Sn  Sn1  1  0.651062  0.122443  0.122443  1
  Sn  Sn2  1  0.350082  0.468464  0.468464  1
  Sn  Sn3  1  0.995762  0.880583  0.525535  1
  Sn  Sn4  1  0.995762  0.525535  0.880583  1
  Sn  Sn5  1  0.499090  0.495287  0.999755  1
  Sn  Sn6  1  0.499090  0.999755  0.495287  1
  Ir  Ir7  1  0.350225  0.754464  0.754464  1
  Ru  Ru8  1  0.656179  0.407126  0.407126  1
  Ru  Ru9  1  0.001825  0.251873  0.594343  1
  Ru  Ru10  1  0.001825  0.594343  0.251873  1
