# generated using pymatgen
data_Ac2Al7Ag
_symmetry_space_group_name_H-M   'P 1'
_cell_length_a   6.34884046
_cell_length_b   6.34808580
_cell_length_c   12.02705368
_cell_angle_alpha   74.69788456
_cell_angle_beta   74.69602226
_cell_angle_gamma   90.00000074
_symmetry_Int_Tables_number   1
_chemical_formula_structural   Ac2Al7Ag
_chemical_formula_sum   'Ac4 Al14 Ag2'
_cell_volume   449.69628126
_cell_formula_units_Z   2
loop_
 _symmetry_equiv_pos_site_id
 _symmetry_equiv_pos_as_xyz
  1  'x, y, z'
loop_
 _atom_site_type_symbol
 _atom_site_label
 _atom_site_symmetry_multiplicity
 _atom_site_fract_x
 _atom_site_fract_y
 _atom_site_fract_z
 _atom_site_occupancy
  Ac  Ac0  1  0.999765  0.999765  0.000470  1
  Ac  Ac1  1  0.500063  0.500063  0.999874  1
  Ac  Ac2  1  0.750052  0.250052  0.499895  1
  Ac  Ac3  1  0.249829  0.749829  0.500343  1
  Al  Al4  1  0.195667  0.195667  0.608667  1
  Al  Al5  1  0.808281  0.808281  0.383439  1
  Al  Al6  1  0.622483  0.121608  0.249689  1
  Al  Al7  1  0.127826  0.628702  0.249689  1
  Al  Al8  1  0.622483  0.628702  0.249689  1
  Al  Al9  1  0.127826  0.121608  0.249689  1
  Al  Al10  1  0.879053  0.371224  0.749642  1
  Al  Al11  1  0.371305  0.879133  0.749642  1
  Al  Al12  1  0.879053  0.879133  0.749642  1
  Al  Al13  1  0.371305  0.371224  0.749642  1
  Al  Al14  1  0.690826  0.690826  0.618348  1
  Al  Al15  1  0.058636  0.558636  0.882726  1
  Al  Al16  1  0.445239  0.945239  0.109519  1
  Al  Al17  1  0.941216  0.441216  0.117567  1
  Ag  Ag18  1  0.312109  0.312109  0.375782  1
  Ag  Ag19  1  0.561810  0.061810  0.876382  1
