# generated using pymatgen
data_Er3MnFe3Co5P6
_symmetry_space_group_name_H-M   'P 1'
_cell_length_a   3.68250000
_cell_length_b   10.53937900
_cell_length_c   12.09208900
_cell_angle_alpha   90.00000000
_cell_angle_beta   90.00000000
_cell_angle_gamma   90.00000000
_symmetry_Int_Tables_number   1
_chemical_formula_structural   Er3MnFe3Co5P6
_chemical_formula_sum   'Er6 Mn2 Fe6 Co10 P12'
_cell_volume   469.30924842
_cell_formula_units_Z   2
loop_
 _symmetry_equiv_pos_site_id
 _symmetry_equiv_pos_as_xyz
  1  'x, y, z'
loop_
 _atom_site_type_symbol
 _atom_site_label
 _atom_site_symmetry_multiplicity
 _atom_site_fract_x
 _atom_site_fract_y
 _atom_site_fract_z
 _atom_site_occupancy
  Er  Er0  1  0.750000  0.250000  0.475751  1
  Er  Er1  1  0.250000  0.750000  0.524764  1
  Er  Er2  1  0.250000  0.929544  0.795243  1
  Er  Er3  1  0.250000  0.570456  0.795243  1
  Er  Er4  1  0.750000  0.070025  0.204804  1
  Er  Er5  1  0.750000  0.429975  0.204804  1
  Mn  Mn6  1  0.250000  0.250000  0.845422  1
  Mn  Mn7  1  0.750000  0.750000  0.154957  1
  Fe  Fe8  1  0.250000  0.416569  0.004250  1
  Fe  Fe9  1  0.250000  0.083431  0.004250  1
  Fe  Fe10  1  0.750000  0.583720  0.996192  1
  Fe  Fe11  1  0.750000  0.916280  0.996192  1
  Fe  Fe12  1  0.250000  0.453000  0.569535  1
  Fe  Fe13  1  0.250000  0.047000  0.569535  1
  Co  Co14  1  0.250000  0.250000  0.297477  1
  Co  Co15  1  0.750000  0.750000  0.701795  1
  Co  Co16  1  0.750000  0.250000  0.012046  1
  Co  Co17  1  0.250000  0.750000  0.987764  1
  Co  Co18  1  0.750000  0.547498  0.429212  1
  Co  Co19  1  0.750000  0.952502  0.429212  1
  Co  Co20  1  0.250000  0.870221  0.290506  1
  Co  Co21  1  0.250000  0.629779  0.290506  1
  Co  Co22  1  0.750000  0.130023  0.710112  1
  Co  Co23  1  0.750000  0.369977  0.710112  1
  P  P24  1  0.250000  0.250000  0.114542  1
  P  P25  1  0.750000  0.750000  0.885241  1
  P  P26  1  0.250000  0.250000  0.652034  1
  P  P27  1  0.750000  0.750000  0.346763  1
  P  P28  1  0.250000  0.439680  0.384415  1
  P  P29  1  0.250000  0.060320  0.384415  1
  P  P30  1  0.750000  0.558244  0.616369  1
  P  P31  1  0.750000  0.941756  0.616369  1
  P  P32  1  0.250000  0.906559  0.104973  1
  P  P33  1  0.250000  0.593441  0.104973  1
  P  P34  1  0.750000  0.093369  0.895111  1
  P  P35  1  0.750000  0.406631  0.895111  1
