# generated using pymatgen
data_La3Pr4Nd13Si16
_symmetry_space_group_name_H-M   'P 1'
_cell_length_a   7.91216932
_cell_length_b   7.91200186
_cell_length_c   15.31770706
_cell_angle_alpha   90.04583977
_cell_angle_beta   89.96413884
_cell_angle_gamma   90.05913496
_symmetry_Int_Tables_number   1
_chemical_formula_structural   La3Pr4Nd13Si16
_chemical_formula_sum   'La3 Pr4 Nd13 Si16'
_cell_volume   958.90428198
_cell_formula_units_Z   1
loop_
 _symmetry_equiv_pos_site_id
 _symmetry_equiv_pos_as_xyz
  1  'x, y, z'
loop_
 _atom_site_type_symbol
 _atom_site_label
 _atom_site_symmetry_multiplicity
 _atom_site_fract_x
 _atom_site_fract_y
 _atom_site_fract_z
 _atom_site_occupancy
  La  La0  1  0.513094  0.122496  0.197340  1
  La  La1  1  0.486830  0.877582  0.697733  1
  La  La2  1  0.377539  0.012961  0.447427  1
  Pr  Pr3  1  0.012519  0.378634  0.552793  1
  Pr  Pr4  1  0.622144  0.987188  0.947758  1
  Pr  Pr5  1  0.121302  0.512853  0.803119  1
  Pr  Pr6  1  0.878303  0.487259  0.302392  1
  Nd  Nd7  1  0.373358  0.481104  0.373178  1
  Nd  Nd8  1  0.873273  0.018569  0.376392  1
  Nd  Nd9  1  0.980878  0.126226  0.123032  1
  Nd  Nd10  1  0.018855  0.873353  0.623329  1
  Nd  Nd11  1  0.627200  0.519896  0.873787  1
  Nd  Nd12  1  0.481185  0.373326  0.626696  1
  Nd  Nd13  1  0.519553  0.627255  0.126164  1
  Nd  Nd14  1  0.125962  0.981051  0.877027  1
  Nd  Nd15  1  0.988547  0.619625  0.053503  1
  Nd  Nd16  1  0.691669  0.691393  0.500100  1
  Nd  Nd17  1  0.808582  0.191927  0.750326  1
  Nd  Nd18  1  0.191233  0.807805  0.249842  1
  Nd  Nd19  1  0.308280  0.308648  0.000099  1
  Si  Si20  1  0.079309  0.713153  0.439341  1
  Si  Si21  1  0.921317  0.287788  0.939751  1
  Si  Si22  1  0.714246  0.080080  0.560323  1
  Si  Si23  1  0.212855  0.421386  0.189092  1
  Si  Si24  1  0.786495  0.578999  0.689521  1
  Si  Si25  1  0.420578  0.214002  0.810681  1
  Si  Si26  1  0.580190  0.785521  0.310064  1
  Si  Si27  1  0.285141  0.919737  0.060352  1
  Si  Si28  1  0.830830  0.806576  0.796195  1
  Si  Si29  1  0.168322  0.194582  0.295948  1
  Si  Si30  1  0.807257  0.829489  0.202810  1
  Si  Si31  1  0.305645  0.668563  0.546222  1
  Si  Si32  1  0.694966  0.332142  0.046446  1
  Si  Si33  1  0.669846  0.306358  0.453514  1
  Si  Si34  1  0.329002  0.692859  0.953975  1
  Si  Si35  1  0.193696  0.169613  0.703730  1
