# generated using pymatgen
data_Pr2NdSn2Hg3
_symmetry_space_group_name_H-M   'P 1'
_cell_length_a   6.49874913
_cell_length_b   6.49875063
_cell_length_c   10.81759800
_cell_angle_alpha   90.00000000
_cell_angle_beta   90.00000000
_cell_angle_gamma   101.72321647
_symmetry_Int_Tables_number   1
_chemical_formula_structural   Pr2NdSn2Hg3
_chemical_formula_sum   'Pr4 Nd2 Sn4 Hg6'
_cell_volume   447.33772507
_cell_formula_units_Z   2
loop_
 _symmetry_equiv_pos_site_id
 _symmetry_equiv_pos_as_xyz
  1  'x, y, z'
loop_
 _atom_site_type_symbol
 _atom_site_label
 _atom_site_symmetry_multiplicity
 _atom_site_fract_x
 _atom_site_fract_y
 _atom_site_fract_z
 _atom_site_occupancy
  Pr  Pr0  1  0.200434  0.799566  0.500000  1
  Pr  Pr1  1  0.200434  0.799566  0.000000  1
  Pr  Pr2  1  0.799566  0.200434  0.500000  1
  Pr  Pr3  1  0.799566  0.200434  0.000000  1
  Nd  Nd4  1  0.635445  0.635445  0.250000  1
  Nd  Nd5  1  0.364555  0.364555  0.750000  1
  Sn  Sn6  1  0.317457  0.317457  0.045785  1
  Sn  Sn7  1  0.682543  0.682543  0.954215  1
  Sn  Sn8  1  0.317457  0.317457  0.454215  1
  Sn  Sn9  1  0.682543  0.682543  0.545785  1
  Hg  Hg10  1  0.017402  0.017402  0.250000  1
  Hg  Hg11  1  0.982598  0.982598  0.750000  1
  Hg  Hg12  1  0.506704  0.079951  0.250000  1
  Hg  Hg13  1  0.920049  0.493296  0.750000  1
  Hg  Hg14  1  0.493296  0.920049  0.750000  1
  Hg  Hg15  1  0.079951  0.506704  0.250000  1
