# generated using pymatgen
data_Zr9TiCu2(SnBi2)2
_symmetry_space_group_name_H-M   'P 1'
_cell_length_a   8.76564498
_cell_length_b   8.76564503
_cell_length_c   5.87981308
_cell_angle_alpha   90.03458846
_cell_angle_beta   90.03459049
_cell_angle_gamma   120.24954774
_symmetry_Int_Tables_number   1
_chemical_formula_structural   Zr9TiCu2(SnBi2)2
_chemical_formula_sum   'Zr9 Ti1 Cu2 Sn2 Bi4'
_cell_volume   390.26895678
_cell_formula_units_Z   1
loop_
 _symmetry_equiv_pos_site_id
 _symmetry_equiv_pos_as_xyz
  1  'x, y, z'
loop_
 _atom_site_type_symbol
 _atom_site_label
 _atom_site_symmetry_multiplicity
 _atom_site_fract_x
 _atom_site_fract_y
 _atom_site_fract_z
 _atom_site_occupancy
  Zr  Zr0  1  0.263108  0.008671  0.746737  1
  Zr  Zr1  1  0.737812  0.994574  0.253090  1
  Zr  Zr2  1  0.005426  0.262188  0.746910  1
  Zr  Zr3  1  0.991329  0.736892  0.253263  1
  Zr  Zr4  1  0.737760  0.736390  0.746732  1
  Zr  Zr5  1  0.263610  0.262240  0.253268  1
  Zr  Zr6  1  0.335900  0.664100  0.500000  1
  Zr  Zr7  1  0.663956  0.336044  0.500000  1
  Zr  Zr8  1  0.664259  0.335741  0.000000  1
  Ti  Ti9  1  0.337304  0.662696  0.000000  1
  Cu  Cu10  1  0.999815  0.000185  0.500000  1
  Cu  Cu11  1  0.999827  0.000173  0.000000  1
  Sn  Sn12  1  0.388648  0.392574  0.755115  1
  Sn  Sn13  1  0.607426  0.611352  0.244885  1
  Bi  Bi14  1  0.612228  0.997331  0.754471  1
  Bi  Bi15  1  0.383065  0.994141  0.245384  1
  Bi  Bi16  1  0.005859  0.616935  0.754616  1
  Bi  Bi17  1  0.002669  0.387772  0.245529  1
