# generated using pymatgen
data_Nd2MnFe2Co9P7
_symmetry_space_group_name_H-M   'P 1'
_cell_length_a   9.10902141
_cell_length_b   9.11412719
_cell_length_c   3.65698600
_cell_angle_alpha   90.00000000
_cell_angle_beta   90.00000000
_cell_angle_gamma   120.08067106
_symmetry_Int_Tables_number   1
_chemical_formula_structural   Nd2MnFe2Co9P7
_chemical_formula_sum   'Nd2 Mn1 Fe2 Co9 P7'
_cell_volume   262.71636563
_cell_formula_units_Z   1
loop_
 _symmetry_equiv_pos_site_id
 _symmetry_equiv_pos_as_xyz
  1  'x, y, z'
loop_
 _atom_site_type_symbol
 _atom_site_label
 _atom_site_symmetry_multiplicity
 _atom_site_fract_x
 _atom_site_fract_y
 _atom_site_fract_z
 _atom_site_occupancy
  Nd  Nd0  1  0.664420  0.331277  0.000000  1
  Nd  Nd1  1  0.333990  0.666144  0.500000  1
  Mn  Mn2  1  0.099968  0.883613  0.500000  1
  Fe  Fe3  1  0.785198  0.907273  0.500000  1
  Fe  Fe4  1  0.120039  0.217048  0.500000  1
  Co  Co5  1  0.058065  0.628177  0.000000  1
  Co  Co6  1  0.572196  0.941765  0.000000  1
  Co  Co7  1  0.370429  0.428595  0.000000  1
  Co  Co8  1  0.270254  0.116454  0.000000  1
  Co  Co9  1  0.846104  0.727953  0.000000  1
  Co  Co10  1  0.881617  0.155484  0.000000  1
  Co  Co11  1  0.432553  0.048697  0.500000  1
  Co  Co12  1  0.617021  0.568598  0.500000  1
  Co  Co13  1  0.951404  0.383097  0.500000  1
  P  P14  1  0.300972  0.892851  0.000000  1
  P  P15  1  0.595334  0.702465  0.000000  1
  P  P16  1  0.108066  0.405013  0.000000  1
  P  P17  1  0.395622  0.290375  0.500000  1
  P  P18  1  0.889219  0.597159  0.500000  1
  P  P19  1  0.710163  0.106602  0.500000  1
  P  P20  1  0.997368  0.001359  0.000000  1
