# generated using pymatgen
data_Ba4In(ReO6)2
_symmetry_space_group_name_H-M   'P 1'
_cell_length_a   10.04525527
_cell_length_b   10.04525510
_cell_length_c   10.04525472
_cell_angle_alpha   33.89079466
_cell_angle_beta   33.89079684
_cell_angle_gamma   33.89079683
_symmetry_Int_Tables_number   1
_chemical_formula_structural   Ba4In(ReO6)2
_chemical_formula_sum   'Ba4 In1 Re2 O12'
_cell_volume   280.88526117
_cell_formula_units_Z   1
loop_
 _symmetry_equiv_pos_site_id
 _symmetry_equiv_pos_as_xyz
  1  'x, y, z'
loop_
 _atom_site_type_symbol
 _atom_site_label
 _atom_site_symmetry_multiplicity
 _atom_site_fract_x
 _atom_site_fract_y
 _atom_site_fract_z
 _atom_site_occupancy
  Ba  Ba0  1  0.709505  0.709505  0.709505  1
  Ba  Ba1  1  0.290495  0.290495  0.290495  1
  Ba  Ba2  1  0.867910  0.867910  0.867910  1
  Ba  Ba3  1  0.132090  0.132090  0.132090  1
  In  In4  1  0.000000  0.000000  0.000000  1
  Re  Re5  1  0.579312  0.579312  0.579312  1
  Re  Re6  1  0.420688  0.420688  0.420688  1
  O  O7  1  0.220547  0.690790  0.220547  1
  O  O8  1  0.220547  0.220547  0.690790  1
  O  O9  1  0.690790  0.220547  0.220547  1
  O  O10  1  0.779453  0.309210  0.779453  1
  O  O11  1  0.779453  0.779453  0.309210  1
  O  O12  1  0.309210  0.779453  0.779453  1
  O  O13  1  0.389263  0.858329  0.389263  1
  O  O14  1  0.389263  0.389263  0.858329  1
  O  O15  1  0.858329  0.389263  0.389263  1
  O  O16  1  0.610737  0.141671  0.610737  1
  O  O17  1  0.610737  0.610737  0.141671  1
  O  O18  1  0.141671  0.610737  0.610737  1
