# generated using pymatgen
data_DyTh3(Ni2Ag)2
_symmetry_space_group_name_H-M   'P 1'
_cell_length_a   7.42390186
_cell_length_b   7.42390277
_cell_length_c   3.69695400
_cell_angle_alpha   90.00000000
_cell_angle_beta   90.00000000
_cell_angle_gamma   90.93625593
_symmetry_Int_Tables_number   1
_chemical_formula_structural   DyTh3(Ni2Ag)2
_chemical_formula_sum   'Dy1 Th3 Ni4 Ag2'
_cell_volume   203.72792349
_cell_formula_units_Z   1
loop_
 _symmetry_equiv_pos_site_id
 _symmetry_equiv_pos_as_xyz
  1  'x, y, z'
loop_
 _atom_site_type_symbol
 _atom_site_label
 _atom_site_symmetry_multiplicity
 _atom_site_fract_x
 _atom_site_fract_y
 _atom_site_fract_z
 _atom_site_occupancy
  Dy  Dy0  1  0.824876  0.675124  0.500000  1
  Th  Th1  1  0.675953  0.174998  0.500000  1
  Th  Th2  1  0.325002  0.824047  0.500000  1
  Th  Th3  1  0.173138  0.326862  0.500000  1
  Ni  Ni4  1  0.879223  0.373669  0.000000  1
  Ni  Ni5  1  0.126331  0.620777  0.000000  1
  Ni  Ni6  1  0.374481  0.125519  0.000000  1
  Ni  Ni7  1  0.618330  0.881670  0.000000  1
  Ag  Ag8  1  0.508317  0.505650  0.000000  1
  Ag  Ag9  1  0.994350  0.991683  0.000000  1
