# generated using pymatgen
data_NaDy(IO3)4
_symmetry_space_group_name_H-M   'P 1'
_cell_length_a   5.21496300
_cell_length_b   7.35729088
_cell_length_c   16.10628201
_cell_angle_alpha   78.66336641
_cell_angle_beta   90.00000000
_cell_angle_gamma   90.00000000
_symmetry_Int_Tables_number   1
_chemical_formula_structural   NaDy(IO3)4
_chemical_formula_sum   'Na2 Dy2 I8 O24'
_cell_volume   605.90880029
_cell_formula_units_Z   2
loop_
 _symmetry_equiv_pos_site_id
 _symmetry_equiv_pos_as_xyz
  1  'x, y, z'
loop_
 _atom_site_type_symbol
 _atom_site_label
 _atom_site_symmetry_multiplicity
 _atom_site_fract_x
 _atom_site_fract_y
 _atom_site_fract_z
 _atom_site_occupancy
  Na  Na0  1  0.500000  0.500000  0.000000  1
  Na  Na1  1  0.000000  0.500000  0.500000  1
  Dy  Dy2  1  0.500000  0.000000  0.000000  1
  Dy  Dy3  1  0.000000  0.000000  0.500000  1
  I  I4  1  0.904036  0.663793  0.165940  1
  I  I5  1  0.404036  0.336207  0.334060  1
  I  I6  1  0.095964  0.336207  0.834060  1
  I  I7  1  0.595964  0.663793  0.665940  1
  I  I8  1  0.994003  0.185644  0.139297  1
  I  I9  1  0.494003  0.814356  0.360703  1
  I  I10  1  0.005997  0.814356  0.860703  1
  I  I11  1  0.505997  0.185644  0.639297  1
  O  O12  1  0.682344  0.741495  0.075244  1
  O  O13  1  0.182344  0.258505  0.424756  1
  O  O14  1  0.317656  0.258505  0.924756  1
  O  O15  1  0.817656  0.741495  0.575244  1
  O  O16  1  0.797451  0.827485  0.231176  1
  O  O17  1  0.297451  0.172515  0.268824  1
  O  O18  1  0.202549  0.172515  0.768824  1
  O  O19  1  0.702549  0.827485  0.731176  1
  O  O20  1  0.732134  0.448123  0.209107  1
  O  O21  1  0.232134  0.551877  0.290893  1
  O  O22  1  0.267866  0.551877  0.790893  1
  O  O23  1  0.767866  0.448123  0.709107  1
  O  O24  1  0.743496  0.198341  0.055861  1
  O  O25  1  0.243496  0.801659  0.444139  1
  O  O26  1  0.256504  0.801659  0.944139  1
  O  O27  1  0.756504  0.198341  0.555861  1
  O  O28  1  0.200615  0.010104  0.103786  1
  O  O29  1  0.700615  0.989896  0.396214  1
  O  O30  1  0.799385  0.989896  0.896214  1
  O  O31  1  0.299385  0.010104  0.603786  1
  O  O32  1  0.157571  0.398971  0.093949  1
  O  O33  1  0.657571  0.601029  0.406051  1
  O  O34  1  0.842429  0.601029  0.906051  1
  O  O35  1  0.342429  0.398971  0.593949  1
