# generated using pymatgen
data_Ce4Co3Si4Tc
_symmetry_space_group_name_H-M   'P 1'
_cell_length_a   7.30625545
_cell_length_b   4.33082900
_cell_length_c   6.60360300
_cell_angle_alpha   90.00000000
_cell_angle_beta   90.18344862
_cell_angle_gamma   90.00000000
_symmetry_Int_Tables_number   1
_chemical_formula_structural   Ce4Co3Si4Tc
_chemical_formula_sum   'Ce4 Co3 Si4 Tc1'
_cell_volume   208.95107930
_cell_formula_units_Z   1
loop_
 _symmetry_equiv_pos_site_id
 _symmetry_equiv_pos_as_xyz
  1  'x, y, z'
loop_
 _atom_site_type_symbol
 _atom_site_label
 _atom_site_symmetry_multiplicity
 _atom_site_fract_x
 _atom_site_fract_y
 _atom_site_fract_z
 _atom_site_occupancy
  Ce  Ce0  1  0.520710  0.250000  0.172996  1
  Ce  Ce1  1  0.022142  0.250000  0.338165  1
  Ce  Ce2  1  0.973767  0.749999  0.662516  1
  Ce  Ce3  1  0.475655  0.749999  0.824476  1
  Co  Co4  1  0.643108  0.749999  0.430539  1
  Co  Co5  1  0.365729  0.250000  0.573937  1
  Co  Co6  1  0.864397  0.250000  0.931957  1
  Si  Si7  1  0.805645  0.749999  0.110267  1
  Si  Si8  1  0.315822  0.749999  0.391915  1
  Si  Si9  1  0.687685  0.250000  0.614109  1
  Si  Si10  1  0.187092  0.250000  0.882965  1
  Tc  Tc11  1  0.138248  0.749999  0.066155  1
