# generated using pymatgen
data_Dy4Er16Cd6TcRu
_symmetry_space_group_name_H-M   'P 1'
_cell_length_a   9.50426202
_cell_length_b   9.50407781
_cell_length_c   9.83606600
_cell_angle_alpha   90.00000000
_cell_angle_beta   90.00000000
_cell_angle_gamma   119.99936475
_symmetry_Int_Tables_number   1
_chemical_formula_structural   Dy4Er16Cd6TcRu
_chemical_formula_sum   'Dy4 Er16 Cd6 Tc1 Ru1'
_cell_volume   769.45500672
_cell_formula_units_Z   1
loop_
 _symmetry_equiv_pos_site_id
 _symmetry_equiv_pos_as_xyz
  1  'x, y, z'
loop_
 _atom_site_type_symbol
 _atom_site_label
 _atom_site_symmetry_multiplicity
 _atom_site_fract_x
 _atom_site_fract_y
 _atom_site_fract_z
 _atom_site_occupancy
  Dy  Dy0  1  0.539580  0.460492  0.250000  1
  Dy  Dy1  1  0.539580  0.079087  0.250000  1
  Dy  Dy2  1  0.921023  0.460512  0.250000  1
  Dy  Dy3  1  0.082377  0.541189  0.750000  1
  Er  Er4  1  0.999885  0.999942  0.500178  1
  Er  Er5  1  0.999885  0.999942  0.999822  1
  Er  Er6  1  0.210304  0.790253  0.441826  1
  Er  Er7  1  0.210304  0.420050  0.441826  1
  Er  Er8  1  0.579784  0.789892  0.442076  1
  Er  Er9  1  0.789418  0.209829  0.559170  1
  Er  Er10  1  0.789418  0.579587  0.559170  1
  Er  Er11  1  0.420353  0.210176  0.559253  1
  Er  Er12  1  0.789418  0.209829  0.940830  1
  Er  Er13  1  0.789418  0.579587  0.940830  1
  Er  Er14  1  0.420353  0.210176  0.940747  1
  Er  Er15  1  0.210304  0.790253  0.058174  1
  Er  Er16  1  0.210304  0.420050  0.058174  1
  Er  Er17  1  0.579784  0.789892  0.057924  1
  Er  Er18  1  0.459553  0.540920  0.750000  1
  Er  Er19  1  0.459553  0.918634  0.750000  1
  Cd  Cd20  1  0.885834  0.114078  0.250000  1
  Cd  Cd21  1  0.885834  0.771757  0.250000  1
  Cd  Cd22  1  0.228180  0.114091  0.250000  1
  Cd  Cd23  1  0.114473  0.886171  0.750000  1
  Cd  Cd24  1  0.114473  0.228302  0.750000  1
  Cd  Cd25  1  0.771174  0.885587  0.750000  1
  Tc  Tc26  1  0.333153  0.666577  0.250000  1
  Ru  Ru27  1  0.666286  0.333142  0.750000  1
