# generated using pymatgen
data_Er4Tm8Co4RuPb
_symmetry_space_group_name_H-M   'P 1'
_cell_length_a   8.21617005
_cell_length_b   8.21616871
_cell_length_c   8.21616902
_cell_angle_alpha   110.81940231
_cell_angle_beta   111.36001043
_cell_angle_gamma   106.28107528
_symmetry_Int_Tables_number   1
_chemical_formula_structural   Er4Tm8Co4RuPb
_chemical_formula_sum   'Er4 Tm8 Co4 Ru1 Pb1'
_cell_volume   425.96332920
_cell_formula_units_Z   1
loop_
 _symmetry_equiv_pos_site_id
 _symmetry_equiv_pos_as_xyz
  1  'x, y, z'
loop_
 _atom_site_type_symbol
 _atom_site_label
 _atom_site_symmetry_multiplicity
 _atom_site_fract_x
 _atom_site_fract_y
 _atom_site_fract_z
 _atom_site_occupancy
  Er  Er0  1  0.285288  0.184432  0.469721  1
  Er  Er1  1  0.714712  0.815568  0.530279  1
  Er  Er2  1  0.285288  0.815568  0.100854  1
  Er  Er3  1  0.714712  0.184432  0.899146  1
  Tm  Tm4  1  0.619699  0.312071  0.307627  1
  Tm  Tm5  1  0.380301  0.687929  0.692373  1
  Tm  Tm6  1  0.004445  0.312071  0.692373  1
  Tm  Tm7  1  0.995555  0.687929  0.307627  1
  Tm  Tm8  1  0.214611  0.408914  0.194305  1
  Tm  Tm9  1  0.785389  0.591086  0.805695  1
  Tm  Tm10  1  0.214611  0.020307  0.805695  1
  Tm  Tm11  1  0.785389  0.979693  0.194305  1
  Co  Co12  1  0.000000  0.377711  0.377711  1
  Co  Co13  1  0.000000  0.622289  0.622289  1
  Co  Co14  1  0.388171  0.888171  0.500000  1
  Co  Co15  1  0.611829  0.111829  0.500000  1
  Ru  Ru16  1  0.000000  0.000000  0.000000  1
  Pb  Pb17  1  0.500000  0.500000  0.000000  1
