# generated using pymatgen
data_Y2NbPt9
_symmetry_space_group_name_H-M   'P 1'
_cell_length_a   4.08517000
_cell_length_b   4.08517000
_cell_length_c   12.28649700
_cell_angle_alpha   90.00000000
_cell_angle_beta   90.00000000
_cell_angle_gamma   90.00000000
_symmetry_Int_Tables_number   1
_chemical_formula_structural   Y2NbPt9
_chemical_formula_sum   'Y2 Nb1 Pt9'
_cell_volume   205.04460497
_cell_formula_units_Z   1
loop_
 _symmetry_equiv_pos_site_id
 _symmetry_equiv_pos_as_xyz
  1  'x, y, z'
loop_
 _atom_site_type_symbol
 _atom_site_label
 _atom_site_symmetry_multiplicity
 _atom_site_fract_x
 _atom_site_fract_y
 _atom_site_fract_z
 _atom_site_occupancy
  Y  Y0  1  0.000000  0.000000  0.332249  1
  Y  Y1  1  0.000000  0.000000  0.667751  1
  Nb  Nb2  1  0.000000  0.000000  0.000000  1
  Pt  Pt3  1  0.500000  0.500000  0.000000  1
  Pt  Pt4  1  0.500000  0.500000  0.327904  1
  Pt  Pt5  1  0.500000  0.500000  0.672096  1
  Pt  Pt6  1  0.500000  0.000000  0.154574  1
  Pt  Pt7  1  0.500000  0.000000  0.500000  1
  Pt  Pt8  1  0.500000  0.000000  0.845426  1
  Pt  Pt9  1  0.000000  0.500000  0.154574  1
  Pt  Pt10  1  0.000000  0.500000  0.500000  1
  Pt  Pt11  1  0.000000  0.500000  0.845426  1
