# generated using pymatgen
data_Be8V2MoIr
_symmetry_space_group_name_H-M   'P 1'
_cell_length_a   4.35724600
_cell_length_b   4.35724624
_cell_length_c   7.16074800
_cell_angle_alpha   90.00000000
_cell_angle_beta   90.00000000
_cell_angle_gamma   119.99999820
_symmetry_Int_Tables_number   1
_chemical_formula_structural   Be8V2MoIr
_chemical_formula_sum   'Be8 V2 Mo1 Ir1'
_cell_volume   117.73706716
_cell_formula_units_Z   1
loop_
 _symmetry_equiv_pos_site_id
 _symmetry_equiv_pos_as_xyz
  1  'x, y, z'
loop_
 _atom_site_type_symbol
 _atom_site_label
 _atom_site_symmetry_multiplicity
 _atom_site_fract_x
 _atom_site_fract_y
 _atom_site_fract_z
 _atom_site_occupancy
  Be  Be0  1  0.000000  0.000000  0.000249  1
  Be  Be1  1  0.000000  0.000000  0.495029  1
  Be  Be2  1  0.830194  0.660389  0.248057  1
  Be  Be3  1  0.168591  0.831409  0.752415  1
  Be  Be4  1  0.662818  0.831409  0.752415  1
  Be  Be5  1  0.339611  0.169806  0.248057  1
  Be  Be6  1  0.830194  0.169806  0.248057  1
  Be  Be7  1  0.168591  0.337182  0.752415  1
  V  V8  1  0.666667  0.333333  0.937975  1
  V  V9  1  0.333333  0.666667  0.437483  1
  Mo  Mo10  1  0.666667  0.333333  0.563543  1
  Ir  Ir11  1  0.333333  0.666667  0.064304  1
