# generated using pymatgen
data_Tm8MgSc10Si16Ru
_symmetry_space_group_name_H-M   'P 1'
_cell_length_a   6.91654383
_cell_length_b   7.29951040
_cell_length_c   13.82478600
_cell_angle_alpha   90.00000000
_cell_angle_beta   90.00000000
_cell_angle_gamma   90.01109622
_symmetry_Int_Tables_number   1
_chemical_formula_structural   Tm8MgSc10Si16Ru
_chemical_formula_sum   'Tm8 Mg1 Sc10 Si16 Ru1'
_cell_volume   697.97726101
_cell_formula_units_Z   1
loop_
 _symmetry_equiv_pos_site_id
 _symmetry_equiv_pos_as_xyz
  1  'x, y, z'
loop_
 _atom_site_type_symbol
 _atom_site_label
 _atom_site_symmetry_multiplicity
 _atom_site_fract_x
 _atom_site_fract_y
 _atom_site_fract_z
 _atom_site_occupancy
  Tm  Tm0  1  0.010981  0.182157  0.093471  1
  Tm  Tm1  1  0.992636  0.816977  0.901882  1
  Tm  Tm2  1  0.490022  0.673690  0.903478  1
  Tm  Tm3  1  0.992636  0.816977  0.598118  1
  Tm  Tm4  1  0.512846  0.324205  0.094226  1
  Tm  Tm5  1  0.010981  0.182157  0.406529  1
  Tm  Tm6  1  0.512846  0.324205  0.405774  1
  Tm  Tm7  1  0.490022  0.673690  0.596522  1
  Mg  Mg8  1  0.841920  0.493842  0.250000  1
  Sc  Sc9  1  0.342662  0.003482  0.250000  1
  Sc  Sc10  1  0.656813  0.995010  0.750000  1
  Sc  Sc11  1  0.325808  0.177045  0.627312  1
  Sc  Sc12  1  0.673866  0.822052  0.374901  1
  Sc  Sc13  1  0.169945  0.672389  0.376549  1
  Sc  Sc14  1  0.673866  0.822052  0.125099  1
  Sc  Sc15  1  0.825470  0.330173  0.628367  1
  Sc  Sc16  1  0.325808  0.177045  0.872688  1
  Sc  Sc17  1  0.825470  0.330173  0.871633  1
  Sc  Sc18  1  0.169945  0.672389  0.123451  1
  Si  Si19  1  0.027939  0.111565  0.750000  1
  Si  Si20  1  0.973618  0.898118  0.250000  1
  Si  Si21  1  0.465046  0.614338  0.250000  1
  Si  Si22  1  0.514739  0.398724  0.750000  1
  Si  Si23  1  0.283959  0.858674  0.750000  1
  Si  Si24  1  0.713947  0.123818  0.250000  1
  Si  Si25  1  0.222448  0.369065  0.250000  1
  Si  Si26  1  0.794972  0.630796  0.750000  1
  Si  Si27  1  0.158563  0.464696  0.545686  1
  Si  Si28  1  0.840688  0.537705  0.466839  1
  Si  Si29  1  0.342586  0.966112  0.462828  1
  Si  Si30  1  0.840688  0.537705  0.033161  1
  Si  Si31  1  0.660628  0.033264  0.539269  1
  Si  Si32  1  0.158563  0.464696  0.954314  1
  Si  Si33  1  0.660628  0.033264  0.960731  1
  Si  Si34  1  0.342586  0.966112  0.037172  1
  Ru  Ru35  1  0.153854  0.501634  0.750000  1
