# generated using pymatgen
data_Dy3Ho5(InNi)2
_symmetry_space_group_name_H-M   'P 1'
_cell_length_a   9.56272976
_cell_length_b   9.57219133
_cell_length_c   9.57387893
_cell_angle_alpha   59.89938799
_cell_angle_beta   59.91193996
_cell_angle_gamma   59.88994858
_symmetry_Int_Tables_number   1
_chemical_formula_structural   Dy3Ho5(InNi)2
_chemical_formula_sum   'Dy6 Ho10 In4 Ni4'
_cell_volume   618.27824885
_cell_formula_units_Z   2
loop_
 _symmetry_equiv_pos_site_id
 _symmetry_equiv_pos_as_xyz
  1  'x, y, z'
loop_
 _atom_site_type_symbol
 _atom_site_label
 _atom_site_symmetry_multiplicity
 _atom_site_fract_x
 _atom_site_fract_y
 _atom_site_fract_z
 _atom_site_occupancy
  Dy  Dy0  1  0.346610  0.346731  0.346686  1
  Dy  Dy1  1  0.347117  0.347259  0.955676  1
  Dy  Dy2  1  0.347038  0.955615  0.347265  1
  Dy  Dy3  1  0.955952  0.346857  0.346930  1
  Dy  Dy4  1  0.812997  0.188168  0.188213  1
  Dy  Dy5  1  0.189203  0.812213  0.812189  1
  Ho  Ho6  1  0.188035  0.812702  0.188418  1
  Ho  Ho7  1  0.811873  0.189395  0.812080  1
  Ho  Ho8  1  0.188029  0.188349  0.812711  1
  Ho  Ho9  1  0.811853  0.812128  0.189382  1
  Ho  Ho10  1  0.937118  0.562963  0.562995  1
  Ho  Ho11  1  0.564039  0.937411  0.937454  1
  Ho  Ho12  1  0.562811  0.937322  0.562812  1
  Ho  Ho13  1  0.937771  0.563877  0.937735  1
  Ho  Ho14  1  0.562802  0.562763  0.937353  1
  Ho  Ho15  1  0.937831  0.937745  0.563814  1
  In  In16  1  0.583081  0.582966  0.582949  1
  In  In17  1  0.582002  0.582105  0.253001  1
  In  In18  1  0.581938  0.253112  0.582115  1
  In  In19  1  0.253325  0.581764  0.581828  1
  Ni  Ni20  1  0.142703  0.142489  0.142364  1
  Ni  Ni21  1  0.141354  0.141384  0.573478  1
  Ni  Ni22  1  0.141278  0.573449  0.141332  1
  Ni  Ni23  1  0.573240  0.141233  0.141222  1
