# generated using pymatgen
data_Lu4Ga2Sb4Rh7
_symmetry_space_group_name_H-M   'P 1'
_cell_length_a   7.44946373
_cell_length_b   7.44946253
_cell_length_c   7.43218570
_cell_angle_alpha   109.31653741
_cell_angle_beta   109.31654428
_cell_angle_gamma   109.87447139
_symmetry_Int_Tables_number   1
_chemical_formula_structural   Lu4Ga2Sb4Rh7
_chemical_formula_sum   'Lu4 Ga2 Sb4 Rh7'
_cell_volume   317.12468331
_cell_formula_units_Z   1
loop_
 _symmetry_equiv_pos_site_id
 _symmetry_equiv_pos_as_xyz
  1  'x, y, z'
loop_
 _atom_site_type_symbol
 _atom_site_label
 _atom_site_symmetry_multiplicity
 _atom_site_fract_x
 _atom_site_fract_y
 _atom_site_fract_z
 _atom_site_occupancy
  Lu  Lu0  1  0.531038  0.010258  0.000000  1
  Lu  Lu1  1  0.989742  0.468962  0.000000  1
  Lu  Lu2  1  0.990131  0.009869  0.500000  1
  Lu  Lu3  1  0.490131  0.509869  0.500000  1
  Ga  Ga4  1  0.002715  0.322165  0.324880  1
  Ga  Ga5  1  0.677835  0.997285  0.675120  1
  Sb  Sb6  1  0.689598  0.685305  0.000000  1
  Sb  Sb7  1  0.001792  0.686752  0.688545  1
  Sb  Sb8  1  0.313248  0.998208  0.311455  1
  Sb  Sb9  1  0.314695  0.310402  0.000000  1
  Rh  Rh10  1  0.988763  0.011237  0.000000  1
  Rh  Rh11  1  0.501846  0.751401  0.253247  1
  Rh  Rh12  1  0.753267  0.497251  0.250517  1
  Rh  Rh13  1  0.251926  0.748074  0.500000  1
  Rh  Rh14  1  0.248599  0.498154  0.746753  1
  Rh  Rh15  1  0.502749  0.246733  0.749483  1
  Rh  Rh16  1  0.751926  0.248074  0.500000  1
