# generated using pymatgen
data_TbY7Ti11Si16Ru
_symmetry_space_group_name_H-M   'P 1'
_cell_length_a   7.03534910
_cell_length_b   7.03549516
_cell_length_c   12.90660600
_cell_angle_alpha   90.02917439
_cell_angle_beta   89.96668522
_cell_angle_gamma   89.88072615
_symmetry_Int_Tables_number   1
_chemical_formula_structural   TbY7Ti11Si16Ru
_chemical_formula_sum   'Tb1 Y7 Ti11 Si16 Ru1'
_cell_volume   638.83882588
_cell_formula_units_Z   1
loop_
 _symmetry_equiv_pos_site_id
 _symmetry_equiv_pos_as_xyz
  1  'x, y, z'
loop_
 _atom_site_type_symbol
 _atom_site_label
 _atom_site_symmetry_multiplicity
 _atom_site_fract_x
 _atom_site_fract_y
 _atom_site_fract_z
 _atom_site_occupancy
  Tb  Tb0  1  0.998441  0.658545  0.031644  1
  Y  Y1  1  0.340227  0.004037  0.467417  1
  Y  Y2  1  0.496858  0.840780  0.718030  1
  Y  Y3  1  0.500315  0.159583  0.214960  1
  Y  Y4  1  0.840756  0.496850  0.281969  1
  Y  Y5  1  0.159567  0.500327  0.785015  1
  Y  Y6  1  0.658483  0.998487  0.968344  1
  Y  Y7  1  0.004037  0.340220  0.532593  1
  Ti  Ti8  1  0.175040  0.827517  0.248626  1
  Ti  Ti9  1  0.827507  0.175011  0.751341  1
  Ti  Ti10  1  0.673836  0.673847  0.500015  1
  Ti  Ti11  1  0.151083  0.004232  0.876067  1
  Ti  Ti12  1  0.492390  0.656296  0.125721  1
  Ti  Ti13  1  0.507322  0.348349  0.628086  1
  Ti  Ti14  1  0.656284  0.492407  0.874300  1
  Ti  Ti15  1  0.348393  0.507348  0.371947  1
  Ti  Ti16  1  0.847788  0.993499  0.375511  1
  Ti  Ti17  1  0.004329  0.151141  0.123958  1
  Ti  Ti18  1  0.993457  0.847765  0.624496  1
  Si  Si19  1  0.202265  0.130875  0.685767  1
  Si  Si20  1  0.373978  0.699220  0.934674  1
  Si  Si21  1  0.630256  0.296772  0.434880  1
  Si  Si22  1  0.699053  0.373814  0.065326  1
  Si  Si23  1  0.296787  0.630239  0.565163  1
  Si  Si24  1  0.796767  0.869762  0.184478  1
  Si  Si25  1  0.130886  0.202221  0.314234  1
  Si  Si26  1  0.869761  0.796888  0.815526  1
  Si  Si27  1  0.286890  0.953226  0.064544  1
  Si  Si28  1  0.546738  0.791938  0.315679  1
  Si  Si29  1  0.449936  0.209839  0.818107  1
  Si  Si30  1  0.791903  0.546815  0.684274  1
  Si  Si31  1  0.209935  0.449909  0.181930  1
  Si  Si32  1  0.708898  0.047848  0.565638  1
  Si  Si33  1  0.953163  0.286610  0.935404  1
  Si  Si34  1  0.047824  0.708918  0.434339  1
  Ru  Ru35  1  0.328847  0.328867  0.999998  1
