# generated using pymatgen
data_Pu3Pa(TcB4)4
_symmetry_space_group_name_H-M   'P 1'
_cell_length_a   3.60858000
_cell_length_b   5.97966142
_cell_length_c   11.57384780
_cell_angle_alpha   89.95726185
_cell_angle_beta   90.00000000
_cell_angle_gamma   90.00000000
_symmetry_Int_Tables_number   1
_chemical_formula_structural   Pu3Pa(TcB4)4
_chemical_formula_sum   'Pu3 Pa1 Tc4 B16'
_cell_volume   249.74142066
_cell_formula_units_Z   1
loop_
 _symmetry_equiv_pos_site_id
 _symmetry_equiv_pos_as_xyz
  1  'x, y, z'
loop_
 _atom_site_type_symbol
 _atom_site_label
 _atom_site_symmetry_multiplicity
 _atom_site_fract_x
 _atom_site_fract_y
 _atom_site_fract_z
 _atom_site_occupancy
  Pu  Pu0  1  0.000000  0.372727  0.651336  1
  Pu  Pu1  1  0.000000  0.126477  0.149042  1
  Pu  Pu2  1  0.000000  0.873063  0.849764  1
  Pa  Pa3  1  0.000000  0.626658  0.349796  1
  Tc  Tc4  1  0.000000  0.635530  0.091601  1
  Tc  Tc5  1  0.000000  0.364523  0.909348  1
  Tc  Tc6  1  0.000000  0.136739  0.407505  1
  Tc  Tc7  1  0.000000  0.862733  0.590687  1
  B  B8  1  0.500000  0.787646  0.186146  1
  B  B9  1  0.500000  0.212715  0.813883  1
  B  B10  1  0.500000  0.287880  0.313489  1
  B  B11  1  0.500000  0.712995  0.686764  1
  B  B12  1  0.500000  0.864267  0.031590  1
  B  B13  1  0.500000  0.135385  0.968432  1
  B  B14  1  0.500000  0.364980  0.468421  1
  B  B15  1  0.500000  0.635394  0.531630  1
  B  B16  1  0.500000  0.888203  0.453954  1
  B  B17  1  0.500000  0.114152  0.547466  1
  B  B18  1  0.500000  0.386021  0.046171  1
  B  B19  1  0.500000  0.613575  0.953029  1
  B  B20  1  0.500000  0.973429  0.308170  1
  B  B21  1  0.500000  0.025261  0.692240  1
  B  B22  1  0.500000  0.474945  0.191626  1
  B  B23  1  0.500000  0.524702  0.807907  1
