# generated using pymatgen
data_Er4PaPd15
_symmetry_space_group_name_H-M   'P 1'
_cell_length_a   4.11782500
_cell_length_b   4.11782500
_cell_length_c   20.53227200
_cell_angle_alpha   90.00000000
_cell_angle_beta   90.00000000
_cell_angle_gamma   90.00000000
_symmetry_Int_Tables_number   1
_chemical_formula_structural   Er4PaPd15
_chemical_formula_sum   'Er4 Pa1 Pd15'
_cell_volume   348.15511559
_cell_formula_units_Z   1
loop_
 _symmetry_equiv_pos_site_id
 _symmetry_equiv_pos_as_xyz
  1  'x, y, z'
loop_
 _atom_site_type_symbol
 _atom_site_label
 _atom_site_symmetry_multiplicity
 _atom_site_fract_x
 _atom_site_fract_y
 _atom_site_fract_z
 _atom_site_occupancy
  Er  Er0  1  0.000000  0.000000  0.203851  1
  Er  Er1  1  0.000000  0.000000  0.399374  1
  Er  Er2  1  0.000000  0.000000  0.600626  1
  Er  Er3  1  0.000000  0.000000  0.796149  1
  Pa  Pa4  1  0.000000  0.000000  0.000000  1
  Pd  Pd5  1  0.500000  0.500000  0.000000  1
  Pd  Pd6  1  0.500000  0.500000  0.197276  1
  Pd  Pd7  1  0.500000  0.500000  0.398812  1
  Pd  Pd8  1  0.500000  0.500000  0.601188  1
  Pd  Pd9  1  0.500000  0.500000  0.802724  1
  Pd  Pd10  1  0.500000  0.000000  0.097404  1
  Pd  Pd11  1  0.500000  0.000000  0.298372  1
  Pd  Pd12  1  0.500000  0.000000  0.500000  1
  Pd  Pd13  1  0.500000  0.000000  0.701628  1
  Pd  Pd14  1  0.500000  0.000000  0.902596  1
  Pd  Pd15  1  0.000000  0.500000  0.097404  1
  Pd  Pd16  1  0.000000  0.500000  0.298372  1
  Pd  Pd17  1  0.000000  0.500000  0.500000  1
  Pd  Pd18  1  0.000000  0.500000  0.701628  1
  Pd  Pd19  1  0.000000  0.500000  0.902596  1
