# generated using pymatgen
data_Ca2Ta3Co9As7
_symmetry_space_group_name_H-M   'P 1'
_cell_length_a   9.58645300
_cell_length_b   9.58645167
_cell_length_c   3.78650600
_cell_angle_alpha   90.00000000
_cell_angle_beta   90.00000000
_cell_angle_gamma   120.00000806
_symmetry_Int_Tables_number   1
_chemical_formula_structural   Ca2Ta3Co9As7
_chemical_formula_sum   'Ca2 Ta3 Co9 As7'
_cell_volume   301.35963420
_cell_formula_units_Z   1
loop_
 _symmetry_equiv_pos_site_id
 _symmetry_equiv_pos_as_xyz
  1  'x, y, z'
loop_
 _atom_site_type_symbol
 _atom_site_label
 _atom_site_symmetry_multiplicity
 _atom_site_fract_x
 _atom_site_fract_y
 _atom_site_fract_z
 _atom_site_occupancy
  Ca  Ca0  1  0.333333  0.666667  0.000000  1
  Ca  Ca1  1  0.666667  0.333333  0.500000  1
  Ta  Ta2  1  0.224860  0.121120  0.500000  1
  Ta  Ta3  1  0.878880  0.103740  0.500000  1
  Ta  Ta4  1  0.896260  0.775140  0.500000  1
  Co  Co5  1  0.118862  0.276801  0.000000  1
  Co  Co6  1  0.723199  0.842061  0.000000  1
  Co  Co7  1  0.157939  0.881138  0.000000  1
  Co  Co8  1  0.423900  0.364226  0.000000  1
  Co  Co9  1  0.635774  0.059675  0.000000  1
  Co  Co10  1  0.940325  0.576100  0.000000  1
  Co  Co11  1  0.050063  0.433092  0.500000  1
  Co  Co12  1  0.566908  0.616971  0.500000  1
  Co  Co13  1  0.383029  0.949937  0.500000  1
  As  As14  1  0.292866  0.419845  0.500000  1
  As  As15  1  0.580155  0.873021  0.500000  1
  As  As16  1  0.126979  0.707134  0.500000  1
  As  As17  1  0.422442  0.112694  0.000000  1
  As  As18  1  0.887306  0.309748  0.000000  1
  As  As19  1  0.690252  0.577558  0.000000  1
  As  As20  1  0.000000  0.000000  0.000000  1
