# generated using pymatgen
data_Er4Tm4B24MoRh3
_symmetry_space_group_name_H-M   'P 1'
_cell_length_a   3.63970200
_cell_length_b   9.13113361
_cell_length_c   11.49986499
_cell_angle_alpha   90.22457516
_cell_angle_beta   90.00000000
_cell_angle_gamma   90.00000000
_symmetry_Int_Tables_number   1
_chemical_formula_structural   Er4Tm4B24MoRh3
_chemical_formula_sum   'Er4 Tm4 B24 Mo1 Rh3'
_cell_volume   382.19053769
_cell_formula_units_Z   1
loop_
 _symmetry_equiv_pos_site_id
 _symmetry_equiv_pos_as_xyz
  1  'x, y, z'
loop_
 _atom_site_type_symbol
 _atom_site_label
 _atom_site_symmetry_multiplicity
 _atom_site_fract_x
 _atom_site_fract_y
 _atom_site_fract_z
 _atom_site_occupancy
  Er  Er0  1  0.500000  0.318274  0.410897  1
  Er  Er1  1  0.500000  0.677270  0.584939  1
  Er  Er2  1  0.500000  0.179119  0.916869  1
  Er  Er3  1  0.500000  0.823668  0.086613  1
  Tm  Tm4  1  0.500000  0.444720  0.125812  1
  Tm  Tm5  1  0.500000  0.557484  0.871599  1
  Tm  Tm6  1  0.500000  0.056119  0.629034  1
  Tm  Tm7  1  0.500000  0.944756  0.373983  1
  B  B8  1  0.000000  0.105585  0.473130  1
  B  B9  1  0.000000  0.893026  0.530234  1
  B  B10  1  0.000000  0.396470  0.969486  1
  B  B11  1  0.000000  0.607662  0.028112  1
  B  B12  1  0.000000  0.131584  0.317507  1
  B  B13  1  0.000000  0.867199  0.683554  1
  B  B14  1  0.000000  0.369008  0.816360  1
  B  B15  1  0.000000  0.632538  0.183454  1
  B  B16  1  0.000000  0.051806  0.064589  1
  B  B17  1  0.000000  0.946532  0.933247  1
  B  B18  1  0.000000  0.444794  0.565215  1
  B  B19  1  0.000000  0.552929  0.433977  1
  B  B20  1  0.000000  0.482959  0.287124  1
  B  B21  1  0.000000  0.517614  0.711944  1
  B  B22  1  0.000000  0.017783  0.787545  1
  B  B23  1  0.000000  0.979428  0.214178  1
  B  B24  1  0.000000  0.251588  0.078522  1
  B  B25  1  0.000000  0.751114  0.919481  1
  B  B26  1  0.000000  0.249614  0.579495  1
  B  B27  1  0.000000  0.748951  0.421120  1
  B  B28  1  0.000000  0.295525  0.236217  1
  B  B29  1  0.000000  0.706182  0.763203  1
  B  B30  1  0.000000  0.207793  0.736441  1
  B  B31  1  0.000000  0.791921  0.265969  1
  Mo  Mo32  1  0.500000  0.138234  0.179414  1
  Rh  Rh33  1  0.500000  0.860917  0.820327  1
  Rh  Rh34  1  0.500000  0.361230  0.679102  1
  Rh  Rh35  1  0.500000  0.638605  0.321307  1
