# generated using pymatgen
data_NdTiCo4P3
_symmetry_space_group_name_H-M   'P 1'
_cell_length_a   3.70153200
_cell_length_b   10.59192600
_cell_length_c   12.06378000
_cell_angle_alpha   90.00000000
_cell_angle_beta   90.00000000
_cell_angle_gamma   90.00000000
_symmetry_Int_Tables_number   1
_chemical_formula_structural   NdTiCo4P3
_chemical_formula_sum   'Nd4 Ti4 Co16 P12'
_cell_volume   472.97681756
_cell_formula_units_Z   4
loop_
 _symmetry_equiv_pos_site_id
 _symmetry_equiv_pos_as_xyz
  1  'x, y, z'
loop_
 _atom_site_type_symbol
 _atom_site_label
 _atom_site_symmetry_multiplicity
 _atom_site_fract_x
 _atom_site_fract_y
 _atom_site_fract_z
 _atom_site_occupancy
  Nd  Nd0  1  0.250000  0.582321  0.704714  1
  Nd  Nd1  1  0.250000  0.917679  0.204714  1
  Nd  Nd2  1  0.750000  0.417679  0.295286  1
  Nd  Nd3  1  0.750000  0.082321  0.795286  1
  Ti  Ti4  1  0.250000  0.700568  0.991386  1
  Ti  Ti5  1  0.250000  0.799432  0.491386  1
  Ti  Ti6  1  0.750000  0.299432  0.008614  1
  Ti  Ti7  1  0.750000  0.200568  0.508614  1
  Co  Co8  1  0.250000  0.406278  0.491983  1
  Co  Co9  1  0.250000  0.093722  0.991983  1
  Co  Co10  1  0.750000  0.593722  0.508017  1
  Co  Co11  1  0.750000  0.906278  0.008017  1
  Co  Co12  1  0.250000  0.221806  0.174710  1
  Co  Co13  1  0.250000  0.278194  0.674710  1
  Co  Co14  1  0.750000  0.778194  0.825290  1
  Co  Co15  1  0.750000  0.721806  0.325290  1
  Co  Co16  1  0.250000  0.884576  0.699383  1
  Co  Co17  1  0.250000  0.615424  0.199383  1
  Co  Co18  1  0.750000  0.115424  0.300617  1
  Co  Co19  1  0.750000  0.384576  0.800617  1
  Co  Co20  1  0.250000  0.465317  0.933864  1
  Co  Co21  1  0.250000  0.034683  0.433864  1
  Co  Co22  1  0.750000  0.534683  0.066136  1
  Co  Co23  1  0.750000  0.965317  0.566136  1
  P  P24  1  0.250000  0.421513  0.113132  1
  P  P25  1  0.250000  0.078487  0.613132  1
  P  P26  1  0.750000  0.578487  0.886868  1
  P  P27  1  0.750000  0.921513  0.386868  1
  P  P28  1  0.250000  0.274358  0.861594  1
  P  P29  1  0.250000  0.225642  0.361594  1
  P  P30  1  0.750000  0.725642  0.138406  1
  P  P31  1  0.750000  0.774358  0.638406  1
  P  P32  1  0.250000  0.596477  0.392770  1
  P  P33  1  0.250000  0.903523  0.892770  1
  P  P34  1  0.750000  0.403523  0.607230  1
  P  P35  1  0.750000  0.096477  0.107230  1
