# generated using pymatgen
data_PmLuSi3Au
_symmetry_space_group_name_H-M   'P 1'
_cell_length_a   5.79251708
_cell_length_b   5.79571203
_cell_length_c   5.79571300
_cell_angle_alpha   138.69507862
_cell_angle_beta   105.40640887
_cell_angle_gamma   89.04115938
_symmetry_Int_Tables_number   1
_chemical_formula_structural   PmLuSi3Au
_chemical_formula_sum   'Pm1 Lu1 Si3 Au1'
_cell_volume   118.59484215
_cell_formula_units_Z   1
loop_
 _symmetry_equiv_pos_site_id
 _symmetry_equiv_pos_as_xyz
  1  'x, y, z'
loop_
 _atom_site_type_symbol
 _atom_site_label
 _atom_site_symmetry_multiplicity
 _atom_site_fract_x
 _atom_site_fract_y
 _atom_site_fract_z
 _atom_site_occupancy
  Pm  Pm0  1  0.000130  0.001720  0.998410  1
  Lu  Lu1  1  0.497494  0.497320  0.000174  1
  Si  Si2  1  0.084088  0.750697  0.333389  1
  Si  Si3  1  0.923210  0.250684  0.672527  1
  Si  Si4  1  0.418249  0.758071  0.660177  1
  Au  Au5  1  0.576828  0.241507  0.335322  1
