# generated using pymatgen
data_Yb2HoLu(Ga3Ir)6
_symmetry_space_group_name_H-M   'P 1'
_cell_length_a   7.53095971
_cell_length_b   7.53868768
_cell_length_c   9.57485900
_cell_angle_alpha   90.00000000
_cell_angle_beta   90.00000000
_cell_angle_gamma   119.68194904
_symmetry_Int_Tables_number   1
_chemical_formula_structural   Yb2HoLu(Ga3Ir)6
_chemical_formula_sum   'Yb2 Ho1 Lu1 Ga18 Ir6'
_cell_volume   472.27184868
_cell_formula_units_Z   1
loop_
 _symmetry_equiv_pos_site_id
 _symmetry_equiv_pos_as_xyz
  1  'x, y, z'
loop_
 _atom_site_type_symbol
 _atom_site_label
 _atom_site_symmetry_multiplicity
 _atom_site_fract_x
 _atom_site_fract_y
 _atom_site_fract_z
 _atom_site_occupancy
  Yb  Yb0  1  0.996671  0.668728  0.250000  1
  Yb  Yb1  1  0.003272  0.331282  0.750000  1
  Ho  Ho2  1  0.331608  0.002488  0.750000  1
  Lu  Lu3  1  0.668270  0.997550  0.250000  1
  Ga  Ga4  1  0.126394  0.127490  0.250000  1
  Ga  Ga5  1  0.872886  0.872092  0.750000  1
  Ga  Ga6  1  0.999155  0.334522  0.079632  1
  Ga  Ga7  1  0.000083  0.664671  0.921095  1
  Ga  Ga8  1  0.000083  0.664671  0.578905  1
  Ga  Ga9  1  0.333866  0.998591  0.419141  1
  Ga  Ga10  1  0.999155  0.334522  0.420368  1
  Ga  Ga11  1  0.666937  0.001460  0.579605  1
  Ga  Ga12  1  0.666937  0.001460  0.920395  1
  Ga  Ga13  1  0.333866  0.998591  0.080859  1
  Ga  Ga14  1  0.331899  0.332731  0.564356  1
  Ga  Ga15  1  0.668125  0.667924  0.434904  1
  Ga  Ga16  1  0.668125  0.667924  0.065096  1
  Ga  Ga17  1  0.331899  0.332731  0.935644  1
  Ga  Ga18  1  0.339323  0.547032  0.250000  1
  Ga  Ga19  1  0.661122  0.453698  0.750000  1
  Ga  Ga20  1  0.546841  0.338023  0.250000  1
  Ga  Ga21  1  0.453461  0.661818  0.750000  1
  Ir  Ir22  1  0.671549  0.328239  0.000511  1
  Ir  Ir23  1  0.328642  0.671799  0.000055  1
  Ir  Ir24  1  0.328642  0.671799  0.499945  1
  Ir  Ir25  1  0.671549  0.328239  0.499489  1
  Ir  Ir26  1  0.999820  0.999965  0.000239  1
  Ir  Ir27  1  0.999820  0.999965  0.499761  1
