# generated using pymatgen
data_ScPa3(GaFe)4
_symmetry_space_group_name_H-M   'P 1'
_cell_length_a   4.25625500
_cell_length_b   6.62804058
_cell_length_c   7.32818843
_cell_angle_alpha   91.01406070
_cell_angle_beta   90.00000000
_cell_angle_gamma   90.00000000
_symmetry_Int_Tables_number   1
_chemical_formula_structural   ScPa3(GaFe)4
_chemical_formula_sum   'Sc1 Pa3 Ga4 Fe4'
_cell_volume   206.70044038
_cell_formula_units_Z   1
loop_
 _symmetry_equiv_pos_site_id
 _symmetry_equiv_pos_as_xyz
  1  'x, y, z'
loop_
 _atom_site_type_symbol
 _atom_site_label
 _atom_site_symmetry_multiplicity
 _atom_site_fract_x
 _atom_site_fract_y
 _atom_site_fract_z
 _atom_site_occupancy
  Sc  Sc0  1  0.750000  0.456338  0.811710  1
  Pa  Pa1  1  0.250000  0.052067  0.320725  1
  Pa  Pa2  1  0.250000  0.537496  0.158417  1
  Pa  Pa3  1  0.750000  0.953482  0.672282  1
  Ga  Ga4  1  0.250000  0.151651  0.915766  1
  Ga  Ga5  1  0.250000  0.621848  0.581169  1
  Ga  Ga6  1  0.750000  0.861467  0.072151  1
  Ga  Ga7  1  0.750000  0.374493  0.433771  1
  Fe  Fe8  1  0.250000  0.227877  0.578604  1
  Fe  Fe9  1  0.250000  0.741040  0.923422  1
  Fe  Fe10  1  0.750000  0.768521  0.422894  1
  Fe  Fe11  1  0.750000  0.253719  0.109089  1
