# generated using pymatgen
data_Tb3Dy5(RuI4)2
_symmetry_space_group_name_H-M   'P 1'
_cell_length_a   11.67807226
_cell_length_b   11.67638978
_cell_length_c   6.19666900
_cell_angle_alpha   90.04331880
_cell_angle_beta   90.05439092
_cell_angle_gamma   89.96287686
_symmetry_Int_Tables_number   1
_chemical_formula_structural   Tb3Dy5(RuI4)2
_chemical_formula_sum   'Tb3 Dy5 Ru2 I8'
_cell_volume   844.96287980
_cell_formula_units_Z   1
loop_
 _symmetry_equiv_pos_site_id
 _symmetry_equiv_pos_as_xyz
  1  'x, y, z'
loop_
 _atom_site_type_symbol
 _atom_site_label
 _atom_site_symmetry_multiplicity
 _atom_site_fract_x
 _atom_site_fract_y
 _atom_site_fract_z
 _atom_site_occupancy
  Tb  Tb0  1  0.807058  0.079618  0.000856  1
  Tb  Tb1  1  0.079634  0.807001  0.500865  1
  Tb  Tb2  1  0.079198  0.192908  0.000912  1
  Dy  Dy3  1  0.191361  0.078376  0.501000  1
  Dy  Dy4  1  0.921329  0.808719  0.998935  1
  Dy  Dy5  1  0.921083  0.191235  0.498890  1
  Dy  Dy6  1  0.191378  0.921122  0.998919  1
  Dy  Dy7  1  0.808799  0.921237  0.498923  1
  Ru  Ru8  1  0.000166  0.999837  0.249937  1
  Ru  Ru9  1  0.999868  0.000125  0.749946  1
  I  I10  1  0.654355  0.143368  0.488533  1
  I  I11  1  0.855100  0.655538  0.506965  1
  I  I12  1  0.344883  0.144020  0.993055  1
  I  I13  1  0.144359  0.344318  0.493238  1
  I  I14  1  0.655561  0.855075  0.006945  1
  I  I15  1  0.346160  0.856910  0.511741  1
  I  I16  1  0.143418  0.654267  0.988530  1
  I  I17  1  0.856291  0.346326  0.011814  1
