# generated using pymatgen
data_PrHgO
_symmetry_space_group_name_H-M   'P 1'
_cell_length_a   4.09550000
_cell_length_b   4.09550000
_cell_length_c   8.05053200
_cell_angle_alpha   90.00000000
_cell_angle_beta   90.00000000
_cell_angle_gamma   90.00000000
_symmetry_Int_Tables_number   1
_chemical_formula_structural   PrHgO
_chemical_formula_sum   'Pr2 Hg2 O2'
_cell_volume   135.03254131
_cell_formula_units_Z   2
loop_
 _symmetry_equiv_pos_site_id
 _symmetry_equiv_pos_as_xyz
  1  'x, y, z'
loop_
 _atom_site_type_symbol
 _atom_site_label
 _atom_site_symmetry_multiplicity
 _atom_site_fract_x
 _atom_site_fract_y
 _atom_site_fract_z
 _atom_site_occupancy
  Pr  Pr0  1  0.000000  0.500000  0.854684  1
  Pr  Pr1  1  0.500000  0.000000  0.145316  1
  Hg  Hg2  1  0.500000  0.000000  0.591909  1
  Hg  Hg3  1  0.000000  0.500000  0.408091  1
  O  O4  1  0.000000  0.000000  0.000000  1
  O  O5  1  0.500000  0.500000  0.000000  1
