# generated using pymatgen
data_Er4Ga24Cu2Pd7
_symmetry_space_group_name_H-M   'P 1'
_cell_length_a   7.55859337
_cell_length_b   7.56173303
_cell_length_c   13.21364244
_cell_angle_alpha   84.76327819
_cell_angle_beta   79.04519274
_cell_angle_gamma   59.88289334
_symmetry_Int_Tables_number   1
_chemical_formula_structural   Er4Ga24Cu2Pd7
_chemical_formula_sum   'Er4 Ga24 Cu2 Pd7'
_cell_volume   641.37172703
_cell_formula_units_Z   1
loop_
 _symmetry_equiv_pos_site_id
 _symmetry_equiv_pos_as_xyz
  1  'x, y, z'
loop_
 _atom_site_type_symbol
 _atom_site_label
 _atom_site_symmetry_multiplicity
 _atom_site_fract_x
 _atom_site_fract_y
 _atom_site_fract_z
 _atom_site_occupancy
  Er  Er0  1  0.393788  0.168579  0.807570  1
  Er  Er1  1  0.606212  0.831421  0.192430  1
  Er  Er2  1  0.733297  0.498633  0.808089  1
  Er  Er3  1  0.266703  0.501367  0.191911  1
  Ga  Ga4  1  0.684330  0.833731  0.940438  1
  Ga  Ga5  1  0.315670  0.166269  0.059562  1
  Ga  Ga6  1  0.146067  0.834125  0.563008  1
  Ga  Ga7  1  0.853933  0.165875  0.436992  1
  Ga  Ga8  1  0.479739  0.167312  0.560064  1
  Ga  Ga9  1  0.520261  0.832688  0.439936  1
  Ga  Ga10  1  0.215028  0.169893  0.326066  1
  Ga  Ga11  1  0.784972  0.830107  0.673934  1
  Ga  Ga12  1  0.430540  0.506558  0.674085  1
  Ga  Ga13  1  0.569460  0.493442  0.325915  1
  Ga  Ga14  1  0.108706  0.166903  0.673825  1
  Ga  Ga15  1  0.891294  0.833097  0.326175  1
  Ga  Ga16  1  0.355847  0.498087  0.939915  1
  Ga  Ga17  1  0.644153  0.501913  0.060085  1
  Ga  Ga18  1  0.017533  0.169036  0.947314  1
  Ga  Ga19  1  0.982467  0.830964  0.052686  1
  Ga  Ga20  1  0.184631  0.500588  0.444412  1
  Ga  Ga21  1  0.815369  0.499412  0.555588  1
  Ga  Ga22  1  0.733434  0.164298  0.183493  1
  Ga  Ga23  1  0.266566  0.835702  0.816507  1
  Ga  Ga24  1  0.060919  0.628759  0.813624  1
  Ga  Ga25  1  0.939081  0.371241  0.186376  1
  Ga  Ga26  1  0.856181  0.041385  0.816069  1
  Ga  Ga27  1  0.143819  0.958615  0.183931  1
  Cu  Cu28  1  0.119028  0.493032  0.639312  1
  Cu  Cu29  1  0.880972  0.506968  0.360688  1
  Pd  Pd30  1  0.658627  0.170778  0.999916  1
  Pd  Pd31  1  0.341373  0.829222  0.000084  1
  Pd  Pd32  1  0.536784  0.167972  0.361873  1
  Pd  Pd33  1  0.463216  0.832028  0.638127  1
  Pd  Pd34  1  0.779749  0.176246  0.637761  1
  Pd  Pd35  1  0.220251  0.823754  0.362239  1
  Pd  Pd36  1  0.000000  0.500000  0.000000  1
