# generated using pymatgen
data_Dy8YLu11Si15Au
_symmetry_space_group_name_H-M   'P 1'
_cell_length_a   7.32071450
_cell_length_b   7.59788780
_cell_length_c   14.45160560
_cell_angle_alpha   89.75382718
_cell_angle_beta   89.31496915
_cell_angle_gamma   89.97967784
_symmetry_Int_Tables_number   1
_chemical_formula_structural   Dy8YLu11Si15Au
_chemical_formula_sum   'Dy8 Y1 Lu11 Si15 Au1'
_cell_volume   803.76182831
_cell_formula_units_Z   1
loop_
 _symmetry_equiv_pos_site_id
 _symmetry_equiv_pos_as_xyz
  1  'x, y, z'
loop_
 _atom_site_type_symbol
 _atom_site_label
 _atom_site_symmetry_multiplicity
 _atom_site_fract_x
 _atom_site_fract_y
 _atom_site_fract_z
 _atom_site_occupancy
  Dy  Dy0  1  0.019002  0.179321  0.098572  1
  Dy  Dy1  1  0.980218  0.821965  0.901947  1
  Dy  Dy2  1  0.481552  0.678694  0.902930  1
  Dy  Dy3  1  0.985617  0.827238  0.598330  1
  Dy  Dy4  1  0.517660  0.319546  0.097703  1
  Dy  Dy5  1  0.013950  0.175108  0.400391  1
  Dy  Dy6  1  0.514627  0.319599  0.400535  1
  Dy  Dy7  1  0.487443  0.680940  0.599014  1
  Y  Y8  1  0.172667  0.678091  0.122356  1
  Lu  Lu9  1  0.161755  0.509436  0.749070  1
  Lu  Lu10  1  0.839939  0.491352  0.252100  1
  Lu  Lu11  1  0.339305  0.005890  0.250805  1
  Lu  Lu12  1  0.662021  0.990767  0.749324  1
  Lu  Lu13  1  0.334996  0.178420  0.623032  1
  Lu  Lu14  1  0.667112  0.822152  0.376556  1
  Lu  Lu15  1  0.171932  0.672625  0.375685  1
  Lu  Lu16  1  0.674076  0.822848  0.124126  1
  Lu  Lu17  1  0.829725  0.326227  0.623757  1
  Lu  Lu18  1  0.325626  0.178106  0.876741  1
  Lu  Lu19  1  0.825749  0.319788  0.876833  1
  Si  Si20  1  0.033946  0.112011  0.751670  1
  Si  Si21  1  0.966629  0.891273  0.250278  1
  Si  Si22  1  0.470477  0.607672  0.249499  1
  Si  Si23  1  0.533688  0.391156  0.751895  1
  Si  Si24  1  0.279860  0.875285  0.751065  1
  Si  Si25  1  0.719050  0.127685  0.249016  1
  Si  Si26  1  0.220972  0.367119  0.248590  1
  Si  Si27  1  0.780704  0.628433  0.753215  1
  Si  Si28  1  0.835852  0.531662  0.458943  1
  Si  Si29  1  0.336720  0.965959  0.460100  1
  Si  Si30  1  0.841398  0.531169  0.037594  1
  Si  Si31  1  0.661897  0.034842  0.538349  1
  Si  Si32  1  0.149843  0.466604  0.959464  1
  Si  Si33  1  0.653083  0.030178  0.960021  1
  Si  Si34  1  0.349772  0.971160  0.039558  1
  Au  Au35  1  0.161137  0.469681  0.540932  1
