# generated using pymatgen
data_Zr12AlZn11N4
_symmetry_space_group_name_H-M   'P 1'
_cell_length_a   8.62148461
_cell_length_b   8.62148468
_cell_length_c   8.62148504
_cell_angle_alpha   60.00936535
_cell_angle_beta   60.00936829
_cell_angle_gamma   60.00936381
_symmetry_Int_Tables_number   1
_chemical_formula_structural   Zr12AlZn11N4
_chemical_formula_sum   'Zr12 Al1 Zn11 N4'
_cell_volume   453.23496338
_cell_formula_units_Z   1
loop_
 _symmetry_equiv_pos_site_id
 _symmetry_equiv_pos_as_xyz
  1  'x, y, z'
loop_
 _atom_site_type_symbol
 _atom_site_label
 _atom_site_symmetry_multiplicity
 _atom_site_fract_x
 _atom_site_fract_y
 _atom_site_fract_z
 _atom_site_occupancy
  Zr  Zr0  1  0.813837  0.186298  0.186298  1
  Zr  Zr1  1  0.186298  0.813837  0.186298  1
  Zr  Zr2  1  0.813519  0.813519  0.186229  1
  Zr  Zr3  1  0.186229  0.813519  0.813519  1
  Zr  Zr4  1  0.813519  0.186229  0.813519  1
  Zr  Zr5  1  0.186298  0.186298  0.813837  1
  Zr  Zr6  1  0.436163  0.063702  0.063702  1
  Zr  Zr7  1  0.063702  0.436163  0.063702  1
  Zr  Zr8  1  0.436481  0.436481  0.063771  1
  Zr  Zr9  1  0.063771  0.436481  0.436481  1
  Zr  Zr10  1  0.436481  0.063771  0.436481  1
  Zr  Zr11  1  0.063702  0.063702  0.436163  1
  Al  Al12  1  0.625000  0.625000  0.625000  1
  Zn  Zn13  1  0.417137  0.417137  0.743631  1
  Zn  Zn14  1  0.418993  0.418993  0.418993  1
  Zn  Zn15  1  0.743631  0.417137  0.417137  1
  Zn  Zn16  1  0.417137  0.743631  0.417137  1
  Zn  Zn17  1  0.832863  0.832863  0.506369  1
  Zn  Zn18  1  0.831007  0.831007  0.831007  1
  Zn  Zn19  1  0.506369  0.832863  0.832863  1
  Zn  Zn20  1  0.832863  0.506369  0.832863  1
  Zn  Zn21  1  0.625000  0.625000  0.125000  1
  Zn  Zn22  1  0.125000  0.625000  0.625000  1
  Zn  Zn23  1  0.625000  0.125000  0.625000  1
  N  N24  1  0.125000  0.125000  0.625000  1
  N  N25  1  0.125000  0.125000  0.125000  1
  N  N26  1  0.625000  0.125000  0.125000  1
  N  N27  1  0.125000  0.625000  0.125000  1
