# generated using pymatgen
data_V6Zn5GeRh12
_symmetry_space_group_name_H-M   'P 1'
_cell_length_a   4.00184100
_cell_length_b   6.98123700
_cell_length_c   11.87722700
_cell_angle_alpha   90.00000000
_cell_angle_beta   89.99990912
_cell_angle_gamma   90.00000000
_symmetry_Int_Tables_number   1
_chemical_formula_structural   V6Zn5GeRh12
_chemical_formula_sum   'V6 Zn5 Ge1 Rh12'
_cell_volume   331.82359791
_cell_formula_units_Z   1
loop_
 _symmetry_equiv_pos_site_id
 _symmetry_equiv_pos_as_xyz
  1  'x, y, z'
loop_
 _atom_site_type_symbol
 _atom_site_label
 _atom_site_symmetry_multiplicity
 _atom_site_fract_x
 _atom_site_fract_y
 _atom_site_fract_z
 _atom_site_occupancy
  V  V0  1  0.000000  0.499999  0.000000  1
  V  V1  1  0.500064  0.000000  0.173270  1
  V  V2  1  0.000082  0.499999  0.333270  1
  V  V3  1  0.500000  0.000000  0.500000  1
  V  V4  1  0.999918  0.499999  0.666730  1
  V  V5  1  0.499936  0.000000  0.826730  1
  Zn  Zn6  1  0.500043  0.499999  0.163987  1
  Zn  Zn7  1  0.000045  0.000000  0.335474  1
  Zn  Zn8  1  0.500000  0.499999  0.500000  1
  Zn  Zn9  1  0.999955  0.000000  0.664526  1
  Zn  Zn10  1  0.499957  0.499999  0.836013  1
  Ge  Ge11  1  0.000000  0.000000  0.000000  1
  Rh  Rh12  1  0.500000  0.240497  0.000000  1
  Rh  Rh13  1  0.500000  0.759504  0.000000  1
  Rh  Rh14  1  0.000033  0.248919  0.166596  1
  Rh  Rh15  1  0.000033  0.751080  0.166596  1
  Rh  Rh16  1  0.500035  0.251255  0.332898  1
  Rh  Rh17  1  0.500035  0.748745  0.332898  1
  Rh  Rh18  1  0.000000  0.251499  0.500000  1
  Rh  Rh19  1  0.000000  0.748502  0.500000  1
  Rh  Rh20  1  0.499965  0.251255  0.667102  1
  Rh  Rh21  1  0.499965  0.748745  0.667102  1
  Rh  Rh22  1  0.999967  0.248919  0.833404  1
  Rh  Rh23  1  0.999967  0.751080  0.833404  1
