# generated using pymatgen
data_CaPrZn5Si3
_symmetry_space_group_name_H-M   'P 1'
_cell_length_a   4.17434900
_cell_length_b   4.17434900
_cell_length_c   10.62433100
_cell_angle_alpha   90.00000000
_cell_angle_beta   90.00000000
_cell_angle_gamma   90.00000000
_symmetry_Int_Tables_number   1
_chemical_formula_structural   CaPrZn5Si3
_chemical_formula_sum   'Ca1 Pr1 Zn5 Si3'
_cell_volume   185.13098177
_cell_formula_units_Z   1
loop_
 _symmetry_equiv_pos_site_id
 _symmetry_equiv_pos_as_xyz
  1  'x, y, z'
loop_
 _atom_site_type_symbol
 _atom_site_label
 _atom_site_symmetry_multiplicity
 _atom_site_fract_x
 _atom_site_fract_y
 _atom_site_fract_z
 _atom_site_occupancy
  Ca  Ca0  1  0.000000  0.000000  0.997194  1
  Pr  Pr1  1  0.500000  0.500000  0.501000  1
  Zn  Zn2  1  0.000000  0.500000  0.250012  1
  Zn  Zn3  1  0.500000  0.000000  0.750824  1
  Zn  Zn4  1  0.500000  0.000000  0.250012  1
  Zn  Zn5  1  0.000000  0.500000  0.750824  1
  Zn  Zn6  1  0.500000  0.500000  0.113955  1
  Si  Si7  1  0.000000  0.000000  0.611986  1
  Si  Si8  1  0.000000  0.000000  0.389059  1
  Si  Si9  1  0.500000  0.500000  0.885133  1
