# generated using pymatgen
data_YScP7IrRu11
_symmetry_space_group_name_H-M   'P 1'
_cell_length_a   9.35584514
_cell_length_b   9.41026804
_cell_length_c   3.93535800
_cell_angle_alpha   90.00000000
_cell_angle_beta   90.00000000
_cell_angle_gamma   119.65923585
_symmetry_Int_Tables_number   1
_chemical_formula_structural   YScP7IrRu11
_chemical_formula_sum   'Y1 Sc1 P7 Ir1 Ru11'
_cell_volume   301.07933214
_cell_formula_units_Z   1
loop_
 _symmetry_equiv_pos_site_id
 _symmetry_equiv_pos_as_xyz
  1  'x, y, z'
loop_
 _atom_site_type_symbol
 _atom_site_label
 _atom_site_symmetry_multiplicity
 _atom_site_fract_x
 _atom_site_fract_y
 _atom_site_fract_z
 _atom_site_occupancy
  Y  Y0  1  0.331426  0.663404  0.000000  1
  Sc  Sc1  1  0.668013  0.334685  0.500000  1
  P  P2  1  0.599600  0.713529  0.500000  1
  P  P3  1  0.999379  0.000141  0.000000  1
  P  P4  1  0.277274  0.879035  0.500000  1
  P  P5  1  0.117514  0.399293  0.500000  1
  P  P6  1  0.883979  0.573922  0.000000  1
  P  P7  1  0.430074  0.311671  0.000000  1
  P  P8  1  0.694270  0.122488  0.000000  1
  Ir  Ir9  1  0.551257  0.944840  0.500000  1
  Ru  Ru10  1  0.393783  0.440974  0.500000  1
  Ru  Ru11  1  0.912548  0.123532  0.500000  1
  Ru  Ru12  1  0.209071  0.085463  0.500000  1
  Ru  Ru13  1  0.877519  0.794174  0.500000  1
  Ru  Ru14  1  0.725879  0.893574  0.000000  1
  Ru  Ru15  1  0.109751  0.836452  0.000000  1
  Ru  Ru16  1  0.164831  0.271694  0.000000  1
  Ru  Ru17  1  0.430992  0.071881  0.000000  1
  Ru  Ru18  1  0.932011  0.359317  0.000000  1
  Ru  Ru19  1  0.643094  0.574756  0.000000  1
  Ru  Ru20  1  0.047735  0.605178  0.500000  1
