# generated using pymatgen
data_CeThMgSi2
_symmetry_space_group_name_H-M   'P 1'
_cell_length_a   7.30909500
_cell_length_b   7.30513600
_cell_length_c   4.38262100
_cell_angle_alpha   90.00000000
_cell_angle_beta   90.00000000
_cell_angle_gamma   90.00000000
_symmetry_Int_Tables_number   1
_chemical_formula_structural   CeThMgSi2
_chemical_formula_sum   'Ce2 Th2 Mg2 Si4'
_cell_volume   234.00537209
_cell_formula_units_Z   2
loop_
 _symmetry_equiv_pos_site_id
 _symmetry_equiv_pos_as_xyz
  1  'x, y, z'
loop_
 _atom_site_type_symbol
 _atom_site_label
 _atom_site_symmetry_multiplicity
 _atom_site_fract_x
 _atom_site_fract_y
 _atom_site_fract_z
 _atom_site_occupancy
  Ce  Ce0  1  0.820947  0.679680  0.500000  1
  Ce  Ce1  1  0.320947  0.820320  0.500000  1
  Th  Th2  1  0.678450  0.177980  0.500000  1
  Th  Th3  1  0.178450  0.322020  0.500000  1
  Mg  Mg4  1  0.000436  0.997635  0.000000  1
  Mg  Mg5  1  0.500436  0.502365  0.000000  1
  Si  Si6  1  0.883332  0.384840  0.000000  1
  Si  Si7  1  0.383332  0.115160  0.000000  1
  Si  Si8  1  0.616835  0.881769  0.000000  1
  Si  Si9  1  0.116835  0.618231  0.000000  1
