# generated using pymatgen
data_Ta3SbPb3O13
_symmetry_space_group_name_H-M   'P 1'
_cell_length_a   7.50106938
_cell_length_b   7.50106858
_cell_length_c   7.50106864
_cell_angle_alpha   60.56843148
_cell_angle_beta   60.56844214
_cell_angle_gamma   60.56844318
_symmetry_Int_Tables_number   1
_chemical_formula_structural   Ta3SbPb3O13
_chemical_formula_sum   'Ta3 Sb1 Pb3 O13'
_cell_volume   302.27044931
_cell_formula_units_Z   1
loop_
 _symmetry_equiv_pos_site_id
 _symmetry_equiv_pos_as_xyz
  1  'x, y, z'
loop_
 _atom_site_type_symbol
 _atom_site_label
 _atom_site_symmetry_multiplicity
 _atom_site_fract_x
 _atom_site_fract_y
 _atom_site_fract_z
 _atom_site_occupancy
  Ta  Ta0  1  0.000162  0.499610  0.499610  1
  Ta  Ta1  1  0.499610  0.499610  0.000162  1
  Ta  Ta2  1  0.499610  0.000162  0.499610  1
  Sb  Sb3  1  0.499527  0.499527  0.499527  1
  Pb  Pb4  1  0.495628  0.002592  0.002592  1
  Pb  Pb5  1  0.002592  0.002592  0.495628  1
  Pb  Pb6  1  0.002592  0.495628  0.002592  1
  O  O7  1  0.815248  0.430818  0.430818  1
  O  O8  1  0.445356  0.810084  0.810084  1
  O  O9  1  0.430818  0.430818  0.815248  1
  O  O10  1  0.810084  0.810084  0.445356  1
  O  O11  1  0.810084  0.445356  0.810084  1
  O  O12  1  0.430818  0.815248  0.430818  1
  O  O13  1  0.185873  0.564790  0.564790  1
  O  O14  1  0.553575  0.187603  0.187603  1
  O  O15  1  0.564790  0.564790  0.185873  1
  O  O16  1  0.187603  0.187603  0.553575  1
  O  O17  1  0.187603  0.553575  0.187603  1
  O  O18  1  0.564790  0.185873  0.564790  1
  O  O19  1  0.138637  0.138637  0.138637  1
