# generated using pymatgen
data_Gd7Pa(Pt2Pb)4
_symmetry_space_group_name_H-M   'P 1'
_cell_length_a   8.08508800
_cell_length_b   8.08508881
_cell_length_c   7.30366500
_cell_angle_alpha   90.00000000
_cell_angle_beta   90.00000000
_cell_angle_gamma   88.76346263
_symmetry_Int_Tables_number   1
_chemical_formula_structural   Gd7Pa(Pt2Pb)4
_chemical_formula_sum   'Gd7 Pa1 Pt8 Pb4'
_cell_volume   477.31957270
_cell_formula_units_Z   1
loop_
 _symmetry_equiv_pos_site_id
 _symmetry_equiv_pos_as_xyz
  1  'x, y, z'
loop_
 _atom_site_type_symbol
 _atom_site_label
 _atom_site_symmetry_multiplicity
 _atom_site_fract_x
 _atom_site_fract_y
 _atom_site_fract_z
 _atom_site_occupancy
  Gd  Gd0  1  0.672492  0.666333  0.000000  1
  Gd  Gd1  1  0.331012  0.334150  0.500000  1
  Gd  Gd2  1  0.831432  0.168568  0.500000  1
  Gd  Gd3  1  0.665850  0.668988  0.500000  1
  Gd  Gd4  1  0.333667  0.327508  0.000000  1
  Gd  Gd5  1  0.170546  0.829454  0.500000  1
  Gd  Gd6  1  0.828351  0.171649  0.000000  1
  Pa  Pa7  1  0.164639  0.835361  0.000000  1
  Pt  Pt8  1  0.881419  0.868872  0.756091  1
  Pt  Pt9  1  0.131128  0.118581  0.756091  1
  Pt  Pt10  1  0.621794  0.378206  0.747504  1
  Pt  Pt11  1  0.621794  0.378206  0.252496  1
  Pt  Pt12  1  0.363710  0.636290  0.230463  1
  Pt  Pt13  1  0.131128  0.118581  0.243909  1
  Pt  Pt14  1  0.881419  0.868872  0.243909  1
  Pt  Pt15  1  0.363710  0.636290  0.769537  1
  Pb  Pb16  1  0.503933  0.000979  0.749280  1
  Pb  Pb17  1  0.503933  0.000979  0.250720  1
  Pb  Pb18  1  0.999021  0.496067  0.749280  1
  Pb  Pb19  1  0.999021  0.496067  0.250720  1
