# generated using pymatgen
data_Y2Th6TiSe17
_symmetry_space_group_name_H-M   'P 1'
_cell_length_a   8.41666575
_cell_length_b   8.41666582
_cell_length_c   11.15485602
_cell_angle_alpha   80.62770526
_cell_angle_beta   80.62771089
_cell_angle_gamma   65.19745096
_symmetry_Int_Tables_number   1
_chemical_formula_structural   Y2Th6TiSe17
_chemical_formula_sum   'Y2 Th6 Ti1 Se17'
_cell_volume   703.79375494
_cell_formula_units_Z   1
loop_
 _symmetry_equiv_pos_site_id
 _symmetry_equiv_pos_as_xyz
  1  'x, y, z'
loop_
 _atom_site_type_symbol
 _atom_site_label
 _atom_site_symmetry_multiplicity
 _atom_site_fract_x
 _atom_site_fract_y
 _atom_site_fract_z
 _atom_site_occupancy
  Y  Y0  1  0.813351  0.304690  0.296574  1
  Y  Y1  1  0.304690  0.813351  0.296574  1
  Th  Th2  1  0.185565  0.699022  0.700130  1
  Th  Th3  1  0.699022  0.185565  0.700130  1
  Th  Th4  1  0.204968  0.204968  0.537832  1
  Th  Th5  1  0.795525  0.795525  0.456141  1
  Th  Th6  1  0.679349  0.679349  0.985405  1
  Th  Th7  1  0.319809  0.319809  0.022643  1
  Ti  Ti8  1  0.003138  0.003138  0.006483  1
  Se  Se9  1  0.822119  0.431223  0.532262  1
  Se  Se10  1  0.431223  0.822119  0.532262  1
  Se  Se11  1  0.178372  0.569979  0.465435  1
  Se  Se12  1  0.569979  0.178372  0.465435  1
  Se  Se13  1  0.941808  0.320720  0.026203  1
  Se  Se14  1  0.320720  0.941808  0.026203  1
  Se  Se15  1  0.057509  0.680084  0.972652  1
  Se  Se16  1  0.680084  0.057509  0.972652  1
  Se  Se17  1  0.206209  0.206209  0.275197  1
  Se  Se18  1  0.789372  0.789372  0.725509  1
  Se  Se19  1  0.059992  0.059992  0.776056  1
  Se  Se20  1  0.941274  0.941274  0.226273  1
  Se  Se21  1  0.303123  0.303123  0.754825  1
  Se  Se22  1  0.694789  0.694789  0.245457  1
  Se  Se23  1  0.520329  0.520329  0.832843  1
  Se  Se24  1  0.479708  0.479708  0.164319  1
  Se  Se25  1  0.997972  0.997972  0.504507  1
