# generated using pymatgen
data_YbTe3O8
_symmetry_space_group_name_H-M   'P 1'
_cell_length_a   6.88209006
_cell_length_b   6.88209033
_cell_length_c   10.19656724
_cell_angle_alpha   66.24915282
_cell_angle_beta   66.24915094
_cell_angle_gamma   49.09870405
_symmetry_Int_Tables_number   1
_chemical_formula_structural   YbTe3O8
_chemical_formula_sum   'Yb2 Te6 O16'
_cell_volume   327.29220578
_cell_formula_units_Z   2
loop_
 _symmetry_equiv_pos_site_id
 _symmetry_equiv_pos_as_xyz
  1  'x, y, z'
loop_
 _atom_site_type_symbol
 _atom_site_label
 _atom_site_symmetry_multiplicity
 _atom_site_fract_x
 _atom_site_fract_y
 _atom_site_fract_z
 _atom_site_occupancy
  Yb  Yb0  1  0.432825  0.567175  0.250000  1
  Yb  Yb1  1  0.567175  0.432825  0.750000  1
  Te  Te2  1  0.000000  0.000000  0.500000  1
  Te  Te3  1  0.000000  0.000000  0.000000  1
  Te  Te4  1  0.308821  0.128425  0.641583  1
  Te  Te5  1  0.871575  0.691179  0.858417  1
  Te  Te6  1  0.691179  0.871575  0.358417  1
  Te  Te7  1  0.128425  0.308821  0.141583  1
  O  O8  1  0.784746  0.575493  0.089901  1
  O  O9  1  0.424507  0.215254  0.410099  1
  O  O10  1  0.215254  0.424507  0.910099  1
  O  O11  1  0.575493  0.784746  0.589901  1
  O  O12  1  0.198664  0.008219  0.093805  1
  O  O13  1  0.991781  0.801336  0.406195  1
  O  O14  1  0.801336  0.991781  0.906195  1
  O  O15  1  0.008219  0.198664  0.593805  1
  O  O16  1  0.854146  0.308570  0.341426  1
  O  O17  1  0.691430  0.145854  0.158574  1
  O  O18  1  0.145854  0.691430  0.658574  1
  O  O19  1  0.308570  0.854146  0.841426  1
  O  O20  1  0.864941  0.344010  0.874991  1
  O  O21  1  0.655990  0.135059  0.625009  1
  O  O22  1  0.135059  0.655990  0.125009  1
  O  O23  1  0.344010  0.864941  0.374991  1
