# generated using pymatgen
data_Sr6TbSc(BO3)6
_symmetry_space_group_name_H-M   'P 1'
_cell_length_a   7.80564237
_cell_length_b   7.80564195
_cell_length_c   7.80564181
_cell_angle_alpha   105.13534987
_cell_angle_beta   105.13534366
_cell_angle_gamma   105.13534425
_symmetry_Int_Tables_number   1
_chemical_formula_structural   Sr6TbSc(BO3)6
_chemical_formula_sum   'Sr6 Tb1 Sc1 B6 O18'
_cell_volume   414.57055928
_cell_formula_units_Z   1
loop_
 _symmetry_equiv_pos_site_id
 _symmetry_equiv_pos_as_xyz
  1  'x, y, z'
loop_
 _atom_site_type_symbol
 _atom_site_label
 _atom_site_symmetry_multiplicity
 _atom_site_fract_x
 _atom_site_fract_y
 _atom_site_fract_z
 _atom_site_occupancy
  Sr  Sr0  1  0.648045  0.264428  0.159394  1
  Sr  Sr1  1  0.159394  0.648045  0.264428  1
  Sr  Sr2  1  0.735571  0.840607  0.351955  1
  Sr  Sr3  1  0.264429  0.159393  0.648045  1
  Sr  Sr4  1  0.840607  0.351955  0.735572  1
  Sr  Sr5  1  0.351955  0.735572  0.840606  1
  Tb  Tb6  1  0.000000  0.000000  0.000000  1
  Sc  Sc7  1  0.500000  0.500000  0.500000  1
  B  B8  1  0.295597  0.378707  0.042067  1
  B  B9  1  0.378706  0.042067  0.295597  1
  B  B10  1  0.042067  0.295597  0.378706  1
  B  B11  1  0.957933  0.704404  0.621294  1
  B  B12  1  0.621294  0.957934  0.704403  1
  B  B13  1  0.704404  0.621294  0.957934  1
  O  O14  1  0.727056  0.813571  0.017980  1
  O  O15  1  0.807728  0.548586  0.071419  1
  O  O16  1  0.982020  0.272944  0.186427  1
  O  O17  1  0.451413  0.928581  0.192271  1
  O  O18  1  0.432443  0.497357  0.219335  1
  O  O19  1  0.186428  0.982020  0.272943  1
  O  O20  1  0.497356  0.219335  0.432443  1
  O  O21  1  0.928581  0.192271  0.451414  1
  O  O22  1  0.219335  0.432443  0.497357  1
  O  O23  1  0.780665  0.567557  0.502644  1
  O  O24  1  0.071419  0.807728  0.548586  1
  O  O25  1  0.502644  0.780665  0.567557  1
  O  O26  1  0.813571  0.017979  0.727056  1
  O  O27  1  0.567557  0.502644  0.780666  1
  O  O28  1  0.548586  0.071419  0.807729  1
  O  O29  1  0.017979  0.727055  0.813572  1
  O  O30  1  0.192271  0.451413  0.928581  1
  O  O31  1  0.272944  0.186428  0.982020  1
