# generated using pymatgen
data_Dy11Er9(Bi2Ir)4
_symmetry_space_group_name_H-M   'P 1'
_cell_length_a   7.96387928
_cell_length_b   8.99232800
_cell_length_c   12.54106344
_cell_angle_alpha   90.00000000
_cell_angle_beta   89.96958381
_cell_angle_gamma   90.00000000
_symmetry_Int_Tables_number   1
_chemical_formula_structural   Dy11Er9(Bi2Ir)4
_chemical_formula_sum   'Dy11 Er9 Bi8 Ir4'
_cell_volume   898.11326620
_cell_formula_units_Z   1
loop_
 _symmetry_equiv_pos_site_id
 _symmetry_equiv_pos_as_xyz
  1  'x, y, z'
loop_
 _atom_site_type_symbol
 _atom_site_label
 _atom_site_symmetry_multiplicity
 _atom_site_fract_x
 _atom_site_fract_y
 _atom_site_fract_z
 _atom_site_occupancy
  Dy  Dy0  1  0.661478  0.750000  0.706595  1
  Dy  Dy1  1  0.338785  0.250000  0.293298  1
  Dy  Dy2  1  0.161291  0.250000  0.793222  1
  Dy  Dy3  1  0.838737  0.750000  0.206946  1
  Dy  Dy4  1  0.128381  0.750000  0.810705  1
  Dy  Dy5  1  0.871613  0.250000  0.189328  1
  Dy  Dy6  1  0.628341  0.250000  0.689227  1
  Dy  Dy7  1  0.371721  0.750000  0.310804  1
  Dy  Dy8  1  0.554644  0.750000  0.998024  1
  Dy  Dy9  1  0.445417  0.250000  0.001976  1
  Dy  Dy10  1  0.054749  0.250000  0.502053  1
  Er  Er11  1  0.944626  0.750000  0.497927  1
  Er  Er12  1  0.826848  0.459096  0.932252  1
  Er  Er13  1  0.173134  0.540890  0.067719  1
  Er  Er14  1  0.326731  0.541033  0.567758  1
  Er  Er15  1  0.173134  0.959110  0.067719  1
  Er  Er16  1  0.673404  0.459371  0.432291  1
  Er  Er17  1  0.826848  0.040904  0.932252  1
  Er  Er18  1  0.673404  0.040629  0.432291  1
  Er  Er19  1  0.326731  0.958967  0.567758  1
  Bi  Bi20  1  0.936615  0.006806  0.672486  1
  Bi  Bi21  1  0.063192  0.992464  0.327472  1
  Bi  Bi22  1  0.436605  0.992783  0.827079  1
  Bi  Bi23  1  0.063192  0.507536  0.327472  1
  Bi  Bi24  1  0.563449  0.007127  0.172905  1
  Bi  Bi25  1  0.936615  0.493194  0.672486  1
  Bi  Bi26  1  0.563449  0.492873  0.172905  1
  Bi  Bi27  1  0.436605  0.507217  0.827079  1
  Ir  Ir28  1  0.930667  0.750000  0.992585  1
  Ir  Ir29  1  0.069315  0.250000  0.007409  1
  Ir  Ir30  1  0.430675  0.250000  0.507411  1
  Ir  Ir31  1  0.569600  0.750000  0.492566  1
