# generated using pymatgen
data_Ho2TmCo3(NiP)6
_symmetry_space_group_name_H-M   'P 1'
_cell_length_a   3.74906900
_cell_length_b   10.48177100
_cell_length_c   12.26369500
_cell_angle_alpha   90.00000000
_cell_angle_beta   90.00000000
_cell_angle_gamma   90.00000000
_symmetry_Int_Tables_number   1
_chemical_formula_structural   Ho2TmCo3(NiP)6
_chemical_formula_sum   'Ho4 Tm2 Co6 Ni12 P12'
_cell_volume   481.92498414
_cell_formula_units_Z   2
loop_
 _symmetry_equiv_pos_site_id
 _symmetry_equiv_pos_as_xyz
  1  'x, y, z'
loop_
 _atom_site_type_symbol
 _atom_site_label
 _atom_site_symmetry_multiplicity
 _atom_site_fract_x
 _atom_site_fract_y
 _atom_site_fract_z
 _atom_site_occupancy
  Ho  Ho0  1  0.000000  0.500000  0.519950  1
  Ho  Ho1  1  0.500000  0.000000  0.479692  1
  Ho  Ho2  1  0.000000  0.684634  0.794198  1
  Ho  Ho3  1  0.000000  0.315366  0.794198  1
  Tm  Tm4  1  0.500000  0.815635  0.205914  1
  Tm  Tm5  1  0.500000  0.184365  0.205914  1
  Co  Co6  1  0.000000  0.500000  0.984386  1
  Co  Co7  1  0.500000  0.000000  0.016882  1
  Co  Co8  1  0.500000  0.334109  0.995331  1
  Co  Co9  1  0.500000  0.665891  0.995331  1
  Co  Co10  1  0.000000  0.165401  0.005797  1
  Co  Co11  1  0.000000  0.834599  0.005797  1
  Ni  Ni12  1  0.500000  0.300325  0.428587  1
  Ni  Ni13  1  0.500000  0.699675  0.428587  1
  Ni  Ni14  1  0.000000  0.199712  0.569936  1
  Ni  Ni15  1  0.000000  0.800288  0.569936  1
  Ni  Ni16  1  0.500000  0.878784  0.713998  1
  Ni  Ni17  1  0.500000  0.121216  0.713998  1
  Ni  Ni18  1  0.000000  0.621507  0.285748  1
  Ni  Ni19  1  0.000000  0.378493  0.285748  1
  Ni  Ni20  1  0.500000  0.500000  0.158195  1
  Ni  Ni21  1  0.000000  0.000000  0.842196  1
  Ni  Ni22  1  0.500000  0.500000  0.702970  1
  Ni  Ni23  1  0.000000  0.000000  0.296715  1
  P  P24  1  0.500000  0.313596  0.615894  1
  P  P25  1  0.500000  0.686404  0.615894  1
  P  P26  1  0.000000  0.186274  0.382909  1
  P  P27  1  0.000000  0.813726  0.382909  1
  P  P28  1  0.500000  0.500000  0.881323  1
  P  P29  1  0.000000  0.000000  0.119573  1
  P  P30  1  0.500000  0.845921  0.897766  1
  P  P31  1  0.500000  0.154079  0.897766  1
  P  P32  1  0.000000  0.654882  0.102964  1
  P  P33  1  0.000000  0.345118  0.102964  1
  P  P34  1  0.500000  0.500000  0.343430  1
  P  P35  1  0.000000  0.000000  0.656604  1
