# generated using pymatgen
data_Dy4HoEr5(Si5Ir2)4
_symmetry_space_group_name_H-M   'P 1'
_cell_length_a   12.61479100
_cell_length_b   12.61479100
_cell_length_c   4.25204400
_cell_angle_alpha   90.00000000
_cell_angle_beta   90.00000000
_cell_angle_gamma   90.00000000
_symmetry_Int_Tables_number   1
_chemical_formula_structural   Dy4HoEr5(Si5Ir2)4
_chemical_formula_sum   'Dy4 Ho1 Er5 Si20 Ir8'
_cell_volume   676.64031364
_cell_formula_units_Z   1
loop_
 _symmetry_equiv_pos_site_id
 _symmetry_equiv_pos_as_xyz
  1  'x, y, z'
loop_
 _atom_site_type_symbol
 _atom_site_label
 _atom_site_symmetry_multiplicity
 _atom_site_fract_x
 _atom_site_fract_y
 _atom_site_fract_z
 _atom_site_occupancy
  Dy  Dy0  1  0.883661  0.383686  0.500000  1
  Dy  Dy1  1  0.116339  0.616314  0.500000  1
  Dy  Dy2  1  0.383686  0.116339  0.500000  1
  Dy  Dy3  1  0.616314  0.883661  0.500000  1
  Ho  Ho4  1  0.000000  0.000000  0.000000  1
  Er  Er5  1  0.500000  0.500000  0.000000  1
  Er  Er6  1  0.675856  0.175886  0.500000  1
  Er  Er7  1  0.324144  0.824114  0.500000  1
  Er  Er8  1  0.175886  0.324144  0.500000  1
  Er  Er9  1  0.824114  0.675856  0.500000  1
  Si  Si10  1  0.565935  0.065979  0.000000  1
  Si  Si11  1  0.434065  0.934021  0.000000  1
  Si  Si12  1  0.065979  0.434065  0.000000  1
  Si  Si13  1  0.934021  0.565935  0.000000  1
  Si  Si14  1  0.663539  0.700769  0.000000  1
  Si  Si15  1  0.336461  0.299231  0.000000  1
  Si  Si16  1  0.163549  0.799204  0.000000  1
  Si  Si17  1  0.836451  0.200796  0.000000  1
  Si  Si18  1  0.299231  0.663539  0.000000  1
  Si  Si19  1  0.700769  0.336461  0.000000  1
  Si  Si20  1  0.200796  0.163549  0.000000  1
  Si  Si21  1  0.799204  0.836451  0.000000  1
  Si  Si22  1  0.656212  0.503044  0.500000  1
  Si  Si23  1  0.343788  0.496956  0.500000  1
  Si  Si24  1  0.156536  0.996953  0.500000  1
  Si  Si25  1  0.843464  0.003047  0.500000  1
  Si  Si26  1  0.496956  0.656212  0.500000  1
  Si  Si27  1  0.503044  0.343788  0.500000  1
  Si  Si28  1  0.003047  0.156536  0.500000  1
  Si  Si29  1  0.996953  0.843464  0.500000  1
  Ir  Ir30  1  0.745399  0.521254  0.000000  1
  Ir  Ir31  1  0.254601  0.478746  0.000000  1
  Ir  Ir32  1  0.245646  0.978715  0.000000  1
  Ir  Ir33  1  0.754354  0.021285  0.000000  1
  Ir  Ir34  1  0.478746  0.745399  0.000000  1
  Ir  Ir35  1  0.521254  0.254601  0.000000  1
  Ir  Ir36  1  0.021285  0.245646  0.000000  1
  Ir  Ir37  1  0.978715  0.754354  0.000000  1
