# generated using pymatgen
data_Ac9Tm11Pt16
_symmetry_space_group_name_H-M   'P 1'
_cell_length_a   7.77600870
_cell_length_b   7.86201367
_cell_length_c   15.34202700
_cell_angle_alpha   90.04619656
_cell_angle_beta   90.02432268
_cell_angle_gamma   90.00962198
_symmetry_Int_Tables_number   1
_chemical_formula_structural   Ac9Tm11Pt16
_chemical_formula_sum   'Ac9 Tm11 Pt16'
_cell_volume   937.93574780
_cell_formula_units_Z   1
loop_
 _symmetry_equiv_pos_site_id
 _symmetry_equiv_pos_as_xyz
  1  'x, y, z'
loop_
 _atom_site_type_symbol
 _atom_site_label
 _atom_site_symmetry_multiplicity
 _atom_site_fract_x
 _atom_site_fract_y
 _atom_site_fract_z
 _atom_site_occupancy
  Ac  Ac0  1  0.155577  0.334322  0.619817  1
  Ac  Ac1  1  0.505478  0.683973  0.596432  1
  Ac  Ac2  1  0.000063  0.824499  0.905429  1
  Ac  Ac3  1  0.498183  0.322170  0.097889  1
  Ac  Ac4  1  0.999424  0.173650  0.394542  1
  Ac  Ac5  1  0.503664  0.321375  0.399998  1
  Ac  Ac6  1  0.997678  0.177521  0.098376  1
  Ac  Ac7  1  0.498944  0.676286  0.907322  1
  Ac  Ac8  1  0.000131  0.823927  0.597701  1
  Tm  Tm9  1  0.654226  0.166704  0.628227  1
  Tm  Tm10  1  0.154701  0.333707  0.876877  1
  Tm  Tm11  1  0.344517  0.833569  0.125473  1
  Tm  Tm12  1  0.843994  0.668547  0.373301  1
  Tm  Tm13  1  0.349271  0.835101  0.372117  1
  Tm  Tm14  1  0.845205  0.665824  0.124729  1
  Tm  Tm15  1  0.656764  0.165489  0.877698  1
  Tm  Tm16  1  0.816089  0.501013  0.755349  1
  Tm  Tm17  1  0.325922  0.995671  0.755530  1
  Tm  Tm18  1  0.178232  0.505155  0.249467  1
  Tm  Tm19  1  0.677371  0.994992  0.247514  1
  Pt  Pt20  1  0.679682  0.959479  0.451804  1
  Pt  Pt21  1  0.173746  0.542056  0.047294  1
  Pt  Pt22  1  0.326063  0.043059  0.954206  1
  Pt  Pt23  1  0.807481  0.460906  0.541457  1
  Pt  Pt24  1  0.336238  0.028326  0.542474  1
  Pt  Pt25  1  0.826735  0.457461  0.954506  1
  Pt  Pt26  1  0.673567  0.957945  0.047804  1
  Pt  Pt27  1  0.174133  0.548845  0.443080  1
  Pt  Pt28  1  0.459626  0.362127  0.756037  1
  Pt  Pt29  1  0.947674  0.132395  0.756092  1
  Pt  Pt30  1  0.548378  0.639016  0.248021  1
  Pt  Pt31  1  0.047752  0.860945  0.247721  1
  Pt  Pt32  1  0.683641  0.868987  0.753273  1
  Pt  Pt33  1  0.187243  0.635020  0.756034  1
  Pt  Pt34  1  0.313332  0.128256  0.248196  1
  Pt  Pt35  1  0.809276  0.371685  0.248213  1
