# generated using pymatgen
data_PrY15(ErSn4)4
_symmetry_space_group_name_H-M   'P 1'
_cell_length_a   8.04864143
_cell_length_b   8.19453908
_cell_length_c   15.50325000
_cell_angle_alpha   90.02275179
_cell_angle_beta   89.85317687
_cell_angle_gamma   90.13411458
_symmetry_Int_Tables_number   1
_chemical_formula_structural   PrY15(ErSn4)4
_chemical_formula_sum   'Pr1 Y15 Er4 Sn16'
_cell_volume   1022.50917027
_cell_formula_units_Z   1
loop_
 _symmetry_equiv_pos_site_id
 _symmetry_equiv_pos_as_xyz
  1  'x, y, z'
loop_
 _atom_site_type_symbol
 _atom_site_label
 _atom_site_symmetry_multiplicity
 _atom_site_fract_x
 _atom_site_fract_y
 _atom_site_fract_z
 _atom_site_occupancy
  Pr  Pr0  1  0.516179  0.320355  0.403981  1
  Y  Y1  1  0.019346  0.178230  0.403059  1
  Y  Y2  1  0.366635  0.836963  0.121458  1
  Y  Y3  1  0.135525  0.337131  0.623536  1
  Y  Y4  1  0.479321  0.678732  0.902492  1
  Y  Y5  1  0.867259  0.662665  0.122110  1
  Y  Y6  1  0.133177  0.337839  0.877250  1
  Y  Y7  1  0.481423  0.680347  0.597499  1
  Y  Y8  1  0.635624  0.162472  0.623174  1
  Y  Y9  1  0.864581  0.663091  0.376793  1
  Y  Y10  1  0.020196  0.178495  0.096266  1
  Y  Y11  1  0.979716  0.821336  0.902405  1
  Y  Y12  1  0.633179  0.162409  0.877627  1
  Y  Y13  1  0.521299  0.320753  0.097798  1
  Y  Y14  1  0.365541  0.837277  0.377246  1
  Y  Y15  1  0.980923  0.820929  0.597387  1
  Er  Er16  1  0.197507  0.503020  0.249137  1
  Er  Er17  1  0.698029  0.997031  0.249255  1
  Er  Er18  1  0.302568  0.002626  0.750361  1
  Er  Er19  1  0.802948  0.497428  0.750528  1
  Sn  Sn20  1  0.798428  0.465520  0.543956  1
  Sn  Sn21  1  0.706697  0.960672  0.458781  1
  Sn  Sn22  1  0.670268  0.850865  0.750241  1
  Sn  Sn23  1  0.199960  0.540941  0.459502  1
  Sn  Sn24  1  0.293065  0.036905  0.957391  1
  Sn  Sn25  1  0.831065  0.350992  0.249157  1
  Sn  Sn26  1  0.793057  0.463730  0.957701  1
  Sn  Sn27  1  0.563147  0.620056  0.249157  1
  Sn  Sn28  1  0.207022  0.535184  0.041812  1
  Sn  Sn29  1  0.437856  0.381305  0.750418  1
  Sn  Sn30  1  0.170800  0.649046  0.750097  1
  Sn  Sn31  1  0.937461  0.118111  0.750372  1
  Sn  Sn32  1  0.294185  0.036566  0.542646  1
  Sn  Sn33  1  0.706652  0.963168  0.041649  1
  Sn  Sn34  1  0.326141  0.146387  0.247953  1
  Sn  Sn35  1  0.063222  0.881423  0.249801  1
