# generated using pymatgen
data_Nd16Co3Hg4Pt
_symmetry_space_group_name_H-M   'P 1'
_cell_length_a   9.84477139
_cell_length_b   9.84477185
_cell_length_c   9.84477100
_cell_angle_alpha   60.03805940
_cell_angle_beta   60.03806026
_cell_angle_gamma   60.03806094
_symmetry_Int_Tables_number   1
_chemical_formula_structural   Nd16Co3Hg4Pt
_chemical_formula_sum   'Nd16 Co3 Hg4 Pt1'
_cell_volume   675.26839207
_cell_formula_units_Z   1
loop_
 _symmetry_equiv_pos_site_id
 _symmetry_equiv_pos_as_xyz
  1  'x, y, z'
loop_
 _atom_site_type_symbol
 _atom_site_label
 _atom_site_symmetry_multiplicity
 _atom_site_fract_x
 _atom_site_fract_y
 _atom_site_fract_z
 _atom_site_occupancy
  Nd  Nd0  1  0.595918  0.595918  0.595918  1
  Nd  Nd1  1  0.603808  0.603808  0.201901  1
  Nd  Nd2  1  0.603808  0.201901  0.603808  1
  Nd  Nd3  1  0.201901  0.603808  0.603808  1
  Nd  Nd4  1  0.050825  0.439913  0.439913  1
  Nd  Nd5  1  0.437114  0.059674  0.059674  1
  Nd  Nd6  1  0.439913  0.050825  0.439913  1
  Nd  Nd7  1  0.059674  0.437114  0.059674  1
  Nd  Nd8  1  0.439913  0.439913  0.050825  1
  Nd  Nd9  1  0.059674  0.059674  0.437114  1
  Nd  Nd10  1  0.189814  0.813055  0.813055  1
  Nd  Nd11  1  0.809511  0.189827  0.189827  1
  Nd  Nd12  1  0.813055  0.189814  0.813055  1
  Nd  Nd13  1  0.189827  0.809511  0.189827  1
  Nd  Nd14  1  0.813055  0.813055  0.189814  1
  Nd  Nd15  1  0.189827  0.189827  0.809511  1
  Co  Co16  1  0.391756  0.391756  0.826523  1
  Co  Co17  1  0.391756  0.826523  0.391756  1
  Co  Co18  1  0.826523  0.391756  0.391756  1
  Hg  Hg19  1  0.833698  0.833698  0.833698  1
  Hg  Hg20  1  0.832843  0.832843  0.500722  1
  Hg  Hg21  1  0.832843  0.500722  0.832843  1
  Hg  Hg22  1  0.500722  0.832843  0.832843  1
  Pt  Pt23  1  0.392219  0.392219  0.392219  1
