# generated using pymatgen
data_SmGaNi3Sn
_symmetry_space_group_name_H-M   'P 1'
_cell_length_a   4.10166500
_cell_length_b   9.20007792
_cell_length_c   9.20007832
_cell_angle_alpha   59.94366843
_cell_angle_beta   90.00000000
_cell_angle_gamma   90.00000000
_symmetry_Int_Tables_number   1
_chemical_formula_structural   SmGaNi3Sn
_chemical_formula_sum   'Sm3 Ga3 Ni9 Sn3'
_cell_volume   300.48794115
_cell_formula_units_Z   3
loop_
 _symmetry_equiv_pos_site_id
 _symmetry_equiv_pos_as_xyz
  1  'x, y, z'
loop_
 _atom_site_type_symbol
 _atom_site_label
 _atom_site_symmetry_multiplicity
 _atom_site_fract_x
 _atom_site_fract_y
 _atom_site_fract_z
 _atom_site_occupancy
  Sm  Sm0  1  0.500000  0.333383  0.333189  1
  Sm  Sm1  1  0.500000  0.666811  0.666617  1
  Sm  Sm2  1  0.000000  0.999826  0.000174  1
  Ga  Ga3  1  0.500000  0.740934  0.259066  1
  Ga  Ga4  1  0.500000  0.259081  0.000118  1
  Ga  Ga5  1  0.500000  0.999882  0.740919  1
  Ni  Ni6  1  0.000000  0.207190  0.159470  1
  Ni  Ni7  1  0.000000  0.159476  0.633408  1
  Ni  Ni8  1  0.000000  0.633415  0.207057  1
  Ni  Ni9  1  0.000000  0.840530  0.792810  1
  Ni  Ni10  1  0.000000  0.366592  0.840524  1
  Ni  Ni11  1  0.000000  0.792943  0.366585  1
  Ni  Ni12  1  0.500000  0.279389  0.720611  1
  Ni  Ni13  1  0.500000  0.720400  0.000040  1
  Ni  Ni14  1  0.500000  0.999960  0.279600  1
  Sn  Sn15  1  0.000000  0.468570  0.531430  1
  Sn  Sn16  1  0.000000  0.531510  0.999991  1
  Sn  Sn17  1  0.000000  0.000009  0.468490  1
