# generated using pymatgen
data_Er5Al3Fe3Si4
_symmetry_space_group_name_H-M   'P 1'
_cell_length_a   4.13138300
_cell_length_b   19.14288600
_cell_length_c   6.83336400
_cell_angle_alpha   90.00000000
_cell_angle_beta   90.00000000
_cell_angle_gamma   90.00000000
_symmetry_Int_Tables_number   1
_chemical_formula_structural   Er5Al3Fe3Si4
_chemical_formula_sum   'Er10 Al6 Fe6 Si8'
_cell_volume   540.42748290
_cell_formula_units_Z   2
loop_
 _symmetry_equiv_pos_site_id
 _symmetry_equiv_pos_as_xyz
  1  'x, y, z'
loop_
 _atom_site_type_symbol
 _atom_site_label
 _atom_site_symmetry_multiplicity
 _atom_site_fract_x
 _atom_site_fract_y
 _atom_site_fract_z
 _atom_site_occupancy
  Er  Er0  1  0.249998  0.573669  0.493631  1
  Er  Er1  1  0.249998  0.926331  0.493631  1
  Er  Er2  1  0.750000  0.426331  0.506369  1
  Er  Er3  1  0.750000  0.073669  0.506369  1
  Er  Er4  1  0.249998  0.620807  0.003026  1
  Er  Er5  1  0.249998  0.879192  0.003026  1
  Er  Er6  1  0.750000  0.379193  0.996974  1
  Er  Er7  1  0.750000  0.120808  0.996974  1
  Er  Er8  1  0.249998  0.750000  0.630909  1
  Er  Er9  1  0.750000  0.250000  0.369091  1
  Al  Al10  1  0.249998  0.250000  0.017910  1
  Al  Al11  1  0.750000  0.750000  0.982091  1
  Al  Al12  1  0.249998  0.180486  0.670299  1
  Al  Al13  1  0.249998  0.319514  0.670299  1
  Al  Al14  1  0.750000  0.819513  0.329701  1
  Al  Al15  1  0.750000  0.680486  0.329701  1
  Fe  Fe16  1  0.249998  0.750000  0.224118  1
  Fe  Fe17  1  0.750000  0.250000  0.775882  1
  Fe  Fe18  1  0.249998  0.023414  0.149983  1
  Fe  Fe19  1  0.249998  0.476586  0.149983  1
  Fe  Fe20  1  0.750000  0.976586  0.850017  1
  Fe  Fe21  1  0.750000  0.523414  0.850017  1
  Si  Si22  1  0.249998  0.140866  0.281549  1
  Si  Si23  1  0.249998  0.359134  0.281549  1
  Si  Si24  1  0.750000  0.859134  0.718452  1
  Si  Si25  1  0.750000  0.640866  0.718452  1
  Si  Si26  1  0.249998  0.030482  0.807370  1
  Si  Si27  1  0.249998  0.469518  0.807370  1
  Si  Si28  1  0.750000  0.969519  0.192630  1
  Si  Si29  1  0.750000  0.530482  0.192630  1
