# generated using pymatgen
data_TbY5Co16(P6W)2
_symmetry_space_group_name_H-M   'P 1'
_cell_length_a   3.72907300
_cell_length_b   10.57228800
_cell_length_c   12.26617300
_cell_angle_alpha   90.00000000
_cell_angle_beta   90.00000000
_cell_angle_gamma   90.00000000
_symmetry_Int_Tables_number   1
_chemical_formula_structural   TbY5Co16(P6W)2
_chemical_formula_sum   'Tb1 Y5 Co16 P12 W2'
_cell_volume   483.59183102
_cell_formula_units_Z   1
loop_
 _symmetry_equiv_pos_site_id
 _symmetry_equiv_pos_as_xyz
  1  'x, y, z'
loop_
 _atom_site_type_symbol
 _atom_site_label
 _atom_site_symmetry_multiplicity
 _atom_site_fract_x
 _atom_site_fract_y
 _atom_site_fract_z
 _atom_site_occupancy
  Tb  Tb0  1  0.500000  0.000000  0.475737  1
  Y  Y1  1  0.000000  0.500000  0.524170  1
  Y  Y2  1  0.500000  0.819208  0.204968  1
  Y  Y3  1  0.500000  0.180792  0.204968  1
  Y  Y4  1  0.000000  0.680719  0.794957  1
  Y  Y5  1  0.000000  0.319281  0.794957  1
  Co  Co6  1  0.500000  0.500000  0.701294  1
  Co  Co7  1  0.000000  0.000000  0.298692  1
  Co  Co8  1  0.000000  0.500000  0.987229  1
  Co  Co9  1  0.500000  0.000000  0.012787  1
  Co  Co10  1  0.500000  0.332774  0.990527  1
  Co  Co11  1  0.500000  0.667226  0.990527  1
  Co  Co12  1  0.000000  0.167194  0.009476  1
  Co  Co13  1  0.000000  0.832806  0.009476  1
  Co  Co14  1  0.500000  0.295866  0.431278  1
  Co  Co15  1  0.500000  0.704134  0.431278  1
  Co  Co16  1  0.000000  0.204252  0.568748  1
  Co  Co17  1  0.000000  0.795748  0.568748  1
  Co  Co18  1  0.500000  0.878540  0.707873  1
  Co  Co19  1  0.500000  0.121460  0.707873  1
  Co  Co20  1  0.000000  0.621472  0.292130  1
  Co  Co21  1  0.000000  0.378528  0.292130  1
  P  P22  1  0.500000  0.500000  0.881004  1
  P  P23  1  0.000000  0.000000  0.118990  1
  P  P24  1  0.500000  0.500000  0.349369  1
  P  P25  1  0.000000  0.000000  0.650776  1
  P  P26  1  0.500000  0.310871  0.615720  1
  P  P27  1  0.500000  0.689129  0.615720  1
  P  P28  1  0.000000  0.189286  0.384266  1
  P  P29  1  0.000000  0.810714  0.384266  1
  P  P30  1  0.500000  0.844464  0.893076  1
  P  P31  1  0.500000  0.155536  0.893076  1
  P  P32  1  0.000000  0.655492  0.106936  1
  P  P33  1  0.000000  0.344508  0.106936  1
  W  W34  1  0.500000  0.500000  0.156022  1
  W  W35  1  0.000000  0.000000  0.844018  1
