# generated using pymatgen
data_Er10In3Bi2Pb
_symmetry_space_group_name_H-M   'P 1'
_cell_length_a   8.97588545
_cell_length_b   8.96774689
_cell_length_c   6.55859600
_cell_angle_alpha   90.00000000
_cell_angle_beta   90.00000000
_cell_angle_gamma   119.87060591
_symmetry_Int_Tables_number   1
_chemical_formula_structural   Er10In3Bi2Pb
_chemical_formula_sum   'Er10 In3 Bi2 Pb1'
_cell_volume   457.79067174
_cell_formula_units_Z   1
loop_
 _symmetry_equiv_pos_site_id
 _symmetry_equiv_pos_as_xyz
  1  'x, y, z'
loop_
 _atom_site_type_symbol
 _atom_site_label
 _atom_site_symmetry_multiplicity
 _atom_site_fract_x
 _atom_site_fract_y
 _atom_site_fract_z
 _atom_site_occupancy
  Er  Er0  1  0.671804  0.335864  0.004573  1
  Er  Er1  1  0.326537  0.667680  0.004647  1
  Er  Er2  1  0.326537  0.667680  0.495353  1
  Er  Er3  1  0.671804  0.335864  0.495427  1
  Er  Er4  1  0.770557  0.761281  0.750000  1
  Er  Er5  1  0.229574  0.990037  0.750000  1
  Er  Er6  1  0.999249  0.240089  0.750000  1
  Er  Er7  1  0.234785  0.235738  0.250000  1
  Er  Er8  1  0.764974  0.005095  0.250000  1
  Er  Er9  1  0.004084  0.763762  0.250000  1
  In  In10  1  0.999202  0.598047  0.750000  1
  In  In11  1  0.395999  0.003123  0.250000  1
  In  In12  1  0.000304  0.396094  0.250000  1
  Bi  Bi13  1  0.394320  0.393208  0.750000  1
  Bi  Bi14  1  0.604879  0.998043  0.750000  1
  Pb  Pb15  1  0.605392  0.608395  0.250000  1
