# generated using pymatgen
data_Gd6SbI10
_symmetry_space_group_name_H-M   'P 1'
_cell_length_a   8.02389545
_cell_length_b   9.90231315
_cell_length_c   9.88266400
_cell_angle_alpha   107.55195830
_cell_angle_beta   96.91799345
_cell_angle_gamma   105.41017588
_symmetry_Int_Tables_number   1
_chemical_formula_structural   Gd6SbI10
_chemical_formula_sum   'Gd6 Sb1 I10'
_cell_volume   704.35981227
_cell_formula_units_Z   1
loop_
 _symmetry_equiv_pos_site_id
 _symmetry_equiv_pos_as_xyz
  1  'x, y, z'
loop_
 _atom_site_type_symbol
 _atom_site_label
 _atom_site_symmetry_multiplicity
 _atom_site_fract_x
 _atom_site_fract_y
 _atom_site_fract_z
 _atom_site_occupancy
  Gd  Gd0  1  0.464770  0.303001  0.589797  1
  Gd  Gd1  1  0.535230  0.696999  0.410203  1
  Gd  Gd2  1  0.872382  0.135744  0.673743  1
  Gd  Gd3  1  0.127618  0.864256  0.326257  1
  Gd  Gd4  1  0.370838  0.955831  0.755748  1
  Gd  Gd5  1  0.629162  0.044169  0.244252  1
  Sb  Sb6  1  0.500000  0.000000  0.500000  1
  I  I7  1  0.411816  0.630793  0.680868  1
  I  I8  1  0.588184  0.369207  0.319132  1
  I  I9  1  0.288890  0.262605  0.852469  1
  I  I10  1  0.711110  0.737395  0.147531  1
  I  I11  1  0.846907  0.452635  0.769892  1
  I  I12  1  0.153093  0.547365  0.230108  1
  I  I13  1  0.045286  0.179661  0.407849  1
  I  I14  1  0.246481  0.912490  0.045346  1
  I  I15  1  0.753519  0.087510  0.954654  1
  I  I16  1  0.954714  0.820339  0.592151  1
