# generated using pymatgen
data_Ag6B18Se17
_symmetry_space_group_name_H-M   'P 1'
_cell_length_a   12.04941159
_cell_length_b   12.04941201
_cell_length_c   11.08609100
_cell_angle_alpha   89.01002156
_cell_angle_beta   89.01002153
_cell_angle_gamma   85.16534617
_symmetry_Int_Tables_number   1
_chemical_formula_structural   Ag6B18Se17
_chemical_formula_sum   'Ag12 B36 Se34'
_cell_volume   1603.40261942
_cell_formula_units_Z   2
loop_
 _symmetry_equiv_pos_site_id
 _symmetry_equiv_pos_as_xyz
  1  'x, y, z'
loop_
 _atom_site_type_symbol
 _atom_site_label
 _atom_site_symmetry_multiplicity
 _atom_site_fract_x
 _atom_site_fract_y
 _atom_site_fract_z
 _atom_site_occupancy
  Ag  Ag0  1  0.872642  0.675195  0.898464  1
  Ag  Ag1  1  0.302960  0.127421  0.602974  1
  Ag  Ag2  1  0.127421  0.302960  0.102974  1
  Ag  Ag3  1  0.675195  0.872642  0.398464  1
  Ag  Ag4  1  0.995506  0.998167  0.999978  1
  Ag  Ag5  1  0.998167  0.995506  0.499978  1
  Ag  Ag6  1  0.740746  0.312595  0.957290  1
  Ag  Ag7  1  0.689445  0.250091  0.542334  1
  Ag  Ag8  1  0.250091  0.689445  0.042334  1
  Ag  Ag9  1  0.312595  0.740746  0.457290  1
  Ag  Ag10  1  0.575218  0.445187  0.252881  1
  Ag  Ag11  1  0.445187  0.575218  0.752881  1
  B  B12  1  0.486166  0.878948  0.072983  1
  B  B13  1  0.126548  0.511821  0.428879  1
  B  B14  1  0.511821  0.126548  0.928879  1
  B  B15  1  0.878948  0.486166  0.572983  1
  B  B16  1  0.492032  0.005973  0.153423  1
  B  B17  1  0.999980  0.505283  0.348410  1
  B  B18  1  0.505283  0.999980  0.848410  1
  B  B19  1  0.005973  0.492032  0.653423  1
  B  B20  1  0.567979  0.887800  0.939145  1
  B  B21  1  0.118548  0.429428  0.562191  1
  B  B22  1  0.429428  0.118548  0.062191  1
  B  B23  1  0.887800  0.567979  0.439145  1
  B  B24  1  0.311351  0.973550  0.325110  1
  B  B25  1  0.027421  0.686196  0.176363  1
  B  B26  1  0.686196  0.027421  0.676363  1
  B  B27  1  0.973550  0.311351  0.825110  1
  B  B28  1  0.374411  0.985364  0.068019  1
  B  B29  1  0.020361  0.623199  0.433849  1
  B  B30  1  0.623199  0.020361  0.933849  1
  B  B31  1  0.985364  0.374411  0.568019  1
  B  B32  1  0.611277  0.946681  0.073615  1
  B  B33  1  0.058913  0.386175  0.428125  1
  B  B34  1  0.386175  0.058913  0.928125  1
  B  B35  1  0.946681  0.611277  0.573615  1
  B  B36  1  0.785463  0.050925  0.192831  1
  B  B37  1  0.951622  0.211596  0.310813  1
  B  B38  1  0.211596  0.951622  0.810813  1
  B  B39  1  0.050925  0.785463  0.692831  1
  B  B40  1  0.576619  0.091214  0.068209  1
  B  B41  1  0.914407  0.421048  0.434093  1
  B  B42  1  0.421048  0.914407  0.934093  1
  B  B43  1  0.091214  0.576619  0.568209  1
  B  B44  1  0.594063  0.653164  0.031533  1
  B  B45  1  0.354719  0.408798  0.467063  1
  B  B46  1  0.408798  0.354719  0.967063  1
  B  B47  1  0.653164  0.594063  0.531533  1
  Se  Se48  1  0.476516  0.723799  0.141879  1
  Se  Se49  1  0.280400  0.525451  0.358497  1
  Se  Se50  1  0.525451  0.280400  0.858497  1
  Se  Se51  1  0.723799  0.476516  0.641879  1
  Se  Se52  1  0.675972  0.513406  0.070115  1
  Se  Se53  1  0.499851  0.339912  0.428336  1
  Se  Se54  1  0.339912  0.499851  0.928336  1
  Se  Se55  1  0.513406  0.675972  0.570115  1
  Se  Se56  1  0.228852  0.960694  0.478258  1
  Se  Se57  1  0.031720  0.769265  0.022540  1
  Se  Se58  1  0.769265  0.031720  0.522540  1
  Se  Se59  1  0.960694  0.228852  0.978258  1
  Se  Se60  1  0.752279  0.897264  0.160577  1
  Se  Se61  1  0.106024  0.243440  0.342503  1
  Se  Se62  1  0.243440  0.106024  0.842503  1
  Se  Se63  1  0.897264  0.752279  0.660576  1
  Se  Se64  1  0.681631  0.180074  0.157009  1
  Se  Se65  1  0.823833  0.316693  0.347092  1
  Se  Se66  1  0.316693  0.823833  0.847092  1
  Se  Se67  1  0.180074  0.681631  0.657009  1
  Se  Se68  1  0.938982  0.059408  0.251274  1
  Se  Se69  1  0.059408  0.938982  0.751274  1
  Se  Se70  1  0.238271  0.960662  0.169285  1
  Se  Se71  1  0.043378  0.759411  0.331846  1
  Se  Se72  1  0.759411  0.043378  0.831846  1
  Se  Se73  1  0.960662  0.238271  0.669285  1
  Se  Se74  1  0.469722  0.006295  0.332860  1
  Se  Se75  1  0.999554  0.526969  0.169131  1
  Se  Se76  1  0.526969  0.999554  0.669131  1
  Se  Se77  1  0.006295  0.469722  0.832860  1
  Se  Se78  1  0.642032  0.738015  0.887289  1
  Se  Se79  1  0.270387  0.355819  0.610333  1
  Se  Se80  1  0.355819  0.270387  0.110333  1
  Se  Se81  1  0.738015  0.642032  0.387289  1
