# generated using pymatgen
data_Er10Al5PC8
_symmetry_space_group_name_H-M   'P 1'
_cell_length_a   10.68057200
_cell_length_b   10.68057200
_cell_length_c   3.49813000
_cell_angle_alpha   90.00000000
_cell_angle_beta   90.00000000
_cell_angle_gamma   90.00000000
_symmetry_Int_Tables_number   1
_chemical_formula_structural   Er10Al5PC8
_chemical_formula_sum   'Er10 Al5 P1 C8'
_cell_volume   399.04784433
_cell_formula_units_Z   1
loop_
 _symmetry_equiv_pos_site_id
 _symmetry_equiv_pos_as_xyz
  1  'x, y, z'
loop_
 _atom_site_type_symbol
 _atom_site_label
 _atom_site_symmetry_multiplicity
 _atom_site_fract_x
 _atom_site_fract_y
 _atom_site_fract_z
 _atom_site_occupancy
  Er  Er0  1  0.548146  0.722428  0.500000  1
  Er  Er1  1  0.451854  0.277572  0.500000  1
  Er  Er2  1  0.053007  0.768439  0.500000  1
  Er  Er3  1  0.946993  0.231561  0.500000  1
  Er  Er4  1  0.277572  0.548146  0.500000  1
  Er  Er5  1  0.722428  0.451854  0.500000  1
  Er  Er6  1  0.231561  0.053007  0.500000  1
  Er  Er7  1  0.768439  0.946993  0.500000  1
  Er  Er8  1  0.500000  0.000000  0.000000  1
  Er  Er9  1  0.000000  0.500000  0.000000  1
  Al  Al10  1  0.710091  0.195557  0.000000  1
  Al  Al11  1  0.289909  0.804443  0.000000  1
  Al  Al12  1  0.195557  0.289909  0.000000  1
  Al  Al13  1  0.804443  0.710091  0.000000  1
  Al  Al14  1  0.000000  0.000000  0.000000  1
  P  P15  1  0.500000  0.500000  0.000000  1
  C  C16  1  0.628449  0.133108  0.500000  1
  C  C17  1  0.371551  0.866892  0.500000  1
  C  C18  1  0.133108  0.371551  0.500000  1
  C  C19  1  0.866892  0.628449  0.500000  1
  C  C20  1  0.167852  0.658411  0.000000  1
  C  C21  1  0.832148  0.341589  0.000000  1
  C  C22  1  0.658411  0.832148  0.000000  1
  C  C23  1  0.341589  0.167852  0.000000  1
