# generated using pymatgen
data_Tb5CeCo5
_symmetry_space_group_name_H-M   'P 1'
_cell_length_a   5.78074133
_cell_length_b   5.78074001
_cell_length_c   21.07073400
_cell_angle_alpha   90.00000000
_cell_angle_beta   90.00000000
_cell_angle_gamma   139.74512197
_symmetry_Int_Tables_number   1
_chemical_formula_structural   Tb5CeCo5
_chemical_formula_sum   'Tb10 Ce2 Co10'
_cell_volume   454.99452473
_cell_formula_units_Z   2
loop_
 _symmetry_equiv_pos_site_id
 _symmetry_equiv_pos_as_xyz
  1  'x, y, z'
loop_
 _atom_site_type_symbol
 _atom_site_label
 _atom_site_symmetry_multiplicity
 _atom_site_fract_x
 _atom_site_fract_y
 _atom_site_fract_z
 _atom_site_occupancy
  Tb  Tb0  1  0.279049  0.720951  0.250000  1
  Tb  Tb1  1  0.280821  0.719179  0.074400  1
  Tb  Tb2  1  0.999070  0.000930  0.836392  1
  Tb  Tb3  1  0.720951  0.279049  0.750000  1
  Tb  Tb4  1  0.719179  0.280821  0.574400  1
  Tb  Tb5  1  0.000930  0.999070  0.336392  1
  Tb  Tb6  1  0.999070  0.000930  0.663608  1
  Tb  Tb7  1  0.719179  0.280821  0.925600  1
  Tb  Tb8  1  0.000930  0.999070  0.163608  1
  Tb  Tb9  1  0.280821  0.719179  0.425600  1
  Ce  Ce10  1  0.000000  0.000000  0.500000  1
  Ce  Ce11  1  0.000000  0.000000  0.000000  1
  Co  Co12  1  0.304272  0.695728  0.655087  1
  Co  Co13  1  0.570259  0.429741  0.442961  1
  Co  Co14  1  0.418966  0.581034  0.750000  1
  Co  Co15  1  0.429741  0.570259  0.942961  1
  Co  Co16  1  0.581034  0.418966  0.250000  1
  Co  Co17  1  0.429741  0.570259  0.557039  1
  Co  Co18  1  0.695728  0.304272  0.344913  1
  Co  Co19  1  0.695728  0.304272  0.155087  1
  Co  Co20  1  0.570259  0.429741  0.057039  1
  Co  Co21  1  0.304272  0.695728  0.844913  1
