# generated using pymatgen
data_HoTh3(Re2Si)8
_symmetry_space_group_name_H-M   'P 1'
_cell_length_a   4.16048100
_cell_length_b   7.28042811
_cell_length_c   15.60024675
_cell_angle_alpha   90.30602005
_cell_angle_beta   90.00000000
_cell_angle_gamma   90.00000000
_symmetry_Int_Tables_number   1
_chemical_formula_structural   HoTh3(Re2Si)8
_chemical_formula_sum   'Ho1 Th3 Re16 Si8'
_cell_volume   472.52602590
_cell_formula_units_Z   1
loop_
 _symmetry_equiv_pos_site_id
 _symmetry_equiv_pos_as_xyz
  1  'x, y, z'
loop_
 _atom_site_type_symbol
 _atom_site_label
 _atom_site_symmetry_multiplicity
 _atom_site_fract_x
 _atom_site_fract_y
 _atom_site_fract_z
 _atom_site_occupancy
  Ho  Ho0  1  0.000000  0.585568  0.118064  1
  Th  Th1  1  0.000000  0.417783  0.883989  1
  Th  Th2  1  0.500000  0.082717  0.379458  1
  Th  Th3  1  0.500000  0.913852  0.617836  1
  Re  Re4  1  0.000000  0.150490  0.052744  1
  Re  Re5  1  0.000000  0.862902  0.950997  1
  Re  Re6  1  0.500000  0.639767  0.448602  1
  Re  Re7  1  0.500000  0.356112  0.550595  1
  Re  Re8  1  0.000000  0.735670  0.319568  1
  Re  Re9  1  0.000000  0.260807  0.678813  1
  Re  Re10  1  0.500000  0.241232  0.177426  1
  Re  Re11  1  0.500000  0.762174  0.822955  1
  Re  Re12  1  0.000000  0.427197  0.418250  1
  Re  Re13  1  0.000000  0.569529  0.580112  1
  Re  Re14  1  0.500000  0.934944  0.083193  1
  Re  Re15  1  0.500000  0.073377  0.921654  1
  Re  Re16  1  0.000000  0.990313  0.204092  1
  Re  Re17  1  0.000000  0.001915  0.794969  1
  Re  Re18  1  0.500000  0.495750  0.292801  1
  Re  Re19  1  0.500000  0.500786  0.707014  1
  Si  Si20  1  0.000000  0.827376  0.474036  1
  Si  Si21  1  0.000000  0.169293  0.523959  1
  Si  Si22  1  0.500000  0.339062  0.025953  1
  Si  Si23  1  0.500000  0.673727  0.978492  1
  Si  Si24  1  0.000000  0.301663  0.268972  1
  Si  Si25  1  0.000000  0.697216  0.727139  1
  Si  Si26  1  0.500000  0.791127  0.223747  1
  Si  Si27  1  0.500000  0.197654  0.774571  1
