# generated using pymatgen
data_Zr3U(Co2Sn)2
_symmetry_space_group_name_H-M   'P 1'
_cell_length_a   7.19929447
_cell_length_b   7.19929445
_cell_length_c   3.35433600
_cell_angle_alpha   90.00000000
_cell_angle_beta   90.00000000
_cell_angle_gamma   93.10531009
_symmetry_Int_Tables_number   1
_chemical_formula_structural   Zr3U(Co2Sn)2
_chemical_formula_sum   'Zr3 U1 Co4 Sn2'
_cell_volume   173.59942161
_cell_formula_units_Z   1
loop_
 _symmetry_equiv_pos_site_id
 _symmetry_equiv_pos_as_xyz
  1  'x, y, z'
loop_
 _atom_site_type_symbol
 _atom_site_label
 _atom_site_symmetry_multiplicity
 _atom_site_fract_x
 _atom_site_fract_y
 _atom_site_fract_z
 _atom_site_occupancy
  Zr  Zr0  1  0.322700  0.822700  0.500000  1
  Zr  Zr1  1  0.831558  0.671900  0.500000  1
  Zr  Zr2  1  0.171900  0.331558  0.500000  1
  U  U3  1  0.668216  0.168216  0.500000  1
  Co  Co4  1  0.395169  0.136408  0.000000  1
  Co  Co5  1  0.852126  0.352126  0.000000  1
  Co  Co6  1  0.114834  0.614834  0.000000  1
  Co  Co7  1  0.636408  0.895169  0.000000  1
  Sn  Sn8  1  0.013637  0.993451  0.000000  1
  Sn  Sn9  1  0.493451  0.513637  0.000000  1
