# generated using pymatgen
data_La8Al8CuRh6Au
_symmetry_space_group_name_H-M   'P 1'
_cell_length_a   4.31302900
_cell_length_b   7.30158255
_cell_length_c   16.41037920
_cell_angle_alpha   90.12258392
_cell_angle_beta   90.00000000
_cell_angle_gamma   90.00000000
_symmetry_Int_Tables_number   1
_chemical_formula_structural   La8Al8CuRh6Au
_chemical_formula_sum   'La8 Al8 Cu1 Rh6 Au1'
_cell_volume   516.79345012
_cell_formula_units_Z   1
loop_
 _symmetry_equiv_pos_site_id
 _symmetry_equiv_pos_as_xyz
  1  'x, y, z'
loop_
 _atom_site_type_symbol
 _atom_site_label
 _atom_site_symmetry_multiplicity
 _atom_site_fract_x
 _atom_site_fract_y
 _atom_site_fract_z
 _atom_site_occupancy
  La  La0  1  0.250000  0.525450  0.776496  1
  La  La1  1  0.750000  0.467050  0.222944  1
  La  La2  1  0.750000  0.987347  0.284568  1
  La  La3  1  0.250000  0.016973  0.718759  1
  La  La4  1  0.250000  0.656643  0.561260  1
  La  La5  1  0.750000  0.345661  0.441822  1
  La  La6  1  0.750000  0.848039  0.052434  1
  La  La7  1  0.250000  0.155151  0.940764  1
  Al  Al8  1  0.250000  0.653256  0.356373  1
  Al  Al9  1  0.750000  0.344803  0.646513  1
  Al  Al10  1  0.750000  0.837283  0.851227  1
  Al  Al11  1  0.250000  0.161653  0.145648  1
  Al  Al12  1  0.250000  0.501436  0.057954  1
  Al  Al13  1  0.750000  0.493765  0.938151  1
  Al  Al14  1  0.750000  0.994290  0.561492  1
  Al  Al15  1  0.250000  0.006932  0.441221  1
  Cu  Cu16  1  0.750000  0.233246  0.816766  1
  Rh  Rh17  1  0.750000  0.733728  0.682082  1
  Rh  Rh18  1  0.250000  0.270882  0.320704  1
  Rh  Rh19  1  0.250000  0.708849  0.927026  1
  Rh  Rh20  1  0.750000  0.288431  0.070472  1
  Rh  Rh21  1  0.750000  0.786745  0.428335  1
  Rh  Rh22  1  0.250000  0.215019  0.573909  1
  Au  Au23  1  0.250000  0.767367  0.183078  1
