# generated using pymatgen
data_Pr2ScCrO6
_symmetry_space_group_name_H-M   'P 1'
_cell_length_a   5.57766941
_cell_length_b   5.73681300
_cell_length_c   7.96718868
_cell_angle_alpha   90.00000000
_cell_angle_beta   90.21146039
_cell_angle_gamma   90.00000000
_symmetry_Int_Tables_number   1
_chemical_formula_structural   Pr2ScCrO6
_chemical_formula_sum   'Pr4 Sc2 Cr2 O12'
_cell_volume   254.93273697
_cell_formula_units_Z   2
loop_
 _symmetry_equiv_pos_site_id
 _symmetry_equiv_pos_as_xyz
  1  'x, y, z'
loop_
 _atom_site_type_symbol
 _atom_site_label
 _atom_site_symmetry_multiplicity
 _atom_site_fract_x
 _atom_site_fract_y
 _atom_site_fract_z
 _atom_site_occupancy
  Pr  Pr0  1  0.513276  0.550934  0.249657  1
  Pr  Pr1  1  0.986724  0.050934  0.250343  1
  Pr  Pr2  1  0.486724  0.449066  0.750343  1
  Pr  Pr3  1  0.013276  0.949066  0.749657  1
  Sc  Sc4  1  0.000000  0.500000  0.000000  1
  Sc  Sc5  1  0.500000  0.000000  0.500000  1
  Cr  Cr6  1  0.000000  0.500000  0.500000  1
  Cr  Cr7  1  0.500000  0.000000  0.000000  1
  O  O8  1  0.405507  0.970260  0.245020  1
  O  O9  1  0.094493  0.470260  0.254980  1
  O  O10  1  0.594493  0.029740  0.754980  1
  O  O11  1  0.905507  0.529740  0.745020  1
  O  O12  1  0.789423  0.797587  0.050253  1
  O  O13  1  0.710577  0.297587  0.449747  1
  O  O14  1  0.200648  0.210517  0.550535  1
  O  O15  1  0.299352  0.710517  0.949465  1
  O  O16  1  0.210577  0.202413  0.949747  1
  O  O17  1  0.289423  0.702413  0.550253  1
  O  O18  1  0.799352  0.789483  0.449465  1
  O  O19  1  0.700648  0.289483  0.050535  1
