# generated using pymatgen
data_Li7PrNd7CdSn8
_symmetry_space_group_name_H-M   'P 1'
_cell_length_a   9.61179100
_cell_length_b   9.60376591
_cell_length_c   7.64467115
_cell_angle_alpha   90.07892009
_cell_angle_beta   90.00000000
_cell_angle_gamma   120.02764934
_symmetry_Int_Tables_number   1
_chemical_formula_structural   Li7PrNd7CdSn8
_chemical_formula_sum   'Li7 Pr1 Nd7 Cd1 Sn8'
_cell_volume   610.96130810
_cell_formula_units_Z   1
loop_
 _symmetry_equiv_pos_site_id
 _symmetry_equiv_pos_as_xyz
  1  'x, y, z'
loop_
 _atom_site_type_symbol
 _atom_site_label
 _atom_site_symmetry_multiplicity
 _atom_site_fract_x
 _atom_site_fract_y
 _atom_site_fract_z
 _atom_site_occupancy
  Li  Li0  1  0.164515  0.832176  0.288766  1
  Li  Li1  1  0.667660  0.832176  0.288766  1
  Li  Li2  1  0.833103  0.666206  0.789401  1
  Li  Li3  1  0.832671  0.166436  0.788708  1
  Li  Li4  1  0.333765  0.166436  0.788708  1
  Li  Li5  1  0.333488  0.666977  0.669699  1
  Li  Li6  1  0.668191  0.336381  0.167741  1
  Pr  Pr7  1  0.512079  0.024159  0.498140  1
  Nd  Nd8  1  0.516240  0.489880  0.496288  1
  Nd  Nd9  1  0.973638  0.489880  0.496288  1
  Nd  Nd10  1  0.488191  0.976381  0.989929  1
  Nd  Nd11  1  0.489180  0.512792  0.993643  1
  Nd  Nd12  1  0.023613  0.512792  0.993643  1
  Nd  Nd13  1  0.996770  0.993542  0.502248  1
  Nd  Nd14  1  0.000055  0.000111  0.999236  1
  Cd  Cd15  1  0.166637  0.333275  0.292749  1
  Sn  Sn16  1  0.166462  0.332924  0.730039  1
  Sn  Sn17  1  0.165807  0.832485  0.729756  1
  Sn  Sn18  1  0.666677  0.832485  0.729756  1
  Sn  Sn19  1  0.833462  0.666923  0.229287  1
  Sn  Sn20  1  0.825004  0.162590  0.224962  1
  Sn  Sn21  1  0.337586  0.162590  0.224962  1
  Sn  Sn22  1  0.338093  0.676186  0.262628  1
  Sn  Sn23  1  0.667111  0.334222  0.766629  1
