# generated using pymatgen
data_Tm3In3NiIrPt
_symmetry_space_group_name_H-M   'P 1'
_cell_length_a   3.64477100
_cell_length_b   7.66814152
_cell_length_c   7.67835041
_cell_angle_alpha   120.00678018
_cell_angle_beta   90.00000000
_cell_angle_gamma   90.00000000
_symmetry_Int_Tables_number   1
_chemical_formula_structural   Tm3In3NiIrPt
_chemical_formula_sum   'Tm3 In3 Ni1 Ir1 Pt1'
_cell_volume   185.83574377
_cell_formula_units_Z   1
loop_
 _symmetry_equiv_pos_site_id
 _symmetry_equiv_pos_as_xyz
  1  'x, y, z'
loop_
 _atom_site_type_symbol
 _atom_site_label
 _atom_site_symmetry_multiplicity
 _atom_site_fract_x
 _atom_site_fract_y
 _atom_site_fract_z
 _atom_site_occupancy
  Tm  Tm0  1  0.500000  0.403484  0.991768  1
  Tm  Tm1  1  0.500000  0.587750  0.596421  1
  Tm  Tm2  1  0.500000  0.008303  0.412543  1
  In  In3  1  0.000000  0.747263  0.999455  1
  In  In4  1  0.000000  0.251234  0.252950  1
  In  In5  1  0.000000  0.000658  0.747568  1
  Ni  Ni6  1  0.500000  0.001106  0.999016  1
  Ir  Ir7  1  0.000000  0.333373  0.666655  1
  Pt  Pt8  1  0.000000  0.666931  0.333623  1
