# generated using pymatgen
data_NbPt7Rh
_symmetry_space_group_name_H-M   'P 1'
_cell_length_a   6.30938579
_cell_length_b   6.30938400
_cell_length_c   6.26568330
_cell_angle_alpha   95.68114279
_cell_angle_beta   95.68112494
_cell_angle_gamma   143.45476006
_symmetry_Int_Tables_number   1
_chemical_formula_structural   NbPt7Rh
_chemical_formula_sum   'Nb1 Pt7 Rh1'
_cell_volume   140.92595181
_cell_formula_units_Z   1
loop_
 _symmetry_equiv_pos_site_id
 _symmetry_equiv_pos_as_xyz
  1  'x, y, z'
loop_
 _atom_site_type_symbol
 _atom_site_label
 _atom_site_symmetry_multiplicity
 _atom_site_fract_x
 _atom_site_fract_y
 _atom_site_fract_z
 _atom_site_occupancy
  Nb  Nb0  1  0.996747  0.996747  0.993493  1
  Pt  Pt1  1  0.663942  0.663942  0.327883  1
  Pt  Pt2  1  0.661807  0.336795  0.998602  1
  Pt  Pt3  1  0.336795  0.661807  0.998602  1
  Pt  Pt4  1  0.001708  0.330234  0.331942  1
  Pt  Pt5  1  0.998214  0.671263  0.669477  1
  Pt  Pt6  1  0.671263  0.998214  0.669477  1
  Pt  Pt7  1  0.330234  0.001708  0.331942  1
  Rh  Rh8  1  0.339290  0.339290  0.678582  1
