# generated using pymatgen
data_Mn9Mo12P3N4
_symmetry_space_group_name_H-M   'P 1'
_cell_length_a   7.75578986
_cell_length_b   7.84122839
_cell_length_c   7.75579000
_cell_angle_alpha   60.35978850
_cell_angle_beta   59.99999939
_cell_angle_gamma   60.35979356
_symmetry_Int_Tables_number   1
_chemical_formula_structural   Mn9Mo12P3N4
_chemical_formula_sum   'Mn9 Mo12 P3 N4'
_cell_volume   335.32172559
_cell_formula_units_Z   1
loop_
 _symmetry_equiv_pos_site_id
 _symmetry_equiv_pos_as_xyz
  1  'x, y, z'
loop_
 _atom_site_type_symbol
 _atom_site_label
 _atom_site_symmetry_multiplicity
 _atom_site_fract_x
 _atom_site_fract_y
 _atom_site_fract_z
 _atom_site_occupancy
  Mn  Mn0  1  0.625000  0.125000  0.625000  1
  Mn  Mn1  1  0.740036  0.423814  0.418074  1
  Mn  Mn2  1  0.419579  0.741265  0.419579  1
  Mn  Mn3  1  0.418074  0.423814  0.740036  1
  Mn  Mn4  1  0.418074  0.423814  0.418074  1
  Mn  Mn5  1  0.509964  0.826186  0.831926  1
  Mn  Mn6  1  0.830421  0.508735  0.830421  1
  Mn  Mn7  1  0.831926  0.826186  0.509964  1
  Mn  Mn8  1  0.831926  0.826186  0.831926  1
  Mo  Mo9  1  0.799744  0.801287  0.199484  1
  Mo  Mo10  1  0.203700  0.200133  0.798083  1
  Mo  Mo11  1  0.798083  0.200133  0.798083  1
  Mo  Mo12  1  0.199484  0.801287  0.199484  1
  Mo  Mo13  1  0.199484  0.801287  0.799744  1
  Mo  Mo14  1  0.798083  0.200133  0.203700  1
  Mo  Mo15  1  0.450256  0.448713  0.050516  1
  Mo  Mo16  1  0.046300  0.049867  0.451917  1
  Mo  Mo17  1  0.451917  0.049867  0.451917  1
  Mo  Mo18  1  0.050516  0.448713  0.050516  1
  Mo  Mo19  1  0.050516  0.448713  0.450256  1
  Mo  Mo20  1  0.451917  0.049867  0.046300  1
  P  P21  1  0.125000  0.625000  0.625000  1
  P  P22  1  0.625000  0.625000  0.125000  1
  P  P23  1  0.625000  0.625000  0.625000  1
  N  N24  1  0.625000  0.125000  0.125000  1
  N  N25  1  0.125000  0.625000  0.125000  1
  N  N26  1  0.125000  0.125000  0.625000  1
  N  N27  1  0.125000  0.125000  0.125000  1
