# generated using pymatgen
data_YPaCdPt2
_symmetry_space_group_name_H-M   'P 1'
_cell_length_a   7.78923400
_cell_length_b   7.92369000
_cell_length_c   3.64824700
_cell_angle_alpha   90.00000000
_cell_angle_beta   90.00000000
_cell_angle_gamma   90.00000000
_symmetry_Int_Tables_number   1
_chemical_formula_structural   YPaCdPt2
_chemical_formula_sum   'Y2 Pa2 Cd2 Pt4'
_cell_volume   225.16789153
_cell_formula_units_Z   2
loop_
 _symmetry_equiv_pos_site_id
 _symmetry_equiv_pos_as_xyz
  1  'x, y, z'
loop_
 _atom_site_type_symbol
 _atom_site_label
 _atom_site_symmetry_multiplicity
 _atom_site_fract_x
 _atom_site_fract_y
 _atom_site_fract_z
 _atom_site_occupancy
  Y  Y0  1  0.829194  0.672144  0.500000  1
  Y  Y1  1  0.670806  0.172144  0.500000  1
  Pa  Pa2  1  0.165118  0.331346  0.500000  1
  Pa  Pa3  1  0.334882  0.831346  0.500000  1
  Cd  Cd4  1  0.507814  0.494882  0.000000  1
  Cd  Cd5  1  0.992186  0.994882  0.000000  1
  Pt  Pt6  1  0.613026  0.871053  0.000000  1
  Pt  Pt7  1  0.150401  0.630575  0.000000  1
  Pt  Pt8  1  0.886974  0.371053  0.000000  1
  Pt  Pt9  1  0.349599  0.130575  0.000000  1
