# generated using pymatgen
data_Rb8Sr4HfZrAs8
_symmetry_space_group_name_H-M   'P 1'
_cell_length_a   10.78803217
_cell_length_b   10.79162431
_cell_length_c   7.93868921
_cell_angle_alpha   87.78467023
_cell_angle_beta   87.81519558
_cell_angle_gamma   119.40121548
_symmetry_Int_Tables_number   1
_chemical_formula_structural   Rb8Sr4HfZrAs8
_chemical_formula_sum   'Rb8 Sr4 Hf1 Zr1 As8'
_cell_volume   802.85388028
_cell_formula_units_Z   1
loop_
 _symmetry_equiv_pos_site_id
 _symmetry_equiv_pos_as_xyz
  1  'x, y, z'
loop_
 _atom_site_type_symbol
 _atom_site_label
 _atom_site_symmetry_multiplicity
 _atom_site_fract_x
 _atom_site_fract_y
 _atom_site_fract_z
 _atom_site_occupancy
  Rb  Rb0  1  0.476042  0.943380  0.387400  1
  Rb  Rb1  1  0.943155  0.475933  0.887295  1
  Rb  Rb2  1  0.866091  0.719853  0.164259  1
  Rb  Rb3  1  0.265834  0.126696  0.231851  1
  Rb  Rb4  1  0.856296  0.140442  0.191115  1
  Rb  Rb5  1  0.126617  0.265662  0.731610  1
  Rb  Rb6  1  0.720084  0.866179  0.664017  1
  Rb  Rb7  1  0.140337  0.856413  0.690887  1
  Sr  Sr8  1  0.076129  0.533003  0.394411  1
  Sr  Sr9  1  0.473433  0.530365  0.377639  1
  Sr  Sr10  1  0.533433  0.076905  0.894003  1
  Sr  Sr11  1  0.530666  0.473167  0.877471  1
  Hf  Hf12  1  0.664193  0.337048  0.490620  1
  Zr  Zr13  1  0.336947  0.664340  0.990277  1
  As  As14  1  0.636380  0.327936  0.160916  1
  As  As15  1  0.327795  0.636017  0.657912  1
  As  As16  1  0.213120  0.405517  0.140615  1
  As  As17  1  0.601791  0.791574  0.077967  1
  As  As18  1  0.211712  0.803318  0.100951  1
  As  As19  1  0.790571  0.599835  0.577309  1
  As  As20  1  0.407235  0.213970  0.639490  1
  As  As21  1  0.802257  0.212565  0.600046  1
