# generated using pymatgen
data_Zr7Ta(Co4As3)4
_symmetry_space_group_name_H-M   'P 1'
_cell_length_a   12.53724690
_cell_length_b   12.53724677
_cell_length_c   3.78378900
_cell_angle_alpha   90.00000000
_cell_angle_beta   90.00000000
_cell_angle_gamma   120.21903657
_symmetry_Int_Tables_number   1
_chemical_formula_structural   Zr7Ta(Co4As3)4
_chemical_formula_sum   'Zr7 Ta1 Co16 As12'
_cell_volume   513.92423845
_cell_formula_units_Z   1
loop_
 _symmetry_equiv_pos_site_id
 _symmetry_equiv_pos_as_xyz
  1  'x, y, z'
loop_
 _atom_site_type_symbol
 _atom_site_label
 _atom_site_symmetry_multiplicity
 _atom_site_fract_x
 _atom_site_fract_y
 _atom_site_fract_z
 _atom_site_occupancy
  Zr  Zr0  1  0.823163  0.823163  0.500000  1
  Zr  Zr1  1  0.000466  0.175689  0.500000  1
  Zr  Zr2  1  0.556826  0.999433  0.000000  1
  Zr  Zr3  1  0.333700  0.665848  0.000000  1
  Zr  Zr4  1  0.665848  0.333700  0.000000  1
  Zr  Zr5  1  0.999433  0.556826  0.000000  1
  Zr  Zr6  1  0.175689  0.000466  0.500000  1
  Ta  Ta7  1  0.442154  0.442154  0.000000  1
  Co  Co8  1  0.626109  0.820157  0.000000  1
  Co  Co9  1  0.375430  0.199012  0.000000  1
  Co  Co10  1  0.000524  0.720093  0.500000  1
  Co  Co11  1  0.282496  0.282496  0.500000  1
  Co  Co12  1  0.876726  0.355845  0.500000  1
  Co  Co13  1  0.720093  0.000524  0.500000  1
  Co  Co14  1  0.820157  0.626109  0.000000  1
  Co  Co15  1  0.178677  0.805373  0.000000  1
  Co  Co16  1  0.355845  0.876726  0.500000  1
  Co  Co17  1  0.124694  0.479273  0.500000  1
  Co  Co18  1  0.640790  0.518492  0.500000  1
  Co  Co19  1  0.000120  0.000120  0.000000  1
  Co  Co20  1  0.518492  0.640790  0.500000  1
  Co  Co21  1  0.479273  0.124694  0.500000  1
  Co  Co22  1  0.199012  0.375430  0.000000  1
  Co  Co23  1  0.805373  0.178677  0.000000  1
  As  As24  1  0.002077  0.346280  0.000000  1
  As  As25  1  0.824310  0.515225  0.500000  1
  As  As26  1  0.689687  0.174924  0.500000  1
  As  As27  1  0.176954  0.176954  0.000000  1
  As  As28  1  0.649691  0.649691  0.000000  1
  As  As29  1  0.823797  0.999638  0.000000  1
  As  As30  1  0.515225  0.824310  0.500000  1
  As  As31  1  0.174924  0.689687  0.500000  1
  As  As32  1  0.346280  0.002077  0.000000  1
  As  As33  1  0.483951  0.312376  0.500000  1
  As  As34  1  0.999638  0.823797  0.000000  1
  As  As35  1  0.312376  0.483951  0.500000  1
