# generated using pymatgen
data_Lu2ZnB2Ir3Rh2
_symmetry_space_group_name_H-M   'P 1'
_cell_length_a   9.51279508
_cell_length_b   9.50839608
_cell_length_c   3.12536700
_cell_angle_alpha   90.00000000
_cell_angle_beta   90.00000000
_cell_angle_gamma   89.98490884
_symmetry_Int_Tables_number   1
_chemical_formula_structural   Lu2ZnB2Ir3Rh2
_chemical_formula_sum   'Lu4 Zn2 B4 Ir6 Rh4'
_cell_volume   282.69388429
_cell_formula_units_Z   2
loop_
 _symmetry_equiv_pos_site_id
 _symmetry_equiv_pos_as_xyz
  1  'x, y, z'
loop_
 _atom_site_type_symbol
 _atom_site_label
 _atom_site_symmetry_multiplicity
 _atom_site_fract_x
 _atom_site_fract_y
 _atom_site_fract_z
 _atom_site_occupancy
  Lu  Lu0  1  0.677192  0.177380  0.000000  1
  Lu  Lu1  1  0.322246  0.823227  0.000000  1
  Lu  Lu2  1  0.177066  0.322260  0.000000  1
  Lu  Lu3  1  0.823057  0.677431  0.000000  1
  Zn  Zn4  1  0.000164  0.999324  0.000000  1
  Zn  Zn5  1  0.500908  0.499776  0.000000  1
  B  B6  1  0.125406  0.623298  0.000000  1
  B  B7  1  0.876693  0.374757  0.000000  1
  B  B8  1  0.623135  0.874558  0.000000  1
  B  B9  1  0.376571  0.125502  0.000000  1
  Ir  Ir10  1  0.930178  0.219126  0.500000  1
  Ir  Ir11  1  0.281031  0.568719  0.500000  1
  Ir  Ir12  1  0.568989  0.719477  0.500000  1
  Ir  Ir13  1  0.430760  0.281139  0.500000  1
  Ir  Ir14  1  0.499728  0.000312  0.500000  1
  Ir  Ir15  1  0.999398  0.500514  0.500000  1
  Rh  Rh16  1  0.218248  0.068956  0.500000  1
  Rh  Rh17  1  0.781256  0.931077  0.500000  1
  Rh  Rh18  1  0.069381  0.781271  0.500000  1
  Rh  Rh19  1  0.718593  0.431895  0.500000  1
