# generated using pymatgen
data_Tb3Mn2P6Ir7
_symmetry_space_group_name_H-M   'P 1'
_cell_length_a   3.94216400
_cell_length_b   11.18210800
_cell_length_c   12.71460700
_cell_angle_alpha   90.00000000
_cell_angle_beta   90.00000000
_cell_angle_gamma   90.00000000
_symmetry_Int_Tables_number   1
_chemical_formula_structural   Tb3Mn2P6Ir7
_chemical_formula_sum   'Tb6 Mn4 P12 Ir14'
_cell_volume   560.48153719
_cell_formula_units_Z   2
loop_
 _symmetry_equiv_pos_site_id
 _symmetry_equiv_pos_as_xyz
  1  'x, y, z'
loop_
 _atom_site_type_symbol
 _atom_site_label
 _atom_site_symmetry_multiplicity
 _atom_site_fract_x
 _atom_site_fract_y
 _atom_site_fract_z
 _atom_site_occupancy
  Tb  Tb0  1  0.000000  0.500000  0.519381  1
  Tb  Tb1  1  0.500000  0.000000  0.480619  1
  Tb  Tb2  1  0.500000  0.817922  0.201119  1
  Tb  Tb3  1  0.500000  0.182078  0.201119  1
  Tb  Tb4  1  0.000000  0.682078  0.798881  1
  Tb  Tb5  1  0.000000  0.317922  0.798881  1
  Mn  Mn6  1  0.500000  0.500000  0.172083  1
  Mn  Mn7  1  0.000000  0.000000  0.827917  1
  Mn  Mn8  1  0.000000  0.500000  0.984381  1
  Mn  Mn9  1  0.500000  0.000000  0.015619  1
  P  P10  1  0.500000  0.500000  0.881797  1
  P  P11  1  0.000000  0.000000  0.118203  1
  P  P12  1  0.500000  0.500000  0.349150  1
  P  P13  1  0.000000  0.000000  0.650850  1
  P  P14  1  0.500000  0.313642  0.619172  1
  P  P15  1  0.500000  0.686358  0.619172  1
  P  P16  1  0.000000  0.186358  0.380828  1
  P  P17  1  0.000000  0.813642  0.380828  1
  P  P18  1  0.500000  0.849710  0.895517  1
  P  P19  1  0.500000  0.150290  0.895517  1
  P  P20  1  0.000000  0.650290  0.104483  1
  P  P21  1  0.000000  0.349710  0.104483  1
  Ir  Ir22  1  0.500000  0.500000  0.699910  1
  Ir  Ir23  1  0.000000  0.000000  0.300090  1
  Ir  Ir24  1  0.500000  0.337675  0.997394  1
  Ir  Ir25  1  0.500000  0.662325  0.997394  1
  Ir  Ir26  1  0.000000  0.162325  0.002606  1
  Ir  Ir27  1  0.000000  0.837675  0.002606  1
  Ir  Ir28  1  0.500000  0.293298  0.429632  1
  Ir  Ir29  1  0.500000  0.706702  0.429632  1
  Ir  Ir30  1  0.000000  0.206702  0.570368  1
  Ir  Ir31  1  0.000000  0.793298  0.570368  1
  Ir  Ir32  1  0.500000  0.873045  0.715075  1
  Ir  Ir33  1  0.500000  0.126955  0.715075  1
  Ir  Ir34  1  0.000000  0.626955  0.284925  1
  Ir  Ir35  1  0.000000  0.373045  0.284925  1
