# generated using pymatgen
data_YTh3(GaPd2)4
_symmetry_space_group_name_H-M   'P 1'
_cell_length_a   5.81082186
_cell_length_b   7.12603500
_cell_length_c   7.54611987
_cell_angle_alpha   90.00000000
_cell_angle_beta   89.80853794
_cell_angle_gamma   90.00000000
_symmetry_Int_Tables_number   1
_chemical_formula_structural   YTh3(GaPd2)4
_chemical_formula_sum   'Y1 Th3 Ga4 Pd8'
_cell_volume   312.46889190
_cell_formula_units_Z   1
loop_
 _symmetry_equiv_pos_site_id
 _symmetry_equiv_pos_as_xyz
  1  'x, y, z'
loop_
 _atom_site_type_symbol
 _atom_site_label
 _atom_site_symmetry_multiplicity
 _atom_site_fract_x
 _atom_site_fract_y
 _atom_site_fract_z
 _atom_site_occupancy
  Y  Y0  1  0.844104  0.250000  0.467158  1
  Th  Th1  1  0.343537  0.750000  0.034409  1
  Th  Th2  1  0.154081  0.750000  0.535167  1
  Th  Th3  1  0.655825  0.250000  0.963704  1
  Ga  Ga4  1  0.655149  0.750000  0.386869  1
  Ga  Ga5  1  0.846195  0.750000  0.885227  1
  Ga  Ga6  1  0.345851  0.250000  0.608620  1
  Ga  Ga7  1  0.152049  0.250000  0.121584  1
  Pd  Pd8  1  0.914145  0.551432  0.183601  1
  Pd  Pd9  1  0.581749  0.948579  0.686346  1
  Pd  Pd10  1  0.087830  0.051870  0.814334  1
  Pd  Pd11  1  0.417880  0.450108  0.314350  1
  Pd  Pd12  1  0.087830  0.448130  0.814334  1
  Pd  Pd13  1  0.417880  0.049892  0.314350  1
  Pd  Pd14  1  0.914145  0.948568  0.183601  1
  Pd  Pd15  1  0.581749  0.551421  0.686346  1
