# generated using pymatgen
data_Nd3Th5Pt8
_symmetry_space_group_name_H-M   'P 1'
_cell_length_a   4.46179200
_cell_length_b   5.95720729
_cell_length_c   14.89595475
_cell_angle_alpha   89.66251952
_cell_angle_beta   90.00000000
_cell_angle_gamma   90.00000000
_symmetry_Int_Tables_number   1
_chemical_formula_structural   Nd3Th5Pt8
_chemical_formula_sum   'Nd3 Th5 Pt8'
_cell_volume   395.92492543
_cell_formula_units_Z   1
loop_
 _symmetry_equiv_pos_site_id
 _symmetry_equiv_pos_as_xyz
  1  'x, y, z'
loop_
 _atom_site_type_symbol
 _atom_site_label
 _atom_site_symmetry_multiplicity
 _atom_site_fract_x
 _atom_site_fract_y
 _atom_site_fract_z
 _atom_site_occupancy
  Nd  Nd0  1  0.250000  0.547656  0.285004  1
  Nd  Nd1  1  0.750000  0.455604  0.715997  1
  Nd  Nd2  1  0.250000  0.954697  0.783600  1
  Th  Th3  1  0.250000  0.757409  0.535989  1
  Th  Th4  1  0.250000  0.737846  0.034312  1
  Th  Th5  1  0.750000  0.251065  0.963701  1
  Th  Th6  1  0.750000  0.044343  0.216631  1
  Th  Th7  1  0.750000  0.248981  0.465087  1
  Pt  Pt8  1  0.250000  0.066772  0.351171  1
  Pt  Pt9  1  0.750000  0.561162  0.146988  1
  Pt  Pt10  1  0.750000  0.735371  0.403653  1
  Pt  Pt11  1  0.250000  0.436537  0.856199  1
  Pt  Pt12  1  0.750000  0.938252  0.643787  1
  Pt  Pt13  1  0.750000  0.773083  0.904157  1
  Pt  Pt14  1  0.250000  0.215494  0.098803  1
  Pt  Pt15  1  0.250000  0.275729  0.594920  1
