# generated using pymatgen
data_Tm10In8GaRh3
_symmetry_space_group_name_H-M   'P 1'
_cell_length_a   3.58066300
_cell_length_b   8.04690830
_cell_length_c   18.08099500
_cell_angle_alpha   90.35321374
_cell_angle_beta   90.00000000
_cell_angle_gamma   90.00000000
_symmetry_Int_Tables_number   1
_chemical_formula_structural   Tm10In8GaRh3
_chemical_formula_sum   'Tm10 In8 Ga1 Rh3'
_cell_volume   520.96263376
_cell_formula_units_Z   1
loop_
 _symmetry_equiv_pos_site_id
 _symmetry_equiv_pos_as_xyz
  1  'x, y, z'
loop_
 _atom_site_type_symbol
 _atom_site_label
 _atom_site_symmetry_multiplicity
 _atom_site_fract_x
 _atom_site_fract_y
 _atom_site_fract_z
 _atom_site_occupancy
  Tm  Tm0  1  0.000000  0.500637  0.500573  1
  Tm  Tm1  1  0.000000  0.999960  0.999898  1
  Tm  Tm2  1  0.000000  0.758906  0.282381  1
  Tm  Tm3  1  0.000000  0.253645  0.721172  1
  Tm  Tm4  1  0.000000  0.752521  0.778187  1
  Tm  Tm5  1  0.000000  0.224564  0.222895  1
  Tm  Tm6  1  0.000000  0.625407  0.080301  1
  Tm  Tm7  1  0.000000  0.384887  0.912670  1
  Tm  Tm8  1  0.000000  0.881983  0.587901  1
  Tm  Tm9  1  0.000000  0.116187  0.414808  1
  In  In10  1  0.500000  0.709395  0.930574  1
  In  In11  1  0.500000  0.295663  0.065734  1
  In  In12  1  0.500000  0.794666  0.433362  1
  In  In13  1  0.500000  0.205947  0.567454  1
  In  In14  1  0.500000  0.571728  0.649421  1
  In  In15  1  0.500000  0.420826  0.351303  1
  In  In16  1  0.500000  0.928913  0.147972  1
  In  In17  1  0.500000  0.072653  0.851117  1
  Ga  Ga18  1  0.500000  0.524288  0.197549  1
  Rh  Rh19  1  0.500000  0.475655  0.804893  1
  Rh  Rh20  1  0.500000  0.976666  0.695652  1
  Rh  Rh21  1  0.500000  0.024902  0.304183  1
