# generated using pymatgen
data_TbYbAlIr3
_symmetry_space_group_name_H-M   'P 1'
_cell_length_a   5.13580375
_cell_length_b   5.13580318
_cell_length_c   5.13580395
_cell_angle_alpha   65.75108434
_cell_angle_beta   65.75108112
_cell_angle_gamma   65.75107986
_symmetry_Int_Tables_number   1
_chemical_formula_structural   TbYbAlIr3
_chemical_formula_sum   'Tb1 Yb1 Al1 Ir3'
_cell_volume   107.73666299
_cell_formula_units_Z   1
loop_
 _symmetry_equiv_pos_site_id
 _symmetry_equiv_pos_as_xyz
  1  'x, y, z'
loop_
 _atom_site_type_symbol
 _atom_site_label
 _atom_site_symmetry_multiplicity
 _atom_site_fract_x
 _atom_site_fract_y
 _atom_site_fract_z
 _atom_site_occupancy
  Tb  Tb0  1  0.250735  0.250735  0.250735  1
  Yb  Yb1  1  0.998568  0.998568  0.998568  1
  Al  Al2  1  0.624710  0.624710  0.624710  1
  Ir  Ir3  1  0.626432  0.626432  0.123125  1
  Ir  Ir4  1  0.626432  0.123125  0.626432  1
  Ir  Ir5  1  0.123125  0.626432  0.626432  1
