# generated using pymatgen
data_Tb5Zr3Ir4
_symmetry_space_group_name_H-M   'P 1'
_cell_length_a   4.59517600
_cell_length_b   7.11576736
_cell_length_c   8.41508400
_cell_angle_alpha   90.30732012
_cell_angle_beta   90.00000000
_cell_angle_gamma   90.00000000
_symmetry_Int_Tables_number   1
_chemical_formula_structural   Tb5Zr3Ir4
_chemical_formula_sum   'Tb5 Zr3 Ir4'
_cell_volume   275.15417007
_cell_formula_units_Z   1
loop_
 _symmetry_equiv_pos_site_id
 _symmetry_equiv_pos_as_xyz
  1  'x, y, z'
loop_
 _atom_site_type_symbol
 _atom_site_label
 _atom_site_symmetry_multiplicity
 _atom_site_fract_x
 _atom_site_fract_y
 _atom_site_fract_z
 _atom_site_occupancy
  Tb  Tb0  1  0.750000  0.353906  0.418734  1
  Tb  Tb1  1  0.250000  0.007186  0.326752  1
  Tb  Tb2  1  0.250000  0.517575  0.169225  1
  Tb  Tb3  1  0.750000  0.984986  0.681617  1
  Tb  Tb4  1  0.750000  0.485648  0.822294  1
  Zr  Zr5  1  0.250000  0.140468  0.925255  1
  Zr  Zr6  1  0.250000  0.645407  0.575514  1
  Zr  Zr7  1  0.750000  0.855043  0.076258  1
  Ir  Ir8  1  0.250000  0.263783  0.604685  1
  Ir  Ir9  1  0.250000  0.767259  0.909442  1
  Ir  Ir10  1  0.750000  0.747997  0.412178  1
  Ir  Ir11  1  0.750000  0.230741  0.078046  1
