# generated using pymatgen
data_InTe19
_symmetry_space_group_name_H-M   'P 1'
_cell_length_a   8.01800484
_cell_length_b   9.02478963
_cell_length_c   10.16484400
_cell_angle_alpha   104.08862850
_cell_angle_beta   97.23290686
_cell_angle_gamma   106.97193268
_symmetry_Int_Tables_number   1
_chemical_formula_structural   InTe19
_chemical_formula_sum   'In1 Te19'
_cell_volume   666.78472118
_cell_formula_units_Z   1
loop_
 _symmetry_equiv_pos_site_id
 _symmetry_equiv_pos_as_xyz
  1  'x, y, z'
loop_
 _atom_site_type_symbol
 _atom_site_label
 _atom_site_symmetry_multiplicity
 _atom_site_fract_x
 _atom_site_fract_y
 _atom_site_fract_z
 _atom_site_occupancy
  In  In0  1  0.000000  0.500000  0.000000  1
  Te  Te1  1  0.789244  0.580509  0.617080  1
  Te  Te2  1  0.635594  0.205160  0.203938  1
  Te  Te3  1  0.364406  0.794840  0.796062  1
  Te  Te4  1  0.602523  0.683666  0.193965  1
  Te  Te5  1  0.210756  0.419491  0.382920  1
  Te  Te6  1  0.397477  0.316334  0.806035  1
  Te  Te7  1  0.000000  0.000000  0.000000  1
  Te  Te8  1  0.194575  0.912197  0.392929  1
  Te  Te9  1  0.805425  0.087803  0.607071  1
  Te  Te10  1  0.693785  0.631477  0.906599  1
  Te  Te11  1  0.515484  0.258540  0.498342  1
  Te  Te12  1  0.714612  0.142353  0.908744  1
  Te  Te13  1  0.285388  0.857647  0.091256  1
  Te  Te14  1  0.484516  0.741460  0.501658  1
  Te  Te15  1  0.091419  0.464697  0.705064  1
  Te  Te16  1  0.306215  0.368523  0.093401  1
  Te  Te17  1  0.916064  0.037972  0.301086  1
  Te  Te18  1  0.083936  0.962028  0.698914  1
  Te  Te19  1  0.908581  0.535303  0.294936  1
