# generated using pymatgen
data_LaPa2(As2Rh3)3
_symmetry_space_group_name_H-M   'P 1'
_cell_length_a   4.02382700
_cell_length_b   8.52567330
_cell_length_c   9.92624237
_cell_angle_alpha   107.74844124
_cell_angle_beta   90.00000000
_cell_angle_gamma   103.64956768
_symmetry_Int_Tables_number   1
_chemical_formula_structural   LaPa2(As2Rh3)3
_chemical_formula_sum   'La1 Pa2 As6 Rh9'
_cell_volume   314.20711933
_cell_formula_units_Z   1
loop_
 _symmetry_equiv_pos_site_id
 _symmetry_equiv_pos_as_xyz
  1  'x, y, z'
loop_
 _atom_site_type_symbol
 _atom_site_label
 _atom_site_symmetry_multiplicity
 _atom_site_fract_x
 _atom_site_fract_y
 _atom_site_fract_z
 _atom_site_occupancy
  La  La0  1  0.158348  0.316697  0.694813  1
  Pa  Pa1  1  0.839177  0.678353  0.304664  1
  Pa  Pa2  1  0.999268  0.998536  0.004808  1
  As  As3  1  0.805031  0.610060  0.869050  1
  As  As4  1  0.194356  0.388713  0.120445  1
  As  As5  1  0.543407  0.086815  0.784216  1
  As  As6  1  0.455286  0.910571  0.223912  1
  As  As7  1  0.635972  0.271945  0.446717  1
  As  As8  1  0.362678  0.725355  0.555725  1
  Rh  Rh9  1  0.959374  0.918749  0.675599  1
  Rh  Rh10  1  0.040848  0.081695  0.330799  1
  Rh  Rh11  1  0.779912  0.559824  0.603266  1
  Rh  Rh12  1  0.226666  0.453331  0.377723  1
  Rh  Rh13  1  0.391908  0.783816  0.817173  1
  Rh  Rh14  1  0.608069  0.216138  0.185991  1
  Rh  Rh15  1  0.495321  0.990642  0.497022  1
  Rh  Rh16  1  0.683928  0.367857  0.968579  1
  Rh  Rh17  1  0.320452  0.640905  0.039497  1
