# generated using pymatgen
data_Ho2Al20IrOs3
_symmetry_space_group_name_H-M   'P 1'
_cell_length_a   6.85729454
_cell_length_b   6.85945137
_cell_length_c   9.15085012
_cell_angle_alpha   90.13366029
_cell_angle_beta   90.05548389
_cell_angle_gamma   96.55306144
_symmetry_Int_Tables_number   1
_chemical_formula_structural   Ho2Al20IrOs3
_chemical_formula_sum   'Ho2 Al20 Ir1 Os3'
_cell_volume   427.61740971
_cell_formula_units_Z   1
loop_
 _symmetry_equiv_pos_site_id
 _symmetry_equiv_pos_as_xyz
  1  'x, y, z'
loop_
 _atom_site_type_symbol
 _atom_site_label
 _atom_site_symmetry_multiplicity
 _atom_site_fract_x
 _atom_site_fract_y
 _atom_site_fract_z
 _atom_site_occupancy
  Ho  Ho0  1  0.631885  0.371230  0.749545  1
  Ho  Ho1  1  0.368115  0.628770  0.250455  1
  Al  Al2  1  0.280217  0.018188  0.747899  1
  Al  Al3  1  0.017799  0.281344  0.249483  1
  Al  Al4  1  0.719783  0.981812  0.252101  1
  Al  Al5  1  0.982201  0.718656  0.750517  1
  Al  Al6  1  0.878811  0.124043  0.950930  1
  Al  Al7  1  0.121189  0.875957  0.049070  1
  Al  Al8  1  0.876871  0.123553  0.547661  1
  Al  Al9  1  0.123129  0.876447  0.452339  1
  Al  Al10  1  0.647585  0.916459  0.749236  1
  Al  Al11  1  0.915838  0.646527  0.250255  1
  Al  Al12  1  0.352415  0.083541  0.250764  1
  Al  Al13  1  0.084162  0.353473  0.749745  1
  Al  Al14  1  0.342994  0.655062  0.896433  1
  Al  Al15  1  0.657006  0.344938  0.103567  1
  Al  Al16  1  0.344665  0.656073  0.601632  1
  Al  Al17  1  0.655335  0.343927  0.398368  1
  Al  Al18  1  0.723850  0.722427  0.999035  1
  Al  Al19  1  0.722579  0.722292  0.500036  1
  Al  Al20  1  0.276150  0.277573  0.000965  1
  Al  Al21  1  0.277421  0.277708  0.499964  1
  Ir  Ir22  1  0.500000  0.000000  0.000000  1
  Os  Os23  1  0.000000  0.500000  0.000000  1
  Os  Os24  1  0.500000  0.000000  0.500000  1
  Os  Os25  1  0.000000  0.500000  0.500000  1
