# generated using pymatgen
data_Ho2Er2Os7W
_symmetry_space_group_name_H-M   'P 1'
_cell_length_a   5.28654679
_cell_length_b   5.28654710
_cell_length_c   8.85582102
_cell_angle_alpha   89.99283817
_cell_angle_beta   90.00716178
_cell_angle_gamma   118.01217528
_symmetry_Int_Tables_number   1
_chemical_formula_structural   Ho2Er2Os7W
_chemical_formula_sum   'Ho2 Er2 Os7 W1'
_cell_volume   218.50373120
_cell_formula_units_Z   1
loop_
 _symmetry_equiv_pos_site_id
 _symmetry_equiv_pos_as_xyz
  1  'x, y, z'
loop_
 _atom_site_type_symbol
 _atom_site_label
 _atom_site_symmetry_multiplicity
 _atom_site_fract_x
 _atom_site_fract_y
 _atom_site_fract_z
 _atom_site_occupancy
  Ho  Ho0  1  0.328749  0.671251  0.437583  1
  Ho  Ho1  1  0.666562  0.333438  0.566404  1
  Er  Er2  1  0.666633  0.333367  0.933711  1
  Er  Er3  1  0.328694  0.671306  0.062362  1
  Os  Os4  1  0.992257  0.007743  0.502556  1
  Os  Os5  1  0.992273  0.007727  0.997439  1
  Os  Os6  1  0.825220  0.649774  0.249548  1
  Os  Os7  1  0.350226  0.174780  0.249548  1
  Os  Os8  1  0.178092  0.821908  0.750394  1
  Os  Os9  1  0.173541  0.338516  0.750408  1
  Os  Os10  1  0.661484  0.826459  0.750408  1
  W  W11  1  0.836268  0.163732  0.249641  1
