# generated using pymatgen
data_YHo2Mg(GaPt)4
_symmetry_space_group_name_H-M   'P 1'
_cell_length_a   4.34323600
_cell_length_b   6.84759306
_cell_length_c   7.74419539
_cell_angle_alpha   86.12479691
_cell_angle_beta   90.00000000
_cell_angle_gamma   90.00000000
_symmetry_Int_Tables_number   1
_chemical_formula_structural   YHo2Mg(GaPt)4
_chemical_formula_sum   'Y1 Ho2 Mg1 Ga4 Pt4'
_cell_volume   229.79129628
_cell_formula_units_Z   1
loop_
 _symmetry_equiv_pos_site_id
 _symmetry_equiv_pos_as_xyz
  1  'x, y, z'
loop_
 _atom_site_type_symbol
 _atom_site_label
 _atom_site_symmetry_multiplicity
 _atom_site_fract_x
 _atom_site_fract_y
 _atom_site_fract_z
 _atom_site_occupancy
  Y  Y0  1  0.250000  0.522858  0.690981  1
  Ho  Ho1  1  0.750000  0.979603  0.178234  1
  Ho  Ho2  1  0.750000  0.471895  0.311466  1
  Mg  Mg3  1  0.250000  0.023274  0.819721  1
  Ga  Ga4  1  0.250000  0.149083  0.441267  1
  Ga  Ga5  1  0.250000  0.665401  0.064039  1
  Ga  Ga6  1  0.750000  0.845153  0.565490  1
  Ga  Ga7  1  0.750000  0.345399  0.930417  1
  Pt  Pt8  1  0.250000  0.770975  0.378253  1
  Pt  Pt9  1  0.250000  0.273601  0.109869  1
  Pt  Pt10  1  0.750000  0.217225  0.623325  1
  Pt  Pt11  1  0.750000  0.735535  0.886940  1
