# generated using pymatgen
data_AcYTe6
_symmetry_space_group_name_H-M   'P 1'
_cell_length_a   13.81516656
_cell_length_b   13.81516628
_cell_length_c   4.30865300
_cell_angle_alpha   90.00000000
_cell_angle_beta   90.00000000
_cell_angle_gamma   161.10131027
_symmetry_Int_Tables_number   1
_chemical_formula_structural   AcYTe6
_chemical_formula_sum   'Ac1 Y1 Te6'
_cell_volume   266.35389628
_cell_formula_units_Z   1
loop_
 _symmetry_equiv_pos_site_id
 _symmetry_equiv_pos_as_xyz
  1  'x, y, z'
loop_
 _atom_site_type_symbol
 _atom_site_label
 _atom_site_symmetry_multiplicity
 _atom_site_fract_x
 _atom_site_fract_y
 _atom_site_fract_z
 _atom_site_occupancy
  Ac  Ac0  1  0.171420  0.828580  0.500000  1
  Y  Y1  1  0.830790  0.169210  0.000000  1
  Te  Te2  1  0.423685  0.576315  0.000000  1
  Te  Te3  1  0.570589  0.429411  0.500000  1
  Te  Te4  1  0.712825  0.287175  0.000000  1
  Te  Te5  1  0.298330  0.701670  0.500000  1
  Te  Te6  1  0.070510  0.929490  0.000000  1
  Te  Te7  1  0.921850  0.078150  0.500000  1
