# generated using pymatgen
data_CeReH9
_symmetry_space_group_name_H-M   'P 1'
_cell_length_a   4.87874600
_cell_length_b   4.87874602
_cell_length_c   8.75373900
_cell_angle_alpha   90.00000000
_cell_angle_beta   90.00000000
_cell_angle_gamma   119.99999985
_symmetry_Int_Tables_number   1
_chemical_formula_structural   CeReH9
_chemical_formula_sum   'Ce2 Re2 H18'
_cell_volume   180.44325154
_cell_formula_units_Z   2
loop_
 _symmetry_equiv_pos_site_id
 _symmetry_equiv_pos_as_xyz
  1  'x, y, z'
loop_
 _atom_site_type_symbol
 _atom_site_label
 _atom_site_symmetry_multiplicity
 _atom_site_fract_x
 _atom_site_fract_y
 _atom_site_fract_z
 _atom_site_occupancy
  Ce  Ce0  1  0.000000  0.000000  0.000000  1
  Ce  Ce1  1  0.000000  0.000000  0.500000  1
  Re  Re2  1  0.333333  0.666667  0.250000  1
  Re  Re3  1  0.666667  0.333333  0.750000  1
  H  H4  1  0.478816  0.521184  0.388324  1
  H  H5  1  0.478816  0.957632  0.388324  1
  H  H6  1  0.042368  0.521184  0.388324  1
  H  H7  1  0.957632  0.478816  0.888324  1
  H  H8  1  0.130642  0.261284  0.250000  1
  H  H9  1  0.869358  0.130642  0.750000  1
  H  H10  1  0.261284  0.130642  0.750000  1
  H  H11  1  0.738716  0.869358  0.250000  1
  H  H12  1  0.130642  0.869358  0.250000  1
  H  H13  1  0.869358  0.738716  0.750000  1
  H  H14  1  0.478816  0.957632  0.111676  1
  H  H15  1  0.521184  0.478816  0.611676  1
  H  H16  1  0.957632  0.478816  0.611676  1
  H  H17  1  0.042368  0.521184  0.111676  1
  H  H18  1  0.478816  0.521184  0.111676  1
  H  H19  1  0.521184  0.042368  0.888324  1
  H  H20  1  0.521184  0.478816  0.888324  1
  H  H21  1  0.521184  0.042368  0.611676  1
