# generated using pymatgen
data_Y2Er2ReB12Ru
_symmetry_space_group_name_H-M   'P 1'
_cell_length_a   3.65748700
_cell_length_b   9.13137565
_cell_length_c   11.52354907
_cell_angle_alpha   90.19567136
_cell_angle_beta   90.00000000
_cell_angle_gamma   90.00000000
_symmetry_Int_Tables_number   1
_chemical_formula_structural   Y2Er2ReB12Ru
_chemical_formula_sum   'Y4 Er4 Re2 B24 Ru2'
_cell_volume   384.85995354
_cell_formula_units_Z   2
loop_
 _symmetry_equiv_pos_site_id
 _symmetry_equiv_pos_as_xyz
  1  'x, y, z'
loop_
 _atom_site_type_symbol
 _atom_site_label
 _atom_site_symmetry_multiplicity
 _atom_site_fract_x
 _atom_site_fract_y
 _atom_site_fract_z
 _atom_site_occupancy
  Y  Y0  1  0.000000  0.320822  0.412536  1
  Y  Y1  1  0.000000  0.679178  0.587464  1
  Y  Y2  1  0.000000  0.824346  0.084581  1
  Y  Y3  1  0.000000  0.175654  0.915419  1
  Er  Er4  1  0.000000  0.942978  0.370564  1
  Er  Er5  1  0.000000  0.057022  0.629436  1
  Er  Er6  1  0.000000  0.443102  0.129270  1
  Er  Er7  1  0.000000  0.556898  0.870730  1
  Re  Re8  1  0.000000  0.138673  0.179859  1
  Re  Re9  1  0.000000  0.861327  0.820141  1
  B  B10  1  0.500000  0.554175  0.432834  1
  B  B11  1  0.500000  0.445825  0.567166  1
  B  B12  1  0.500000  0.053425  0.067056  1
  B  B13  1  0.500000  0.946575  0.932944  1
  B  B14  1  0.500000  0.749092  0.418675  1
  B  B15  1  0.500000  0.250908  0.581325  1
  B  B16  1  0.500000  0.249547  0.081218  1
  B  B17  1  0.500000  0.750453  0.918782  1
  B  B18  1  0.500000  0.790900  0.265981  1
  B  B19  1  0.500000  0.209100  0.734019  1
  B  B20  1  0.500000  0.292110  0.234662  1
  B  B21  1  0.500000  0.707890  0.765338  1
  B  B22  1  0.500000  0.630676  0.185953  1
  B  B23  1  0.500000  0.369324  0.814047  1
  B  B24  1  0.500000  0.130958  0.314962  1
  B  B25  1  0.500000  0.869042  0.685038  1
  B  B26  1  0.500000  0.982660  0.212713  1
  B  B27  1  0.500000  0.017340  0.787287  1
  B  B28  1  0.500000  0.483429  0.287866  1
  B  B29  1  0.500000  0.516571  0.712134  1
  B  B30  1  0.500000  0.602376  0.028481  1
  B  B31  1  0.500000  0.397624  0.971519  1
  B  B32  1  0.500000  0.102819  0.471715  1
  B  B33  1  0.500000  0.897181  0.528285  1
  Ru  Ru34  1  0.000000  0.638152  0.321293  1
  Ru  Ru35  1  0.000000  0.361848  0.678707  1
