# generated using pymatgen
data_Mg2Al4Pd3Pt7
_symmetry_space_group_name_H-M   'P 1'
_cell_length_a   4.08300900
_cell_length_b   5.49600682
_cell_length_c   10.75656958
_cell_angle_alpha   90.01431930
_cell_angle_beta   90.00000000
_cell_angle_gamma   90.00000000
_symmetry_Int_Tables_number   1
_chemical_formula_structural   Mg2Al4Pd3Pt7
_chemical_formula_sum   'Mg2 Al4 Pd3 Pt7'
_cell_volume   241.38005257
_cell_formula_units_Z   1
loop_
 _symmetry_equiv_pos_site_id
 _symmetry_equiv_pos_as_xyz
  1  'x, y, z'
loop_
 _atom_site_type_symbol
 _atom_site_label
 _atom_site_symmetry_multiplicity
 _atom_site_fract_x
 _atom_site_fract_y
 _atom_site_fract_z
 _atom_site_occupancy
  Mg  Mg0  1  0.500000  0.169591  0.361476  1
  Mg  Mg1  1  0.500000  0.831455  0.640075  1
  Al  Al2  1  0.000000  0.997884  0.999434  1
  Al  Al3  1  0.000000  0.496844  0.498685  1
  Al  Al4  1  0.500000  0.668349  0.144723  1
  Al  Al5  1  0.500000  0.330283  0.856152  1
  Pd  Pd6  1  0.000000  0.997090  0.501341  1
  Pd  Pd7  1  0.000000  0.496817  0.998175  1
  Pd  Pd8  1  0.000000  0.584327  0.740236  1
  Pt  Pt9  1  0.500000  0.196799  0.101577  1
  Pt  Pt10  1  0.500000  0.802355  0.898637  1
  Pt  Pt11  1  0.500000  0.682346  0.389604  1
  Pt  Pt12  1  0.500000  0.319495  0.611261  1
  Pt  Pt13  1  0.000000  0.918621  0.231094  1
  Pt  Pt14  1  0.000000  0.087380  0.769289  1
  Pt  Pt15  1  0.000000  0.420366  0.258242  1
