# generated using pymatgen
data_La8Nd12AgSn15
_symmetry_space_group_name_H-M   'P 1'
_cell_length_a   8.29941300
_cell_length_b   8.58196252
_cell_length_c   16.09386300
_cell_angle_alpha   90.00000000
_cell_angle_beta   90.00000000
_cell_angle_gamma   90.19066888
_symmetry_Int_Tables_number   1
_chemical_formula_structural   La8Nd12AgSn15
_chemical_formula_sum   'La8 Nd12 Ag1 Sn15'
_cell_volume   1146.28308940
_cell_formula_units_Z   1
loop_
 _symmetry_equiv_pos_site_id
 _symmetry_equiv_pos_as_xyz
  1  'x, y, z'
loop_
 _atom_site_type_symbol
 _atom_site_label
 _atom_site_symmetry_multiplicity
 _atom_site_fract_x
 _atom_site_fract_y
 _atom_site_fract_z
 _atom_site_occupancy
  La  La0  1  0.507441  0.311517  0.908607  1
  La  La1  1  0.008450  0.182318  0.597317  1
  La  La2  1  0.491696  0.680838  0.403136  1
  La  La3  1  0.989043  0.819813  0.097205  1
  La  La4  1  0.491696  0.680838  0.096864  1
  La  La5  1  0.989043  0.819813  0.402795  1
  La  La6  1  0.507441  0.311517  0.591393  1
  La  La7  1  0.008450  0.182318  0.902683  1
  Nd  Nd8  1  0.353309  0.839041  0.879114  1
  Nd  Nd9  1  0.852198  0.662844  0.622169  1
  Nd  Nd10  1  0.646444  0.162903  0.377660  1
  Nd  Nd11  1  0.145938  0.336569  0.123151  1
  Nd  Nd12  1  0.646444  0.162903  0.122340  1
  Nd  Nd13  1  0.145938  0.336569  0.376849  1
  Nd  Nd14  1  0.353309  0.839041  0.620886  1
  Nd  Nd15  1  0.852198  0.662844  0.877831  1
  Nd  Nd16  1  0.196210  0.507314  0.750000  1
  Nd  Nd17  1  0.686250  0.001697  0.750000  1
  Nd  Nd18  1  0.811566  0.501397  0.250000  1
  Nd  Nd19  1  0.312024  0.998471  0.250000  1
  Ag  Ag20  1  0.558317  0.616805  0.750000  1
  Sn  Sn21  1  0.302808  0.039131  0.041895  1
  Sn  Sn22  1  0.808786  0.459387  0.459246  1
  Sn  Sn23  1  0.696245  0.960585  0.542466  1
  Sn  Sn24  1  0.197633  0.537510  0.956442  1
  Sn  Sn25  1  0.696245  0.960585  0.957534  1
  Sn  Sn26  1  0.197633  0.537510  0.543558  1
  Sn  Sn27  1  0.302808  0.039131  0.458105  1
  Sn  Sn28  1  0.808786  0.459387  0.040754  1
  Sn  Sn29  1  0.054424  0.883904  0.750000  1
  Sn  Sn30  1  0.447467  0.380447  0.250000  1
  Sn  Sn31  1  0.945993  0.118226  0.250000  1
  Sn  Sn32  1  0.312487  0.142724  0.750000  1
  Sn  Sn33  1  0.806602  0.364152  0.750000  1
  Sn  Sn34  1  0.683416  0.856680  0.250000  1
  Sn  Sn35  1  0.185264  0.643264  0.250000  1
