# generated using pymatgen
data_ErTm5Mn2(Si4Ru)6
_symmetry_space_group_name_H-M   'P 1'
_cell_length_a   10.06028987
_cell_length_b   10.06028984
_cell_length_c   8.04438911
_cell_angle_alpha   89.98982043
_cell_angle_beta   90.01017988
_cell_angle_gamma   132.82610440
_symmetry_Int_Tables_number   1
_chemical_formula_structural   ErTm5Mn2(Si4Ru)6
_chemical_formula_sum   'Er1 Tm5 Mn2 Si24 Ru6'
_cell_volume   597.12730908
_cell_formula_units_Z   1
loop_
 _symmetry_equiv_pos_site_id
 _symmetry_equiv_pos_as_xyz
  1  'x, y, z'
loop_
 _atom_site_type_symbol
 _atom_site_label
 _atom_site_symmetry_multiplicity
 _atom_site_fract_x
 _atom_site_fract_y
 _atom_site_fract_z
 _atom_site_occupancy
  Er  Er0  1  0.997678  0.497678  0.250000  1
  Tm  Tm1  1  0.497827  0.997827  0.250000  1
  Tm  Tm2  1  0.002141  0.502141  0.750000  1
  Tm  Tm3  1  0.502027  0.002027  0.750000  1
  Tm  Tm4  1  0.502372  0.502368  0.502422  1
  Tm  Tm5  1  0.002368  0.002372  0.997578  1
  Mn  Mn6  1  0.624611  0.624510  0.872964  1
  Mn  Mn7  1  0.124510  0.124611  0.627036  1
  Si  Si8  1  0.386577  0.153343  0.006378  1
  Si  Si9  1  0.653343  0.886577  0.493622  1
  Si  Si10  1  0.116011  0.343151  0.513323  1
  Si  Si11  1  0.843151  0.616011  0.986677  1
  Si  Si12  1  0.615859  0.842841  0.986918  1
  Si  Si13  1  0.342841  0.115859  0.513082  1
  Si  Si14  1  0.886571  0.653243  0.493887  1
  Si  Si15  1  0.153243  0.386571  0.006113  1
  Si  Si16  1  0.609438  0.375888  0.230327  1
  Si  Si17  1  0.875888  0.109438  0.269673  1
  Si  Si18  1  0.898241  0.125340  0.728641  1
  Si  Si19  1  0.625340  0.398241  0.771359  1
  Si  Si20  1  0.398204  0.625231  0.771435  1
  Si  Si21  1  0.125231  0.898204  0.728565  1
  Si  Si22  1  0.703241  0.294915  0.999839  1
  Si  Si23  1  0.794915  0.203241  0.500161  1
  Si  Si24  1  0.295328  0.703652  0.999925  1
  Si  Si25  1  0.203652  0.795328  0.500075  1
  Si  Si26  1  0.166771  0.166871  0.339604  1
  Si  Si27  1  0.666871  0.666771  0.160396  1
  Si  Si28  1  0.332072  0.332008  0.826293  1
  Si  Si29  1  0.832008  0.832072  0.673707  1
  Si  Si30  1  0.376483  0.609955  0.230223  1
  Si  Si31  1  0.109955  0.876483  0.269777  1
  Ru  Ru32  1  0.870930  0.870911  0.373915  1
  Ru  Ru33  1  0.370911  0.370930  0.126085  1
  Ru  Ru34  1  0.328133  0.669082  0.502702  1
  Ru  Ru35  1  0.169082  0.828133  0.997298  1
  Ru  Ru36  1  0.668567  0.327610  0.502754  1
  Ru  Ru37  1  0.827610  0.168567  0.997246  1
