# generated using pymatgen
data_Ta7Nb5Ga8(OsC)4
_symmetry_space_group_name_H-M   'P 1'
_cell_length_a   8.32816558
_cell_length_b   8.32734041
_cell_length_c   8.33033404
_cell_angle_alpha   59.98858337
_cell_angle_beta   59.98448816
_cell_angle_gamma   59.96770864
_symmetry_Int_Tables_number   1
_chemical_formula_structural   Ta7Nb5Ga8(OsC)4
_chemical_formula_sum   'Ta7 Nb5 Ga8 Os4 C4'
_cell_volume   408.32748898
_cell_formula_units_Z   1
loop_
 _symmetry_equiv_pos_site_id
 _symmetry_equiv_pos_as_xyz
  1  'x, y, z'
loop_
 _atom_site_type_symbol
 _atom_site_label
 _atom_site_symmetry_multiplicity
 _atom_site_fract_x
 _atom_site_fract_y
 _atom_site_fract_z
 _atom_site_occupancy
  Ta  Ta0  1  0.305936  0.305137  0.694552  1
  Ta  Ta1  1  0.555190  0.555471  0.945100  1
  Ta  Ta2  1  0.944922  0.555596  0.554886  1
  Ta  Ta3  1  0.555297  0.943983  0.945413  1
  Ta  Ta4  1  0.944075  0.943203  0.556149  1
  Ta  Ta5  1  0.695430  0.304258  0.695753  1
  Ta  Ta6  1  0.943652  0.556153  0.944332  1
  Nb  Nb7  1  0.556909  0.942985  0.556537  1
  Nb  Nb8  1  0.306343  0.693924  0.693910  1
  Nb  Nb9  1  0.693749  0.305602  0.306743  1
  Nb  Nb10  1  0.305214  0.694603  0.305475  1
  Nb  Nb11  1  0.694538  0.694592  0.305845  1
  Ga  Ga12  1  0.915065  0.911973  0.913268  1
  Ga  Ga13  1  0.989673  0.336903  0.335063  1
  Ga  Ga14  1  0.336397  0.990547  0.337900  1
  Ga  Ga15  1  0.335158  0.338530  0.989472  1
  Ga  Ga16  1  0.913304  0.260194  0.914762  1
  Ga  Ga17  1  0.912096  0.915384  0.258968  1
  Ga  Ga18  1  0.259629  0.913587  0.911693  1
  Ga  Ga19  1  0.338015  0.335214  0.336520  1
  Os  Os20  1  0.127138  0.125544  0.122491  1
  Os  Os21  1  0.624973  0.127398  0.119494  1
  Os  Os22  1  0.125117  0.624679  0.125898  1
  Os  Os23  1  0.120511  0.129432  0.625111  1
  C  C24  1  0.627559  0.621157  0.627565  1
  C  C25  1  0.122901  0.623429  0.626898  1
  C  C26  1  0.625181  0.124579  0.628217  1
  C  C27  1  0.626032  0.625943  0.121984  1
