# generated using pymatgen
data_SmTa5(B2Ru5)2
_symmetry_space_group_name_H-M   'P 1'
_cell_length_a   9.53347293
_cell_length_b   9.53347280
_cell_length_c   3.05625000
_cell_angle_alpha   90.00000000
_cell_angle_beta   90.00000000
_cell_angle_gamma   90.60728836
_symmetry_Int_Tables_number   1
_chemical_formula_structural   SmTa5(B2Ru5)2
_chemical_formula_sum   'Sm1 Ta5 B4 Ru10'
_cell_volume   277.75811158
_cell_formula_units_Z   1
loop_
 _symmetry_equiv_pos_site_id
 _symmetry_equiv_pos_as_xyz
  1  'x, y, z'
loop_
 _atom_site_type_symbol
 _atom_site_label
 _atom_site_symmetry_multiplicity
 _atom_site_fract_x
 _atom_site_fract_y
 _atom_site_fract_z
 _atom_site_occupancy
  Sm  Sm0  1  0.824655  0.675345  0.000000  1
  Ta  Ta1  1  0.178735  0.321265  0.000000  1
  Ta  Ta2  1  0.324974  0.823820  0.000000  1
  Ta  Ta3  1  0.676180  0.175026  0.000000  1
  Ta  Ta4  1  0.500428  0.500163  0.000000  1
  Ta  Ta5  1  0.999837  0.999572  0.000000  1
  B  B6  1  0.616961  0.883039  0.000000  1
  B  B7  1  0.376651  0.123349  0.000000  1
  B  B8  1  0.125076  0.619260  0.000000  1
  B  B9  1  0.880740  0.374924  0.000000  1
  Ru  Ru10  1  0.555253  0.726387  0.500000  1
  Ru  Ru11  1  0.425986  0.283777  0.500000  1
  Ru  Ru12  1  0.085953  0.783336  0.500000  1
  Ru  Ru13  1  0.930687  0.214835  0.500000  1
  Ru  Ru14  1  0.285165  0.569313  0.500000  1
  Ru  Ru15  1  0.716664  0.414047  0.500000  1
  Ru  Ru16  1  0.216223  0.074014  0.500000  1
  Ru  Ru17  1  0.773613  0.944747  0.500000  1
  Ru  Ru18  1  0.494782  0.005218  0.500000  1
  Ru  Ru19  1  0.011437  0.488563  0.500000  1
