# generated using pymatgen
data_LaTh9(Pb3S)2
_symmetry_space_group_name_H-M   'P 1'
_cell_length_a   9.55041700
_cell_length_b   9.58915939
_cell_length_c   6.70523300
_cell_angle_alpha   90.00000000
_cell_angle_beta   90.00000000
_cell_angle_gamma   120.13549549
_symmetry_Int_Tables_number   1
_chemical_formula_structural   LaTh9(Pb3S)2
_chemical_formula_sum   'La1 Th9 Pb6 S2'
_cell_volume   531.07125638
_cell_formula_units_Z   1
loop_
 _symmetry_equiv_pos_site_id
 _symmetry_equiv_pos_as_xyz
  1  'x, y, z'
loop_
 _atom_site_type_symbol
 _atom_site_label
 _atom_site_symmetry_multiplicity
 _atom_site_fract_x
 _atom_site_fract_y
 _atom_site_fract_z
 _atom_site_occupancy
  La  La0  1  0.000007  0.747455  0.250000  1
  Th  Th1  1  0.750149  0.751235  0.750000  1
  Th  Th2  1  0.249845  0.001070  0.750000  1
  Th  Th3  1  0.000006  0.252720  0.750000  1
  Th  Th4  1  0.249803  0.249271  0.250000  1
  Th  Th5  1  0.750188  0.999465  0.250000  1
  Th  Th6  1  0.664838  0.331237  0.999061  1
  Th  Th7  1  0.335165  0.666392  0.999077  1
  Th  Th8  1  0.335165  0.666392  0.500923  1
  Th  Th9  1  0.664838  0.331237  0.500939  1
  Pb  Pb10  1  0.393524  0.393521  0.750000  1
  Pb  Pb11  1  0.606472  0.999993  0.750000  1
  Pb  Pb12  1  0.999999  0.607576  0.750000  1
  Pb  Pb13  1  0.607221  0.606098  0.250000  1
  Pb  Pb14  1  0.392774  0.998873  0.250000  1
  Pb  Pb15  1  0.000007  0.391833  0.250000  1
  S  S16  1  0.000001  0.002813  0.998094  1
  S  S17  1  0.000001  0.002813  0.501906  1
