# generated using pymatgen
data_Dy7Tm3(Bi3C)2
_symmetry_space_group_name_H-M   'P 1'
_cell_length_a   9.13667100
_cell_length_b   9.13666972
_cell_length_c   6.47431900
_cell_angle_alpha   90.00000000
_cell_angle_beta   90.00000000
_cell_angle_gamma   120.00000102
_symmetry_Int_Tables_number   1
_chemical_formula_structural   Dy7Tm3(Bi3C)2
_chemical_formula_sum   'Dy7 Tm3 Bi6 C2'
_cell_volume   468.05903601
_cell_formula_units_Z   1
loop_
 _symmetry_equiv_pos_site_id
 _symmetry_equiv_pos_as_xyz
  1  'x, y, z'
loop_
 _atom_site_type_symbol
 _atom_site_label
 _atom_site_symmetry_multiplicity
 _atom_site_fract_x
 _atom_site_fract_y
 _atom_site_fract_z
 _atom_site_occupancy
  Dy  Dy0  1  0.666667  0.333333  0.000508  1
  Dy  Dy1  1  0.333333  0.666667  0.000508  1
  Dy  Dy2  1  0.333333  0.666667  0.499492  1
  Dy  Dy3  1  0.666667  0.333333  0.499492  1
  Dy  Dy4  1  0.208936  0.208936  0.250000  1
  Dy  Dy5  1  0.791064  0.000000  0.250000  1
  Dy  Dy6  1  0.000000  0.791064  0.250000  1
  Tm  Tm7  1  0.796206  0.796206  0.750000  1
  Tm  Tm8  1  0.203794  0.000000  0.750000  1
  Tm  Tm9  1  0.000000  0.203794  0.750000  1
  Bi  Bi10  1  0.400714  0.400714  0.750000  1
  Bi  Bi11  1  0.599286  0.000000  0.750000  1
  Bi  Bi12  1  0.000000  0.599286  0.750000  1
  Bi  Bi13  1  0.598859  0.598859  0.250000  1
  Bi  Bi14  1  0.401141  0.000000  0.250000  1
  Bi  Bi15  1  0.000000  0.401141  0.250000  1
  C  C16  1  0.000000  0.000000  0.996375  1
  C  C17  1  0.000000  0.000000  0.503625  1
