# generated using pymatgen
data_Ta10Si5B
_symmetry_space_group_name_H-M   'P 1'
_cell_length_a   6.48279617
_cell_length_b   6.48279812
_cell_length_c   7.49522294
_cell_angle_alpha   115.52722115
_cell_angle_beta   115.52723277
_cell_angle_gamma   90.20164811
_symmetry_Int_Tables_number   1
_chemical_formula_structural   Ta10Si5B
_chemical_formula_sum   'Ta10 Si5 B1'
_cell_volume   249.47893941
_cell_formula_units_Z   1
loop_
 _symmetry_equiv_pos_site_id
 _symmetry_equiv_pos_as_xyz
  1  'x, y, z'
loop_
 _atom_site_type_symbol
 _atom_site_label
 _atom_site_symmetry_multiplicity
 _atom_site_fract_x
 _atom_site_fract_y
 _atom_site_fract_z
 _atom_site_occupancy
  Ta  Ta0  1  0.992680  0.001756  0.000000  1
  Ta  Ta1  1  0.501756  0.492680  0.000000  1
  Ta  Ta2  1  0.490180  0.314316  0.296106  1
  Ta  Ta3  1  0.969868  0.469868  0.289262  1
  Ta  Ta4  1  0.315537  0.815536  0.300593  1
  Ta  Ta5  1  0.814315  0.990180  0.296106  1
  Ta  Ta6  1  0.194072  0.018209  0.703893  1
  Ta  Ta7  1  0.680605  0.180605  0.710737  1
  Ta  Ta8  1  0.014942  0.514942  0.699406  1
  Ta  Ta9  1  0.518209  0.694072  0.703893  1
  Si  Si10  1  0.128874  0.369855  0.000000  1
  Si  Si11  1  0.869856  0.628873  0.000000  1
  Si  Si12  1  0.376672  0.876673  0.000000  1
  Si  Si13  1  0.253135  0.253135  0.500000  1
  Si  Si14  1  0.753136  0.753136  0.500000  1
  B  B15  1  0.626163  0.126164  0.000000  1
