# generated using pymatgen
data_Lu5Mo3(P3Ir4)4
_symmetry_space_group_name_H-M   'P 1'
_cell_length_a   12.65261700
_cell_length_b   12.65261747
_cell_length_c   3.96848000
_cell_angle_alpha   90.00000000
_cell_angle_beta   90.00000000
_cell_angle_gamma   120.00000139
_symmetry_Int_Tables_number   1
_chemical_formula_structural   Lu5Mo3(P3Ir4)4
_chemical_formula_sum   'Lu5 Mo3 P12 Ir16'
_cell_volume   550.19363465
_cell_formula_units_Z   1
loop_
 _symmetry_equiv_pos_site_id
 _symmetry_equiv_pos_as_xyz
  1  'x, y, z'
loop_
 _atom_site_type_symbol
 _atom_site_label
 _atom_site_symmetry_multiplicity
 _atom_site_fract_x
 _atom_site_fract_y
 _atom_site_fract_z
 _atom_site_occupancy
  Lu  Lu0  1  0.333333  0.666667  0.500000  1
  Lu  Lu1  1  0.666667  0.333333  0.500000  1
  Lu  Lu2  1  0.000000  0.813055  0.000000  1
  Lu  Lu3  1  0.186945  0.186945  0.000000  1
  Lu  Lu4  1  0.813055  0.000000  0.000000  1
  Mo  Mo5  1  0.000000  0.453633  0.500000  1
  Mo  Mo6  1  0.546367  0.546367  0.500000  1
  Mo  Mo7  1  0.453633  0.000000  0.500000  1
  P  P8  1  0.000000  0.639851  0.500000  1
  P  P9  1  0.360149  0.360149  0.500000  1
  P  P10  1  0.639851  0.000000  0.500000  1
  P  P11  1  0.515564  0.684054  0.000000  1
  P  P12  1  0.315946  0.831510  0.000000  1
  P  P13  1  0.168490  0.484436  0.000000  1
  P  P14  1  0.484436  0.168490  0.000000  1
  P  P15  1  0.684054  0.515564  0.000000  1
  P  P16  1  0.831510  0.315946  0.000000  1
  P  P17  1  0.000000  0.176206  0.500000  1
  P  P18  1  0.823794  0.823794  0.500000  1
  P  P19  1  0.176206  0.000000  0.500000  1
  Ir  Ir20  1  0.508355  0.865309  0.000000  1
  Ir  Ir21  1  0.134691  0.643047  0.000000  1
  Ir  Ir22  1  0.356953  0.491645  0.000000  1
  Ir  Ir23  1  0.491645  0.356953  0.000000  1
  Ir  Ir24  1  0.865309  0.508355  0.000000  1
  Ir  Ir25  1  0.643047  0.134691  0.000000  1
  Ir  Ir26  1  0.000000  0.285817  0.000000  1
  Ir  Ir27  1  0.714183  0.714183  0.000000  1
  Ir  Ir28  1  0.285817  0.000000  0.000000  1
  Ir  Ir29  1  0.626913  0.805907  0.500000  1
  Ir  Ir30  1  0.194093  0.821005  0.500000  1
  Ir  Ir31  1  0.178995  0.373087  0.500000  1
  Ir  Ir32  1  0.373087  0.178995  0.500000  1
  Ir  Ir33  1  0.805907  0.626913  0.500000  1
  Ir  Ir34  1  0.821005  0.194093  0.500000  1
  Ir  Ir35  1  0.000000  0.000000  0.500000  1
