# generated using pymatgen
data_LaScZn4Ru
_symmetry_space_group_name_H-M   'P 1'
_cell_length_a   7.02020100
_cell_length_b   7.02020100
_cell_length_c   5.13594000
_cell_angle_alpha   90.00000000
_cell_angle_beta   90.00000000
_cell_angle_gamma   90.00000000
_symmetry_Int_Tables_number   1
_chemical_formula_structural   LaScZn4Ru
_chemical_formula_sum   'La2 Sc2 Zn8 Ru2'
_cell_volume   253.11567161
_cell_formula_units_Z   2
loop_
 _symmetry_equiv_pos_site_id
 _symmetry_equiv_pos_as_xyz
  1  'x, y, z'
loop_
 _atom_site_type_symbol
 _atom_site_label
 _atom_site_symmetry_multiplicity
 _atom_site_fract_x
 _atom_site_fract_y
 _atom_site_fract_z
 _atom_site_occupancy
  La  La0  1  0.000000  0.500000  0.766329  1
  La  La1  1  0.500000  0.000000  0.233671  1
  Sc  Sc2  1  0.000000  0.000000  0.000000  1
  Sc  Sc3  1  0.500000  0.500000  0.000000  1
  Zn  Zn4  1  0.189756  0.689756  0.277175  1
  Zn  Zn5  1  0.810244  0.689756  0.277175  1
  Zn  Zn6  1  0.810244  0.310244  0.277175  1
  Zn  Zn7  1  0.310244  0.189756  0.722825  1
  Zn  Zn8  1  0.189756  0.310244  0.277175  1
  Zn  Zn9  1  0.689756  0.189756  0.722825  1
  Zn  Zn10  1  0.689756  0.810244  0.722825  1
  Zn  Zn11  1  0.310244  0.810244  0.722825  1
  Ru  Ru12  1  0.500000  0.500000  0.500000  1
  Ru  Ru13  1  0.000000  0.000000  0.500000  1
