# generated using pymatgen
data_EuNpH5
_symmetry_space_group_name_H-M   'P 1'
_cell_length_a   6.61159590
_cell_length_b   6.61159691
_cell_length_c   6.61159569
_cell_angle_alpha   131.25264647
_cell_angle_beta   131.25265351
_cell_angle_gamma   71.41197701
_symmetry_Int_Tables_number   1
_chemical_formula_structural   EuNpH5
_chemical_formula_sum   'Eu2 Np2 H10'
_cell_volume   159.87716100
_cell_formula_units_Z   2
loop_
 _symmetry_equiv_pos_site_id
 _symmetry_equiv_pos_as_xyz
  1  'x, y, z'
loop_
 _atom_site_type_symbol
 _atom_site_label
 _atom_site_symmetry_multiplicity
 _atom_site_fract_x
 _atom_site_fract_y
 _atom_site_fract_z
 _atom_site_occupancy
  Eu  Eu0  1  0.989607  0.489607  0.500000  1
  Eu  Eu1  1  0.239607  0.239607  0.000000  1
  Np  Np2  1  0.513280  0.013280  0.500000  1
  Np  Np3  1  0.763280  0.763280  0.000000  1
  H  H4  1  0.396878  0.402826  0.548098  1
  H  H5  1  0.854728  0.848780  0.451902  1
  H  H6  1  0.598780  0.104728  0.951902  1
  H  H7  1  0.152826  0.646878  0.048098  1
  H  H8  1  0.396878  0.848780  0.994053  1
  H  H9  1  0.854728  0.402826  0.005947  1
  H  H10  1  0.598780  0.646878  0.494053  1
  H  H11  1  0.152826  0.104728  0.505947  1
  H  H12  1  0.743901  0.243901  0.500000  1
  H  H13  1  0.993901  0.993901  0.000000  1
