# generated using pymatgen
data_Tm4Sc2AlInPt4
_symmetry_space_group_name_H-M   'P 1'
_cell_length_a   4.39295600
_cell_length_b   7.12499968
_cell_length_c   8.16678925
_cell_angle_alpha   90.27337937
_cell_angle_beta   90.00000000
_cell_angle_gamma   90.00000000
_symmetry_Int_Tables_number   1
_chemical_formula_structural   Tm4Sc2AlInPt4
_chemical_formula_sum   'Tm4 Sc2 Al1 In1 Pt4'
_cell_volume   255.61604297
_cell_formula_units_Z   1
loop_
 _symmetry_equiv_pos_site_id
 _symmetry_equiv_pos_as_xyz
  1  'x, y, z'
loop_
 _atom_site_type_symbol
 _atom_site_label
 _atom_site_symmetry_multiplicity
 _atom_site_fract_x
 _atom_site_fract_y
 _atom_site_fract_z
 _atom_site_occupancy
  Tm  Tm0  1  0.250000  0.050329  0.678783  1
  Tm  Tm1  1  0.250000  0.515161  0.820903  1
  Tm  Tm2  1  0.750000  0.988192  0.338433  1
  Tm  Tm3  1  0.750000  0.455050  0.172245  1
  Sc  Sc4  1  0.250000  0.635722  0.434691  1
  Sc  Sc5  1  0.750000  0.863886  0.936801  1
  Al  Al6  1  0.750000  0.365738  0.562251  1
  In  In7  1  0.250000  0.136061  0.069239  1
  Pt  Pt8  1  0.250000  0.263259  0.394334  1
  Pt  Pt9  1  0.250000  0.737356  0.111890  1
  Pt  Pt10  1  0.750000  0.741126  0.615967  1
  Pt  Pt11  1  0.750000  0.248119  0.864465  1
