# generated using pymatgen
data_CsK2Ag3P2
_symmetry_space_group_name_H-M   'P 1'
_cell_length_a   7.92438651
_cell_length_b   7.92438615
_cell_length_c   7.92438633
_cell_angle_alpha   45.72045507
_cell_angle_beta   45.72045348
_cell_angle_gamma   45.72045303
_symmetry_Int_Tables_number   1
_chemical_formula_structural   CsK2Ag3P2
_chemical_formula_sum   'Cs1 K2 Ag3 P2'
_cell_volume   232.51256972
_cell_formula_units_Z   1
loop_
 _symmetry_equiv_pos_site_id
 _symmetry_equiv_pos_as_xyz
  1  'x, y, z'
loop_
 _atom_site_type_symbol
 _atom_site_label
 _atom_site_symmetry_multiplicity
 _atom_site_fract_x
 _atom_site_fract_y
 _atom_site_fract_z
 _atom_site_occupancy
  Cs  Cs0  1  0.500000  0.500000  0.500000  1
  K  K1  1  0.907778  0.907778  0.907778  1
  K  K2  1  0.092222  0.092222  0.092222  1
  Ag  Ag3  1  0.000000  0.500000  0.500000  1
  Ag  Ag4  1  0.500000  0.500000  0.000000  1
  Ag  Ag5  1  0.500000  0.000000  0.500000  1
  P  P6  1  0.252330  0.252330  0.252330  1
  P  P7  1  0.747670  0.747670  0.747670  1
