# generated using pymatgen
data_SrGd2(CdNi)2
_symmetry_space_group_name_H-M   'P 1'
_cell_length_a   11.41965000
_cell_length_b   11.41964769
_cell_length_c   3.78914700
_cell_angle_alpha   90.00000000
_cell_angle_beta   90.00000000
_cell_angle_gamma   159.37357638
_symmetry_Int_Tables_number   1
_chemical_formula_structural   SrGd2(CdNi)2
_chemical_formula_sum   'Sr1 Gd2 Cd2 Ni2'
_cell_volume   174.07110387
_cell_formula_units_Z   1
loop_
 _symmetry_equiv_pos_site_id
 _symmetry_equiv_pos_as_xyz
  1  'x, y, z'
loop_
 _atom_site_type_symbol
 _atom_site_label
 _atom_site_symmetry_multiplicity
 _atom_site_fract_x
 _atom_site_fract_y
 _atom_site_fract_z
 _atom_site_occupancy
  Sr  Sr0  1  0.000000  0.000000  0.000000  1
  Gd  Gd1  1  0.819523  0.180477  0.000000  1
  Gd  Gd2  1  0.180477  0.819523  0.000000  1
  Cd  Cd3  1  0.402596  0.597404  0.500000  1
  Cd  Cd4  1  0.597404  0.402596  0.500000  1
  Ni  Ni5  1  0.279707  0.720293  0.500000  1
  Ni  Ni6  1  0.720293  0.279707  0.500000  1
