# generated using pymatgen
data_Yb8Sb5Au
_symmetry_space_group_name_H-M   'P 1'
_cell_length_a   8.15112672
_cell_length_b   8.15112617
_cell_length_c   8.15112626
_cell_angle_alpha   109.41265821
_cell_angle_beta   109.41266316
_cell_angle_gamma   109.58840440
_symmetry_Int_Tables_number   1
_chemical_formula_structural   Yb8Sb5Au
_chemical_formula_sum   'Yb8 Sb5 Au1'
_cell_volume   416.89782179
_cell_formula_units_Z   1
loop_
 _symmetry_equiv_pos_site_id
 _symmetry_equiv_pos_as_xyz
  1  'x, y, z'
loop_
 _atom_site_type_symbol
 _atom_site_label
 _atom_site_symmetry_multiplicity
 _atom_site_fract_x
 _atom_site_fract_y
 _atom_site_fract_z
 _atom_site_occupancy
  Yb  Yb0  1  0.498589  0.003141  0.346986  1
  Yb  Yb1  1  0.641612  0.635221  0.646761  1
  Yb  Yb2  1  0.005149  0.358388  0.493609  1
  Yb  Yb3  1  0.364779  0.511540  0.006391  1
  Yb  Yb4  1  0.996859  0.843846  0.495449  1
  Yb  Yb5  1  0.848397  0.501411  0.004551  1
  Yb  Yb6  1  0.488460  0.994851  0.853239  1
  Yb  Yb7  1  0.156154  0.151603  0.153014  1
  Sb  Sb8  1  0.374734  0.243199  0.629622  1
  Sb  Sb9  1  0.113577  0.745111  0.870378  1
  Sb  Sb10  1  0.756801  0.886423  0.131535  1
  Sb  Sb11  1  0.254889  0.625266  0.368465  1
  Sb  Sb12  1  0.625000  0.375000  0.250000  1
  Au  Au13  1  0.875000  0.125000  0.750000  1
