# generated using pymatgen
data_HoPu4O10
_symmetry_space_group_name_H-M   'P 1'
_cell_length_a   6.58019836
_cell_length_b   6.58019838
_cell_length_c   6.58019800
_cell_angle_alpha   99.60263662
_cell_angle_beta   99.60263664
_cell_angle_gamma   131.78764404
_symmetry_Int_Tables_number   1
_chemical_formula_structural   HoPu4O10
_chemical_formula_sum   'Ho1 Pu4 O10'
_cell_volume   193.91226548
_cell_formula_units_Z   1
loop_
 _symmetry_equiv_pos_site_id
 _symmetry_equiv_pos_as_xyz
  1  'x, y, z'
loop_
 _atom_site_type_symbol
 _atom_site_label
 _atom_site_symmetry_multiplicity
 _atom_site_fract_x
 _atom_site_fract_y
 _atom_site_fract_z
 _atom_site_occupancy
  Ho  Ho0  1  0.500000  0.500000  0.000000  1
  Pu  Pu1  1  0.899444  0.700634  0.600078  1
  Pu  Pu2  1  0.100556  0.299366  0.399922  1
  Pu  Pu3  1  0.700634  0.100556  0.801190  1
  Pu  Pu4  1  0.299366  0.899444  0.198810  1
  O  O5  1  0.043278  0.147079  0.696579  1
  O  O6  1  0.549499  0.653300  0.696579  1
  O  O7  1  0.250000  0.750000  0.500000  1
  O  O8  1  0.450501  0.346700  0.303421  1
  O  O9  1  0.750000  0.250000  0.500000  1
  O  O10  1  0.346700  0.043278  0.896198  1
  O  O11  1  0.852921  0.549499  0.896198  1
  O  O12  1  0.956722  0.852921  0.303421  1
  O  O13  1  0.147079  0.450501  0.103802  1
  O  O14  1  0.653300  0.956722  0.103802  1
