# generated using pymatgen
data_Tb2Co3P6Ir5W2
_symmetry_space_group_name_H-M   'P 1'
_cell_length_a   3.89220600
_cell_length_b   10.63926400
_cell_length_c   12.31590600
_cell_angle_alpha   90.00000000
_cell_angle_beta   90.00000000
_cell_angle_gamma   90.00000000
_symmetry_Int_Tables_number   1
_chemical_formula_structural   Tb2Co3P6Ir5W2
_chemical_formula_sum   'Tb4 Co6 P12 Ir10 W4'
_cell_volume   510.00421902
_cell_formula_units_Z   2
loop_
 _symmetry_equiv_pos_site_id
 _symmetry_equiv_pos_as_xyz
  1  'x, y, z'
loop_
 _atom_site_type_symbol
 _atom_site_label
 _atom_site_symmetry_multiplicity
 _atom_site_fract_x
 _atom_site_fract_y
 _atom_site_fract_z
 _atom_site_occupancy
  Tb  Tb0  1  0.250000  0.580050  0.709949  1
  Tb  Tb1  1  0.250000  0.919950  0.209949  1
  Tb  Tb2  1  0.750000  0.414428  0.291471  1
  Tb  Tb3  1  0.750000  0.085572  0.791471  1
  Co  Co4  1  0.750000  0.115993  0.304910  1
  Co  Co5  1  0.750000  0.384007  0.804910  1
  Co  Co6  1  0.250000  0.462893  0.934876  1
  Co  Co7  1  0.250000  0.037107  0.434876  1
  Co  Co8  1  0.750000  0.537388  0.062097  1
  Co  Co9  1  0.750000  0.962612  0.562097  1
  P  P10  1  0.250000  0.421530  0.107474  1
  P  P11  1  0.250000  0.078470  0.607474  1
  P  P12  1  0.750000  0.567561  0.887611  1
  P  P13  1  0.750000  0.932439  0.387611  1
  P  P14  1  0.250000  0.273375  0.869274  1
  P  P15  1  0.250000  0.226625  0.369274  1
  P  P16  1  0.750000  0.730579  0.128364  1
  P  P17  1  0.750000  0.769421  0.628364  1
  P  P18  1  0.250000  0.596066  0.389966  1
  P  P19  1  0.250000  0.903934  0.889966  1
  P  P20  1  0.750000  0.399602  0.617522  1
  P  P21  1  0.750000  0.100398  0.117522  1
  Ir  Ir22  1  0.250000  0.402449  0.481492  1
  Ir  Ir23  1  0.250000  0.097551  0.981492  1
  Ir  Ir24  1  0.750000  0.593557  0.518309  1
  Ir  Ir25  1  0.750000  0.906443  0.018309  1
  Ir  Ir26  1  0.250000  0.224716  0.181473  1
  Ir  Ir27  1  0.250000  0.275284  0.681473  1
  Ir  Ir28  1  0.750000  0.766229  0.819194  1
  Ir  Ir29  1  0.750000  0.733771  0.319194  1
  Ir  Ir30  1  0.250000  0.889617  0.698633  1
  Ir  Ir31  1  0.250000  0.610383  0.198633  1
  W  W32  1  0.250000  0.708080  0.982645  1
  W  W33  1  0.250000  0.791920  0.482645  1
  W  W34  1  0.750000  0.291745  0.014739  1
  W  W35  1  0.750000  0.208255  0.514739  1
