# generated using pymatgen
data_Y3VCrC6
_symmetry_space_group_name_H-M   'P 1'
_cell_length_a   8.22408100
_cell_length_b   8.22408119
_cell_length_c   4.98403000
_cell_angle_alpha   90.00000000
_cell_angle_beta   90.00000000
_cell_angle_gamma   120.00000326
_symmetry_Int_Tables_number   1
_chemical_formula_structural   Y3VCrC6
_chemical_formula_sum   'Y6 V2 Cr2 C12'
_cell_volume   291.93491121
_cell_formula_units_Z   2
loop_
 _symmetry_equiv_pos_site_id
 _symmetry_equiv_pos_as_xyz
  1  'x, y, z'
loop_
 _atom_site_type_symbol
 _atom_site_label
 _atom_site_symmetry_multiplicity
 _atom_site_fract_x
 _atom_site_fract_y
 _atom_site_fract_z
 _atom_site_occupancy
  Y  Y0  1  0.620689  0.683426  0.750000  1
  Y  Y1  1  0.937264  0.620689  0.250000  1
  Y  Y2  1  0.683426  0.062736  0.250000  1
  Y  Y3  1  0.316574  0.937264  0.750000  1
  Y  Y4  1  0.062736  0.379311  0.750000  1
  Y  Y5  1  0.379311  0.316574  0.250000  1
  V  V6  1  0.000000  0.000000  0.500000  1
  V  V7  1  0.000000  0.000000  0.000000  1
  Cr  Cr8  1  0.666667  0.333333  0.750000  1
  Cr  Cr9  1  0.333333  0.666667  0.250000  1
  C  C10  1  0.964469  0.769806  0.750000  1
  C  C11  1  0.194664  0.964469  0.250000  1
  C  C12  1  0.769806  0.805336  0.250000  1
  C  C13  1  0.230194  0.194664  0.750000  1
  C  C14  1  0.805336  0.035531  0.750000  1
  C  C15  1  0.035531  0.230194  0.250000  1
  C  C16  1  0.864383  0.576457  0.750000  1
  C  C17  1  0.287925  0.864383  0.250000  1
  C  C18  1  0.576457  0.712075  0.250000  1
  C  C19  1  0.423543  0.287925  0.750000  1
  C  C20  1  0.135617  0.423543  0.250000  1
  C  C21  1  0.712075  0.135617  0.750000  1
