# generated using pymatgen
data_V4GaOsC2
_symmetry_space_group_name_H-M   'P 1'
_cell_length_a   2.87991300
_cell_length_b   2.87991254
_cell_length_c   13.04485700
_cell_angle_alpha   90.00000000
_cell_angle_beta   90.00000000
_cell_angle_gamma   120.00001676
_symmetry_Int_Tables_number   1
_chemical_formula_structural   V4GaOsC2
_chemical_formula_sum   'V4 Ga1 Os1 C2'
_cell_volume   93.69761756
_cell_formula_units_Z   1
loop_
 _symmetry_equiv_pos_site_id
 _symmetry_equiv_pos_as_xyz
  1  'x, y, z'
loop_
 _atom_site_type_symbol
 _atom_site_label
 _atom_site_symmetry_multiplicity
 _atom_site_fract_x
 _atom_site_fract_y
 _atom_site_fract_z
 _atom_site_occupancy
  V  V0  1  0.333333  0.666667  0.413040  1
  V  V1  1  0.666667  0.333333  0.587443  1
  V  V2  1  0.666667  0.333333  0.912557  1
  V  V3  1  0.333333  0.666667  0.086960  1
  Ga  Ga4  1  0.666667  0.333333  0.250000  1
  Os  Os5  1  0.333333  0.666667  0.750000  1
  C  C6  1  0.000000  0.000000  0.499494  1
  C  C7  1  0.000000  0.000000  0.000506  1
