# generated using pymatgen
data_La9Pr3Al3Ga5Rh8
_symmetry_space_group_name_H-M   'P 1'
_cell_length_a   5.78749840
_cell_length_b   8.35323213
_cell_length_c   13.78016806
_cell_angle_alpha   90.02311795
_cell_angle_beta   90.00531082
_cell_angle_gamma   90.15607855
_symmetry_Int_Tables_number   1
_chemical_formula_structural   La9Pr3Al3Ga5Rh8
_chemical_formula_sum   'La9 Pr3 Al3 Ga5 Rh8'
_cell_volume   666.19029304
_cell_formula_units_Z   1
loop_
 _symmetry_equiv_pos_site_id
 _symmetry_equiv_pos_as_xyz
  1  'x, y, z'
loop_
 _atom_site_type_symbol
 _atom_site_label
 _atom_site_symmetry_multiplicity
 _atom_site_fract_x
 _atom_site_fract_y
 _atom_site_fract_z
 _atom_site_occupancy
  La  La0  1  0.636705  0.238897  0.748678  1
  La  La1  1  0.147141  0.402031  0.097299  1
  La  La2  1  0.853268  0.598056  0.903564  1
  La  La3  1  0.849938  0.597055  0.595900  1
  La  La4  1  0.850414  0.902713  0.403537  1
  La  La5  1  0.150367  0.399803  0.404213  1
  La  La6  1  0.148944  0.101314  0.595263  1
  La  La7  1  0.145748  0.099145  0.903211  1
  La  La8  1  0.853444  0.901741  0.096971  1
  Pr  Pr9  1  0.640078  0.258131  0.251261  1
  Pr  Pr10  1  0.361955  0.743706  0.749087  1
  Pr  Pr11  1  0.362827  0.756808  0.250957  1
  Al  Al12  1  0.618701  0.249860  0.001275  1
  Al  Al13  1  0.380618  0.750051  0.999892  1
  Al  Al14  1  0.376548  0.750054  0.500106  1
  Ga  Ga15  1  0.145486  0.110571  0.249949  1
  Ga  Ga16  1  0.858746  0.886514  0.749367  1
  Ga  Ga17  1  0.857452  0.611418  0.250685  1
  Ga  Ga18  1  0.143070  0.391738  0.750069  1
  Ga  Ga19  1  0.629981  0.249921  0.498596  1
  Rh  Rh20  1  0.359394  0.027484  0.089165  1
  Rh  Rh21  1  0.640033  0.973073  0.909444  1
  Rh  Rh22  1  0.635669  0.969135  0.591212  1
  Rh  Rh23  1  0.634751  0.532413  0.409354  1
  Rh  Rh24  1  0.357998  0.025935  0.410563  1
  Rh  Rh25  1  0.360087  0.472833  0.589806  1
  Rh  Rh26  1  0.361233  0.471199  0.910566  1
  Rh  Rh27  1  0.639406  0.528402  0.090014  1
