# generated using pymatgen
data_LiHo3Hg4
_symmetry_space_group_name_H-M   'P 1'
_cell_length_a   6.33544684
_cell_length_b   6.33544701
_cell_length_c   5.06168500
_cell_angle_alpha   90.00000000
_cell_angle_beta   90.00000000
_cell_angle_gamma   107.50159935
_symmetry_Int_Tables_number   1
_chemical_formula_structural   LiHo3Hg4
_chemical_formula_sum   'Li1 Ho3 Hg4'
_cell_volume   193.76052722
_cell_formula_units_Z   1
loop_
 _symmetry_equiv_pos_site_id
 _symmetry_equiv_pos_as_xyz
  1  'x, y, z'
loop_
 _atom_site_type_symbol
 _atom_site_label
 _atom_site_symmetry_multiplicity
 _atom_site_fract_x
 _atom_site_fract_y
 _atom_site_fract_z
 _atom_site_occupancy
  Li  Li0  1  0.623226  0.376774  0.250000  1
  Ho  Ho1  1  0.860245  0.139755  0.750000  1
  Ho  Ho2  1  0.127921  0.872079  0.250000  1
  Ho  Ho3  1  0.383430  0.616570  0.750000  1
  Hg  Hg4  1  0.631463  0.867826  0.250000  1
  Hg  Hg5  1  0.369595  0.128052  0.750000  1
  Hg  Hg6  1  0.871948  0.630405  0.750000  1
  Hg  Hg7  1  0.132174  0.368537  0.250000  1
