# generated using pymatgen
data_Ho5Co16Si6(P2Os)3
_symmetry_space_group_name_H-M   'P 1'
_cell_length_a   12.11887300
_cell_length_b   12.11887422
_cell_length_c   3.72039700
_cell_angle_alpha   90.00000000
_cell_angle_beta   90.00000000
_cell_angle_gamma   119.99999941
_symmetry_Int_Tables_number   1
_chemical_formula_structural   Ho5Co16Si6(P2Os)3
_chemical_formula_sum   'Ho5 Co16 Si6 P6 Os3'
_cell_volume   473.19966882
_cell_formula_units_Z   1
loop_
 _symmetry_equiv_pos_site_id
 _symmetry_equiv_pos_as_xyz
  1  'x, y, z'
loop_
 _atom_site_type_symbol
 _atom_site_label
 _atom_site_symmetry_multiplicity
 _atom_site_fract_x
 _atom_site_fract_y
 _atom_site_fract_z
 _atom_site_occupancy
  Ho  Ho0  1  0.666667  0.333333  0.000000  1
  Ho  Ho1  1  0.333333  0.666667  0.000000  1
  Ho  Ho2  1  0.814814  0.814814  0.500000  1
  Ho  Ho3  1  0.185186  0.000000  0.500000  1
  Ho  Ho4  1  0.000000  0.185186  0.500000  1
  Co  Co5  1  0.877690  0.354083  0.500000  1
  Co  Co6  1  0.645917  0.523608  0.500000  1
  Co  Co7  1  0.476392  0.122310  0.500000  1
  Co  Co8  1  0.354083  0.877690  0.500000  1
  Co  Co9  1  0.523608  0.645917  0.500000  1
  Co  Co10  1  0.122310  0.476392  0.500000  1
  Co  Co11  1  0.806182  0.177585  0.000000  1
  Co  Co12  1  0.822415  0.628597  0.000000  1
  Co  Co13  1  0.371403  0.193818  0.000000  1
  Co  Co14  1  0.177585  0.806182  0.000000  1
  Co  Co15  1  0.628597  0.822415  0.000000  1
  Co  Co16  1  0.193818  0.371403  0.000000  1
  Co  Co17  1  0.276758  0.276758  0.500000  1
  Co  Co18  1  0.723242  0.000000  0.500000  1
  Co  Co19  1  0.000000  0.723242  0.500000  1
  Co  Co20  1  0.000000  0.000000  0.000000  1
  Si  Si21  1  0.683213  0.162221  0.500000  1
  Si  Si22  1  0.837779  0.520992  0.500000  1
  Si  Si23  1  0.479008  0.316787  0.500000  1
  Si  Si24  1  0.162221  0.683213  0.500000  1
  Si  Si25  1  0.520992  0.837779  0.500000  1
  Si  Si26  1  0.316787  0.479008  0.500000  1
  P  P27  1  0.178393  0.178393  0.000000  1
  P  P28  1  0.821607  0.000000  0.000000  1
  P  P29  1  0.000000  0.821607  0.000000  1
  P  P30  1  0.636457  0.636457  0.000000  1
  P  P31  1  0.363543  0.000000  0.000000  1
  P  P32  1  0.000000  0.363543  0.000000  1
  Os  Os33  1  0.445268  0.445268  0.000000  1
  Os  Os34  1  0.554732  0.000000  0.000000  1
  Os  Os35  1  0.000000  0.554732  0.000000  1
