# generated using pymatgen
data_NaSr2Ca2V3O12
_symmetry_space_group_name_H-M   'P 1'
_cell_length_a   11.49230323
_cell_length_b   11.49221931
_cell_length_c   11.49230237
_cell_angle_alpha   109.38555185
_cell_angle_beta   109.38433006
_cell_angle_gamma   109.64421328
_symmetry_Int_Tables_number   1
_chemical_formula_structural   NaSr2Ca2V3O12
_chemical_formula_sum   'Na4 Sr8 Ca8 V12 O48'
_cell_volume   1168.40010599
_cell_formula_units_Z   4
loop_
 _symmetry_equiv_pos_site_id
 _symmetry_equiv_pos_as_xyz
  1  'x, y, z'
loop_
 _atom_site_type_symbol
 _atom_site_label
 _atom_site_symmetry_multiplicity
 _atom_site_fract_x
 _atom_site_fract_y
 _atom_site_fract_z
 _atom_site_occupancy
  Na  Na0  1  0.999998  0.500010  0.500007  1
  Na  Na1  1  0.249998  0.249990  0.999989  1
  Na  Na2  1  0.500002  0.000010  0.500011  1
  Na  Na3  1  0.750002  0.749990  0.999993  1
  Sr  Sr4  1  0.124999  0.996305  0.371307  1
  Sr  Sr5  1  0.003691  0.375000  0.128691  1
  Sr  Sr6  1  0.503695  0.375000  0.628695  1
  Sr  Sr7  1  0.124997  0.496305  0.871306  1
  Sr  Sr8  1  0.246305  0.875000  0.871305  1
  Sr  Sr9  1  0.625003  0.753695  0.628694  1
  Sr  Sr10  1  0.746309  0.875000  0.371309  1
  Sr  Sr11  1  0.625001  0.253695  0.128693  1
  Ca  Ca12  1  0.875000  0.625000  0.250000  1
  Ca  Ca13  1  0.875000  0.625000  0.750000  1
  Ca  Ca14  1  0.375000  0.125000  0.750000  1
  Ca  Ca15  1  0.375000  0.625000  0.750000  1
  Ca  Ca16  1  0.375000  0.625000  0.250000  1
  Ca  Ca17  1  0.375000  0.125000  0.250000  1
  Ca  Ca18  1  0.875000  0.125000  0.250000  1
  Ca  Ca19  1  0.875000  0.125000  0.750000  1
  V  V20  1  0.999978  0.999981  0.999970  1
  V  V21  1  0.997401  0.875000  0.622401  1
  V  V22  1  0.252609  0.375000  0.377609  1
  V  V23  1  0.124989  0.747371  0.122376  1
  V  V24  1  0.124995  0.247371  0.622382  1
  V  V25  1  0.249988  0.750019  0.499997  1
  V  V26  1  0.500012  0.499981  0.000003  1
  V  V27  1  0.625011  0.502629  0.377624  1
  V  V28  1  0.497391  0.875000  0.122391  1
  V  V29  1  0.625005  0.002629  0.877618  1
  V  V30  1  0.752599  0.375000  0.877599  1
  V  V31  1  0.750022  0.250019  0.500030  1
  O  O32  1  0.985766  0.742644  0.153554  1
  O  O33  1  0.993298  0.137958  0.968894  1
  O  O34  1  0.890688  0.341375  0.874060  1
  O  O35  1  0.975596  0.006702  0.144661  1
  O  O36  1  0.967315  0.841375  0.450688  1
  O  O37  1  0.983375  0.109317  0.450696  1
  O  O38  1  0.082216  0.339091  0.346446  1
  O  O39  1  0.282680  0.233378  0.374059  1
  O  O40  1  0.257355  0.410909  0.243125  1
  O  O41  1  0.158621  0.609317  0.125942  1
  O  O42  1  0.167798  0.014235  0.756885  1
  O  O43  1  0.887957  0.419061  0.644659  1
  O  O44  1  0.080936  0.612042  0.355340  1
  O  O45  1  0.089090  0.242644  0.756878  1
  O  O46  1  0.266624  0.217319  0.625940  1
  O  O47  1  0.169064  0.024403  0.031104  1
  O  O48  1  0.160908  0.417782  0.653554  1
  O  O49  1  0.992650  0.735765  0.653563  1
  O  O50  1  0.264228  0.917782  0.256874  1
  O  O51  1  0.390681  0.516622  0.549302  1
  O  O52  1  0.387959  0.743298  0.468894  1
  O  O53  1  0.256700  0.725597  0.644660  1
  O  O54  1  0.475598  0.330939  0.968896  1
  O  O55  1  0.091378  0.717319  0.950695  1
  O  O56  1  0.658622  0.532681  0.549305  1
  O  O57  1  0.274402  0.919061  0.531104  1
  O  O58  1  0.493300  0.524403  0.855340  1
  O  O59  1  0.362041  0.506702  0.031106  1
  O  O60  1  0.359319  0.733378  0.950698  1
  O  O61  1  0.485772  0.332218  0.243126  1
  O  O62  1  0.757350  0.514235  0.846437  1
  O  O63  1  0.589092  0.832218  0.846446  1
  O  O64  1  0.580936  0.225597  0.468896  1
  O  O65  1  0.483376  0.032681  0.874060  1
  O  O66  1  0.660910  0.007356  0.743122  1
  O  O67  1  0.669064  0.637958  0.144660  1
  O  O68  1  0.862043  0.830939  0.855341  1
  O  O69  1  0.582202  0.235765  0.743115  1
  O  O70  1  0.492645  0.839091  0.256875  1
  O  O71  1  0.591379  0.640683  0.374058  1
  O  O72  1  0.467320  0.016622  0.125941  1
  O  O73  1  0.667784  0.910909  0.153554  1
  O  O74  1  0.766625  0.140683  0.049304  1
  O  O75  1  0.782685  0.408625  0.049312  1
  O  O76  1  0.774404  0.243298  0.355339  1
  O  O77  1  0.859312  0.908625  0.625940  1
  O  O78  1  0.756702  0.112042  0.531106  1
  O  O79  1  0.764234  0.507356  0.346446  1
