# generated using pymatgen
data_BaNa2Sr3(AlP3)2
_symmetry_space_group_name_H-M   'P 1'
_cell_length_a   8.17902367
_cell_length_b   8.17904250
_cell_length_c   11.71682527
_cell_angle_alpha   75.99482728
_cell_angle_beta   104.00522080
_cell_angle_gamma   111.54756728
_symmetry_Int_Tables_number   1
_chemical_formula_structural   BaNa2Sr3(AlP3)2
_chemical_formula_sum   'Ba2 Na4 Sr6 Al4 P12'
_cell_volume   697.10870322
_cell_formula_units_Z   2
loop_
 _symmetry_equiv_pos_site_id
 _symmetry_equiv_pos_as_xyz
  1  'x, y, z'
loop_
 _atom_site_type_symbol
 _atom_site_label
 _atom_site_symmetry_multiplicity
 _atom_site_fract_x
 _atom_site_fract_y
 _atom_site_fract_z
 _atom_site_occupancy
  Ba  Ba0  1  0.254749  0.190030  0.686227  1
  Ba  Ba1  1  0.190029  0.254749  0.313773  1
  Na  Na2  1  0.647015  0.354171  0.233047  1
  Na  Na3  1  0.354171  0.647014  0.766953  1
  Na  Na4  1  0.304086  0.304086  0.000000  1
  Na  Na5  1  0.698157  0.698157  0.000000  1
  Sr  Sr6  1  0.500767  0.999413  0.000462  1
  Sr  Sr7  1  0.999413  0.500767  0.999538  1
  Sr  Sr8  1  0.744801  0.806064  0.312021  1
  Sr  Sr9  1  0.806065  0.744801  0.687979  1
  Sr  Sr10  1  0.502516  0.998843  0.499611  1
  Sr  Sr11  1  0.998843  0.502517  0.500390  1
  Al  Al12  1  0.090007  0.908340  0.117672  1
  Al  Al13  1  0.908340  0.090007  0.882329  1
  Al  Al14  1  0.305265  0.700056  0.265667  1
  Al  Al15  1  0.700058  0.305266  0.734333  1
  P  P16  1  0.087810  0.907211  0.909546  1
  P  P17  1  0.907211  0.087809  0.090455  1
  P  P18  1  0.388778  0.019309  0.227117  1
  P  P19  1  0.019310  0.388777  0.772884  1
  P  P20  1  0.612018  0.982696  0.770471  1
  P  P21  1  0.982695  0.612019  0.229529  1
  P  P22  1  0.591497  0.417867  0.514303  1
  P  P23  1  0.417867  0.591498  0.485697  1
  P  P24  1  0.414556  0.598251  0.134172  1
  P  P25  1  0.598252  0.414556  0.865828  1
  P  P26  1  0.074574  0.901150  0.512093  1
  P  P27  1  0.901150  0.074575  0.487908  1
