# generated using pymatgen
data_NdY2Mg(Co4P3)2
_symmetry_space_group_name_H-M   'P 1'
_cell_length_a   3.76493900
_cell_length_b   10.70133400
_cell_length_c   12.37136800
_cell_angle_alpha   90.00000000
_cell_angle_beta   90.00000000
_cell_angle_gamma   90.00000000
_symmetry_Int_Tables_number   1
_chemical_formula_structural   NdY2Mg(Co4P3)2
_chemical_formula_sum   'Nd2 Y4 Mg2 Co16 P12'
_cell_volume   498.44080508
_cell_formula_units_Z   2
loop_
 _symmetry_equiv_pos_site_id
 _symmetry_equiv_pos_as_xyz
  1  'x, y, z'
loop_
 _atom_site_type_symbol
 _atom_site_label
 _atom_site_symmetry_multiplicity
 _atom_site_fract_x
 _atom_site_fract_y
 _atom_site_fract_z
 _atom_site_occupancy
  Nd  Nd0  1  0.000000  0.500000  0.526375  1
  Nd  Nd1  1  0.500000  0.000000  0.473625  1
  Y  Y2  1  0.500000  0.821221  0.205471  1
  Y  Y3  1  0.500000  0.178779  0.205471  1
  Y  Y4  1  0.000000  0.678779  0.794529  1
  Y  Y5  1  0.000000  0.321221  0.794529  1
  Mg  Mg6  1  0.500000  0.500000  0.153826  1
  Mg  Mg7  1  0.000000  0.000000  0.846174  1
  Co  Co8  1  0.500000  0.500000  0.707786  1
  Co  Co9  1  0.000000  0.000000  0.292214  1
  Co  Co10  1  0.000000  0.500000  0.988342  1
  Co  Co11  1  0.500000  0.000000  0.011658  1
  Co  Co12  1  0.500000  0.332568  0.996352  1
  Co  Co13  1  0.500000  0.667432  0.996352  1
  Co  Co14  1  0.000000  0.167432  0.003648  1
  Co  Co15  1  0.000000  0.832568  0.003648  1
  Co  Co16  1  0.500000  0.296245  0.430788  1
  Co  Co17  1  0.500000  0.703755  0.430788  1
  Co  Co18  1  0.000000  0.203755  0.569212  1
  Co  Co19  1  0.000000  0.796245  0.569212  1
  Co  Co20  1  0.500000  0.878460  0.707945  1
  Co  Co21  1  0.500000  0.121540  0.707945  1
  Co  Co22  1  0.000000  0.621540  0.292055  1
  Co  Co23  1  0.000000  0.378460  0.292055  1
  P  P24  1  0.500000  0.500000  0.885667  1
  P  P25  1  0.000000  0.000000  0.114333  1
  P  P26  1  0.500000  0.500000  0.351329  1
  P  P27  1  0.000000  0.000000  0.648671  1
  P  P28  1  0.500000  0.305986  0.616269  1
  P  P29  1  0.500000  0.694014  0.616269  1
  P  P30  1  0.000000  0.194014  0.383731  1
  P  P31  1  0.000000  0.805986  0.383731  1
  P  P32  1  0.500000  0.839149  0.894396  1
  P  P33  1  0.500000  0.160851  0.894396  1
  P  P34  1  0.000000  0.660851  0.105604  1
  P  P35  1  0.000000  0.339149  0.105604  1
