# generated using pymatgen
data_NdTl2B2Pt7
_symmetry_space_group_name_H-M   'P 1'
_cell_length_a   8.35871822
_cell_length_b   8.35871786
_cell_length_c   8.35872000
_cell_angle_alpha   38.17573047
_cell_angle_beta   38.17573361
_cell_angle_gamma   38.17572694
_symmetry_Int_Tables_number   1
_chemical_formula_structural   NdTl2B2Pt7
_chemical_formula_sum   'Nd1 Tl2 B2 Pt7'
_cell_volume   200.33061978
_cell_formula_units_Z   1
loop_
 _symmetry_equiv_pos_site_id
 _symmetry_equiv_pos_as_xyz
  1  'x, y, z'
loop_
 _atom_site_type_symbol
 _atom_site_label
 _atom_site_symmetry_multiplicity
 _atom_site_fract_x
 _atom_site_fract_y
 _atom_site_fract_z
 _atom_site_occupancy
  Nd  Nd0  1  0.000000  0.000000  0.000000  1
  Tl  Tl1  1  0.852452  0.852452  0.852452  1
  Tl  Tl2  1  0.147548  0.147548  0.147548  1
  B  B3  1  0.667330  0.667330  0.667330  1
  B  B4  1  0.332670  0.332670  0.332670  1
  Pt  Pt5  1  0.434918  0.932653  0.434918  1
  Pt  Pt6  1  0.434918  0.434918  0.932653  1
  Pt  Pt7  1  0.932653  0.434918  0.434918  1
  Pt  Pt8  1  0.565082  0.067347  0.565082  1
  Pt  Pt9  1  0.565082  0.565082  0.067347  1
  Pt  Pt10  1  0.067347  0.565082  0.565082  1
  Pt  Pt11  1  0.500000  0.500000  0.500000  1
