# generated using pymatgen
data_La2YEr3CoI10
_symmetry_space_group_name_H-M   'P 1'
_cell_length_a   7.78490161
_cell_length_b   9.80002543
_cell_length_c   9.73181481
_cell_angle_alpha   106.84066295
_cell_angle_beta   95.87176055
_cell_angle_gamma   105.57502136
_symmetry_Int_Tables_number   1
_chemical_formula_structural   La2YEr3CoI10
_chemical_formula_sum   'La2 Y1 Er3 Co1 I10'
_cell_volume   671.34069784
_cell_formula_units_Z   1
loop_
 _symmetry_equiv_pos_site_id
 _symmetry_equiv_pos_as_xyz
  1  'x, y, z'
loop_
 _atom_site_type_symbol
 _atom_site_label
 _atom_site_symmetry_multiplicity
 _atom_site_fract_x
 _atom_site_fract_y
 _atom_site_fract_z
 _atom_site_occupancy
  La  La0  1  0.886266  0.957801  0.229226  1
  La  La1  1  0.112338  0.041642  0.770144  1
  Y  Y2  1  0.345868  0.124824  0.162783  1
  Er  Er3  1  0.027363  0.718411  0.914449  1
  Er  Er4  1  0.972176  0.281513  0.085283  1
  Er  Er5  1  0.657292  0.875798  0.838190  1
  Co  Co6  1  0.998589  0.999393  0.999346  1
  I  I7  1  0.651512  0.553378  0.730720  1
  I  I8  1  0.347901  0.447882  0.269487  1
  I  I9  1  0.728073  0.908820  0.540845  1
  I  I10  1  0.271242  0.090898  0.460024  1
  I  I11  1  0.082305  0.379893  0.824413  1
  I  I12  1  0.917800  0.620172  0.175611  1
  I  I13  1  0.444168  0.815615  0.087930  1
  I  I14  1  0.555918  0.183483  0.910851  1
  I  I15  1  0.226005  0.736134  0.657614  1
  I  I16  1  0.775184  0.264341  0.343083  1
