# generated using pymatgen
data_Er3Tm14(LuBi4)3
_symmetry_space_group_name_H-M   'P 1'
_cell_length_a   8.17436166
_cell_length_b   9.44009504
_cell_length_c   11.86875818
_cell_angle_alpha   89.99631653
_cell_angle_beta   90.01274702
_cell_angle_gamma   90.01044834
_symmetry_Int_Tables_number   1
_chemical_formula_structural   Er3Tm14(LuBi4)3
_chemical_formula_sum   'Er3 Tm14 Lu3 Bi12'
_cell_volume   915.87346733
_cell_formula_units_Z   1
loop_
 _symmetry_equiv_pos_site_id
 _symmetry_equiv_pos_as_xyz
  1  'x, y, z'
loop_
 _atom_site_type_symbol
 _atom_site_label
 _atom_site_symmetry_multiplicity
 _atom_site_fract_x
 _atom_site_fract_y
 _atom_site_fract_z
 _atom_site_occupancy
  Er  Er0  1  0.812853  0.250004  0.282787  1
  Er  Er1  1  0.687014  0.750000  0.782715  1
  Er  Er2  1  0.187031  0.749952  0.717101  1
  Tm  Tm3  1  0.352633  0.749858  0.217662  1
  Tm  Tm4  1  0.852747  0.749876  0.282441  1
  Tm  Tm5  1  0.647243  0.250000  0.782646  1
  Tm  Tm6  1  0.147379  0.249946  0.717502  1
  Tm  Tm7  1  0.692006  0.566511  0.059032  1
  Tm  Tm8  1  0.191870  0.933304  0.441000  1
  Tm  Tm9  1  0.308200  0.066445  0.941094  1
  Tm  Tm10  1  0.808268  0.433612  0.558918  1
  Tm  Tm11  1  0.308165  0.433582  0.941094  1
  Tm  Tm12  1  0.808339  0.066454  0.558925  1
  Tm  Tm13  1  0.691988  0.933496  0.059016  1
  Tm  Tm14  1  0.477242  0.249996  0.488876  1
  Tm  Tm15  1  0.977487  0.249942  0.011050  1
  Tm  Tm16  1  0.312810  0.250006  0.216993  1
  Lu  Lu17  1  0.191862  0.566891  0.440975  1
  Lu  Lu18  1  0.522124  0.749920  0.510753  1
  Lu  Lu19  1  0.022488  0.750022  0.989305  1
  Bi  Bi20  1  0.402771  0.750026  0.957530  1
  Bi  Bi21  1  0.902733  0.749884  0.542383  1
  Bi  Bi22  1  0.596597  0.249983  0.042936  1
  Bi  Bi23  1  0.097343  0.250429  0.457256  1
  Bi  Bi24  1  0.564943  0.995728  0.325125  1
  Bi  Bi25  1  0.065822  0.504200  0.174794  1
  Bi  Bi26  1  0.434953  0.495809  0.674693  1
  Bi  Bi27  1  0.934754  0.004191  0.825421  1
  Bi  Bi28  1  0.434896  0.004139  0.674695  1
  Bi  Bi29  1  0.934766  0.495772  0.825386  1
  Bi  Bi30  1  0.564911  0.504254  0.325144  1
  Bi  Bi31  1  0.065764  0.995768  0.174751  1
