# generated using pymatgen
data_K4Mn4(PO4)5
_symmetry_space_group_name_H-M   'P 1'
_cell_length_a   9.96906800
_cell_length_b   9.96906800
_cell_length_c   9.63810800
_cell_angle_alpha   90.00000000
_cell_angle_beta   90.00000000
_cell_angle_gamma   90.00000000
_symmetry_Int_Tables_number   1
_chemical_formula_structural   K4Mn4(PO4)5
_chemical_formula_sum   'K8 Mn8 P10 O40'
_cell_volume   957.85750250
_cell_formula_units_Z   2
loop_
 _symmetry_equiv_pos_site_id
 _symmetry_equiv_pos_as_xyz
  1  'x, y, z'
loop_
 _atom_site_type_symbol
 _atom_site_label
 _atom_site_symmetry_multiplicity
 _atom_site_fract_x
 _atom_site_fract_y
 _atom_site_fract_z
 _atom_site_occupancy
  K  K0  1  0.427213  0.833080  0.534901  1
  K  K1  1  0.927213  0.666920  0.965099  1
  K  K2  1  0.572787  0.166920  0.534901  1
  K  K3  1  0.072787  0.333080  0.965099  1
  K  K4  1  0.166920  0.427213  0.465099  1
  K  K5  1  0.333080  0.927213  0.034901  1
  K  K6  1  0.833080  0.572787  0.465099  1
  K  K7  1  0.666920  0.072787  0.034901  1
  Mn  Mn8  1  0.185198  0.073026  0.708870  1
  Mn  Mn9  1  0.685198  0.426974  0.791130  1
  Mn  Mn10  1  0.814802  0.926974  0.708870  1
  Mn  Mn11  1  0.314802  0.573026  0.791130  1
  Mn  Mn12  1  0.926974  0.185198  0.291130  1
  Mn  Mn13  1  0.573026  0.685198  0.208870  1
  Mn  Mn14  1  0.073026  0.814802  0.291130  1
  Mn  Mn15  1  0.426974  0.314802  0.208870  1
  P  P16  1  0.085264  0.750868  0.631318  1
  P  P17  1  0.585264  0.749132  0.868682  1
  P  P18  1  0.914736  0.249132  0.631318  1
  P  P19  1  0.414736  0.250868  0.868682  1
  P  P20  1  0.249132  0.085264  0.368682  1
  P  P21  1  0.250868  0.585264  0.131318  1
  P  P22  1  0.750868  0.914736  0.368682  1
  P  P23  1  0.749132  0.414736  0.131318  1
  P  P24  1  0.000000  0.000000  0.000000  1
  P  P25  1  0.500000  0.500000  0.500000  1
  O  O26  1  0.095140  0.722280  0.471563  1
  O  O27  1  0.595140  0.777720  0.028437  1
  O  O28  1  0.904860  0.277720  0.471563  1
  O  O29  1  0.404860  0.222280  0.028437  1
  O  O30  1  0.277720  0.095140  0.528437  1
  O  O31  1  0.222280  0.595140  0.971563  1
  O  O32  1  0.722280  0.904860  0.528437  1
  O  O33  1  0.777720  0.404860  0.971563  1
  O  O34  1  0.935860  0.770810  0.671865  1
  O  O35  1  0.435860  0.729190  0.828135  1
  O  O36  1  0.064140  0.229190  0.671865  1
  O  O37  1  0.564140  0.270810  0.828135  1
  O  O38  1  0.229190  0.935860  0.328135  1
  O  O39  1  0.270810  0.435860  0.171865  1
  O  O40  1  0.770810  0.064140  0.328135  1
  O  O41  1  0.729190  0.564140  0.171865  1
  O  O42  1  0.133572  0.620353  0.702440  1
  O  O43  1  0.633572  0.879647  0.797560  1
  O  O44  1  0.866428  0.379647  0.702440  1
  O  O45  1  0.366428  0.120353  0.797560  1
  O  O46  1  0.379647  0.133572  0.297560  1
  O  O47  1  0.120353  0.633572  0.202440  1
  O  O48  1  0.620353  0.866428  0.297560  1
  O  O49  1  0.879647  0.366428  0.202440  1
  O  O50  1  0.172387  0.871746  0.674291  1
  O  O51  1  0.672387  0.628254  0.825709  1
  O  O52  1  0.827613  0.128254  0.674291  1
  O  O53  1  0.327613  0.371746  0.825709  1
  O  O54  1  0.128254  0.172387  0.325709  1
  O  O55  1  0.371746  0.672387  0.174291  1
  O  O56  1  0.871746  0.827613  0.325709  1
  O  O57  1  0.628254  0.327613  0.174291  1
  O  O58  1  0.114073  0.057956  0.907331  1
  O  O59  1  0.614073  0.442044  0.592669  1
  O  O60  1  0.885927  0.942044  0.907331  1
  O  O61  1  0.385927  0.557956  0.592669  1
  O  O62  1  0.942044  0.114073  0.092669  1
  O  O63  1  0.557956  0.614073  0.407331  1
  O  O64  1  0.057956  0.885927  0.092669  1
  O  O65  1  0.442044  0.385927  0.407331  1
