# generated using pymatgen
data_Ac8ZnGa9Br4
_symmetry_space_group_name_H-M   'P 1'
_cell_length_a   12.15312100
_cell_length_b   12.15312019
_cell_length_c   4.40992900
_cell_angle_alpha   90.00000000
_cell_angle_beta   90.00000000
_cell_angle_gamma   92.75104106
_symmetry_Int_Tables_number   1
_chemical_formula_structural   Ac8ZnGa9Br4
_chemical_formula_sum   'Ac8 Zn1 Ga9 Br4'
_cell_volume   650.58853457
_cell_formula_units_Z   1
loop_
 _symmetry_equiv_pos_site_id
 _symmetry_equiv_pos_as_xyz
  1  'x, y, z'
loop_
 _atom_site_type_symbol
 _atom_site_label
 _atom_site_symmetry_multiplicity
 _atom_site_fract_x
 _atom_site_fract_y
 _atom_site_fract_z
 _atom_site_occupancy
  Ac  Ac0  1  0.672842  0.039637  0.500000  1
  Ac  Ac1  1  0.327195  0.960195  0.500000  1
  Ac  Ac2  1  0.039637  0.672842  0.500000  1
  Ac  Ac3  1  0.960195  0.327195  0.500000  1
  Ac  Ac4  1  0.729020  0.729020  0.000000  1
  Ac  Ac5  1  0.271008  0.271008  0.000000  1
  Ac  Ac6  1  0.367521  0.632029  0.000000  1
  Ac  Ac7  1  0.632029  0.367521  0.000000  1
  Zn  Zn8  1  0.578538  0.578538  0.500000  1
  Ga  Ga9  1  0.423333  0.423333  0.500000  1
  Ga  Ga10  1  0.536426  0.899887  0.000000  1
  Ga  Ga11  1  0.462801  0.100146  0.000000  1
  Ga  Ga12  1  0.899887  0.536426  0.000000  1
  Ga  Ga13  1  0.100146  0.462801  0.000000  1
  Ga  Ga14  1  0.514317  0.781277  0.500000  1
  Ga  Ga15  1  0.486292  0.217646  0.500000  1
  Ga  Ga16  1  0.217646  0.486292  0.500000  1
  Ga  Ga17  1  0.781277  0.514317  0.500000  1
  Br  Br18  1  0.123742  0.123742  0.500000  1
  Br  Br19  1  0.876317  0.876317  0.500000  1
  Br  Br20  1  0.825244  0.174586  0.000000  1
  Br  Br21  1  0.174586  0.825244  0.000000  1
