# generated using pymatgen
data_Tm12Fe3AgSn
_symmetry_space_group_name_H-M   'P 1'
_cell_length_a   8.18572681
_cell_length_b   8.18572611
_cell_length_c   8.18572686
_cell_angle_alpha   110.62155866
_cell_angle_beta   106.72348539
_cell_angle_gamma   111.10344981
_symmetry_Int_Tables_number   1
_chemical_formula_structural   Tm12Fe3AgSn
_chemical_formula_sum   'Tm12 Fe3 Ag1 Sn1'
_cell_volume   421.49898585
_cell_formula_units_Z   1
loop_
 _symmetry_equiv_pos_site_id
 _symmetry_equiv_pos_as_xyz
  1  'x, y, z'
loop_
 _atom_site_type_symbol
 _atom_site_label
 _atom_site_symmetry_multiplicity
 _atom_site_fract_x
 _atom_site_fract_y
 _atom_site_fract_z
 _atom_site_occupancy
  Tm  Tm0  1  0.192938  0.442264  0.249326  1
  Tm  Tm1  1  0.807062  0.557736  0.750674  1
  Tm  Tm2  1  0.192938  0.943612  0.750674  1
  Tm  Tm3  1  0.961577  0.190704  0.770872  1
  Tm  Tm4  1  0.807062  0.056388  0.249326  1
  Tm  Tm5  1  0.038423  0.809296  0.229128  1
  Tm  Tm6  1  0.419833  0.190704  0.229128  1
  Tm  Tm7  1  0.580167  0.809296  0.770872  1
  Tm  Tm8  1  0.308090  0.309221  0.617311  1
  Tm  Tm9  1  0.691910  0.690779  0.382689  1
  Tm  Tm10  1  0.691910  0.309221  0.001132  1
  Tm  Tm11  1  0.308090  0.690779  0.998868  1
  Fe  Fe12  1  0.383183  0.383183  0.000000  1
  Fe  Fe13  1  0.616817  0.616817  0.000000  1
  Fe  Fe14  1  0.000000  0.000000  0.000000  1
  Ag  Ag15  1  0.000000  0.500000  0.500000  1
  Sn  Sn16  1  0.500000  0.000000  0.500000  1
