# generated using pymatgen
data_Mg2Mn2Fe10P7
_symmetry_space_group_name_H-M   'P 1'
_cell_length_a   8.95889518
_cell_length_b   8.98675292
_cell_length_c   3.55717600
_cell_angle_alpha   90.00000000
_cell_angle_beta   90.00000000
_cell_angle_gamma   120.27907465
_symmetry_Int_Tables_number   1
_chemical_formula_structural   Mg2Mn2Fe10P7
_chemical_formula_sum   'Mg2 Mn2 Fe10 P7'
_cell_volume   247.32331709
_cell_formula_units_Z   1
loop_
 _symmetry_equiv_pos_site_id
 _symmetry_equiv_pos_as_xyz
  1  'x, y, z'
loop_
 _atom_site_type_symbol
 _atom_site_label
 _atom_site_symmetry_multiplicity
 _atom_site_fract_x
 _atom_site_fract_y
 _atom_site_fract_z
 _atom_site_occupancy
  Mg  Mg0  1  0.002187  0.998586  0.000000  1
  Mg  Mg1  1  0.665421  0.334729  0.500000  1
  Mn  Mn2  1  0.114552  0.565759  0.500000  1
  Mn  Mn3  1  0.452895  0.882315  0.500000  1
  Fe  Fe4  1  0.391785  0.297940  0.000000  1
  Fe  Fe5  1  0.902818  0.607634  0.000000  1
  Fe  Fe6  1  0.705136  0.096008  0.000000  1
  Fe  Fe7  1  0.607279  0.785856  0.000000  1
  Fe  Fe8  1  0.171325  0.386054  0.000000  1
  Fe  Fe9  1  0.215280  0.821289  0.000000  1
  Fe  Fe10  1  0.772012  0.719247  0.500000  1
  Fe  Fe11  1  0.948556  0.229242  0.500000  1
  Fe  Fe12  1  0.283757  0.054615  0.500000  1
  Fe  Fe13  1  0.428625  0.548797  0.500000  1
  P  P14  1  0.631050  0.552181  0.000000  1
  P  P15  1  0.912739  0.369639  0.000000  1
  P  P16  1  0.450056  0.083275  0.000000  1
  P  P17  1  0.744427  0.953216  0.500000  1
  P  P18  1  0.223411  0.264695  0.500000  1
  P  P19  1  0.044908  0.787000  0.500000  1
  P  P20  1  0.331784  0.661922  0.000000  1
