# generated using pymatgen
data_DyEr15In4IrRu3
_symmetry_space_group_name_H-M   'P 1'
_cell_length_a   9.57723404
_cell_length_b   9.57458774
_cell_length_c   9.59109000
_cell_angle_alpha   59.94296911
_cell_angle_beta   59.95213000
_cell_angle_gamma   59.81912731
_symmetry_Int_Tables_number   1
_chemical_formula_structural   DyEr15In4IrRu3
_chemical_formula_sum   'Dy1 Er15 In4 Ir1 Ru3'
_cell_volume   620.54338830
_cell_formula_units_Z   1
loop_
 _symmetry_equiv_pos_site_id
 _symmetry_equiv_pos_as_xyz
  1  'x, y, z'
loop_
 _atom_site_type_symbol
 _atom_site_label
 _atom_site_symmetry_multiplicity
 _atom_site_fract_x
 _atom_site_fract_y
 _atom_site_fract_z
 _atom_site_occupancy
  Dy  Dy0  1  0.058030  0.058254  0.441858  1
  Er  Er1  1  0.651637  0.044199  0.652082  1
  Er  Er2  1  0.191764  0.809587  0.190857  1
  Er  Er3  1  0.442313  0.058980  0.441559  1
  Er  Er4  1  0.193699  0.190892  0.807705  1
  Er  Er5  1  0.650622  0.651776  0.652421  1
  Er  Er6  1  0.044507  0.651691  0.651902  1
  Er  Er7  1  0.442313  0.058980  0.057149  1
  Er  Er8  1  0.650622  0.651776  0.045182  1
  Er  Er9  1  0.191764  0.809587  0.807792  1
  Er  Er10  1  0.808976  0.190869  0.807509  1
  Er  Er11  1  0.808976  0.190869  0.192648  1
  Er  Er12  1  0.808987  0.808558  0.191228  1
  Er  Er13  1  0.059652  0.442316  0.439715  1
  Er  Er14  1  0.439393  0.441093  0.059757  1
  Er  Er15  1  0.059652  0.442316  0.058316  1
  In  In16  1  0.747580  0.418214  0.417103  1
  In  In17  1  0.417400  0.417772  0.747863  1
  In  In18  1  0.417872  0.747902  0.417114  1
  In  In19  1  0.417400  0.417772  0.416964  1
  Ir  Ir20  1  0.858779  0.420622  0.860300  1
  Ru  Ru21  1  0.859251  0.858643  0.863089  1
  Ru  Ru22  1  0.419561  0.858695  0.860873  1
  Ru  Ru23  1  0.859251  0.858643  0.419020  1
