# generated using pymatgen
data_Pr11Nd(GeI3)4
_symmetry_space_group_name_H-M   'P 1'
_cell_length_a   10.92430987
_cell_length_b   10.92431041
_cell_length_c   10.92991442
_cell_angle_alpha   109.46122923
_cell_angle_beta   109.46123340
_cell_angle_gamma   109.48670160
_symmetry_Int_Tables_number   1
_chemical_formula_structural   Pr11Nd(GeI3)4
_chemical_formula_sum   'Pr11 Nd1 Ge4 I12'
_cell_volume   1004.16942944
_cell_formula_units_Z   1
loop_
 _symmetry_equiv_pos_site_id
 _symmetry_equiv_pos_as_xyz
  1  'x, y, z'
loop_
 _atom_site_type_symbol
 _atom_site_label
 _atom_site_symmetry_multiplicity
 _atom_site_fract_x
 _atom_site_fract_y
 _atom_site_fract_z
 _atom_site_occupancy
  Pr  Pr0  1  0.467494  0.483780  0.233925  1
  Pr  Pr1  1  0.750377  0.233644  0.266746  1
  Pr  Pr2  1  0.749635  0.016061  0.483339  1
  Pr  Pr3  1  0.233611  0.467378  0.483351  1
  Pr  Pr4  1  0.266356  0.749623  0.233254  1
  Pr  Pr5  1  0.032622  0.266389  0.016649  1
  Pr  Pr6  1  0.016220  0.032506  0.266075  1
  Pr  Pr7  1  0.483939  0.750365  0.016661  1
  Pr  Pr8  1  0.483682  0.233841  0.467488  1
  Pr  Pr9  1  0.016509  0.483491  0.750000  1
  Pr  Pr10  1  0.266159  0.016318  0.032512  1
  Nd  Nd11  1  0.233618  0.266382  0.750000  1
  Ge  Ge12  1  0.250027  0.249973  0.250000  1
  Ge  Ge13  1  0.499817  0.000183  0.250000  1
  Ge  Ge14  1  0.000987  0.249793  0.500863  1
  Ge  Ge15  1  0.250207  0.499013  0.999137  1
  I  I16  1  0.250008  0.757253  0.742795  1
  I  I17  1  0.513917  0.507139  0.757066  1
  I  I18  1  0.985375  0.742541  0.992666  1
  I  I19  1  0.742747  0.249992  0.757205  1
  I  I20  1  0.992861  0.986083  0.742934  1
  I  I21  1  0.249832  0.992978  0.507481  1
  I  I22  1  0.757459  0.514625  0.507334  1
  I  I23  1  0.507022  0.250168  0.992519  1
  I  I24  1  0.757332  0.742668  0.250000  1
  I  I25  1  0.742438  0.992728  0.985198  1
  I  I26  1  0.992478  0.507522  0.250000  1
  I  I27  1  0.507272  0.757562  0.514802  1
