# generated using pymatgen
data_Lu10Co2RuRh
_symmetry_space_group_name_H-M   'P 1'
_cell_length_a   6.17573450
_cell_length_b   7.03356323
_cell_length_c   8.31090132
_cell_angle_alpha   96.77573834
_cell_angle_beta   112.49885868
_cell_angle_gamma   89.58633457
_symmetry_Int_Tables_number   1
_chemical_formula_structural   Lu10Co2RuRh
_chemical_formula_sum   'Lu10 Co2 Ru1 Rh1'
_cell_volume   330.91440047
_cell_formula_units_Z   1
loop_
 _symmetry_equiv_pos_site_id
 _symmetry_equiv_pos_as_xyz
  1  'x, y, z'
loop_
 _atom_site_type_symbol
 _atom_site_label
 _atom_site_symmetry_multiplicity
 _atom_site_fract_x
 _atom_site_fract_y
 _atom_site_fract_z
 _atom_site_occupancy
  Lu  Lu0  1  0.528295  0.089646  0.816463  1
  Lu  Lu1  1  0.475162  0.911023  0.186447  1
  Lu  Lu2  1  0.700451  0.417721  0.188357  1
  Lu  Lu3  1  0.300956  0.580684  0.811850  1
  Lu  Lu4  1  0.288895  0.320647  0.434289  1
  Lu  Lu5  1  0.708440  0.678101  0.564923  1
  Lu  Lu6  1  0.853923  0.188028  0.562817  1
  Lu  Lu7  1  0.145804  0.813213  0.434435  1
  Lu  Lu8  1  0.077554  0.260868  0.001229  1
  Lu  Lu9  1  0.921465  0.740286  0.000076  1
  Co  Co10  1  0.326027  0.577651  0.225432  1
  Co  Co11  1  0.674641  0.422847  0.774244  1
  Ru  Ru12  1  0.894399  0.074005  0.215815  1
  Rh  Rh13  1  0.103988  0.925279  0.783625  1
