# generated using pymatgen
data_InRhI18
_symmetry_space_group_name_H-M   'P 1'
_cell_length_a   10.11958516
_cell_length_b   10.11366216
_cell_length_c   10.11232692
_cell_angle_alpha   89.09824350
_cell_angle_beta   89.07518807
_cell_angle_gamma   89.14946344
_symmetry_Int_Tables_number   1
_chemical_formula_structural   InRhI18
_chemical_formula_sum   'In1 Rh1 I18'
_cell_volume   1034.58370325
_cell_formula_units_Z   1
loop_
 _symmetry_equiv_pos_site_id
 _symmetry_equiv_pos_as_xyz
  1  'x, y, z'
loop_
 _atom_site_type_symbol
 _atom_site_label
 _atom_site_symmetry_multiplicity
 _atom_site_fract_x
 _atom_site_fract_y
 _atom_site_fract_z
 _atom_site_occupancy
  In  In0  1  0.000000  0.000000  0.000000  1
  Rh  Rh1  1  0.500000  0.500000  0.500000  1
  I  I2  1  0.765945  0.477808  0.500910  1
  I  I3  1  0.501162  0.766077  0.477660  1
  I  I4  1  0.477949  0.501465  0.766210  1
  I  I5  1  0.234055  0.522192  0.499090  1
  I  I6  1  0.498838  0.233923  0.522340  1
  I  I7  1  0.522051  0.498535  0.233790  1
  I  I8  1  0.880330  0.379353  0.747419  1
  I  I9  1  0.747808  0.880536  0.379557  1
  I  I10  1  0.379400  0.748113  0.880461  1
  I  I11  1  0.119670  0.620647  0.252581  1
  I  I12  1  0.252192  0.119464  0.620443  1
  I  I13  1  0.620600  0.251887  0.119539  1
  I  I14  1  0.017347  0.971286  0.709524  1
  I  I15  1  0.709700  0.016946  0.971776  1
  I  I16  1  0.971597  0.709563  0.017760  1
  I  I17  1  0.982653  0.028714  0.290476  1
  I  I18  1  0.290300  0.983054  0.028224  1
  I  I19  1  0.028403  0.290437  0.982240  1
