# generated using pymatgen
data_Na3Eu(BO2)5
_symmetry_space_group_name_H-M   'P 1'
_cell_length_a   7.59572484
_cell_length_b   7.71032189
_cell_length_c   9.99587941
_cell_angle_alpha   83.04972343
_cell_angle_beta   108.11811214
_cell_angle_gamma   119.06370598
_symmetry_Int_Tables_number   1
_chemical_formula_structural   Na3Eu(BO2)5
_chemical_formula_sum   'Na6 Eu2 B10 O20'
_cell_volume   486.00855328
_cell_formula_units_Z   2
loop_
 _symmetry_equiv_pos_site_id
 _symmetry_equiv_pos_as_xyz
  1  'x, y, z'
loop_
 _atom_site_type_symbol
 _atom_site_label
 _atom_site_symmetry_multiplicity
 _atom_site_fract_x
 _atom_site_fract_y
 _atom_site_fract_z
 _atom_site_occupancy
  Na  Na0  1  0.779571  0.794832  0.454532  1
  Na  Na1  1  0.731818  0.482881  0.740373  1
  Na  Na2  1  0.220429  0.205168  0.545468  1
  Na  Na3  1  0.205086  0.026338  0.175755  1
  Na  Na4  1  0.794914  0.973662  0.824245  1
  Na  Na5  1  0.268182  0.517119  0.259627  1
  Eu  Eu6  1  0.756115  0.527522  0.122260  1
  Eu  Eu7  1  0.243885  0.472478  0.877740  1
  B  B8  1  0.267065  0.862671  0.705887  1
  B  B9  1  0.119115  0.829632  0.911449  1
  B  B10  1  0.556288  0.277114  0.397509  1
  B  B11  1  0.880885  0.170368  0.088551  1
  B  B12  1  0.610629  0.841024  0.137005  1
  B  B13  1  0.389371  0.158976  0.862995  1
  B  B14  1  0.443712  0.722886  0.602491  1
  B  B15  1  0.141740  0.766181  0.445483  1
  B  B16  1  0.732935  0.137329  0.294113  1
  B  B17  1  0.858260  0.233819  0.554517  1
  O  O18  1  0.980454  0.726101  0.982792  1
  O  O19  1  0.019546  0.273899  0.017208  1
  O  O20  1  0.391695  0.075692  0.748852  1
  O  O21  1  0.608305  0.924308  0.251148  1
  O  O22  1  0.011864  0.757879  0.316863  1
  O  O23  1  0.869005  0.254347  0.200134  1
  O  O24  1  0.743362  0.965260  0.054622  1
  O  O25  1  0.609529  0.695960  0.621672  1
  O  O26  1  0.409502  0.778915  0.718314  1
  O  O27  1  0.497133  0.643855  0.107557  1
  O  O28  1  0.130995  0.745653  0.799866  1
  O  O29  1  0.292799  0.699532  0.468930  1
  O  O30  1  0.131706  0.845216  0.560580  1
  O  O31  1  0.390471  0.304040  0.378328  1
  O  O32  1  0.256638  0.034740  0.945378  1
  O  O33  1  0.988136  0.242121  0.683137  1
  O  O34  1  0.590498  0.221085  0.281686  1
  O  O35  1  0.868294  0.154784  0.439420  1
  O  O36  1  0.502867  0.356145  0.892443  1
  O  O37  1  0.707201  0.300468  0.531070  1
