# generated using pymatgen
data_Er10Tl8Pd3Ru
_symmetry_space_group_name_H-M   'P 1'
_cell_length_a   3.59891300
_cell_length_b   8.08481430
_cell_length_c   18.19903600
_cell_angle_alpha   90.01559105
_cell_angle_beta   90.00000000
_cell_angle_gamma   90.00000000
_symmetry_Int_Tables_number   1
_chemical_formula_structural   Er10Tl8Pd3Ru
_chemical_formula_sum   'Er10 Tl8 Pd3 Ru1'
_cell_volume   529.52901910
_cell_formula_units_Z   1
loop_
 _symmetry_equiv_pos_site_id
 _symmetry_equiv_pos_as_xyz
  1  'x, y, z'
loop_
 _atom_site_type_symbol
 _atom_site_label
 _atom_site_symmetry_multiplicity
 _atom_site_fract_x
 _atom_site_fract_y
 _atom_site_fract_z
 _atom_site_occupancy
  Er  Er0  1  0.000000  0.500034  0.499886  1
  Er  Er1  1  0.000000  0.001013  0.000922  1
  Er  Er2  1  0.000000  0.727676  0.279037  1
  Er  Er3  1  0.000000  0.260827  0.717704  1
  Er  Er4  1  0.000000  0.760620  0.781648  1
  Er  Er5  1  0.000000  0.251601  0.219232  1
  Er  Er6  1  0.000000  0.614113  0.088341  1
  Er  Er7  1  0.000000  0.384083  0.914411  1
  Er  Er8  1  0.000000  0.885464  0.584982  1
  Er  Er9  1  0.000000  0.116582  0.413134  1
  Tl  Tl10  1  0.500000  0.707558  0.935541  1
  Tl  Tl11  1  0.500000  0.293948  0.066355  1
  Tl  Tl12  1  0.500000  0.793959  0.435599  1
  Tl  Tl13  1  0.500000  0.206785  0.564160  1
  Tl  Tl14  1  0.500000  0.584232  0.649074  1
  Tl  Tl15  1  0.500000  0.420990  0.351187  1
  Tl  Tl16  1  0.500000  0.916154  0.149608  1
  Tl  Tl17  1  0.500000  0.083399  0.850700  1
  Pd  Pd18  1  0.500000  0.475376  0.803485  1
  Pd  Pd19  1  0.500000  0.974995  0.696226  1
  Pd  Pd20  1  0.500000  0.021100  0.302909  1
  Ru  Ru21  1  0.500000  0.519493  0.195858  1
