# generated using pymatgen
data_Nd2Dy2TmSn4
_symmetry_space_group_name_H-M   'P 1'
_cell_length_a   8.10122700
_cell_length_b   8.21285200
_cell_length_c   15.54376000
_cell_angle_alpha   90.00000000
_cell_angle_beta   90.00000000
_cell_angle_gamma   90.00000000
_symmetry_Int_Tables_number   1
_chemical_formula_structural   Nd2Dy2TmSn4
_chemical_formula_sum   'Nd8 Dy8 Tm4 Sn16'
_cell_volume   1034.19130037
_cell_formula_units_Z   4
loop_
 _symmetry_equiv_pos_site_id
 _symmetry_equiv_pos_as_xyz
  1  'x, y, z'
loop_
 _atom_site_type_symbol
 _atom_site_label
 _atom_site_symmetry_multiplicity
 _atom_site_fract_x
 _atom_site_fract_y
 _atom_site_fract_z
 _atom_site_occupancy
  Nd  Nd0  1  0.515962  0.321518  0.903582  1
  Nd  Nd1  1  0.015962  0.178482  0.596418  1
  Nd  Nd2  1  0.484038  0.678482  0.403582  1
  Nd  Nd3  1  0.984038  0.821518  0.096418  1
  Nd  Nd4  1  0.484038  0.678482  0.096418  1
  Nd  Nd5  1  0.984038  0.821518  0.403582  1
  Nd  Nd6  1  0.515962  0.321518  0.596418  1
  Nd  Nd7  1  0.015962  0.178482  0.903582  1
  Dy  Dy8  1  0.360791  0.836764  0.876853  1
  Dy  Dy9  1  0.860791  0.663236  0.623147  1
  Dy  Dy10  1  0.639209  0.163236  0.376853  1
  Dy  Dy11  1  0.139209  0.336764  0.123147  1
  Dy  Dy12  1  0.639209  0.163236  0.123147  1
  Dy  Dy13  1  0.139209  0.336764  0.376853  1
  Dy  Dy14  1  0.360791  0.836764  0.623147  1
  Dy  Dy15  1  0.860791  0.663236  0.876853  1
  Tm  Tm16  1  0.193288  0.502588  0.750000  1
  Tm  Tm17  1  0.693288  0.997412  0.750000  1
  Tm  Tm18  1  0.806712  0.497412  0.250000  1
  Tm  Tm19  1  0.306712  0.002588  0.250000  1
  Sn  Sn20  1  0.302409  0.039813  0.042702  1
  Sn  Sn21  1  0.802409  0.460187  0.457298  1
  Sn  Sn22  1  0.697591  0.960187  0.542702  1
  Sn  Sn23  1  0.197591  0.539813  0.957298  1
  Sn  Sn24  1  0.697591  0.960187  0.957298  1
  Sn  Sn25  1  0.197591  0.539813  0.542702  1
  Sn  Sn26  1  0.302409  0.039813  0.457298  1
  Sn  Sn27  1  0.802409  0.460187  0.042702  1
  Sn  Sn28  1  0.558415  0.621616  0.750000  1
  Sn  Sn29  1  0.058415  0.878384  0.750000  1
  Sn  Sn30  1  0.441585  0.378384  0.250000  1
  Sn  Sn31  1  0.941585  0.121616  0.250000  1
  Sn  Sn32  1  0.323978  0.144860  0.750000  1
  Sn  Sn33  1  0.823978  0.355140  0.750000  1
  Sn  Sn34  1  0.676022  0.855140  0.250000  1
  Sn  Sn35  1  0.176022  0.644860  0.250000  1
