# generated using pymatgen
data_Yb3OsO6
_symmetry_space_group_name_H-M   'P 1'
_cell_length_a   5.77987802
_cell_length_b   5.77990492
_cell_length_c   5.77992123
_cell_angle_alpha   58.12437654
_cell_angle_beta   58.12454248
_cell_angle_gamma   58.12493972
_symmetry_Int_Tables_number   1
_chemical_formula_structural   Yb3OsO6
_chemical_formula_sum   'Yb3 Os1 O6'
_cell_volume   130.66604315
_cell_formula_units_Z   1
loop_
 _symmetry_equiv_pos_site_id
 _symmetry_equiv_pos_as_xyz
  1  'x, y, z'
loop_
 _atom_site_type_symbol
 _atom_site_label
 _atom_site_symmetry_multiplicity
 _atom_site_fract_x
 _atom_site_fract_y
 _atom_site_fract_z
 _atom_site_occupancy
  Yb  Yb0  1  0.368356  0.368357  0.368357  1
  Yb  Yb1  1  0.645975  0.645975  0.645975  1
  Yb  Yb2  1  0.863625  0.863625  0.863625  1
  Os  Os3  1  0.154676  0.154675  0.154676  1
  O  O4  1  0.399406  0.820935  0.028839  1
  O  O5  1  0.952555  0.496207  0.269428  1
  O  O6  1  0.820935  0.028838  0.399405  1
  O  O7  1  0.269428  0.952554  0.496208  1
  O  O8  1  0.028838  0.399407  0.820934  1
  O  O9  1  0.496207  0.269428  0.952554  1
