# generated using pymatgen
data_Pr8Sc12Si15Sn
_symmetry_space_group_name_H-M   'P 1'
_cell_length_a   7.29893943
_cell_length_b   7.57805442
_cell_length_c   14.33839149
_cell_angle_alpha   89.94432492
_cell_angle_beta   89.65544393
_cell_angle_gamma   90.09330628
_symmetry_Int_Tables_number   1
_chemical_formula_structural   Pr8Sc12Si15Sn
_chemical_formula_sum   'Pr8 Sc12 Si15 Sn1'
_cell_volume   793.06589862
_cell_formula_units_Z   1
loop_
 _symmetry_equiv_pos_site_id
 _symmetry_equiv_pos_as_xyz
  1  'x, y, z'
loop_
 _atom_site_type_symbol
 _atom_site_label
 _atom_site_symmetry_multiplicity
 _atom_site_fract_x
 _atom_site_fract_y
 _atom_site_fract_z
 _atom_site_occupancy
  Pr  Pr0  1  0.008291  0.166087  0.398498  1
  Pr  Pr1  1  0.512818  0.324634  0.398445  1
  Pr  Pr2  1  0.488161  0.672320  0.902558  1
  Pr  Pr3  1  0.499625  0.679653  0.600685  1
  Pr  Pr4  1  0.987380  0.834667  0.598925  1
  Pr  Pr5  1  0.987086  0.827565  0.902810  1
  Pr  Pr6  1  0.512362  0.327665  0.098156  1
  Pr  Pr7  1  0.013087  0.172927  0.098009  1
  Sc  Sc8  1  0.341313  0.163721  0.630225  1
  Sc  Sc9  1  0.665510  0.825148  0.372942  1
  Sc  Sc10  1  0.660104  0.002405  0.751827  1
  Sc  Sc11  1  0.167703  0.681846  0.369999  1
  Sc  Sc12  1  0.830375  0.324159  0.875461  1
  Sc  Sc13  1  0.820100  0.323099  0.626527  1
  Sc  Sc14  1  0.840053  0.502126  0.249222  1
  Sc  Sc15  1  0.340834  0.997729  0.249329  1
  Sc  Sc16  1  0.329461  0.175147  0.875188  1
  Sc  Sc17  1  0.169773  0.675560  0.125103  1
  Sc  Sc18  1  0.670295  0.824061  0.124554  1
  Sc  Sc19  1  0.160006  0.498714  0.755487  1
  Si  Si20  1  0.287391  0.880404  0.751733  1
  Si  Si21  1  0.465413  0.625907  0.248739  1
  Si  Si22  1  0.034615  0.128192  0.751180  1
  Si  Si23  1  0.533332  0.375053  0.751618  1
  Si  Si24  1  0.963408  0.874561  0.247567  1
  Si  Si25  1  0.710566  0.115246  0.248156  1
  Si  Si26  1  0.848958  0.536483  0.039981  1
  Si  Si27  1  0.349113  0.963146  0.039773  1
  Si  Si28  1  0.150978  0.463389  0.960847  1
  Si  Si29  1  0.652770  0.039652  0.538419  1
  Si  Si30  1  0.346594  0.962182  0.459786  1
  Si  Si31  1  0.836914  0.541440  0.457422  1
  Si  Si32  1  0.791887  0.615998  0.751110  1
  Si  Si33  1  0.210281  0.384068  0.249452  1
  Si  Si34  1  0.650257  0.037044  0.960502  1
  Sn  Sn35  1  0.163185  0.458000  0.539763  1
