# generated using pymatgen
data_ScTa11(BRu)12
_symmetry_space_group_name_H-M   'P 1'
_cell_length_a   3.13503000
_cell_length_b   9.03410406
_cell_length_c   15.69930209
_cell_angle_alpha   89.98735502
_cell_angle_beta   90.00000000
_cell_angle_gamma   90.00000000
_symmetry_Int_Tables_number   1
_chemical_formula_structural   ScTa11(BRu)12
_chemical_formula_sum   'Sc1 Ta11 B12 Ru12'
_cell_volume   444.63856259
_cell_formula_units_Z   1
loop_
 _symmetry_equiv_pos_site_id
 _symmetry_equiv_pos_as_xyz
  1  'x, y, z'
loop_
 _atom_site_type_symbol
 _atom_site_label
 _atom_site_symmetry_multiplicity
 _atom_site_fract_x
 _atom_site_fract_y
 _atom_site_fract_z
 _atom_site_occupancy
  Sc  Sc0  1  0.000000  0.811014  0.491972  1
  Ta  Ta1  1  0.000000  0.198163  0.504799  1
  Ta  Ta2  1  0.000000  0.300698  0.004975  1
  Ta  Ta3  1  0.000000  0.699341  0.995416  1
  Ta  Ta4  1  0.000000  0.514250  0.594827  1
  Ta  Ta5  1  0.000000  0.485058  0.406507  1
  Ta  Ta6  1  0.000000  0.014767  0.905630  1
  Ta  Ta7  1  0.000000  0.985438  0.094052  1
  Ta  Ta8  1  0.000000  0.686261  0.204274  1
  Ta  Ta9  1  0.000000  0.312817  0.797544  1
  Ta  Ta10  1  0.000000  0.186918  0.297207  1
  Ta  Ta11  1  0.000000  0.812294  0.703489  1
  B  B12  1  0.500000  0.600826  0.497029  1
  B  B13  1  0.500000  0.394046  0.503723  1
  B  B14  1  0.500000  0.105408  0.002630  1
  B  B15  1  0.500000  0.894453  0.997246  1
  B  B16  1  0.000000  0.609488  0.833252  1
  B  B17  1  0.000000  0.390733  0.167148  1
  B  B18  1  0.000000  0.106456  0.665970  1
  B  B19  1  0.000000  0.889090  0.330535  1
  B  B20  1  0.500000  0.711024  0.601488  1
  B  B21  1  0.500000  0.287549  0.401142  1
  B  B22  1  0.500000  0.215172  0.902049  1
  B  B23  1  0.500000  0.784510  0.098678  1
  Ru  Ru24  1  0.500000  0.719631  0.354698  1
  Ru  Ru25  1  0.500000  0.280504  0.645092  1
  Ru  Ru26  1  0.500000  0.219719  0.144186  1
  Ru  Ru27  1  0.500000  0.780269  0.856048  1
  Ru  Ru28  1  0.500000  0.515994  0.094909  1
  Ru  Ru29  1  0.500000  0.484095  0.905140  1
  Ru  Ru30  1  0.500000  0.020831  0.401773  1
  Ru  Ru31  1  0.500000  0.983695  0.596476  1
  Ru  Ru32  1  0.500000  0.563726  0.735045  1
  Ru  Ru33  1  0.500000  0.434706  0.265340  1
  Ru  Ru34  1  0.500000  0.063766  0.766466  1
  Ru  Ru35  1  0.500000  0.937289  0.233241  1
