# generated using pymatgen
data_LuScFe4Co8P7
_symmetry_space_group_name_H-M   'P 1'
_cell_length_a   3.57059800
_cell_length_b   8.93740178
_cell_length_c   8.91510223
_cell_angle_alpha   120.05389016
_cell_angle_beta   90.00000000
_cell_angle_gamma   90.00000000
_symmetry_Int_Tables_number   1
_chemical_formula_structural   LuScFe4Co8P7
_chemical_formula_sum   'Lu1 Sc1 Fe4 Co8 P7'
_cell_volume   246.24822381
_cell_formula_units_Z   1
loop_
 _symmetry_equiv_pos_site_id
 _symmetry_equiv_pos_as_xyz
  1  'x, y, z'
loop_
 _atom_site_type_symbol
 _atom_site_label
 _atom_site_symmetry_multiplicity
 _atom_site_fract_x
 _atom_site_fract_y
 _atom_site_fract_z
 _atom_site_occupancy
  Lu  Lu0  1  0.000000  0.666328  0.332552  1
  Sc  Sc1  1  0.500000  0.333049  0.666447  1
  Fe  Fe2  1  0.500000  0.614187  0.048497  1
  Fe  Fe3  1  0.500000  0.124958  0.905560  1
  Fe  Fe4  1  0.500000  0.093881  0.218445  1
  Fe  Fe5  1  0.500000  0.782370  0.876491  1
  Co  Co6  1  0.000000  0.369269  0.936713  1
  Co  Co7  1  0.000000  0.063751  0.434644  1
  Co  Co8  1  0.000000  0.566419  0.630285  1
  Co  Co9  1  0.000000  0.882381  0.722847  1
  Co  Co10  1  0.000000  0.276781  0.159826  1
  Co  Co11  1  0.000000  0.842099  0.117133  1
  Co  Co12  1  0.500000  0.950221  0.564059  1
  Co  Co13  1  0.500000  0.435303  0.386853  1
  P  P14  1  0.000000  0.117310  0.703526  1
  P  P15  1  0.000000  0.296423  0.414604  1
  P  P16  1  0.000000  0.585187  0.883548  1
  P  P17  1  0.500000  0.710215  0.596091  1
  P  P18  1  0.500000  0.405114  0.114211  1
  P  P19  1  0.500000  0.884013  0.287881  1
  P  P20  1  0.000000  0.000738  0.999787  1
