# generated using pymatgen
data_Tm6Sc4Sn5Sb
_symmetry_space_group_name_H-M   'P 1'
_cell_length_a   6.19796200
_cell_length_b   8.71287645
_cell_length_c   8.71930471
_cell_angle_alpha   119.97561150
_cell_angle_beta   89.99993019
_cell_angle_gamma   90.00013886
_symmetry_Int_Tables_number   1
_chemical_formula_structural   Tm6Sc4Sn5Sb
_chemical_formula_sum   'Tm6 Sc4 Sn5 Sb1'
_cell_volume   407.87738764
_cell_formula_units_Z   1
loop_
 _symmetry_equiv_pos_site_id
 _symmetry_equiv_pos_as_xyz
  1  'x, y, z'
loop_
 _atom_site_type_symbol
 _atom_site_label
 _atom_site_symmetry_multiplicity
 _atom_site_fract_x
 _atom_site_fract_y
 _atom_site_fract_z
 _atom_site_occupancy
  Tm  Tm0  1  0.750000  0.238377  0.000000  1
  Tm  Tm1  1  0.749999  0.761585  0.760436  1
  Tm  Tm2  1  0.749999  0.001149  0.239564  1
  Tm  Tm3  1  0.250002  0.761139  0.000000  1
  Tm  Tm4  1  0.250000  0.238620  0.238911  1
  Tm  Tm5  1  0.250000  0.999709  0.761089  1
  Sc  Sc6  1  0.499660  0.332985  0.666183  1
  Sc  Sc7  1  0.499660  0.666801  0.333817  1
  Sc  Sc8  1  0.000338  0.666814  0.333824  1
  Sc  Sc9  1  0.000338  0.332990  0.666176  1
  Sn  Sn10  1  0.749997  0.398663  0.398729  1
  Sn  Sn11  1  0.749997  0.999934  0.601271  1
  Sn  Sn12  1  0.250005  0.398061  0.000000  1
  Sn  Sn13  1  0.250006  0.601298  0.601754  1
  Sn  Sn14  1  0.250006  0.999544  0.398246  1
  Sb  Sb15  1  0.749986  0.602332  0.000000  1
