# generated using pymatgen
data_Bi6MoWO14
_symmetry_space_group_name_H-M   'P 1'
_cell_length_a   6.69216523
_cell_length_b   7.05808241
_cell_length_c   7.68578900
_cell_angle_alpha   106.11634404
_cell_angle_beta   89.78246582
_cell_angle_gamma   103.28813851
_symmetry_Int_Tables_number   1
_chemical_formula_structural   Bi6MoWO14
_chemical_formula_sum   'Bi6 Mo1 W1 O14'
_cell_volume   338.72501098
_cell_formula_units_Z   1
loop_
 _symmetry_equiv_pos_site_id
 _symmetry_equiv_pos_as_xyz
  1  'x, y, z'
loop_
 _atom_site_type_symbol
 _atom_site_label
 _atom_site_symmetry_multiplicity
 _atom_site_fract_x
 _atom_site_fract_y
 _atom_site_fract_z
 _atom_site_occupancy
  Bi  Bi0  1  0.518906  0.003985  0.751208  1
  Bi  Bi1  1  0.481094  0.996015  0.248792  1
  Bi  Bi2  1  0.265430  0.511193  0.879204  1
  Bi  Bi3  1  0.734570  0.488807  0.120796  1
  Bi  Bi4  1  0.742802  0.547439  0.649158  1
  Bi  Bi5  1  0.257198  0.452561  0.350842  1
  Mo  Mo6  1  0.000000  0.000000  0.000000  1
  W  W7  1  0.000000  0.000000  0.500000  1
  O  O8  1  0.466245  0.627416  0.179027  1
  O  O9  1  0.533755  0.372584  0.820973  1
  O  O10  1  0.284395  0.947355  0.950007  1
  O  O11  1  0.715605  0.052645  0.049993  1
  O  O12  1  0.268004  0.950465  0.534114  1
  O  O13  1  0.731996  0.049535  0.465886  1
  O  O14  1  0.530793  0.340330  0.349921  1
  O  O15  1  0.469207  0.659670  0.650079  1
  O  O16  1  0.883739  0.691153  0.949400  1
  O  O17  1  0.116261  0.308847  0.050600  1
  O  O18  1  0.094143  0.287787  0.631292  1
  O  O19  1  0.905857  0.712213  0.368708  1
  O  O20  1  0.903916  0.922738  0.719998  1
  O  O21  1  0.096084  0.077262  0.280002  1
