# generated using pymatgen
data_Gd5Os2
_symmetry_space_group_name_H-M   'P 1'
_cell_length_a   8.59018703
_cell_length_b   8.59018677
_cell_length_c   7.29580300
_cell_angle_alpha   83.45396473
_cell_angle_beta   83.45396493
_cell_angle_gamma   44.30384869
_symmetry_Int_Tables_number   1
_chemical_formula_structural   Gd5Os2
_chemical_formula_sum   'Gd10 Os4'
_cell_volume   373.17016552
_cell_formula_units_Z   2
loop_
 _symmetry_equiv_pos_site_id
 _symmetry_equiv_pos_as_xyz
  1  'x, y, z'
loop_
 _atom_site_type_symbol
 _atom_site_label
 _atom_site_symmetry_multiplicity
 _atom_site_fract_x
 _atom_site_fract_y
 _atom_site_fract_z
 _atom_site_occupancy
  Gd  Gd0  1  0.022034  0.795155  0.915530  1
  Gd  Gd1  1  0.204845  0.977966  0.584470  1
  Gd  Gd2  1  0.977966  0.204845  0.084470  1
  Gd  Gd3  1  0.795155  0.022034  0.415530  1
  Gd  Gd4  1  0.358967  0.205388  0.814638  1
  Gd  Gd5  1  0.794612  0.641033  0.685362  1
  Gd  Gd6  1  0.641033  0.794612  0.185362  1
  Gd  Gd7  1  0.205388  0.358967  0.314638  1
  Gd  Gd8  1  0.575341  0.424659  0.750000  1
  Gd  Gd9  1  0.424659  0.575341  0.250000  1
  Os  Os10  1  0.176149  0.603783  0.575019  1
  Os  Os11  1  0.396217  0.823851  0.924981  1
  Os  Os12  1  0.823851  0.396217  0.424981  1
  Os  Os13  1  0.603783  0.176149  0.075019  1
