# generated using pymatgen
data_La5Th5(Bi3Se)2
_symmetry_space_group_name_H-M   'P 1'
_cell_length_a   9.69454404
_cell_length_b   9.69454535
_cell_length_c   6.80559600
_cell_angle_alpha   90.00000000
_cell_angle_beta   90.00000000
_cell_angle_gamma   120.18058478
_symmetry_Int_Tables_number   1
_chemical_formula_structural   La5Th5(Bi3Se)2
_chemical_formula_sum   'La5 Th5 Bi6 Se2'
_cell_volume   552.91512284
_cell_formula_units_Z   1
loop_
 _symmetry_equiv_pos_site_id
 _symmetry_equiv_pos_as_xyz
  1  'x, y, z'
loop_
 _atom_site_type_symbol
 _atom_site_label
 _atom_site_symmetry_multiplicity
 _atom_site_fract_x
 _atom_site_fract_y
 _atom_site_fract_z
 _atom_site_occupancy
  La  La0  1  0.259861  0.999707  0.750000  1
  La  La1  1  0.999707  0.259861  0.750000  1
  La  La2  1  0.258423  0.258423  0.250000  1
  La  La3  1  0.739239  0.999096  0.250000  1
  La  La4  1  0.999096  0.739239  0.250000  1
  Th  Th5  1  0.740425  0.740425  0.750000  1
  Th  Th6  1  0.667714  0.336485  0.998892  1
  Th  Th7  1  0.336485  0.667714  0.998892  1
  Th  Th8  1  0.336485  0.667714  0.501108  1
  Th  Th9  1  0.667714  0.336485  0.501108  1
  Bi  Bi10  1  0.391227  0.391227  0.750000  1
  Bi  Bi11  1  0.610137  0.000078  0.750000  1
  Bi  Bi12  1  0.000078  0.610137  0.750000  1
  Bi  Bi13  1  0.609263  0.609263  0.250000  1
  Bi  Bi14  1  0.390654  0.000233  0.250000  1
  Bi  Bi15  1  0.000233  0.390654  0.250000  1
  Se  Se16  1  0.996629  0.996629  0.998430  1
  Se  Se17  1  0.996629  0.996629  0.501570  1
