# generated using pymatgen
data_Ca2Ac(PdPb)3
_symmetry_space_group_name_H-M   'P 1'
_cell_length_a   7.92183258
_cell_length_b   7.92183177
_cell_length_c   4.15627300
_cell_angle_alpha   90.00000000
_cell_angle_beta   90.00000000
_cell_angle_gamma   119.03381887
_symmetry_Int_Tables_number   1
_chemical_formula_structural   Ca2Ac(PdPb)3
_chemical_formula_sum   'Ca2 Ac1 Pd3 Pb3'
_cell_volume   228.05122418
_cell_formula_units_Z   1
loop_
 _symmetry_equiv_pos_site_id
 _symmetry_equiv_pos_as_xyz
  1  'x, y, z'
loop_
 _atom_site_type_symbol
 _atom_site_label
 _atom_site_symmetry_multiplicity
 _atom_site_fract_x
 _atom_site_fract_y
 _atom_site_fract_z
 _atom_site_occupancy
  Ca  Ca0  1  0.000690  0.596470  0.500000  1
  Ca  Ca1  1  0.596470  0.000690  0.500000  1
  Ac  Ac2  1  0.412860  0.412860  0.500000  1
  Pd  Pd3  1  0.002974  0.002974  0.500000  1
  Pd  Pd4  1  0.657206  0.330378  0.000000  1
  Pd  Pd5  1  0.330378  0.657206  0.000000  1
  Pb  Pb6  1  0.257884  0.986983  0.000000  1
  Pb  Pb7  1  0.754556  0.754556  0.000000  1
  Pb  Pb8  1  0.986983  0.257884  0.000000  1
