# generated using pymatgen
data_Hf6Al4NiIrC2
_symmetry_space_group_name_H-M   'P 1'
_cell_length_a   8.53218088
_cell_length_b   8.53214241
_cell_length_c   8.56107200
_cell_angle_alpha   59.88848731
_cell_angle_beta   59.88870824
_cell_angle_gamma   59.91281407
_symmetry_Int_Tables_number   1
_chemical_formula_structural   Hf6Al4NiIrC2
_chemical_formula_sum   'Hf12 Al8 Ni2 Ir2 C4'
_cell_volume   439.65493254
_cell_formula_units_Z   2
loop_
 _symmetry_equiv_pos_site_id
 _symmetry_equiv_pos_as_xyz
  1  'x, y, z'
loop_
 _atom_site_type_symbol
 _atom_site_label
 _atom_site_symmetry_multiplicity
 _atom_site_fract_x
 _atom_site_fract_y
 _atom_site_fract_z
 _atom_site_occupancy
  Hf  Hf0  1  0.554942  0.943391  0.557875  1
  Hf  Hf1  1  0.306621  0.695059  0.692104  1
  Hf  Hf2  1  0.695064  0.306612  0.306204  1
  Hf  Hf3  1  0.306624  0.695066  0.306211  1
  Hf  Hf4  1  0.692769  0.692784  0.307218  1
  Hf  Hf5  1  0.305857  0.305855  0.694144  1
  Hf  Hf6  1  0.557231  0.557216  0.942782  1
  Hf  Hf7  1  0.943379  0.554941  0.557896  1
  Hf  Hf8  1  0.554936  0.943388  0.943796  1
  Hf  Hf9  1  0.944143  0.944145  0.555856  1
  Hf  Hf10  1  0.695058  0.306609  0.692125  1
  Hf  Hf11  1  0.943376  0.554934  0.943789  1
  Al  Al12  1  0.917444  0.917443  0.923106  1
  Al  Al13  1  0.008482  0.334053  0.328730  1
  Al  Al14  1  0.334041  0.008502  0.328726  1
  Al  Al15  1  0.332559  0.332560  0.007985  1
  Al  Al16  1  0.915959  0.241498  0.921274  1
  Al  Al17  1  0.917441  0.917440  0.242015  1
  Al  Al18  1  0.241518  0.915947  0.921270  1
  Al  Al19  1  0.332556  0.332557  0.326894  1
  Ni  Ni20  1  0.625000  0.125000  0.125000  1
  Ni  Ni21  1  0.125000  0.625000  0.125000  1
  Ir  Ir22  1  0.125000  0.125000  0.125000  1
  Ir  Ir23  1  0.125000  0.125000  0.625000  1
  C  C24  1  0.625000  0.625000  0.625000  1
  C  C25  1  0.125000  0.625000  0.625000  1
  C  C26  1  0.625000  0.125000  0.625000  1
  C  C27  1  0.625000  0.625000  0.125000  1
