# generated using pymatgen
data_Ho2Tm2Ga3Si
_symmetry_space_group_name_H-M   'P 1'
_cell_length_a   3.94307500
_cell_length_b   4.30813100
_cell_length_c   10.73223300
_cell_angle_alpha   90.00000000
_cell_angle_beta   90.00000000
_cell_angle_gamma   90.00000000
_symmetry_Int_Tables_number   1
_chemical_formula_structural   Ho2Tm2Ga3Si
_chemical_formula_sum   'Ho2 Tm2 Ga3 Si1'
_cell_volume   182.31148609
_cell_formula_units_Z   1
loop_
 _symmetry_equiv_pos_site_id
 _symmetry_equiv_pos_as_xyz
  1  'x, y, z'
loop_
 _atom_site_type_symbol
 _atom_site_label
 _atom_site_symmetry_multiplicity
 _atom_site_fract_x
 _atom_site_fract_y
 _atom_site_fract_z
 _atom_site_occupancy
  Ho  Ho0  1  0.000000  0.500000  0.637837  1
  Ho  Ho1  1  0.500000  0.500000  0.360565  1
  Tm  Tm2  1  0.000000  0.000000  0.143242  1
  Tm  Tm3  1  0.500000  0.000000  0.858981  1
  Ga  Ga4  1  0.000000  0.500000  0.920824  1
  Ga  Ga5  1  0.500000  0.500000  0.080486  1
  Ga  Ga6  1  0.500000  0.000000  0.574714  1
  Si  Si7  1  0.000000  0.000000  0.423348  1
