# generated using pymatgen
data_Na4Yb2GeP4
_symmetry_space_group_name_H-M   'P 1'
_cell_length_a   8.97216135
_cell_length_b   8.97216178
_cell_length_c   6.94891700
_cell_angle_alpha   89.21301544
_cell_angle_beta   89.21301540
_cell_angle_gamma   119.88024442
_symmetry_Int_Tables_number   1
_chemical_formula_structural   Na4Yb2GeP4
_chemical_formula_sum   'Na8 Yb4 Ge2 P8'
_cell_volume   484.84331481
_cell_formula_units_Z   2
loop_
 _symmetry_equiv_pos_site_id
 _symmetry_equiv_pos_as_xyz
  1  'x, y, z'
loop_
 _atom_site_type_symbol
 _atom_site_label
 _atom_site_symmetry_multiplicity
 _atom_site_fract_x
 _atom_site_fract_y
 _atom_site_fract_z
 _atom_site_occupancy
  Na  Na0  1  0.474006  0.942206  0.387628  1
  Na  Na1  1  0.942206  0.474006  0.887628  1
  Na  Na2  1  0.864441  0.722734  0.192082  1
  Na  Na3  1  0.283761  0.134269  0.228800  1
  Na  Na4  1  0.852080  0.138180  0.211071  1
  Na  Na5  1  0.134269  0.283761  0.728800  1
  Na  Na6  1  0.722734  0.864441  0.692082  1
  Na  Na7  1  0.138180  0.852080  0.711071  1
  Yb  Yb8  1  0.050187  0.527123  0.388519  1
  Yb  Yb9  1  0.482359  0.528832  0.383217  1
  Yb  Yb10  1  0.527123  0.050187  0.888519  1
  Yb  Yb11  1  0.528832  0.482359  0.883217  1
  Ge  Ge12  1  0.662057  0.328943  0.501522  1
  Ge  Ge13  1  0.328943  0.662057  0.001522  1
  P  P14  1  0.196937  0.381360  0.127249  1
  P  P15  1  0.619016  0.807243  0.093397  1
  P  P16  1  0.196873  0.811875  0.108132  1
  P  P17  1  0.807243  0.619016  0.593397  1
  P  P18  1  0.381360  0.196937  0.627249  1
  P  P19  1  0.811875  0.196873  0.608132  1
  P  P20  1  0.659280  0.336253  0.160679  1
  P  P21  1  0.336253  0.659280  0.660679  1
