# generated using pymatgen
data_Rb2Ag6Sn3Se10
_symmetry_space_group_name_H-M   'P 1'
_cell_length_a   6.76578400
_cell_length_b   14.19415200
_cell_length_c   25.99900200
_cell_angle_alpha   90.00000000
_cell_angle_beta   90.00000000
_cell_angle_gamma   90.00000000
_symmetry_Int_Tables_number   1
_chemical_formula_structural   Rb2Ag6Sn3Se10
_chemical_formula_sum   'Rb8 Ag24 Sn12 Se40'
_cell_volume   2496.80288638
_cell_formula_units_Z   4
loop_
 _symmetry_equiv_pos_site_id
 _symmetry_equiv_pos_as_xyz
  1  'x, y, z'
loop_
 _atom_site_type_symbol
 _atom_site_label
 _atom_site_symmetry_multiplicity
 _atom_site_fract_x
 _atom_site_fract_y
 _atom_site_fract_z
 _atom_site_occupancy
  Rb  Rb0  1  0.075627  0.215522  0.822020  1
  Rb  Rb1  1  0.924373  0.715522  0.822020  1
  Rb  Rb2  1  0.424373  0.784478  0.322020  1
  Rb  Rb3  1  0.075627  0.284478  0.177980  1
  Rb  Rb4  1  0.424373  0.715522  0.677980  1
  Rb  Rb5  1  0.575627  0.215522  0.677980  1
  Rb  Rb6  1  0.924373  0.784478  0.177980  1
  Rb  Rb7  1  0.575627  0.284478  0.322020  1
  Ag  Ag8  1  0.416122  0.585101  0.041115  1
  Ag  Ag9  1  0.551433  0.288062  0.098933  1
  Ag  Ag10  1  0.492869  0.529016  0.409138  1
  Ag  Ag11  1  0.051433  0.288062  0.401067  1
  Ag  Ag12  1  0.948567  0.788062  0.401067  1
  Ag  Ag13  1  0.492869  0.970984  0.590862  1
  Ag  Ag14  1  0.992869  0.529016  0.090862  1
  Ag  Ag15  1  0.583878  0.414899  0.958885  1
  Ag  Ag16  1  0.551433  0.211938  0.901067  1
  Ag  Ag17  1  0.583878  0.085101  0.041115  1
  Ag  Ag18  1  0.448567  0.788062  0.098933  1
  Ag  Ag19  1  0.916122  0.585101  0.458885  1
  Ag  Ag20  1  0.916122  0.914899  0.541115  1
  Ag  Ag21  1  0.083878  0.085101  0.458885  1
  Ag  Ag22  1  0.507131  0.470984  0.590862  1
  Ag  Ag23  1  0.007131  0.470984  0.909138  1
  Ag  Ag24  1  0.992869  0.970984  0.909138  1
  Ag  Ag25  1  0.416122  0.914899  0.958885  1
  Ag  Ag26  1  0.007131  0.029016  0.090862  1
  Ag  Ag27  1  0.948567  0.711938  0.598933  1
  Ag  Ag28  1  0.507131  0.029016  0.409138  1
  Ag  Ag29  1  0.083878  0.414899  0.541115  1
  Ag  Ag30  1  0.448567  0.711938  0.901067  1
  Ag  Ag31  1  0.051433  0.211938  0.598933  1
  Sn  Sn32  1  0.552176  0.441256  0.799662  1
  Sn  Sn33  1  0.475695  0.750000  0.500000  1
  Sn  Sn34  1  0.052176  0.058744  0.299662  1
  Sn  Sn35  1  0.052176  0.441256  0.700338  1
  Sn  Sn36  1  0.024305  0.250000  0.000000  1
  Sn  Sn37  1  0.947824  0.941256  0.700338  1
  Sn  Sn38  1  0.447824  0.941256  0.799662  1
  Sn  Sn39  1  0.552176  0.058744  0.200338  1
  Sn  Sn40  1  0.447824  0.558744  0.200338  1
  Sn  Sn41  1  0.975695  0.750000  0.000000  1
  Sn  Sn42  1  0.524305  0.250000  0.500000  1
  Sn  Sn43  1  0.947824  0.558744  0.299662  1
  Se  Se44  1  0.299009  0.120650  0.540369  1
  Se  Se45  1  0.660826  0.967435  0.118887  1
  Se  Se46  1  0.200991  0.620650  0.959631  1
  Se  Se47  1  0.660826  0.532565  0.881113  1
  Se  Se48  1  0.413606  0.765830  0.805188  1
  Se  Se49  1  0.339174  0.467435  0.118887  1
  Se  Se50  1  0.256654  0.669448  0.431745  1
  Se  Se51  1  0.312645  0.000666  0.710890  1
  Se  Se52  1  0.586394  0.234170  0.194812  1
  Se  Se53  1  0.743346  0.330552  0.568255  1
  Se  Se54  1  0.799009  0.120650  0.959631  1
  Se  Se55  1  0.913606  0.734170  0.305188  1
  Se  Se56  1  0.200991  0.879350  0.040369  1
  Se  Se57  1  0.839174  0.467435  0.381113  1
  Se  Se58  1  0.586394  0.265830  0.805188  1
  Se  Se59  1  0.243346  0.169448  0.068255  1
  Se  Se60  1  0.299009  0.379350  0.459631  1
  Se  Se61  1  0.086394  0.265830  0.694812  1
  Se  Se62  1  0.339174  0.032565  0.881113  1
  Se  Se63  1  0.839174  0.032565  0.618887  1
  Se  Se64  1  0.756654  0.669448  0.068255  1
  Se  Se65  1  0.700991  0.879350  0.459631  1
  Se  Se66  1  0.160826  0.532565  0.618887  1
  Se  Se67  1  0.743346  0.169448  0.431745  1
  Se  Se68  1  0.913606  0.765830  0.694812  1
  Se  Se69  1  0.256654  0.830552  0.568255  1
  Se  Se70  1  0.687355  0.500666  0.710890  1
  Se  Se71  1  0.187355  0.999334  0.210890  1
  Se  Se72  1  0.160826  0.967435  0.381113  1
  Se  Se73  1  0.086394  0.234170  0.305188  1
  Se  Se74  1  0.812645  0.000666  0.789110  1
  Se  Se75  1  0.312645  0.499334  0.289110  1
  Se  Se76  1  0.799009  0.379350  0.040369  1
  Se  Se77  1  0.687355  0.999334  0.289110  1
  Se  Se78  1  0.413606  0.734170  0.194812  1
  Se  Se79  1  0.243346  0.330552  0.931745  1
  Se  Se80  1  0.700991  0.620650  0.540369  1
  Se  Se81  1  0.812645  0.499334  0.210890  1
  Se  Se82  1  0.187355  0.500666  0.789110  1
  Se  Se83  1  0.756654  0.830552  0.931745  1
