# generated using pymatgen
data_La7Pr11(NdSi8)2
_symmetry_space_group_name_H-M   'P 1'
_cell_length_a   7.95278098
_cell_length_b   7.95538751
_cell_length_c   15.43734606
_cell_angle_alpha   90.04665895
_cell_angle_beta   89.97630933
_cell_angle_gamma   90.03552732
_symmetry_Int_Tables_number   1
_chemical_formula_structural   La7Pr11(NdSi8)2
_chemical_formula_sum   'La7 Pr11 Nd2 Si16'
_cell_volume   976.68099423
_cell_formula_units_Z   1
loop_
 _symmetry_equiv_pos_site_id
 _symmetry_equiv_pos_as_xyz
  1  'x, y, z'
loop_
 _atom_site_type_symbol
 _atom_site_label
 _atom_site_symmetry_multiplicity
 _atom_site_fract_x
 _atom_site_fract_y
 _atom_site_fract_z
 _atom_site_occupancy
  La  La0  1  0.012858  0.378294  0.552522  1
  La  La1  1  0.622290  0.986677  0.947974  1
  La  La2  1  0.121574  0.513422  0.802936  1
  La  La3  1  0.877899  0.486870  0.302161  1
  La  La4  1  0.512733  0.121901  0.197414  1
  La  La5  1  0.486843  0.878098  0.697496  1
  La  La6  1  0.378090  0.012815  0.447232  1
  Pr  Pr7  1  0.373507  0.480922  0.372955  1
  Pr  Pr8  1  0.873342  0.018747  0.376383  1
  Pr  Pr9  1  0.980789  0.126092  0.123108  1
  Pr  Pr10  1  0.019025  0.873655  0.623162  1
  Pr  Pr11  1  0.627044  0.519989  0.873746  1
  Pr  Pr12  1  0.480980  0.373462  0.626760  1
  Pr  Pr13  1  0.519486  0.627138  0.126432  1
  Pr  Pr14  1  0.125909  0.980793  0.877139  1
  Pr  Pr15  1  0.988608  0.619691  0.053487  1
  Pr  Pr16  1  0.691538  0.691880  0.500130  1
  Pr  Pr17  1  0.808379  0.191890  0.750143  1
  Nd  Nd18  1  0.191638  0.808053  0.249871  1
  Nd  Nd19  1  0.308579  0.308584  0.000117  1
  Si  Si20  1  0.080592  0.713183  0.439376  1
  Si  Si21  1  0.920926  0.288199  0.940226  1
  Si  Si22  1  0.713308  0.080473  0.560011  1
  Si  Si23  1  0.213106  0.420629  0.189255  1
  Si  Si24  1  0.786580  0.580037  0.689953  1
  Si  Si25  1  0.419599  0.213314  0.810713  1
  Si  Si26  1  0.580130  0.786490  0.309571  1
  Si  Si27  1  0.285569  0.919511  0.060410  1
  Si  Si28  1  0.830074  0.805708  0.795622  1
  Si  Si29  1  0.169073  0.194635  0.295541  1
  Si  Si30  1  0.806312  0.829896  0.203255  1
  Si  Si31  1  0.304910  0.669314  0.545918  1
  Si  Si32  1  0.695325  0.331739  0.046219  1
  Si  Si33  1  0.669536  0.304990  0.453943  1
  Si  Si34  1  0.328831  0.693537  0.954604  1
  Si  Si35  1  0.195019  0.169372  0.704218  1
