# generated using pymatgen
data_DyYSc2(CrB6)2
_symmetry_space_group_name_H-M   'P 1'
_cell_length_a   3.46709700
_cell_length_b   9.00711800
_cell_length_c   11.37014600
_cell_angle_alpha   89.99938728
_cell_angle_beta   90.00000000
_cell_angle_gamma   90.00000000
_symmetry_Int_Tables_number   1
_chemical_formula_structural   DyYSc2(CrB6)2
_chemical_formula_sum   'Dy2 Y2 Sc4 Cr4 B24'
_cell_volume   355.07319328
_cell_formula_units_Z   2
loop_
 _symmetry_equiv_pos_site_id
 _symmetry_equiv_pos_as_xyz
  1  'x, y, z'
loop_
 _atom_site_type_symbol
 _atom_site_label
 _atom_site_symmetry_multiplicity
 _atom_site_fract_x
 _atom_site_fract_y
 _atom_site_fract_z
 _atom_site_occupancy
  Dy  Dy0  1  0.000000  0.822808  0.085364  1
  Dy  Dy1  1  0.000000  0.177192  0.914636  1
  Y  Y2  1  0.000000  0.322751  0.414665  1
  Y  Y3  1  0.000000  0.677249  0.585335  1
  Sc  Sc4  1  0.000000  0.443272  0.130854  1
  Sc  Sc5  1  0.000000  0.556728  0.869146  1
  Sc  Sc6  1  0.000000  0.943237  0.369136  1
  Sc  Sc7  1  0.000000  0.056763  0.630864  1
  Cr  Cr8  1  0.000000  0.141582  0.182014  1
  Cr  Cr9  1  0.000000  0.858418  0.817986  1
  Cr  Cr10  1  0.000000  0.641710  0.317830  1
  Cr  Cr11  1  0.000000  0.358290  0.682170  1
  B  B12  1  0.500000  0.054870  0.067832  1
  B  B13  1  0.500000  0.945130  0.932168  1
  B  B14  1  0.500000  0.554917  0.432114  1
  B  B15  1  0.500000  0.445083  0.567886  1
  B  B16  1  0.500000  0.253165  0.082625  1
  B  B17  1  0.500000  0.746835  0.917375  1
  B  B18  1  0.500000  0.753255  0.417253  1
  B  B19  1  0.500000  0.246745  0.582747  1
  B  B20  1  0.500000  0.294547  0.235396  1
  B  B21  1  0.500000  0.705453  0.764604  1
  B  B22  1  0.500000  0.794544  0.264477  1
  B  B23  1  0.500000  0.205456  0.735523  1
  B  B24  1  0.500000  0.129470  0.316453  1
  B  B25  1  0.500000  0.870530  0.683547  1
  B  B26  1  0.500000  0.629630  0.183478  1
  B  B27  1  0.500000  0.370370  0.816522  1
  B  B28  1  0.500000  0.482795  0.286444  1
  B  B29  1  0.500000  0.517205  0.713556  1
  B  B30  1  0.500000  0.982691  0.213448  1
  B  B31  1  0.500000  0.017309  0.786552  1
  B  B32  1  0.500000  0.095827  0.473950  1
  B  B33  1  0.500000  0.904173  0.526050  1
  B  B34  1  0.500000  0.595913  0.026077  1
  B  B35  1  0.500000  0.404087  0.973923  1
