# generated using pymatgen
data_Tb16Cd3Co2HgRu2
_symmetry_space_group_name_H-M   'P 1'
_cell_length_a   9.67326759
_cell_length_b   9.59640329
_cell_length_c   9.57994386
_cell_angle_alpha   59.49902378
_cell_angle_beta   59.67913345
_cell_angle_gamma   59.73666944
_symmetry_Int_Tables_number   1
_chemical_formula_structural   Tb16Cd3Co2HgRu2
_chemical_formula_sum   'Tb16 Cd3 Co2 Hg1 Ru2'
_cell_volume   623.65017912
_cell_formula_units_Z   1
loop_
 _symmetry_equiv_pos_site_id
 _symmetry_equiv_pos_as_xyz
  1  'x, y, z'
loop_
 _atom_site_type_symbol
 _atom_site_label
 _atom_site_symmetry_multiplicity
 _atom_site_fract_x
 _atom_site_fract_y
 _atom_site_fract_z
 _atom_site_occupancy
  Tb  Tb0  1  0.440145  0.436446  0.057676  1
  Tb  Tb1  1  0.590537  0.599181  0.599155  1
  Tb  Tb2  1  0.186373  0.813244  0.814003  1
  Tb  Tb3  1  0.065221  0.057023  0.437378  1
  Tb  Tb4  1  0.439340  0.060612  0.060705  1
  Tb  Tb5  1  0.814407  0.188266  0.809146  1
  Tb  Tb6  1  0.440375  0.057024  0.437383  1
  Tb  Tb7  1  0.593748  0.209611  0.602894  1
  Tb  Tb8  1  0.814407  0.808869  0.189638  1
  Tb  Tb9  1  0.211137  0.599176  0.599148  1
  Tb  Tb10  1  0.808494  0.190658  0.192343  1
  Tb  Tb11  1  0.061188  0.438543  0.439088  1
  Tb  Tb12  1  0.187072  0.808883  0.189630  1
  Tb  Tb13  1  0.593141  0.602737  0.210979  1
  Tb  Tb14  1  0.188169  0.188260  0.809153  1
  Tb  Tb15  1  0.065740  0.436441  0.057668  1
  Cd  Cd16  1  0.831141  0.829402  0.830151  1
  Cd  Cd17  1  0.509301  0.829403  0.830151  1
  Cd  Cd18  1  0.830855  0.508935  0.829347  1
  Co  Co19  1  0.388060  0.830102  0.393789  1
  Co  Co20  1  0.387911  0.393862  0.830332  1
  Hg  Hg21  1  0.834505  0.832374  0.498611  1
  Ru  Ru22  1  0.388502  0.390466  0.390816  1
  Ru  Ru23  1  0.830227  0.390480  0.390817  1
