# generated using pymatgen
data_Y2ThTl2InRh3
_symmetry_space_group_name_H-M   'P 1'
_cell_length_a   7.61773041
_cell_length_b   7.95285195
_cell_length_c   3.88482200
_cell_angle_alpha   90.00000000
_cell_angle_beta   90.00000000
_cell_angle_gamma   120.98400040
_symmetry_Int_Tables_number   1
_chemical_formula_structural   Y2ThTl2InRh3
_chemical_formula_sum   'Y2 Th1 Tl2 In1 Rh3'
_cell_volume   201.77068233
_cell_formula_units_Z   1
loop_
 _symmetry_equiv_pos_site_id
 _symmetry_equiv_pos_as_xyz
  1  'x, y, z'
loop_
 _atom_site_type_symbol
 _atom_site_label
 _atom_site_symmetry_multiplicity
 _atom_site_fract_x
 _atom_site_fract_y
 _atom_site_fract_z
 _atom_site_occupancy
  Y  Y0  1  0.404401  0.404755  0.500000  1
  Y  Y1  1  0.597105  0.995500  0.500000  1
  Th  Th2  1  0.000313  0.585687  0.500000  1
  Tl  Tl3  1  0.000056  0.245628  0.000000  1
  Tl  Tl4  1  0.275933  0.015262  0.000000  1
  In  In5  1  0.724708  0.738054  0.000000  1
  Rh  Rh6  1  0.314247  0.666334  0.000000  1
  Rh  Rh7  1  0.990523  0.982313  0.500000  1
  Rh  Rh8  1  0.692713  0.366467  0.000000  1
