# generated using pymatgen
data_Tb2Th2Al7Mo
_symmetry_space_group_name_H-M   'P 1'
_cell_length_a   5.61996800
_cell_length_b   5.61996832
_cell_length_c   9.15892100
_cell_angle_alpha   90.00000000
_cell_angle_beta   90.00000000
_cell_angle_gamma   119.99998636
_symmetry_Int_Tables_number   1
_chemical_formula_structural   Tb2Th2Al7Mo
_chemical_formula_sum   'Tb2 Th2 Al7 Mo1'
_cell_volume   250.52017958
_cell_formula_units_Z   1
loop_
 _symmetry_equiv_pos_site_id
 _symmetry_equiv_pos_as_xyz
  1  'x, y, z'
loop_
 _atom_site_type_symbol
 _atom_site_label
 _atom_site_symmetry_multiplicity
 _atom_site_fract_x
 _atom_site_fract_y
 _atom_site_fract_z
 _atom_site_occupancy
  Tb  Tb0  1  0.666667  0.333333  0.441346  1
  Tb  Tb1  1  0.333333  0.666667  0.558654  1
  Th  Th2  1  0.333333  0.666667  0.944014  1
  Th  Th3  1  0.666667  0.333333  0.055986  1
  Al  Al4  1  0.000000  0.000000  0.500000  1
  Al  Al5  1  0.665427  0.832714  0.250641  1
  Al  Al6  1  0.167286  0.832714  0.250641  1
  Al  Al7  1  0.167286  0.334573  0.250641  1
  Al  Al8  1  0.334573  0.167286  0.749359  1
  Al  Al9  1  0.832714  0.167286  0.749359  1
  Al  Al10  1  0.832714  0.665427  0.749359  1
  Mo  Mo11  1  0.000000  0.000000  0.000000  1
