# generated using pymatgen
data_CsHg3F9
_symmetry_space_group_name_H-M   'P 1'
_cell_length_a   8.41211758
_cell_length_b   8.41444342
_cell_length_c   8.61114109
_cell_angle_alpha   90.88549048
_cell_angle_beta   90.40163489
_cell_angle_gamma   60.10685357
_symmetry_Int_Tables_number   1
_chemical_formula_structural   CsHg3F9
_chemical_formula_sum   'Cs2 Hg6 F18'
_cell_volume   528.36819874
_cell_formula_units_Z   2
loop_
 _symmetry_equiv_pos_site_id
 _symmetry_equiv_pos_as_xyz
  1  'x, y, z'
loop_
 _atom_site_type_symbol
 _atom_site_label
 _atom_site_symmetry_multiplicity
 _atom_site_fract_x
 _atom_site_fract_y
 _atom_site_fract_z
 _atom_site_occupancy
  Cs  Cs0  1  0.977178  0.511062  0.249989  1
  Cs  Cs1  1  0.020499  0.491256  0.748274  1
  Hg  Hg2  1  0.499392  0.999993  0.999474  1
  Hg  Hg3  1  0.499146  0.499968  0.999629  1
  Hg  Hg4  1  0.999257  0.000243  0.499725  1
  Hg  Hg5  1  0.999199  0.000265  0.999701  1
  Hg  Hg6  1  0.499310  0.500121  0.499696  1
  Hg  Hg7  1  0.499238  0.000125  0.499583  1
  F  F8  1  0.556992  0.512537  0.757605  1
  F  F9  1  0.449211  0.061410  0.249792  1
  F  F10  1  0.781792  0.329667  0.463369  1
  F  F11  1  0.166507  0.118542  0.527022  1
  F  F12  1  0.833157  0.283077  0.034832  1
  F  F13  1  0.216552  0.114986  0.965116  1
  F  F14  1  0.400127  0.278449  0.545788  1
  F  F15  1  0.598770  0.721691  0.453450  1
  F  F16  1  0.052843  0.968773  0.248523  1
  F  F17  1  0.945621  0.031217  0.750815  1
  F  F18  1  0.396446  0.324872  0.946350  1
  F  F19  1  0.601962  0.675416  0.052864  1
  F  F20  1  0.832107  0.881655  0.472324  1
  F  F21  1  0.216838  0.670694  0.536085  1
  F  F22  1  0.782140  0.884851  0.033685  1
  F  F23  1  0.165293  0.717069  0.964725  1
  F  F24  1  0.550162  0.938141  0.749282  1
  F  F25  1  0.441392  0.487702  0.241695  1
