# generated using pymatgen
data_Er12Co5Sb
_symmetry_space_group_name_H-M   'P 1'
_cell_length_a   8.22339474
_cell_length_b   8.22339451
_cell_length_c   8.22339442
_cell_angle_alpha   110.78406746
_cell_angle_beta   110.83588536
_cell_angle_gamma   106.82566306
_symmetry_Int_Tables_number   1
_chemical_formula_structural   Er12Co5Sb
_chemical_formula_sum   'Er12 Co5 Sb1'
_cell_volume   427.40585785
_cell_formula_units_Z   1
loop_
 _symmetry_equiv_pos_site_id
 _symmetry_equiv_pos_as_xyz
  1  'x, y, z'
loop_
 _atom_site_type_symbol
 _atom_site_label
 _atom_site_symmetry_multiplicity
 _atom_site_fract_x
 _atom_site_fract_y
 _atom_site_fract_z
 _atom_site_occupancy
  Er  Er0  1  0.286080  0.183489  0.469568  1
  Er  Er1  1  0.713920  0.816511  0.530432  1
  Er  Er2  1  0.286080  0.816511  0.102591  1
  Er  Er3  1  0.713920  0.183489  0.897409  1
  Er  Er4  1  0.620043  0.312522  0.307522  1
  Er  Er5  1  0.379957  0.687478  0.692478  1
  Er  Er6  1  0.005001  0.312522  0.692478  1
  Er  Er7  1  0.994999  0.687478  0.307522  1
  Er  Er8  1  0.211437  0.406665  0.195229  1
  Er  Er9  1  0.788563  0.593335  0.804771  1
  Er  Er10  1  0.211437  0.016208  0.804771  1
  Er  Er11  1  0.788563  0.983792  0.195229  1
  Co  Co12  1  0.000000  0.374792  0.374792  1
  Co  Co13  1  0.000000  0.625208  0.625208  1
  Co  Co14  1  0.388013  0.888013  0.500000  1
  Co  Co15  1  0.611987  0.111987  0.500000  1
  Co  Co16  1  0.000000  0.000000  0.000000  1
  Sb  Sb17  1  0.500000  0.500000  0.000000  1
