# generated using pymatgen
data_Tb5Sm2YC10
_symmetry_space_group_name_H-M   'P 1'
_cell_length_a   3.70774900
_cell_length_b   6.65675851
_cell_length_c   12.01845400
_cell_angle_alpha   89.82094498
_cell_angle_beta   90.00000000
_cell_angle_gamma   90.00000000
_symmetry_Int_Tables_number   1
_chemical_formula_structural   Tb5Sm2YC10
_chemical_formula_sum   'Tb5 Sm2 Y1 C10'
_cell_volume   296.63310187
_cell_formula_units_Z   1
loop_
 _symmetry_equiv_pos_site_id
 _symmetry_equiv_pos_as_xyz
  1  'x, y, z'
loop_
 _atom_site_type_symbol
 _atom_site_label
 _atom_site_symmetry_multiplicity
 _atom_site_fract_x
 _atom_site_fract_y
 _atom_site_fract_z
 _atom_site_occupancy
  Tb  Tb0  1  0.000000  0.235885  0.042018  1
  Tb  Tb1  1  0.500000  0.108546  0.802942  1
  Tb  Tb2  1  0.500000  0.894789  0.196839  1
  Tb  Tb3  1  0.500000  0.604231  0.696826  1
  Tb  Tb4  1  0.500000  0.390997  0.303474  1
  Sm  Sm5  1  0.000000  0.755239  0.456398  1
  Sm  Sm6  1  0.000000  0.744581  0.956144  1
  Y  Y7  1  0.000000  0.264863  0.542222  1
  C  C8  1  0.500000  0.511354  0.501616  1
  C  C9  1  0.500000  0.989403  0.001550  1
  C  C10  1  0.000000  0.364268  0.735568  1
  C  C11  1  0.000000  0.643896  0.259679  1
  C  C12  1  0.000000  0.856178  0.758636  1
  C  C13  1  0.000000  0.134409  0.236995  1
  C  C14  1  0.000000  0.380052  0.846062  1
  C  C15  1  0.000000  0.566757  0.158201  1
  C  C16  1  0.000000  0.120000  0.347636  1
  C  C17  1  0.000000  0.934550  0.657195  1
