# generated using pymatgen
data_Nb2InMoO8
_symmetry_space_group_name_H-M   'P 1'
_cell_length_a   5.87389900
_cell_length_b   4.88885232
_cell_length_c   5.23360478
_cell_angle_alpha   89.33276701
_cell_angle_beta   90.00000000
_cell_angle_gamma   90.00000000
_symmetry_Int_Tables_number   1
_chemical_formula_structural   Nb2InMoO8
_chemical_formula_sum   'Nb2 In1 Mo1 O8'
_cell_volume   150.28127377
_cell_formula_units_Z   1
loop_
 _symmetry_equiv_pos_site_id
 _symmetry_equiv_pos_as_xyz
  1  'x, y, z'
loop_
 _atom_site_type_symbol
 _atom_site_label
 _atom_site_symmetry_multiplicity
 _atom_site_fract_x
 _atom_site_fract_y
 _atom_site_fract_z
 _atom_site_occupancy
  Nb  Nb0  1  0.173141  0.000000  0.750000  1
  Nb  Nb1  1  0.823028  0.000000  0.250000  1
  In  In2  1  0.320153  0.500000  0.250000  1
  Mo  Mo3  1  0.663818  0.500000  0.750000  1
  O  O4  1  0.622558  0.737898  0.404545  1
  O  O5  1  0.622558  0.262102  0.095455  1
  O  O6  1  0.385257  0.259124  0.599223  1
  O  O7  1  0.385257  0.740876  0.900777  1
  O  O8  1  0.105618  0.786091  0.435091  1
  O  O9  1  0.105618  0.213909  0.064909  1
  O  O10  1  0.896495  0.217258  0.565440  1
  O  O11  1  0.896495  0.782742  0.934560  1
