# generated using pymatgen
data_Ho2ErMg3AgSn2
_symmetry_space_group_name_H-M   'P 1'
_cell_length_a   7.48660233
_cell_length_b   7.49042806
_cell_length_c   4.49278200
_cell_angle_alpha   90.00000000
_cell_angle_beta   90.00000000
_cell_angle_gamma   120.01690546
_symmetry_Int_Tables_number   1
_chemical_formula_structural   Ho2ErMg3AgSn2
_chemical_formula_sum   'Ho2 Er1 Mg3 Ag1 Sn2'
_cell_volume   218.15409636
_cell_formula_units_Z   1
loop_
 _symmetry_equiv_pos_site_id
 _symmetry_equiv_pos_as_xyz
  1  'x, y, z'
loop_
 _atom_site_type_symbol
 _atom_site_label
 _atom_site_symmetry_multiplicity
 _atom_site_fract_x
 _atom_site_fract_y
 _atom_site_fract_z
 _atom_site_occupancy
  Ho  Ho0  1  0.414664  0.414727  0.500000  1
  Ho  Ho1  1  0.585336  0.000063  0.500000  1
  Er  Er2  1  0.000000  0.585334  0.500000  1
  Mg  Mg3  1  0.762704  0.762637  0.000000  1
  Mg  Mg4  1  0.237296  0.999933  0.000000  1
  Mg  Mg5  1  0.000000  0.237439  0.000000  1
  Ag  Ag6  1  0.000000  0.999776  0.500000  1
  Sn  Sn7  1  0.666994  0.333543  0.000000  1
  Sn  Sn8  1  0.333006  0.666549  0.000000  1
