# generated using pymatgen
data_LaYbNiPt3
_symmetry_space_group_name_H-M   'P 1'
_cell_length_a   5.50493873
_cell_length_b   5.30725357
_cell_length_c   5.50494000
_cell_angle_alpha   58.76000365
_cell_angle_beta   60.00000440
_cell_angle_gamma   58.76000211
_symmetry_Int_Tables_number   1
_chemical_formula_structural   LaYbNiPt3
_chemical_formula_sum   'La1 Yb1 Ni1 Pt3'
_cell_volume   111.54770230
_cell_formula_units_Z   1
loop_
 _symmetry_equiv_pos_site_id
 _symmetry_equiv_pos_as_xyz
  1  'x, y, z'
loop_
 _atom_site_type_symbol
 _atom_site_label
 _atom_site_symmetry_multiplicity
 _atom_site_fract_x
 _atom_site_fract_y
 _atom_site_fract_z
 _atom_site_occupancy
  La  La0  1  0.499489  0.501532  0.499489  1
  Yb  Yb1  1  0.751905  0.744286  0.751905  1
  Ni  Ni2  1  0.124168  0.627498  0.124168  1
  Pt  Pt3  1  0.123941  0.125561  0.626558  1
  Pt  Pt4  1  0.626558  0.125561  0.123941  1
  Pt  Pt5  1  0.123941  0.125561  0.123941  1
