# generated using pymatgen
data_Yb3CdCoO6
_symmetry_space_group_name_H-M   'P 1'
_cell_length_a   6.37421479
_cell_length_b   6.37421477
_cell_length_c   6.37421450
_cell_angle_alpha   89.41723992
_cell_angle_beta   89.41724296
_cell_angle_gamma   89.41724560
_symmetry_Int_Tables_number   1
_chemical_formula_structural   Yb3CdCoO6
_chemical_formula_sum   'Yb6 Cd2 Co2 O12'
_cell_volume   258.94833185
_cell_formula_units_Z   2
loop_
 _symmetry_equiv_pos_site_id
 _symmetry_equiv_pos_as_xyz
  1  'x, y, z'
loop_
 _atom_site_type_symbol
 _atom_site_label
 _atom_site_symmetry_multiplicity
 _atom_site_fract_x
 _atom_site_fract_y
 _atom_site_fract_z
 _atom_site_occupancy
  Yb  Yb0  1  0.250000  0.619625  0.880375  1
  Yb  Yb1  1  0.380375  0.119625  0.750000  1
  Yb  Yb2  1  0.119625  0.750000  0.380375  1
  Yb  Yb3  1  0.750000  0.380375  0.119625  1
  Yb  Yb4  1  0.619625  0.880375  0.250000  1
  Yb  Yb5  1  0.880375  0.250000  0.619625  1
  Cd  Cd6  1  0.750000  0.750000  0.750000  1
  Cd  Cd7  1  0.250000  0.250000  0.250000  1
  Co  Co8  1  0.500000  0.500000  0.500000  1
  Co  Co9  1  0.000000  0.000000  0.000000  1
  O  O10  1  0.561520  0.213301  0.428384  1
  O  O11  1  0.438480  0.786699  0.571616  1
  O  O12  1  0.786699  0.571616  0.438480  1
  O  O13  1  0.571616  0.438480  0.786699  1
  O  O14  1  0.713301  0.061520  0.928384  1
  O  O15  1  0.061520  0.928384  0.713301  1
  O  O16  1  0.071616  0.286699  0.938480  1
  O  O17  1  0.938480  0.071616  0.286699  1
  O  O18  1  0.286699  0.938480  0.071616  1
  O  O19  1  0.428384  0.561520  0.213301  1
  O  O20  1  0.213301  0.428384  0.561520  1
  O  O21  1  0.928384  0.713301  0.061520  1
