# generated using pymatgen
data_Yb7HoSb6
_symmetry_space_group_name_H-M   'P 1'
_cell_length_a   8.15137190
_cell_length_b   8.15137219
_cell_length_c   8.09681000
_cell_angle_alpha   109.33568623
_cell_angle_beta   109.33568694
_cell_angle_gamma   109.60641640
_symmetry_Int_Tables_number   1
_chemical_formula_structural   Yb7HoSb6
_chemical_formula_sum   'Yb7 Ho1 Sb6'
_cell_volume   414.83670427
_cell_formula_units_Z   1
loop_
 _symmetry_equiv_pos_site_id
 _symmetry_equiv_pos_as_xyz
  1  'x, y, z'
loop_
 _atom_site_type_symbol
 _atom_site_label
 _atom_site_symmetry_multiplicity
 _atom_site_fract_x
 _atom_site_fract_y
 _atom_site_fract_z
 _atom_site_occupancy
  Yb  Yb0  1  0.143440  0.495211  0.998827  1
  Yb  Yb1  1  0.500000  0.000000  0.648969  1
  Yb  Yb2  1  0.351771  0.356560  0.355388  1
  Yb  Yb3  1  0.004789  0.148229  0.503617  1
  Yb  Yb4  1  0.849434  0.850196  0.848976  1
  Yb  Yb5  1  0.000762  0.650566  0.499542  1
  Yb  Yb6  1  0.649804  0.499238  0.998781  1
  Ho  Ho7  1  0.500000  0.000000  0.146922  1
  Sb  Sb8  1  0.869931  0.244389  0.126889  1
  Sb  Sb9  1  0.131054  0.875743  0.246477  1
  Sb  Sb10  1  0.374458  0.630069  0.756957  1
  Sb  Sb11  1  0.255611  0.125542  0.882499  1
  Sb  Sb12  1  0.744689  0.368946  0.615423  1
  Sb  Sb13  1  0.624257  0.755311  0.370733  1
