# generated using pymatgen
data_YU3(PS)4
_symmetry_space_group_name_H-M   'P 1'
_cell_length_a   5.34332100
_cell_length_b   5.35108400
_cell_length_c   16.09806100
_cell_angle_alpha   90.00000000
_cell_angle_beta   90.00000000
_cell_angle_gamma   90.00000000
_symmetry_Int_Tables_number   1
_chemical_formula_structural   YU3(PS)4
_chemical_formula_sum   'Y2 U6 P8 S8'
_cell_volume   460.28476714
_cell_formula_units_Z   2
loop_
 _symmetry_equiv_pos_site_id
 _symmetry_equiv_pos_as_xyz
  1  'x, y, z'
loop_
 _atom_site_type_symbol
 _atom_site_label
 _atom_site_symmetry_multiplicity
 _atom_site_fract_x
 _atom_site_fract_y
 _atom_site_fract_z
 _atom_site_occupancy
  Y  Y0  1  0.750000  0.001435  0.369093  1
  Y  Y1  1  0.750000  0.501435  0.130907  1
  U  U2  1  0.250000  0.501457  0.355781  1
  U  U3  1  0.250000  0.001457  0.144219  1
  U  U4  1  0.750000  0.498427  0.641503  1
  U  U5  1  0.750000  0.998427  0.858497  1
  U  U6  1  0.250000  0.998629  0.639931  1
  U  U7  1  0.250000  0.498629  0.860069  1
  P  P8  1  0.026214  0.220676  0.997563  1
  P  P9  1  0.473786  0.720676  0.502437  1
  P  P10  1  0.473027  0.779294  0.997581  1
  P  P11  1  0.026973  0.279294  0.502419  1
  P  P12  1  0.026973  0.779294  0.997581  1
  P  P13  1  0.473027  0.279294  0.502419  1
  P  P14  1  0.473786  0.220676  0.997563  1
  P  P15  1  0.026214  0.720676  0.502437  1
  S  S16  1  0.250000  0.501596  0.179352  1
  S  S17  1  0.250000  0.001596  0.320648  1
  S  S18  1  0.750000  0.498225  0.820030  1
  S  S19  1  0.750000  0.998225  0.679970  1
  S  S20  1  0.250000  0.998334  0.814551  1
  S  S21  1  0.250000  0.498334  0.685449  1
  S  S22  1  0.750000  0.001956  0.186044  1
  S  S23  1  0.750000  0.501956  0.313956  1
