# generated using pymatgen
data_GdCd(GaBr4)4
_symmetry_space_group_name_H-M   'P 1'
_cell_length_a   7.57304078
_cell_length_b   7.71140835
_cell_length_c   14.17966500
_cell_angle_alpha   87.67278877
_cell_angle_beta   89.90791714
_cell_angle_gamma   89.95345666
_symmetry_Int_Tables_number   1
_chemical_formula_structural   GdCd(GaBr4)4
_chemical_formula_sum   'Gd1 Cd1 Ga4 Br16'
_cell_volume   827.39128297
_cell_formula_units_Z   1
loop_
 _symmetry_equiv_pos_site_id
 _symmetry_equiv_pos_as_xyz
  1  'x, y, z'
loop_
 _atom_site_type_symbol
 _atom_site_label
 _atom_site_symmetry_multiplicity
 _atom_site_fract_x
 _atom_site_fract_y
 _atom_site_fract_z
 _atom_site_occupancy
  Gd  Gd0  1  0.763155  0.079657  0.815645  1
  Cd  Cd1  1  0.247603  0.075510  0.311861  1
  Ga  Ga2  1  0.940322  0.222472  0.573097  1
  Ga  Ga3  1  0.071084  0.225348  0.081706  1
  Ga  Ga4  1  0.569678  0.638226  0.775558  1
  Ga  Ga5  1  0.418494  0.637621  0.277348  1
  Br  Br6  1  0.421170  0.612673  0.636346  1
  Br  Br7  1  0.574746  0.611718  0.139239  1
  Br  Br8  1  0.874904  0.731572  0.760573  1
  Br  Br9  1  0.120324  0.736400  0.259908  1
  Br  Br10  1  0.933951  0.488459  0.495693  1
  Br  Br11  1  0.056860  0.481205  0.993403  1
  Br  Br12  1  0.920260  0.994962  0.000494  1
  Br  Br13  1  0.085108  0.995820  0.494541  1
  Br  Br14  1  0.645356  0.126182  0.619570  1
  Br  Br15  1  0.361177  0.122550  0.116203  1
  Br  Br16  1  0.562944  0.378045  0.878501  1
  Br  Br17  1  0.424526  0.373999  0.374912  1
  Br  Br18  1  0.451105  0.871527  0.867454  1
  Br  Br19  1  0.540245  0.869440  0.367449  1
  Br  Br20  1  0.939991  0.229785  0.235500  1
  Br  Br21  1  0.077000  0.231630  0.729407  1
