# generated using pymatgen
data_K7MnSiO8
_symmetry_space_group_name_H-M   'P 1'
_cell_length_a   10.31373500
_cell_length_b   6.34709743
_cell_length_c   20.54901000
_cell_angle_alpha   86.75363153
_cell_angle_beta   90.00000000
_cell_angle_gamma   90.00000000
_symmetry_Int_Tables_number   1
_chemical_formula_structural   K7MnSiO8
_chemical_formula_sum   'K28 Mn4 Si4 O32'
_cell_volume   1343.02639517
_cell_formula_units_Z   4
loop_
 _symmetry_equiv_pos_site_id
 _symmetry_equiv_pos_as_xyz
  1  'x, y, z'
loop_
 _atom_site_type_symbol
 _atom_site_label
 _atom_site_symmetry_multiplicity
 _atom_site_fract_x
 _atom_site_fract_y
 _atom_site_fract_z
 _atom_site_occupancy
  K  K0  1  0.579706  0.413462  0.886402  1
  K  K1  1  0.077641  0.593534  0.618698  1
  K  K2  1  0.922359  0.593534  0.118698  1
  K  K3  1  0.420294  0.413462  0.386402  1
  K  K4  1  0.593598  0.908665  0.815386  1
  K  K5  1  0.077292  0.079978  0.695597  1
  K  K6  1  0.922708  0.079978  0.195597  1
  K  K7  1  0.406402  0.908665  0.315386  1
  K  K8  1  0.945603  0.269402  0.865092  1
  K  K9  1  0.450230  0.720682  0.624297  1
  K  K10  1  0.549770  0.720682  0.124297  1
  K  K11  1  0.054397  0.269402  0.365092  1
  K  K12  1  0.808714  0.764111  0.950548  1
  K  K13  1  0.319590  0.239563  0.542803  1
  K  K14  1  0.680410  0.239563  0.042803  1
  K  K15  1  0.191286  0.764111  0.450548  1
  K  K16  1  0.144811  0.721893  0.965411  1
  K  K17  1  0.637050  0.281828  0.526487  1
  K  K18  1  0.362950  0.281828  0.026487  1
  K  K19  1  0.855189  0.721893  0.465411  1
  K  K20  1  0.299733  0.075920  0.868283  1
  K  K21  1  0.784020  0.916082  0.635845  1
  K  K22  1  0.215980  0.916082  0.135845  1
  K  K23  1  0.700267  0.075920  0.368283  1
  K  K24  1  0.241478  0.627418  0.789169  1
  K  K25  1  0.760369  0.380159  0.720372  1
  K  K26  1  0.239631  0.380159  0.220372  1
  K  K27  1  0.758522  0.627418  0.289169  1
  Mn  Mn28  1  0.971516  0.211004  0.526530  1
  Mn  Mn29  1  0.028484  0.211004  0.026530  1
  Mn  Mn30  1  0.404925  0.213366  0.706539  1
  Mn  Mn31  1  0.595075  0.213366  0.206539  1
  Si  Si32  1  0.469354  0.791454  0.973245  1
  Si  Si33  1  0.530646  0.791454  0.473245  1
  Si  Si34  1  0.906963  0.783661  0.793043  1
  Si  Si35  1  0.093037  0.783661  0.293043  1
  O  O36  1  0.365729  0.822457  0.034300  1
  O  O37  1  0.865879  0.195103  0.462388  1
  O  O38  1  0.134121  0.195103  0.962388  1
  O  O39  1  0.634271  0.822457  0.534300  1
  O  O40  1  0.964794  0.682186  0.725378  1
  O  O41  1  0.461717  0.310692  0.777664  1
  O  O42  1  0.538283  0.310692  0.277664  1
  O  O43  1  0.035206  0.682186  0.225378  1
  O  O44  1  0.791571  0.624491  0.825936  1
  O  O45  1  0.282251  0.375611  0.674506  1
  O  O46  1  0.717749  0.375611  0.174506  1
  O  O47  1  0.208429  0.624491  0.325936  1
  O  O48  1  0.026842  0.817567  0.845945  1
  O  O49  1  0.527708  0.194208  0.650672  1
  O  O50  1  0.472292  0.194208  0.150672  1
  O  O51  1  0.973158  0.817567  0.345945  1
  O  O52  1  0.840691  0.019331  0.771163  1
  O  O53  1  0.339247  0.965867  0.725596  1
  O  O54  1  0.660753  0.965867  0.225596  1
  O  O55  1  0.159309  0.019331  0.271163  1
  O  O56  1  0.582450  0.616222  0.998789  1
  O  O57  1  0.089520  0.392410  0.503158  1
  O  O58  1  0.910480  0.392410  0.003158  1
  O  O59  1  0.417550  0.616222  0.498789  1
  O  O60  1  0.391344  0.701722  0.908495  1
  O  O61  1  0.890479  0.296969  0.594070  1
  O  O62  1  0.109521  0.296969  0.094070  1
  O  O63  1  0.608656  0.701722  0.408495  1
  O  O64  1  0.538430  0.023440  0.949173  1
  O  O65  1  0.041823  0.969540  0.549014  1
  O  O66  1  0.958177  0.969540  0.049014  1
  O  O67  1  0.461570  0.023440  0.449173  1
