# generated using pymatgen
data_Sr4CaEr5Sn8
_symmetry_space_group_name_H-M   'P 1'
_cell_length_a   8.03444000
_cell_length_b   8.53917500
_cell_length_c   16.12337600
_cell_angle_alpha   90.00000000
_cell_angle_beta   90.00000000
_cell_angle_gamma   90.00000000
_symmetry_Int_Tables_number   1
_chemical_formula_structural   Sr4CaEr5Sn8
_chemical_formula_sum   'Sr8 Ca2 Er10 Sn16'
_cell_volume   1106.18434458
_cell_formula_units_Z   2
loop_
 _symmetry_equiv_pos_site_id
 _symmetry_equiv_pos_as_xyz
  1  'x, y, z'
loop_
 _atom_site_type_symbol
 _atom_site_label
 _atom_site_symmetry_multiplicity
 _atom_site_fract_x
 _atom_site_fract_y
 _atom_site_fract_z
 _atom_site_occupancy
  Sr  Sr0  1  0.501793  0.679079  0.593484  1
  Sr  Sr1  1  0.001793  0.820921  0.906516  1
  Sr  Sr2  1  0.495606  0.316890  0.091493  1
  Sr  Sr3  1  0.995606  0.183110  0.408507  1
  Sr  Sr4  1  0.495606  0.316890  0.408507  1
  Sr  Sr5  1  0.995606  0.183110  0.091493  1
  Sr  Sr6  1  0.501793  0.679079  0.906516  1
  Sr  Sr7  1  0.001793  0.820921  0.593484  1
  Ca  Ca8  1  0.163231  0.492541  0.250000  1
  Ca  Ca9  1  0.663231  0.007459  0.250000  1
  Er  Er10  1  0.675413  0.162876  0.625071  1
  Er  Er11  1  0.175413  0.337124  0.874929  1
  Er  Er12  1  0.326717  0.833966  0.122132  1
  Er  Er13  1  0.826717  0.666034  0.377868  1
  Er  Er14  1  0.326717  0.833966  0.377868  1
  Er  Er15  1  0.826717  0.666034  0.122132  1
  Er  Er16  1  0.675413  0.162876  0.874929  1
  Er  Er17  1  0.175413  0.337124  0.625071  1
  Er  Er18  1  0.839760  0.505118  0.750000  1
  Er  Er19  1  0.339760  0.994882  0.750000  1
  Sn  Sn20  1  0.665457  0.959278  0.460017  1
  Sn  Sn21  1  0.165457  0.540722  0.039983  1
  Sn  Sn22  1  0.334713  0.039022  0.955437  1
  Sn  Sn23  1  0.834713  0.460978  0.544563  1
  Sn  Sn24  1  0.334713  0.039022  0.544563  1
  Sn  Sn25  1  0.834713  0.460978  0.955437  1
  Sn  Sn26  1  0.665457  0.959278  0.039983  1
  Sn  Sn27  1  0.165457  0.540722  0.460017  1
  Sn  Sn28  1  0.477268  0.367340  0.750000  1
  Sn  Sn29  1  0.977268  0.132660  0.750000  1
  Sn  Sn30  1  0.528487  0.630740  0.250000  1
  Sn  Sn31  1  0.028487  0.869260  0.250000  1
  Sn  Sn32  1  0.709929  0.867272  0.750000  1
  Sn  Sn33  1  0.209929  0.632728  0.750000  1
  Sn  Sn34  1  0.281927  0.119434  0.250000  1
  Sn  Sn35  1  0.781927  0.380566  0.250000  1
