# generated using pymatgen
data_TbNpB6Ru
_symmetry_space_group_name_H-M   'P 1'
_cell_length_a   3.58995800
_cell_length_b   9.34437300
_cell_length_c   11.40518800
_cell_angle_alpha   90.00000000
_cell_angle_beta   90.00000000
_cell_angle_gamma   90.00000000
_symmetry_Int_Tables_number   1
_chemical_formula_structural   TbNpB6Ru
_chemical_formula_sum   'Tb4 Np4 B24 Ru4'
_cell_volume   382.59737148
_cell_formula_units_Z   4
loop_
 _symmetry_equiv_pos_site_id
 _symmetry_equiv_pos_as_xyz
  1  'x, y, z'
loop_
 _atom_site_type_symbol
 _atom_site_label
 _atom_site_symmetry_multiplicity
 _atom_site_fract_x
 _atom_site_fract_y
 _atom_site_fract_z
 _atom_site_occupancy
  Tb  Tb0  1  0.000000  0.338595  0.406294  1
  Tb  Tb1  1  0.000000  0.661405  0.593706  1
  Tb  Tb2  1  0.000000  0.838595  0.093706  1
  Tb  Tb3  1  0.000000  0.161405  0.906294  1
  Np  Np4  1  0.000000  0.959789  0.402192  1
  Np  Np5  1  0.000000  0.040211  0.597808  1
  Np  Np6  1  0.000000  0.459789  0.097808  1
  Np  Np7  1  0.000000  0.540211  0.902192  1
  B  B8  1  0.500000  0.553067  0.430812  1
  B  B9  1  0.500000  0.446933  0.569188  1
  B  B10  1  0.500000  0.053067  0.069188  1
  B  B11  1  0.500000  0.946933  0.930812  1
  B  B12  1  0.500000  0.743972  0.423143  1
  B  B13  1  0.500000  0.256028  0.576857  1
  B  B14  1  0.500000  0.243972  0.076857  1
  B  B15  1  0.500000  0.756028  0.923143  1
  B  B16  1  0.500000  0.805011  0.275309  1
  B  B17  1  0.500000  0.194989  0.724691  1
  B  B18  1  0.500000  0.305011  0.224691  1
  B  B19  1  0.500000  0.694989  0.775309  1
  B  B20  1  0.500000  0.645425  0.188787  1
  B  B21  1  0.500000  0.354575  0.811213  1
  B  B22  1  0.500000  0.145425  0.311213  1
  B  B23  1  0.500000  0.854575  0.688787  1
  B  B24  1  0.500000  0.989976  0.220854  1
  B  B25  1  0.500000  0.010024  0.779146  1
  B  B26  1  0.500000  0.489976  0.279146  1
  B  B27  1  0.500000  0.510024  0.720854  1
  B  B28  1  0.500000  0.643582  0.039994  1
  B  B29  1  0.500000  0.356418  0.960006  1
  B  B30  1  0.500000  0.143582  0.460006  1
  B  B31  1  0.500000  0.856418  0.539994  1
  Ru  Ru32  1  0.000000  0.646470  0.319704  1
  Ru  Ru33  1  0.000000  0.353530  0.680296  1
  Ru  Ru34  1  0.000000  0.146470  0.180296  1
  Ru  Ru35  1  0.000000  0.853530  0.819704  1
