# generated using pymatgen
data_Lu3Th(Al8Pt3)3
_symmetry_space_group_name_H-M   'P 1'
_cell_length_a   7.53494355
_cell_length_b   7.55357772
_cell_length_c   13.12710851
_cell_angle_alpha   84.53857043
_cell_angle_beta   78.98202173
_cell_angle_gamma   59.93160795
_symmetry_Int_Tables_number   1
_chemical_formula_structural   Lu3Th(Al8Pt3)3
_chemical_formula_sum   'Lu3 Th1 Al24 Pt9'
_cell_volume   634.67685919
_cell_formula_units_Z   1
loop_
 _symmetry_equiv_pos_site_id
 _symmetry_equiv_pos_as_xyz
  1  'x, y, z'
loop_
 _atom_site_type_symbol
 _atom_site_label
 _atom_site_symmetry_multiplicity
 _atom_site_fract_x
 _atom_site_fract_y
 _atom_site_fract_z
 _atom_site_occupancy
  Lu  Lu0  1  0.605312  0.831120  0.194725  1
  Lu  Lu1  1  0.733713  0.499382  0.806688  1
  Lu  Lu2  1  0.265786  0.501163  0.194735  1
  Th  Th3  1  0.393775  0.167761  0.807975  1
  Al  Al4  1  0.687242  0.829864  0.947655  1
  Al  Al5  1  0.316003  0.166159  0.060297  1
  Al  Al6  1  0.147091  0.832640  0.560019  1
  Al  Al7  1  0.854210  0.167623  0.437095  1
  Al  Al8  1  0.481084  0.166501  0.556361  1
  Al  Al9  1  0.520420  0.832426  0.440286  1
  Al  Al10  1  0.218167  0.165483  0.327464  1
  Al  Al11  1  0.787498  0.830775  0.667403  1
  Al  Al12  1  0.438205  0.510339  0.668051  1
  Al  Al13  1  0.563348  0.493570  0.327282  1
  Al  Al14  1  0.106644  0.160039  0.666237  1
  Al  Al15  1  0.890794  0.839971  0.328614  1
  Al  Al16  1  0.352154  0.503081  0.947469  1
  Al  Al17  1  0.644841  0.502557  0.057502  1
  Al  Al18  1  0.010937  0.167707  0.956571  1
  Al  Al19  1  0.983203  0.830534  0.050968  1
  Al  Al20  1  0.185909  0.500004  0.440471  1
  Al  Al21  1  0.813599  0.500516  0.557929  1
  Al  Al22  1  0.733249  0.164226  0.183174  1
  Al  Al23  1  0.265806  0.831097  0.816789  1
  Al  Al24  1  0.056936  0.635406  0.815657  1
  Al  Al25  1  0.937798  0.370229  0.184565  1
  Al  Al26  1  0.859756  0.042135  0.816526  1
  Al  Al27  1  0.145115  0.957093  0.183995  1
  Pt  Pt28  1  0.120511  0.490683  0.638974  1
  Pt  Pt29  1  0.880363  0.509413  0.359892  1
  Pt  Pt30  1  0.656128  0.171927  0.000229  1
  Pt  Pt31  1  0.343262  0.829296  0.000392  1
  Pt  Pt32  1  0.536692  0.166869  0.359978  1
  Pt  Pt33  1  0.463065  0.833516  0.638805  1
  Pt  Pt34  1  0.777933  0.175802  0.637309  1
  Pt  Pt35  1  0.222414  0.823962  0.361544  1
  Pt  Pt36  1  0.001038  0.499132  0.000373  1
