# generated using pymatgen
data_Tb5CeTcTe2
_symmetry_space_group_name_H-M   'P 1'
_cell_length_a   8.44844104
_cell_length_b   8.42587492
_cell_length_c   3.96092300
_cell_angle_alpha   90.00000000
_cell_angle_beta   90.00000000
_cell_angle_gamma   119.91168352
_symmetry_Int_Tables_number   1
_chemical_formula_structural   Tb5CeTcTe2
_chemical_formula_sum   'Tb5 Ce1 Tc1 Te2'
_cell_volume   244.40181314
_cell_formula_units_Z   1
loop_
 _symmetry_equiv_pos_site_id
 _symmetry_equiv_pos_as_xyz
  1  'x, y, z'
loop_
 _atom_site_type_symbol
 _atom_site_label
 _atom_site_symmetry_multiplicity
 _atom_site_fract_x
 _atom_site_fract_y
 _atom_site_fract_z
 _atom_site_occupancy
  Tb  Tb0  1  0.000000  0.418712  0.500000  1
  Tb  Tb1  1  0.604575  0.602225  0.500000  1
  Tb  Tb2  1  0.395425  0.997650  0.500000  1
  Tb  Tb3  1  0.237716  0.245246  0.000000  1
  Tb  Tb4  1  0.762284  0.007531  0.000000  1
  Ce  Ce5  1  0.000000  0.767983  0.000000  1
  Tc  Tc6  1  0.000000  0.962366  0.500000  1
  Te  Te7  1  0.340915  0.669602  0.000000  1
  Te  Te8  1  0.659085  0.328685  0.000000  1
