# generated using pymatgen
data_Dy15Ho(InIr)4
_symmetry_space_group_name_H-M   'P 1'
_cell_length_a   9.67626703
_cell_length_b   9.67747977
_cell_length_c   9.67626706
_cell_angle_alpha   59.99585249
_cell_angle_beta   60.00693935
_cell_angle_gamma   59.99585153
_symmetry_Int_Tables_number   1
_chemical_formula_structural   Dy15Ho(InIr)4
_chemical_formula_sum   'Dy15 Ho1 In4 Ir4'
_cell_volume   640.70557367
_cell_formula_units_Z   1
loop_
 _symmetry_equiv_pos_site_id
 _symmetry_equiv_pos_as_xyz
  1  'x, y, z'
loop_
 _atom_site_type_symbol
 _atom_site_label
 _atom_site_symmetry_multiplicity
 _atom_site_fract_x
 _atom_site_fract_y
 _atom_site_fract_z
 _atom_site_occupancy
  Dy  Dy0  1  0.439516  0.439965  0.060260  1
  Dy  Dy1  1  0.650195  0.651145  0.047517  1
  Dy  Dy2  1  0.190938  0.809062  0.190938  1
  Dy  Dy3  1  0.060118  0.439882  0.060118  1
  Dy  Dy4  1  0.191334  0.808846  0.809358  1
  Dy  Dy5  1  0.060260  0.439965  0.439516  1
  Dy  Dy6  1  0.809358  0.190462  0.191334  1
  Dy  Dy7  1  0.650824  0.651864  0.650824  1
  Dy  Dy8  1  0.809240  0.190760  0.809240  1
  Dy  Dy9  1  0.191334  0.190462  0.809358  1
  Dy  Dy10  1  0.047517  0.651145  0.650195  1
  Dy  Dy11  1  0.439516  0.060258  0.060260  1
  Dy  Dy12  1  0.060260  0.060258  0.439516  1
  Dy  Dy13  1  0.650824  0.046489  0.650824  1
  Dy  Dy14  1  0.809358  0.808846  0.191334  1
  Ho  Ho15  1  0.439760  0.060240  0.439760  1
  In  In16  1  0.416991  0.416792  0.416991  1
  In  In17  1  0.417068  0.417050  0.748832  1
  In  In18  1  0.416991  0.749226  0.416991  1
  In  In19  1  0.748832  0.417050  0.417068  1
  Ir  Ir20  1  0.424069  0.858753  0.858424  1
  Ir  Ir21  1  0.858637  0.858770  0.858637  1
  Ir  Ir22  1  0.858637  0.423956  0.858637  1
  Ir  Ir23  1  0.858424  0.858753  0.424069  1
