# generated using pymatgen
data_Lu2AlNiOs
_symmetry_space_group_name_H-M   'P 1'
_cell_length_a   5.38106624
_cell_length_b   5.38106683
_cell_length_c   5.38106713
_cell_angle_alpha   135.24992559
_cell_angle_beta   117.95996924
_cell_angle_gamma   79.68620511
_symmetry_Int_Tables_number   1
_chemical_formula_structural   Lu2AlNiOs
_chemical_formula_sum   'Lu2 Al1 Ni1 Os1'
_cell_volume   93.87539913
_cell_formula_units_Z   1
loop_
 _symmetry_equiv_pos_site_id
 _symmetry_equiv_pos_as_xyz
  1  'x, y, z'
loop_
 _atom_site_type_symbol
 _atom_site_label
 _atom_site_symmetry_multiplicity
 _atom_site_fract_x
 _atom_site_fract_y
 _atom_site_fract_z
 _atom_site_occupancy
  Lu  Lu0  1  0.292728  0.798710  0.494018  1
  Lu  Lu1  1  0.695308  0.201290  0.494018  1
  Al  Al2  1  0.999553  0.000000  0.999553  1
  Ni  Ni3  1  0.737738  0.500000  0.237738  1
  Os  Os4  1  0.274673  0.500000  0.774673  1
