# generated using pymatgen
data_PmNdSi3Ag
_symmetry_space_group_name_H-M   'P 1'
_cell_length_a   5.93759881
_cell_length_b   5.93814185
_cell_length_c   5.93814356
_cell_angle_alpha   138.65312802
_cell_angle_beta   104.65506778
_cell_angle_gamma   89.78798450
_symmetry_Int_Tables_number   1
_chemical_formula_structural   PmNdSi3Ag
_chemical_formula_sum   'Pm1 Nd1 Si3 Ag1'
_cell_volume   128.00588015
_cell_formula_units_Z   1
loop_
 _symmetry_equiv_pos_site_id
 _symmetry_equiv_pos_as_xyz
  1  'x, y, z'
loop_
 _atom_site_type_symbol
 _atom_site_label
 _atom_site_symmetry_multiplicity
 _atom_site_fract_x
 _atom_site_fract_y
 _atom_site_fract_z
 _atom_site_occupancy
  Pm  Pm0  1  0.003803  0.003779  0.000024  1
  Nd  Nd1  1  0.496273  0.496401  0.999871  1
  Si  Si2  1  0.083544  0.749466  0.334077  1
  Si  Si3  1  0.922203  0.250395  0.671807  1
  Si  Si4  1  0.408412  0.749272  0.659139  1
  Ag  Ag5  1  0.585763  0.250684  0.335080  1
