# generated using pymatgen
data_Lu12Fe2Ag2Ru
_symmetry_space_group_name_H-M   'P 1'
_cell_length_a   8.11391571
_cell_length_b   8.11391540
_cell_length_c   8.11391503
_cell_angle_alpha   108.36176702
_cell_angle_beta   108.36177681
_cell_angle_gamma   111.71366458
_symmetry_Int_Tables_number   1
_chemical_formula_structural   Lu12Fe2Ag2Ru
_chemical_formula_sum   'Lu12 Fe2 Ag2 Ru1'
_cell_volume   410.74105772
_cell_formula_units_Z   1
loop_
 _symmetry_equiv_pos_site_id
 _symmetry_equiv_pos_as_xyz
  1  'x, y, z'
loop_
 _atom_site_type_symbol
 _atom_site_label
 _atom_site_symmetry_multiplicity
 _atom_site_fract_x
 _atom_site_fract_y
 _atom_site_fract_z
 _atom_site_occupancy
  Lu  Lu0  1  0.310971  0.310971  0.621943  1
  Lu  Lu1  1  0.689029  0.689029  0.378057  1
  Lu  Lu2  1  0.689029  0.310971  0.000000  1
  Lu  Lu3  1  0.310971  0.689029  0.000000  1
  Lu  Lu4  1  0.190568  0.432907  0.242339  1
  Lu  Lu5  1  0.809432  0.567093  0.757661  1
  Lu  Lu6  1  0.190568  0.948228  0.757661  1
  Lu  Lu7  1  0.948228  0.190568  0.757661  1
  Lu  Lu8  1  0.809432  0.051772  0.242339  1
  Lu  Lu9  1  0.051772  0.809432  0.242339  1
  Lu  Lu10  1  0.432907  0.190568  0.242339  1
  Lu  Lu11  1  0.567093  0.809432  0.757661  1
  Fe  Fe12  1  0.378082  0.378082  0.000000  1
  Fe  Fe13  1  0.621918  0.621918  0.000000  1
  Ag  Ag14  1  0.000000  0.500000  0.500000  1
  Ag  Ag15  1  0.500000  0.000000  0.500000  1
  Ru  Ru16  1  0.000000  0.000000  0.000000  1
