# generated using pymatgen
data_LiNd16Al3Ir4
_symmetry_space_group_name_H-M   'P 1'
_cell_length_a   9.91337862
_cell_length_b   9.91337810
_cell_length_c   9.91337903
_cell_angle_alpha   59.85709215
_cell_angle_beta   59.85709427
_cell_angle_gamma   59.85709969
_symmetry_Int_Tables_number   1
_chemical_formula_structural   LiNd16Al3Ir4
_chemical_formula_sum   'Li1 Nd16 Al3 Ir4'
_cell_volume   686.65630621
_cell_formula_units_Z   1
loop_
 _symmetry_equiv_pos_site_id
 _symmetry_equiv_pos_as_xyz
  1  'x, y, z'
loop_
 _atom_site_type_symbol
 _atom_site_label
 _atom_site_symmetry_multiplicity
 _atom_site_fract_x
 _atom_site_fract_y
 _atom_site_fract_z
 _atom_site_occupancy
  Li  Li0  1  0.568594  0.568594  0.568594  1
  Nd  Nd1  1  0.349669  0.349669  0.349669  1
  Nd  Nd2  1  0.350732  0.350732  0.949301  1
  Nd  Nd3  1  0.350732  0.949301  0.350732  1
  Nd  Nd4  1  0.949301  0.350732  0.350732  1
  Nd  Nd5  1  0.806641  0.193491  0.193491  1
  Nd  Nd6  1  0.189169  0.809719  0.809719  1
  Nd  Nd7  1  0.193491  0.806641  0.193491  1
  Nd  Nd8  1  0.809719  0.189169  0.809719  1
  Nd  Nd9  1  0.193491  0.193491  0.806641  1
  Nd  Nd10  1  0.809719  0.809719  0.189169  1
  Nd  Nd11  1  0.948207  0.561801  0.561801  1
  Nd  Nd12  1  0.557707  0.942318  0.942318  1
  Nd  Nd13  1  0.561801  0.948207  0.561801  1
  Nd  Nd14  1  0.942318  0.557707  0.942318  1
  Nd  Nd15  1  0.561801  0.561801  0.948207  1
  Nd  Nd16  1  0.942318  0.942318  0.557707  1
  Al  Al17  1  0.572327  0.572327  0.268446  1
  Al  Al18  1  0.572327  0.268446  0.572327  1
  Al  Al19  1  0.268446  0.572327  0.572327  1
  Ir  Ir20  1  0.142620  0.142620  0.142620  1
  Ir  Ir21  1  0.142088  0.142088  0.574695  1
  Ir  Ir22  1  0.142088  0.574695  0.142088  1
  Ir  Ir23  1  0.574695  0.142088  0.142088  1
