# generated using pymatgen
data_Li4SmUSe6
_symmetry_space_group_name_H-M   'P 1'
_cell_length_a   7.00877138
_cell_length_b   7.00877124
_cell_length_c   6.81240900
_cell_angle_alpha   100.18369186
_cell_angle_beta   100.18369165
_cell_angle_gamma   119.80930702
_symmetry_Int_Tables_number   1
_chemical_formula_structural   Li4SmUSe6
_chemical_formula_sum   'Li4 Sm1 U1 Se6'
_cell_volume   271.71813993
_cell_formula_units_Z   1
loop_
 _symmetry_equiv_pos_site_id
 _symmetry_equiv_pos_as_xyz
  1  'x, y, z'
loop_
 _atom_site_type_symbol
 _atom_site_label
 _atom_site_symmetry_multiplicity
 _atom_site_fract_x
 _atom_site_fract_y
 _atom_site_fract_z
 _atom_site_occupancy
  Li  Li0  1  0.499633  0.500368  0.000000  1
  Li  Li1  1  0.007243  0.992757  0.499998  1
  Li  Li2  1  0.666852  0.333148  0.500000  1
  Li  Li3  1  0.328584  0.671416  0.500000  1
  Sm  Sm4  1  0.833551  0.166450  0.000000  1
  U  U5  1  0.166609  0.833392  0.000000  1
  Se  Se6  1  0.927114  0.598869  0.247753  1
  Se  Se7  1  0.571177  0.915841  0.253656  1
  Se  Se8  1  0.254380  0.240432  0.256392  1
  Se  Se9  1  0.759568  0.745620  0.743608  1
  Se  Se10  1  0.084159  0.428824  0.746344  1
  Se  Se11  1  0.401131  0.072887  0.752247  1
