# generated using pymatgen
data_Dy4HfRe3F28
_symmetry_space_group_name_H-M   'P 1'
_cell_length_a   5.68195701
_cell_length_b   9.01920821
_cell_length_c   12.12873100
_cell_angle_alpha   62.43525129
_cell_angle_beta   90.00265204
_cell_angle_gamma   90.03668132
_symmetry_Int_Tables_number   1
_chemical_formula_structural   Dy4HfRe3F28
_chemical_formula_sum   'Dy4 Hf1 Re3 F28'
_cell_volume   551.00393151
_cell_formula_units_Z   1
loop_
 _symmetry_equiv_pos_site_id
 _symmetry_equiv_pos_as_xyz
  1  'x, y, z'
loop_
 _atom_site_type_symbol
 _atom_site_label
 _atom_site_symmetry_multiplicity
 _atom_site_fract_x
 _atom_site_fract_y
 _atom_site_fract_z
 _atom_site_occupancy
  Dy  Dy0  1  0.256894  0.813976  0.267248  1
  Dy  Dy1  1  0.742347  0.185879  0.734821  1
  Dy  Dy2  1  0.758494  0.184344  0.236061  1
  Dy  Dy3  1  0.241904  0.814545  0.763665  1
  Hf  Hf4  1  0.754841  0.725422  0.043821  1
  Re  Re5  1  0.243593  0.273180  0.956252  1
  Re  Re6  1  0.256981  0.273561  0.456340  1
  Re  Re7  1  0.742962  0.726032  0.544177  1
  F  F8  1  0.950586  0.707540  0.419914  1
  F  F9  1  0.046811  0.291766  0.579815  1
  F  F10  1  0.453617  0.292301  0.079718  1
  F  F11  1  0.534952  0.710359  0.920373  1
  F  F12  1  0.483421  0.732851  0.147308  1
  F  F13  1  0.519087  0.268901  0.857213  1
  F  F14  1  0.980680  0.267900  0.358115  1
  F  F15  1  0.021113  0.731826  0.640961  1
  F  F16  1  0.965435  0.748325  0.169718  1
  F  F17  1  0.040028  0.253928  0.829573  1
  F  F18  1  0.461989  0.256025  0.329248  1
  F  F19  1  0.541383  0.744932  0.671515  1
  F  F20  1  0.770203  0.475382  0.141333  1
  F  F21  1  0.232073  0.520273  0.856781  1
  F  F22  1  0.263887  0.520874  0.358324  1
  F  F23  1  0.734778  0.478826  0.642651  1
  F  F24  1  0.956823  0.279645  0.048896  1
  F  F25  1  0.044404  0.719175  0.949086  1
  F  F26  1  0.454326  0.717217  0.453867  1
  F  F27  1  0.543680  0.283074  0.547580  1
  F  F28  1  0.740480  0.972938  0.446778  1
  F  F29  1  0.260112  0.026659  0.552835  1
  F  F30  1  0.243301  0.026461  0.054828  1
  F  F31  1  0.759278  0.975030  0.941708  1
  F  F32  1  0.575326  0.972445  0.234493  1
  F  F33  1  0.424312  0.027834  0.765065  1
  F  F34  1  0.076093  0.027240  0.268328  1
  F  F35  1  0.923807  0.973332  0.731590  1
