# generated using pymatgen
data_Tb9Er(GePb3)2
_symmetry_space_group_name_H-M   'P 1'
_cell_length_a   9.39090900
_cell_length_b   9.39090909
_cell_length_c   6.58024300
_cell_angle_alpha   90.00000000
_cell_angle_beta   90.00000000
_cell_angle_gamma   120.00001024
_symmetry_Int_Tables_number   1
_chemical_formula_structural   Tb9Er(GePb3)2
_chemical_formula_sum   'Tb9 Er1 Ge2 Pb6'
_cell_volume   502.55984760
_cell_formula_units_Z   1
loop_
 _symmetry_equiv_pos_site_id
 _symmetry_equiv_pos_as_xyz
  1  'x, y, z'
loop_
 _atom_site_type_symbol
 _atom_site_label
 _atom_site_symmetry_multiplicity
 _atom_site_fract_x
 _atom_site_fract_y
 _atom_site_fract_z
 _atom_site_occupancy
  Tb  Tb0  1  0.251580  0.999862  0.249835  1
  Tb  Tb1  1  0.748282  0.999862  0.750165  1
  Tb  Tb2  1  0.000138  0.251718  0.249835  1
  Tb  Tb3  1  0.000138  0.748420  0.750165  1
  Tb  Tb4  1  0.748282  0.748420  0.249835  1
  Tb  Tb5  1  0.251580  0.251718  0.750165  1
  Tb  Tb6  1  0.333333  0.666667  0.000000  1
  Tb  Tb7  1  0.666667  0.333333  0.000000  1
  Tb  Tb8  1  0.666667  0.333333  0.500000  1
  Er  Er9  1  0.333333  0.666667  0.500000  1
  Ge  Ge10  1  0.000000  0.000000  0.000000  1
  Ge  Ge11  1  0.000000  0.000000  0.500000  1
  Pb  Pb12  1  0.607498  0.999574  0.250141  1
  Pb  Pb13  1  0.392076  0.999574  0.749859  1
  Pb  Pb14  1  0.000426  0.607924  0.250141  1
  Pb  Pb15  1  0.000426  0.392502  0.749859  1
  Pb  Pb16  1  0.392076  0.392502  0.250141  1
  Pb  Pb17  1  0.607498  0.607924  0.749859  1
