# generated using pymatgen
data_Ba4NaFe2O9
_symmetry_space_group_name_H-M   'P 1'
_cell_length_a   10.27123800
_cell_length_b   10.27124680
_cell_length_c   8.49342500
_cell_angle_alpha   90.00000000
_cell_angle_beta   89.99957047
_cell_angle_gamma   120.00002963
_symmetry_Int_Tables_number   1
_chemical_formula_structural   Ba4NaFe2O9
_chemical_formula_sum   'Ba12 Na3 Fe6 O27'
_cell_volume   775.99570118
_cell_formula_units_Z   3
loop_
 _symmetry_equiv_pos_site_id
 _symmetry_equiv_pos_as_xyz
  1  'x, y, z'
loop_
 _atom_site_type_symbol
 _atom_site_label
 _atom_site_symmetry_multiplicity
 _atom_site_fract_x
 _atom_site_fract_y
 _atom_site_fract_z
 _atom_site_occupancy
  Ba  Ba0  1  0.321579  0.998897  0.002044  1
  Ba  Ba1  1  0.998366  0.324180  0.003039  1
  Ba  Ba2  1  0.674932  0.673720  0.998723  1
  Ba  Ba3  1  0.026933  0.688791  0.244288  1
  Ba  Ba4  1  0.662418  0.978335  0.241478  1
  Ba  Ba5  1  0.314125  0.339346  0.248500  1
  Ba  Ba6  1  0.354454  0.999522  0.500157  1
  Ba  Ba7  1  0.647278  0.643753  0.499570  1
  Ba  Ba8  1  0.002021  0.354874  0.500003  1
  Ba  Ba9  1  0.336975  0.312923  0.757743  1
  Ba  Ba10  1  0.681793  0.023846  0.755419  1
  Ba  Ba11  1  0.975734  0.659933  0.753293  1
  Na  Na12  1  0.671733  0.336961  0.252133  1
  Na  Na13  1  0.002755  0.004096  0.501261  1
  Na  Na14  1  0.331928  0.660394  0.747583  1
  Fe  Fe15  1  0.335755  0.669891  0.085290  1
  Fe  Fe16  1  0.001039  0.002738  0.166328  1
  Fe  Fe17  1  0.335512  0.664754  0.412798  1
  Fe  Fe18  1  0.669752  0.335393  0.586295  1
  Fe  Fe19  1  0.994383  0.996041  0.841050  1
  Fe  Fe20  1  0.661987  0.330264  0.914526  1
  O  O21  1  0.850139  0.997735  0.989236  1
  O  O22  1  0.138011  0.139263  0.003507  1
  O  O23  1  0.994678  0.851115  0.988808  1
  O  O24  1  0.816104  0.488833  0.027425  1
  O  O25  1  0.511413  0.327202  0.037145  1
  O  O26  1  0.677276  0.186414  0.032612  1
  O  O27  1  0.348316  0.826141  0.229798  1
  O  O28  1  0.478792  0.659329  0.244024  1
  O  O29  1  0.187139  0.531118  0.249342  1
  O  O30  1  0.991689  0.165788  0.279285  1
  O  O31  1  0.166840  0.007186  0.283718  1
  O  O32  1  0.848112  0.845159  0.280269  1
  O  O33  1  0.508212  0.322311  0.472151  1
  O  O34  1  0.675194  0.178603  0.470325  1
  O  O35  1  0.827099  0.508938  0.466411  1
  O  O36  1  0.186187  0.681874  0.528756  1
  O  O37  1  0.322743  0.491536  0.532278  1
  O  O38  1  0.495105  0.815387  0.528090  1
  O  O39  1  0.150828  0.995941  0.722847  1
  O  O40  1  0.003473  0.158551  0.725109  1
  O  O41  1  0.839680  0.845754  0.717557  1
  O  O42  1  0.653620  0.473550  0.757695  1
  O  O43  1  0.812722  0.340514  0.749949  1
  O  O44  1  0.516688  0.174782  0.769453  1
  O  O45  1  0.490829  0.810336  0.962302  1
  O  O46  1  0.323061  0.506838  0.973586  1
  O  O47  1  0.184596  0.671151  0.966800  1
