# generated using pymatgen
data_CsTe7W6
_symmetry_space_group_name_H-M   'P 1'
_cell_length_a   10.46721810
_cell_length_b   10.46721707
_cell_length_c   10.46721768
_cell_angle_alpha   60.41419672
_cell_angle_beta   60.41419737
_cell_angle_gamma   60.41420227
_symmetry_Int_Tables_number   1
_chemical_formula_structural   CsTe7W6
_chemical_formula_sum   'Cs2 Te14 W12'
_cell_volume   818.51655580
_cell_formula_units_Z   2
loop_
 _symmetry_equiv_pos_site_id
 _symmetry_equiv_pos_as_xyz
  1  'x, y, z'
loop_
 _atom_site_type_symbol
 _atom_site_label
 _atom_site_symmetry_multiplicity
 _atom_site_fract_x
 _atom_site_fract_y
 _atom_site_fract_z
 _atom_site_occupancy
  Cs  Cs0  1  0.619983  0.619983  0.619983  1
  Cs  Cs1  1  0.380018  0.380018  0.380018  1
  Te  Te2  1  0.426700  0.800815  0.164984  1
  Te  Te3  1  0.164984  0.426700  0.800815  1
  Te  Te4  1  0.800815  0.164984  0.426700  1
  Te  Te5  1  0.573300  0.199185  0.835016  1
  Te  Te6  1  0.835016  0.573300  0.199185  1
  Te  Te7  1  0.199185  0.835016  0.573300  1
  Te  Te8  1  0.628308  0.981219  0.248853  1
  Te  Te9  1  0.248853  0.628308  0.981219  1
  Te  Te10  1  0.981219  0.248853  0.628308  1
  Te  Te11  1  0.371692  0.018781  0.751147  1
  Te  Te12  1  0.751147  0.371692  0.018781  1
  Te  Te13  1  0.018781  0.751147  0.371692  1
  Te  Te14  1  0.774361  0.774361  0.774361  1
  Te  Te15  1  0.225639  0.225639  0.225639  1
  W  W16  1  0.711447  0.881526  0.999891  1
  W  W17  1  0.999891  0.711447  0.881526  1
  W  W18  1  0.881526  0.999891  0.711447  1
  W  W19  1  0.288553  0.118474  0.000109  1
  W  W20  1  0.000109  0.288553  0.118474  1
  W  W21  1  0.118474  0.000109  0.288553  1
  W  W22  1  0.943989  0.813900  0.108999  1
  W  W23  1  0.108999  0.943989  0.813900  1
  W  W24  1  0.813900  0.108999  0.943989  1
  W  W25  1  0.056011  0.186100  0.891001  1
  W  W26  1  0.891001  0.056011  0.186100  1
  W  W27  1  0.186100  0.891001  0.056011  1
