# generated using pymatgen
data_Ba4FeCo(IrO6)2
_symmetry_space_group_name_H-M   'P 1'
_cell_length_a   5.80163465
_cell_length_b   5.80163556
_cell_length_c   10.18370000
_cell_angle_alpha   89.69852716
_cell_angle_beta   106.85997580
_cell_angle_gamma   120.00895022
_symmetry_Int_Tables_number   1
_chemical_formula_structural   Ba4FeCo(IrO6)2
_chemical_formula_sum   'Ba4 Fe1 Co1 Ir2 O12'
_cell_volume   279.99400493
_cell_formula_units_Z   1
loop_
 _symmetry_equiv_pos_site_id
 _symmetry_equiv_pos_as_xyz
  1  'x, y, z'
loop_
 _atom_site_type_symbol
 _atom_site_label
 _atom_site_symmetry_multiplicity
 _atom_site_fract_x
 _atom_site_fract_y
 _atom_site_fract_z
 _atom_site_occupancy
  Ba  Ba0  1  0.425099  0.710778  0.135875  1
  Ba  Ba1  1  0.258693  0.128084  0.386777  1
  Ba  Ba2  1  0.741308  0.871918  0.613224  1
  Ba  Ba3  1  0.574902  0.289223  0.864125  1
  Fe  Fe4  1  0.000000  0.000000  0.000000  1
  Co  Co5  1  0.000000  0.500000  0.499999  1
  Ir  Ir6  1  0.823261  0.408967  0.232226  1
  Ir  Ir7  1  0.176741  0.591034  0.767775  1
  O  O8  1  0.417153  0.204807  0.118648  1
  O  O9  1  0.913840  0.701493  0.118648  1
  O  O10  1  0.917007  0.205645  0.122648  1
  O  O11  1  0.764088  0.605200  0.369287  1
  O  O12  1  0.766207  0.157104  0.372326  1
  O  O13  1  0.215223  0.606120  0.372326  1
  O  O14  1  0.233794  0.842897  0.627674  1
  O  O15  1  0.784779  0.393882  0.627675  1
  O  O16  1  0.235913  0.394801  0.630713  1
  O  O17  1  0.082994  0.794357  0.877352  1
  O  O18  1  0.086162  0.298509  0.881352  1
  O  O19  1  0.582845  0.795191  0.881352  1
