# generated using pymatgen
data_YHo(BIr)8
_symmetry_space_group_name_H-M   'P 1'
_cell_length_a   7.63547100
_cell_length_b   7.63547100
_cell_length_c   3.99778200
_cell_angle_alpha   90.00000000
_cell_angle_beta   90.00000000
_cell_angle_gamma   90.00000000
_symmetry_Int_Tables_number   1
_chemical_formula_structural   YHo(BIr)8
_chemical_formula_sum   'Y1 Ho1 B8 Ir8'
_cell_volume   233.07235924
_cell_formula_units_Z   1
loop_
 _symmetry_equiv_pos_site_id
 _symmetry_equiv_pos_as_xyz
  1  'x, y, z'
loop_
 _atom_site_type_symbol
 _atom_site_label
 _atom_site_symmetry_multiplicity
 _atom_site_fract_x
 _atom_site_fract_y
 _atom_site_fract_z
 _atom_site_occupancy
  Y  Y0  1  0.500000  0.500000  0.500000  1
  Ho  Ho1  1  0.000000  0.000000  0.000000  1
  B  B2  1  0.342011  0.778670  0.888555  1
  B  B3  1  0.657989  0.221330  0.888555  1
  B  B4  1  0.778670  0.657989  0.111445  1
  B  B5  1  0.221330  0.342011  0.111445  1
  B  B6  1  0.278355  0.157919  0.388442  1
  B  B7  1  0.721645  0.842081  0.388442  1
  B  B8  1  0.842081  0.278355  0.611558  1
  B  B9  1  0.157919  0.721645  0.611558  1
  Ir  Ir10  1  0.390377  0.159827  0.887228  1
  Ir  Ir11  1  0.609623  0.840173  0.887228  1
  Ir  Ir12  1  0.840173  0.390377  0.112772  1
  Ir  Ir13  1  0.159827  0.609623  0.112772  1
  Ir  Ir14  1  0.339679  0.890680  0.386908  1
  Ir  Ir15  1  0.660321  0.109320  0.386908  1
  Ir  Ir16  1  0.890680  0.660321  0.613092  1
  Ir  Ir17  1  0.109320  0.339679  0.613092  1
