# generated using pymatgen
data_Ba3(CdRh)4
_symmetry_space_group_name_H-M   'P 1'
_cell_length_a   7.26103774
_cell_length_b   7.26103947
_cell_length_c   7.26103900
_cell_angle_alpha   109.47121654
_cell_angle_beta   109.47122136
_cell_angle_gamma   109.47122297
_symmetry_Int_Tables_number   1
_chemical_formula_structural   Ba3(CdRh)4
_chemical_formula_sum   'Ba3 Cd4 Rh4'
_cell_volume   294.69609116
_cell_formula_units_Z   1
loop_
 _symmetry_equiv_pos_site_id
 _symmetry_equiv_pos_as_xyz
  1  'x, y, z'
loop_
 _atom_site_type_symbol
 _atom_site_label
 _atom_site_symmetry_multiplicity
 _atom_site_fract_x
 _atom_site_fract_y
 _atom_site_fract_z
 _atom_site_occupancy
  Ba  Ba0  1  0.500000  0.500000  0.000000  1
  Ba  Ba1  1  0.500000  0.000000  0.500000  1
  Ba  Ba2  1  0.000000  0.500000  0.500000  1
  Cd  Cd3  1  0.399559  0.000000  0.000000  1
  Cd  Cd4  1  0.000000  0.399559  0.000000  1
  Cd  Cd5  1  0.000000  0.000000  0.399559  1
  Cd  Cd6  1  0.600442  0.600442  0.600442  1
  Rh  Rh7  1  0.772010  0.000000  0.000000  1
  Rh  Rh8  1  0.000000  0.772010  0.000000  1
  Rh  Rh9  1  0.227991  0.227991  0.227991  1
  Rh  Rh10  1  0.000000  0.000000  0.772010  1
