# generated using pymatgen
data_Y6Ho10MgCo4Ag3
_symmetry_space_group_name_H-M   'P 1'
_cell_length_a   9.42897180
_cell_length_b   9.43554544
_cell_length_c   9.43554500
_cell_angle_alpha   60.00000506
_cell_angle_beta   59.97694004
_cell_angle_gamma   59.97693452
_symmetry_Int_Tables_number   1
_chemical_formula_structural   Y6Ho10MgCo4Ag3
_chemical_formula_sum   'Y6 Ho10 Mg1 Co4 Ag3'
_cell_volume   593.37859608
_cell_formula_units_Z   1
loop_
 _symmetry_equiv_pos_site_id
 _symmetry_equiv_pos_as_xyz
  1  'x, y, z'
loop_
 _atom_site_type_symbol
 _atom_site_label
 _atom_site_symmetry_multiplicity
 _atom_site_fract_x
 _atom_site_fract_y
 _atom_site_fract_z
 _atom_site_occupancy
  Y  Y0  1  0.935559  0.562744  0.562744  1
  Y  Y1  1  0.561778  0.937162  0.937162  1
  Y  Y2  1  0.561778  0.937162  0.563897  1
  Y  Y3  1  0.935559  0.562744  0.938953  1
  Y  Y4  1  0.561778  0.563897  0.937162  1
  Y  Y5  1  0.935559  0.938953  0.562744  1
  Ho  Ho6  1  0.346900  0.346347  0.346347  1
  Ho  Ho7  1  0.346900  0.346347  0.960406  1
  Ho  Ho8  1  0.346900  0.960406  0.346347  1
  Ho  Ho9  1  0.949668  0.350111  0.350111  1
  Ho  Ho10  1  0.810866  0.188114  0.188114  1
  Ho  Ho11  1  0.185879  0.813888  0.813888  1
  Ho  Ho12  1  0.185879  0.813888  0.186345  1
  Ho  Ho13  1  0.810866  0.188114  0.812906  1
  Ho  Ho14  1  0.185879  0.186345  0.813888  1
  Ho  Ho15  1  0.810866  0.812906  0.188114  1
  Mg  Mg16  1  0.286884  0.571038  0.571038  1
  Co  Co17  1  0.139252  0.142265  0.142265  1
  Co  Co18  1  0.139252  0.142265  0.576218  1
  Co  Co19  1  0.139252  0.576218  0.142265  1
  Co  Co20  1  0.575284  0.141572  0.141572  1
  Ag  Ag21  1  0.582487  0.582413  0.582413  1
  Ag  Ag22  1  0.582487  0.582413  0.252688  1
  Ag  Ag23  1  0.582487  0.252688  0.582413  1
