# generated using pymatgen
data_Ca3DyCoSi12Ni19
_symmetry_space_group_name_H-M   'P 1'
_cell_length_a   3.77252800
_cell_length_b   6.67361448
_cell_length_c   18.76368169
_cell_angle_alpha   89.90035513
_cell_angle_beta   90.00000000
_cell_angle_gamma   90.00000000
_symmetry_Int_Tables_number   1
_chemical_formula_structural   Ca3DyCoSi12Ni19
_chemical_formula_sum   'Ca3 Dy1 Co1 Si12 Ni19'
_cell_volume   472.40119385
_cell_formula_units_Z   1
loop_
 _symmetry_equiv_pos_site_id
 _symmetry_equiv_pos_as_xyz
  1  'x, y, z'
loop_
 _atom_site_type_symbol
 _atom_site_label
 _atom_site_symmetry_multiplicity
 _atom_site_fract_x
 _atom_site_fract_y
 _atom_site_fract_z
 _atom_site_occupancy
  Ca  Ca0  1  0.250000  0.876716  0.357684  1
  Ca  Ca1  1  0.750000  0.122857  0.642954  1
  Ca  Ca2  1  0.750000  0.376859  0.141796  1
  Dy  Dy3  1  0.250000  0.624235  0.856872  1
  Co  Co4  1  0.750000  0.936577  0.794330  1
  Si  Si5  1  0.250000  0.079109  0.085736  1
  Si  Si6  1  0.750000  0.919056  0.913573  1
  Si  Si7  1  0.750000  0.578518  0.414082  1
  Si  Si8  1  0.250000  0.421412  0.586709  1
  Si  Si9  1  0.250000  0.655927  0.073932  1
  Si  Si10  1  0.750000  0.344493  0.925461  1
  Si  Si11  1  0.750000  0.156954  0.425872  1
  Si  Si12  1  0.250000  0.843449  0.574312  1
  Si  Si13  1  0.250000  0.376152  0.261272  1
  Si  Si14  1  0.750000  0.627224  0.739365  1
  Si  Si15  1  0.750000  0.876652  0.238079  1
  Si  Si16  1  0.250000  0.120097  0.762252  1
  Ni  Ni17  1  0.250000  0.065849  0.206568  1
  Ni  Ni18  1  0.750000  0.565854  0.293049  1
  Ni  Ni19  1  0.250000  0.432756  0.707610  1
  Ni  Ni20  1  0.250000  0.614231  0.485001  1
  Ni  Ni21  1  0.750000  0.385630  0.515602  1
  Ni  Ni22  1  0.750000  0.114333  0.014575  1
  Ni  Ni23  1  0.250000  0.884866  0.984869  1
  Ni  Ni24  1  0.250000  0.685401  0.199714  1
  Ni  Ni25  1  0.750000  0.316594  0.800609  1
  Ni  Ni26  1  0.750000  0.185687  0.300311  1
  Ni  Ni27  1  0.250000  0.813108  0.700326  1
  Ni  Ni28  1  0.250000  0.359291  0.383676  1
  Ni  Ni29  1  0.750000  0.642872  0.616691  1
  Ni  Ni30  1  0.750000  0.857567  0.115628  1
  Ni  Ni31  1  0.250000  0.138827  0.883619  1
  Ni  Ni32  1  0.250000  0.365759  0.003628  1
  Ni  Ni33  1  0.750000  0.634784  0.994433  1
  Ni  Ni34  1  0.750000  0.866066  0.495715  1
  Ni  Ni35  1  0.250000  0.134235  0.504094  1
