# generated using pymatgen
data_LiTm4Co10(P4Rh3)3
_symmetry_space_group_name_H-M   'P 1'
_cell_length_a   3.73208200
_cell_length_b   10.52047803
_cell_length_c   12.16851104
_cell_angle_alpha   89.99136918
_cell_angle_beta   90.00000000
_cell_angle_gamma   90.00000000
_symmetry_Int_Tables_number   1
_chemical_formula_structural   LiTm4Co10(P4Rh3)3
_chemical_formula_sum   'Li1 Tm4 Co10 P12 Rh9'
_cell_volume   477.77573188
_cell_formula_units_Z   1
loop_
 _symmetry_equiv_pos_site_id
 _symmetry_equiv_pos_as_xyz
  1  'x, y, z'
loop_
 _atom_site_type_symbol
 _atom_site_label
 _atom_site_symmetry_multiplicity
 _atom_site_fract_x
 _atom_site_fract_y
 _atom_site_fract_z
 _atom_site_occupancy
  Li  Li0  1  0.750000  0.292615  0.011662  1
  Tm  Tm1  1  0.250000  0.586012  0.711437  1
  Tm  Tm2  1  0.250000  0.917379  0.210796  1
  Tm  Tm3  1  0.750000  0.421310  0.290749  1
  Tm  Tm4  1  0.750000  0.079783  0.791121  1
  Co  Co5  1  0.750000  0.775496  0.821823  1
  Co  Co6  1  0.750000  0.722652  0.322176  1
  Co  Co7  1  0.250000  0.879402  0.698438  1
  Co  Co8  1  0.250000  0.622058  0.195814  1
  Co  Co9  1  0.750000  0.109996  0.304574  1
  Co  Co10  1  0.750000  0.383695  0.804217  1
  Co  Co11  1  0.250000  0.462790  0.933083  1
  Co  Co12  1  0.250000  0.035169  0.432357  1
  Co  Co13  1  0.750000  0.538772  0.065449  1
  Co  Co14  1  0.750000  0.961679  0.568492  1
  P  P15  1  0.250000  0.431747  0.112884  1
  P  P16  1  0.250000  0.068395  0.611293  1
  P  P17  1  0.750000  0.575873  0.886993  1
  P  P18  1  0.750000  0.920740  0.389313  1
  P  P19  1  0.250000  0.271728  0.866522  1
  P  P20  1  0.250000  0.226358  0.369630  1
  P  P21  1  0.750000  0.727261  0.139962  1
  P  P22  1  0.750000  0.773407  0.639318  1
  P  P23  1  0.250000  0.606907  0.377198  1
  P  P24  1  0.250000  0.894892  0.879920  1
  P  P25  1  0.750000  0.404298  0.617962  1
  P  P26  1  0.750000  0.097078  0.117778  1
  Rh  Rh27  1  0.250000  0.706161  0.981851  1
  Rh  Rh28  1  0.250000  0.788595  0.486391  1
  Rh  Rh29  1  0.750000  0.216752  0.506823  1
  Rh  Rh30  1  0.250000  0.412788  0.476507  1
  Rh  Rh31  1  0.250000  0.091190  0.978694  1
  Rh  Rh32  1  0.750000  0.597424  0.521236  1
  Rh  Rh33  1  0.750000  0.899828  0.020887  1
  Rh  Rh34  1  0.250000  0.223971  0.180235  1
  Rh  Rh35  1  0.250000  0.275799  0.676416  1
