# generated using pymatgen
data_Nb3I7
_symmetry_space_group_name_H-M   'P 1'
_cell_length_a   11.15944000
_cell_length_b   11.15943925
_cell_length_c   12.92492600
_cell_angle_alpha   90.00000000
_cell_angle_beta   90.00000000
_cell_angle_gamma   86.16553698
_symmetry_Int_Tables_number   1
_chemical_formula_structural   Nb3I7
_chemical_formula_sum   'Nb12 I28'
_cell_volume   1605.97783927
_cell_formula_units_Z   4
loop_
 _symmetry_equiv_pos_site_id
 _symmetry_equiv_pos_as_xyz
  1  'x, y, z'
loop_
 _atom_site_type_symbol
 _atom_site_label
 _atom_site_symmetry_multiplicity
 _atom_site_fract_x
 _atom_site_fract_y
 _atom_site_fract_z
 _atom_site_occupancy
  Nb  Nb0  1  0.093536  0.093536  0.933045  1
  Nb  Nb1  1  0.406464  0.406464  0.433045  1
  Nb  Nb2  1  0.593536  0.593536  0.566955  1
  Nb  Nb3  1  0.906464  0.906464  0.066955  1
  Nb  Nb4  1  0.942983  0.153355  0.107732  1
  Nb  Nb5  1  0.557017  0.346645  0.607732  1
  Nb  Nb6  1  0.653355  0.442983  0.392268  1
  Nb  Nb7  1  0.846645  0.057017  0.892268  1
  Nb  Nb8  1  0.057017  0.846645  0.892268  1
  Nb  Nb9  1  0.442983  0.653355  0.392268  1
  Nb  Nb10  1  0.346645  0.557017  0.607732  1
  Nb  Nb11  1  0.153355  0.942983  0.107732  1
  I  I12  1  0.874380  0.374380  0.250000  1
  I  I13  1  0.625620  0.125620  0.750000  1
  I  I14  1  0.125620  0.625620  0.750000  1
  I  I15  1  0.374380  0.874380  0.250000  1
  I  I16  1  0.082263  0.328996  0.019361  1
  I  I17  1  0.417737  0.171004  0.519361  1
  I  I18  1  0.828996  0.582263  0.480639  1
  I  I19  1  0.671004  0.917737  0.980639  1
  I  I20  1  0.917737  0.671004  0.980639  1
  I  I21  1  0.582263  0.828996  0.480639  1
  I  I22  1  0.171004  0.417737  0.519361  1
  I  I23  1  0.328996  0.082263  0.019361  1
  I  I24  1  0.256781  0.743219  0.000000  1
  I  I25  1  0.243219  0.756781  0.500000  1
  I  I26  1  0.743219  0.256781  0.000000  1
  I  I27  1  0.756781  0.243219  0.500000  1
  I  I28  1  0.118963  0.118963  0.263405  1
  I  I29  1  0.381037  0.381037  0.763405  1
  I  I30  1  0.618963  0.618963  0.236595  1
  I  I31  1  0.881037  0.881037  0.736595  1
  I  I32  1  0.530897  0.286768  0.266543  1
  I  I33  1  0.969103  0.213232  0.766543  1
  I  I34  1  0.786768  0.030897  0.233457  1
  I  I35  1  0.713232  0.469103  0.733457  1
  I  I36  1  0.469103  0.713232  0.733457  1
  I  I37  1  0.030897  0.786768  0.233457  1
  I  I38  1  0.213232  0.969103  0.766543  1
  I  I39  1  0.286768  0.530897  0.266543  1
