# generated using pymatgen
data_Tm2In(PRh2)6
_symmetry_space_group_name_H-M   'P 1'
_cell_length_a   9.75356600
_cell_length_b   9.75356692
_cell_length_c   3.86985400
_cell_angle_alpha   90.00000000
_cell_angle_beta   90.00000000
_cell_angle_gamma   119.99999687
_symmetry_Int_Tables_number   1
_chemical_formula_structural   Tm2In(PRh2)6
_chemical_formula_sum   'Tm2 In1 P6 Rh12'
_cell_volume   318.82481853
_cell_formula_units_Z   1
loop_
 _symmetry_equiv_pos_site_id
 _symmetry_equiv_pos_as_xyz
  1  'x, y, z'
loop_
 _atom_site_type_symbol
 _atom_site_label
 _atom_site_symmetry_multiplicity
 _atom_site_fract_x
 _atom_site_fract_y
 _atom_site_fract_z
 _atom_site_occupancy
  Tm  Tm0  1  0.333333  0.666667  0.244711  1
  Tm  Tm1  1  0.666667  0.333333  0.755289  1
  In  In2  1  0.000000  0.000000  0.500000  1
  P  P3  1  0.404820  0.117254  0.255185  1
  P  P4  1  0.712434  0.595180  0.255185  1
  P  P5  1  0.882746  0.287566  0.255185  1
  P  P6  1  0.595180  0.882746  0.744815  1
  P  P7  1  0.287566  0.404820  0.744815  1
  P  P8  1  0.117254  0.712434  0.744815  1
  Rh  Rh9  1  0.455323  0.386741  0.253133  1
  Rh  Rh10  1  0.931418  0.544677  0.253133  1
  Rh  Rh11  1  0.613259  0.068582  0.253133  1
  Rh  Rh12  1  0.544677  0.613259  0.746867  1
  Rh  Rh13  1  0.068582  0.455323  0.746867  1
  Rh  Rh14  1  0.386741  0.931418  0.746867  1
  Rh  Rh15  1  0.162803  0.870893  0.240384  1
  Rh  Rh16  1  0.708091  0.837197  0.240384  1
  Rh  Rh17  1  0.129107  0.291909  0.240384  1
  Rh  Rh18  1  0.837197  0.129107  0.759616  1
  Rh  Rh19  1  0.291909  0.162803  0.759616  1
  Rh  Rh20  1  0.870893  0.708091  0.759616  1
