# generated using pymatgen
data_PaSeF9
_symmetry_space_group_name_H-M   'P 1'
_cell_length_a   5.65045790
_cell_length_b   8.20491037
_cell_length_c   9.94680805
_cell_angle_alpha   102.73037435
_cell_angle_beta   104.08877992
_cell_angle_gamma   91.52101320
_symmetry_Int_Tables_number   1
_chemical_formula_structural   PaSeF9
_chemical_formula_sum   'Pa2 Se2 F18'
_cell_volume   434.71256071
_cell_formula_units_Z   2
loop_
 _symmetry_equiv_pos_site_id
 _symmetry_equiv_pos_as_xyz
  1  'x, y, z'
loop_
 _atom_site_type_symbol
 _atom_site_label
 _atom_site_symmetry_multiplicity
 _atom_site_fract_x
 _atom_site_fract_y
 _atom_site_fract_z
 _atom_site_occupancy
  Pa  Pa0  1  0.120621  0.265783  0.709113  1
  Pa  Pa1  1  0.879379  0.734217  0.290887  1
  Se  Se2  1  0.319444  0.330295  0.166587  1
  Se  Se3  1  0.680556  0.669705  0.833413  1
  F  F4  1  0.471368  0.148918  0.165295  1
  F  F5  1  0.528632  0.851082  0.834705  1
  F  F6  1  0.286246  0.344038  0.337412  1
  F  F7  1  0.713754  0.655962  0.662588  1
  F  F8  1  0.104135  0.738742  0.488756  1
  F  F9  1  0.895865  0.261258  0.511244  1
  F  F10  1  0.692046  0.494125  0.279541  1
  F  F11  1  0.307954  0.505875  0.720459  1
  F  F12  1  0.039495  0.955132  0.275717  1
  F  F13  1  0.960505  0.044868  0.724283  1
  F  F14  1  0.123872  0.578528  0.186672  1
  F  F15  1  0.876128  0.421472  0.813328  1
  F  F16  1  0.656467  0.706176  0.073456  1
  F  F17  1  0.343533  0.293824  0.926544  1
  F  F18  1  0.603646  0.845960  0.370199  1
  F  F19  1  0.396354  0.154040  0.629801  1
  F  F20  1  0.968810  0.777073  0.913003  1
  F  F21  1  0.031190  0.222927  0.086997  1
