# generated using pymatgen
data_TbYb4Er(Si3Ru)8
_symmetry_space_group_name_H-M   'P 1'
_cell_length_a   10.15246094
_cell_length_b   10.15251987
_cell_length_c   8.14278517
_cell_angle_alpha   90.06801573
_cell_angle_beta   89.91344820
_cell_angle_gamma   132.70773236
_symmetry_Int_Tables_number   1
_chemical_formula_structural   TbYb4Er(Si3Ru)8
_chemical_formula_sum   'Tb1 Yb4 Er1 Si24 Ru8'
_cell_volume   616.73760145
_cell_formula_units_Z   1
loop_
 _symmetry_equiv_pos_site_id
 _symmetry_equiv_pos_as_xyz
  1  'x, y, z'
loop_
 _atom_site_type_symbol
 _atom_site_label
 _atom_site_symmetry_multiplicity
 _atom_site_fract_x
 _atom_site_fract_y
 _atom_site_fract_z
 _atom_site_occupancy
  Tb  Tb0  1  0.499698  0.999878  0.250114  1
  Yb  Yb1  1  0.001622  0.501722  0.749952  1
  Yb  Yb2  1  0.500819  0.000756  0.749902  1
  Yb  Yb3  1  0.998723  0.498556  0.250137  1
  Yb  Yb4  1  0.500329  0.500262  0.500372  1
  Er  Er5  1  0.000271  0.000318  0.999597  1
  Si  Si6  1  0.389614  0.155411  0.006816  1
  Si  Si7  1  0.653865  0.886982  0.492168  1
  Si  Si8  1  0.113394  0.346774  0.506463  1
  Si  Si9  1  0.845158  0.610705  0.994564  1
  Si  Si10  1  0.610075  0.844270  0.994201  1
  Si  Si11  1  0.345913  0.112690  0.506970  1
  Si  Si12  1  0.886526  0.652669  0.493887  1
  Si  Si13  1  0.154265  0.389139  0.004989  1
  Si  Si14  1  0.609395  0.376741  0.229068  1
  Si  Si15  1  0.876092  0.109335  0.271786  1
  Si  Si16  1  0.889924  0.123908  0.728751  1
  Si  Si17  1  0.623454  0.389966  0.770417  1
  Si  Si18  1  0.389721  0.623181  0.770146  1
  Si  Si19  1  0.123528  0.889701  0.728959  1
  Si  Si20  1  0.706980  0.295443  0.998147  1
  Si  Si21  1  0.795552  0.206816  0.501826  1
  Si  Si22  1  0.293070  0.705024  0.999220  1
  Si  Si23  1  0.204916  0.793218  0.500833  1
  Si  Si24  1  0.168633  0.166499  0.333627  1
  Si  Si25  1  0.664355  0.666512  0.168580  1
  Si  Si26  1  0.333951  0.336986  0.831189  1
  Si  Si27  1  0.834821  0.831863  0.666556  1
  Si  Si28  1  0.376473  0.609448  0.229210  1
  Si  Si29  1  0.109473  0.875873  0.271738  1
  Ru  Ru30  1  0.629164  0.628652  0.876010  1
  Ru  Ru31  1  0.125585  0.126127  0.627025  1
  Ru  Ru32  1  0.874608  0.874583  0.373005  1
  Ru  Ru33  1  0.371513  0.371449  0.123957  1
  Ru  Ru34  1  0.330706  0.670011  0.499103  1
  Ru  Ru35  1  0.169007  0.831654  0.000839  1
  Ru  Ru36  1  0.668958  0.328968  0.499060  1
  Ru  Ru37  1  0.829848  0.167911  0.000815  1
