# generated using pymatgen
data_Pa2Ti3Ge4
_symmetry_space_group_name_H-M   'P 1'
_cell_length_a   7.12889500
_cell_length_b   7.07839511
_cell_length_c   7.17106919
_cell_angle_alpha   69.88341309
_cell_angle_beta   90.00000000
_cell_angle_gamma   90.00000000
_symmetry_Int_Tables_number   1
_chemical_formula_structural   Pa2Ti3Ge4
_chemical_formula_sum   'Pa4 Ti6 Ge8'
_cell_volume   339.78490729
_cell_formula_units_Z   2
loop_
 _symmetry_equiv_pos_site_id
 _symmetry_equiv_pos_as_xyz
  1  'x, y, z'
loop_
 _atom_site_type_symbol
 _atom_site_label
 _atom_site_symmetry_multiplicity
 _atom_site_fract_x
 _atom_site_fract_y
 _atom_site_fract_z
 _atom_site_occupancy
  Pa  Pa0  1  0.668852  0.942325  0.687456  1
  Pa  Pa1  1  0.331148  0.057675  0.312544  1
  Pa  Pa2  1  0.168852  0.557675  0.312544  1
  Pa  Pa3  1  0.831148  0.442325  0.687456  1
  Ti  Ti4  1  0.665564  0.748398  0.250118  1
  Ti  Ti5  1  0.334436  0.251602  0.749882  1
  Ti  Ti6  1  0.165564  0.751602  0.749882  1
  Ti  Ti7  1  0.834436  0.248398  0.250118  1
  Ti  Ti8  1  0.000000  0.000000  0.000000  1
  Ti  Ti9  1  0.500000  0.500000  0.000000  1
  Ge  Ge10  1  0.954398  0.858864  0.409211  1
  Ge  Ge11  1  0.045602  0.141136  0.590789  1
  Ge  Ge12  1  0.454398  0.641136  0.590789  1
  Ge  Ge13  1  0.545602  0.358864  0.409211  1
  Ge  Ge14  1  0.864141  0.635437  0.001285  1
  Ge  Ge15  1  0.135859  0.364563  0.998715  1
  Ge  Ge16  1  0.364141  0.864563  0.998715  1
  Ge  Ge17  1  0.635859  0.135437  0.001285  1
