# generated using pymatgen
data_Dy5Tm15Sn16
_symmetry_space_group_name_H-M   'P 1'
_cell_length_a   7.98022346
_cell_length_b   8.09189140
_cell_length_c   15.31001867
_cell_angle_alpha   90.00286212
_cell_angle_beta   89.81655821
_cell_angle_gamma   89.83504022
_symmetry_Int_Tables_number   1
_chemical_formula_structural   Dy5Tm15Sn16
_chemical_formula_sum   'Dy5 Tm15 Sn16'
_cell_volume   988.63684424
_cell_formula_units_Z   1
loop_
 _symmetry_equiv_pos_site_id
 _symmetry_equiv_pos_as_xyz
  1  'x, y, z'
loop_
 _atom_site_type_symbol
 _atom_site_label
 _atom_site_symmetry_multiplicity
 _atom_site_fract_x
 _atom_site_fract_y
 _atom_site_fract_z
 _atom_site_occupancy
  Dy  Dy0  1  0.978589  0.820422  0.097143  1
  Dy  Dy1  1  0.478680  0.678884  0.096608  1
  Dy  Dy2  1  0.978261  0.820740  0.403136  1
  Dy  Dy3  1  0.521548  0.320920  0.596701  1
  Dy  Dy4  1  0.020993  0.179566  0.903343  1
  Tm  Tm5  1  0.367228  0.836994  0.877075  1
  Tm  Tm6  1  0.867941  0.662882  0.622657  1
  Tm  Tm7  1  0.631806  0.163109  0.377327  1
  Tm  Tm8  1  0.132429  0.337143  0.122837  1
  Tm  Tm9  1  0.632207  0.163084  0.122892  1
  Tm  Tm10  1  0.131741  0.336970  0.377562  1
  Tm  Tm11  1  0.368426  0.837088  0.622643  1
  Tm  Tm12  1  0.867447  0.662665  0.877055  1
  Tm  Tm13  1  0.522352  0.320784  0.902587  1
  Tm  Tm14  1  0.022729  0.179115  0.597468  1
  Tm  Tm15  1  0.477143  0.678804  0.402691  1
  Tm  Tm16  1  0.198553  0.503945  0.749926  1
  Tm  Tm17  1  0.698459  0.996131  0.749805  1
  Tm  Tm18  1  0.801383  0.495998  0.250356  1
  Tm  Tm19  1  0.301788  0.004097  0.250272  1
  Sn  Sn20  1  0.294103  0.037253  0.041714  1
  Sn  Sn21  1  0.792018  0.463937  0.458123  1
  Sn  Sn22  1  0.707862  0.964230  0.541930  1
  Sn  Sn23  1  0.207399  0.536256  0.958101  1
  Sn  Sn24  1  0.705184  0.963117  0.958260  1
  Sn  Sn25  1  0.206667  0.537548  0.541204  1
  Sn  Sn26  1  0.293371  0.037046  0.458776  1
  Sn  Sn27  1  0.793438  0.461622  0.041078  1
  Sn  Sn28  1  0.564689  0.619157  0.749869  1
  Sn  Sn29  1  0.064625  0.880588  0.749881  1
  Sn  Sn30  1  0.435340  0.380471  0.250075  1
  Sn  Sn31  1  0.935465  0.120165  0.250110  1
  Sn  Sn32  1  0.331322  0.148697  0.750400  1
  Sn  Sn33  1  0.831271  0.351192  0.749621  1
  Sn  Sn34  1  0.668044  0.851273  0.250510  1
  Sn  Sn35  1  0.169499  0.648104  0.250264  1
