# generated using pymatgen
data_Tb14Nd6Sn11Bi5
_symmetry_space_group_name_H-M   'P 1'
_cell_length_a   8.29236645
_cell_length_b   8.29436730
_cell_length_c   15.75929357
_cell_angle_alpha   89.82291052
_cell_angle_beta   90.34023123
_cell_angle_gamma   89.97568686
_symmetry_Int_Tables_number   1
_chemical_formula_structural   Tb14Nd6Sn11Bi5
_chemical_formula_sum   'Tb14 Nd6 Sn11 Bi5'
_cell_volume   1083.89876357
_cell_formula_units_Z   1
loop_
 _symmetry_equiv_pos_site_id
 _symmetry_equiv_pos_as_xyz
  1  'x, y, z'
loop_
 _atom_site_type_symbol
 _atom_site_label
 _atom_site_symmetry_multiplicity
 _atom_site_fract_x
 _atom_site_fract_y
 _atom_site_fract_z
 _atom_site_occupancy
  Tb  Tb0  1  0.436463  0.831173  0.611476  1
  Tb  Tb1  1  0.941911  0.665347  0.889358  1
  Tb  Tb2  1  0.616160  0.342495  0.877966  1
  Tb  Tb3  1  0.116246  0.162480  0.621166  1
  Tb  Tb4  1  0.386914  0.661961  0.381237  1
  Tb  Tb5  1  0.884509  0.834953  0.122517  1
  Tb  Tb6  1  0.389990  0.660260  0.122127  1
  Tb  Tb7  1  0.893612  0.839507  0.378052  1
  Tb  Tb8  1  0.607711  0.341651  0.620996  1
  Tb  Tb9  1  0.117715  0.160747  0.876751  1
  Tb  Tb10  1  0.279098  0.499857  0.746421  1
  Tb  Tb11  1  0.779508  0.000335  0.749137  1
  Tb  Tb12  1  0.720535  0.500296  0.247011  1
  Tb  Tb13  1  0.220430  0.998641  0.253683  1
  Nd  Nd14  1  0.459103  0.824197  0.894766  1
  Nd  Nd15  1  0.958316  0.672537  0.606095  1
  Nd  Nd16  1  0.543048  0.170006  0.392898  1
  Nd  Nd17  1  0.040071  0.330022  0.105758  1
  Nd  Nd18  1  0.548910  0.176821  0.107871  1
  Nd  Nd19  1  0.057340  0.325601  0.392916  1
  Sn  Sn20  1  0.276413  0.476584  0.546095  1
  Sn  Sn21  1  0.226311  0.971071  0.456912  1
  Sn  Sn22  1  0.722475  0.532826  0.042405  1
  Sn  Sn23  1  0.643426  0.642809  0.747984  1
  Sn  Sn24  1  0.142983  0.857970  0.753496  1
  Sn  Sn25  1  0.353474  0.361525  0.249400  1
  Sn  Sn26  1  0.854119  0.139031  0.250173  1
  Sn  Sn27  1  0.416360  0.129851  0.751010  1
  Sn  Sn28  1  0.914004  0.369652  0.749699  1
  Sn  Sn29  1  0.586375  0.869039  0.251037  1
  Sn  Sn30  1  0.087843  0.629357  0.249589  1
  Bi  Bi31  1  0.225339  0.974678  0.046040  1
  Bi  Bi32  1  0.729848  0.521657  0.453229  1
  Bi  Bi33  1  0.768613  0.019524  0.545810  1
  Bi  Bi34  1  0.272142  0.477015  0.953904  1
  Bi  Bi35  1  0.782685  0.028524  0.955014  1
