# generated using pymatgen
data_SrNd3(Al8Pt3)3
_symmetry_space_group_name_H-M   'P 1'
_cell_length_a   7.55538888
_cell_length_b   7.59702496
_cell_length_c   13.39427542
_cell_angle_alpha   84.61821332
_cell_angle_beta   79.18625952
_cell_angle_gamma   59.93415962
_symmetry_Int_Tables_number   1
_chemical_formula_structural   SrNd3(Al8Pt3)3
_chemical_formula_sum   'Sr1 Nd3 Al24 Pt9'
_cell_volume   653.55227522
_cell_formula_units_Z   1
loop_
 _symmetry_equiv_pos_site_id
 _symmetry_equiv_pos_as_xyz
  1  'x, y, z'
loop_
 _atom_site_type_symbol
 _atom_site_label
 _atom_site_symmetry_multiplicity
 _atom_site_fract_x
 _atom_site_fract_y
 _atom_site_fract_z
 _atom_site_occupancy
  Sr  Sr0  1  0.393396  0.168591  0.808633  1
  Nd  Nd1  1  0.605321  0.831800  0.192084  1
  Nd  Nd2  1  0.734578  0.497705  0.808652  1
  Nd  Nd3  1  0.265963  0.501494  0.191786  1
  Al  Al4  1  0.686847  0.833588  0.948287  1
  Al  Al5  1  0.313484  0.166171  0.055009  1
  Al  Al6  1  0.146679  0.832075  0.558922  1
  Al  Al7  1  0.853910  0.167959  0.438427  1
  Al  Al8  1  0.480441  0.166282  0.557042  1
  Al  Al9  1  0.520633  0.833775  0.441004  1
  Al  Al10  1  0.215907  0.165198  0.331545  1
  Al  Al11  1  0.785143  0.835327  0.665531  1
  Al  Al12  1  0.437457  0.507201  0.664491  1
  Al  Al13  1  0.563694  0.492023  0.332185  1
  Al  Al14  1  0.111608  0.158417  0.663177  1
  Al  Al15  1  0.890117  0.841255  0.333593  1
  Al  Al16  1  0.348995  0.502635  0.948869  1
  Al  Al17  1  0.648315  0.499324  0.054678  1
  Al  Al18  1  0.012846  0.165186  0.959980  1
  Al  Al19  1  0.984137  0.833480  0.046409  1
  Al  Al20  1  0.186575  0.499609  0.440599  1
  Al  Al21  1  0.814197  0.499867  0.557524  1
  Al  Al22  1  0.735210  0.164444  0.184299  1
  Al  Al23  1  0.266743  0.829479  0.816304  1
  Al  Al24  1  0.056172  0.637678  0.815258  1
  Al  Al25  1  0.937078  0.367350  0.185513  1
  Al  Al26  1  0.862783  0.041064  0.815667  1
  Al  Al27  1  0.141339  0.961288  0.185067  1
  Pt  Pt28  1  0.119854  0.495199  0.635201  1
  Pt  Pt29  1  0.880218  0.505957  0.363081  1
  Pt  Pt30  1  0.658004  0.170450  0.001286  1
  Pt  Pt31  1  0.340708  0.829592  0.001872  1
  Pt  Pt32  1  0.539501  0.166941  0.362879  1
  Pt  Pt33  1  0.460861  0.831882  0.635530  1
  Pt  Pt34  1  0.781855  0.172338  0.634212  1
  Pt  Pt35  1  0.220234  0.827011  0.363759  1
  Pt  Pt36  1  0.999197  0.500361  0.001644  1
