# generated using pymatgen
data_TbYbMgPd5
_symmetry_space_group_name_H-M   'P 1'
_cell_length_a   4.31341600
_cell_length_b   5.79759620
_cell_length_c   11.48104201
_cell_angle_alpha   89.59601271
_cell_angle_beta   90.00000000
_cell_angle_gamma   90.00000000
_symmetry_Int_Tables_number   1
_chemical_formula_structural   TbYbMgPd5
_chemical_formula_sum   'Tb2 Yb2 Mg2 Pd10'
_cell_volume   287.10438064
_cell_formula_units_Z   2
loop_
 _symmetry_equiv_pos_site_id
 _symmetry_equiv_pos_as_xyz
  1  'x, y, z'
loop_
 _atom_site_type_symbol
 _atom_site_label
 _atom_site_symmetry_multiplicity
 _atom_site_fract_x
 _atom_site_fract_y
 _atom_site_fract_z
 _atom_site_occupancy
  Tb  Tb0  1  0.500000  0.181265  0.143032  1
  Tb  Tb1  1  0.500000  0.818735  0.856968  1
  Yb  Yb2  1  0.500000  0.319788  0.637829  1
  Yb  Yb3  1  0.500000  0.680212  0.362171  1
  Mg  Mg4  1  0.000000  0.000000  0.500000  1
  Mg  Mg5  1  0.000000  0.500000  0.000000  1
  Pd  Pd6  1  0.500000  0.190980  0.389872  1
  Pd  Pd7  1  0.500000  0.809020  0.610128  1
  Pd  Pd8  1  0.500000  0.309380  0.889411  1
  Pd  Pd9  1  0.500000  0.690620  0.110589  1
  Pd  Pd10  1  0.000000  0.432214  0.249882  1
  Pd  Pd11  1  0.000000  0.567786  0.750118  1
  Pd  Pd12  1  0.000000  0.072627  0.747922  1
  Pd  Pd13  1  0.000000  0.927373  0.252078  1
  Pd  Pd14  1  0.000000  0.000000  0.000000  1
  Pd  Pd15  1  0.000000  0.500000  0.500000  1
