# generated using pymatgen
data_Hf11Pa(TcOs)6
_symmetry_space_group_name_H-M   'P 1'
_cell_length_a   4.61957600
_cell_length_b   6.55544800
_cell_length_c   13.93424600
_cell_angle_alpha   89.99972035
_cell_angle_beta   89.99997122
_cell_angle_gamma   89.99992783
_symmetry_Int_Tables_number   1
_chemical_formula_structural   Hf11Pa(TcOs)6
_chemical_formula_sum   'Hf11 Pa1 Tc6 Os6'
_cell_volume   421.97620946
_cell_formula_units_Z   1
loop_
 _symmetry_equiv_pos_site_id
 _symmetry_equiv_pos_as_xyz
  1  'x, y, z'
loop_
 _atom_site_type_symbol
 _atom_site_label
 _atom_site_symmetry_multiplicity
 _atom_site_fract_x
 _atom_site_fract_y
 _atom_site_fract_z
 _atom_site_occupancy
  Hf  Hf0  1  0.500000  0.750202  0.000002  1
  Hf  Hf1  1  0.000009  0.250502  0.174188  1
  Hf  Hf2  1  0.000006  0.749912  0.169336  1
  Hf  Hf3  1  0.500004  0.249736  0.336076  1
  Hf  Hf4  1  0.500004  0.750260  0.334187  1
  Hf  Hf5  1  0.999999  0.250273  0.499997  1
  Hf  Hf6  1  0.000000  0.750161  0.499996  1
  Hf  Hf7  1  0.499996  0.249736  0.663920  1
  Hf  Hf8  1  0.499996  0.750264  0.665810  1
  Hf  Hf9  1  0.999995  0.250504  0.825815  1
  Hf  Hf10  1  0.999994  0.749914  0.830667  1
  Pa  Pa11  1  0.500001  0.249543  0.000000  1
  Tc  Tc12  1  0.000001  0.493009  0.000007  1
  Tc  Tc13  1  0.500009  0.002660  0.164930  1
  Tc  Tc14  1  0.000003  0.500195  0.333178  1
  Tc  Tc15  1  0.499999  0.999055  0.499995  1
  Tc  Tc16  1  0.999996  0.500199  0.666816  1
  Tc  Tc17  1  0.499993  0.002661  0.835078  1
  Os  Os18  1  0.999999  0.998211  0.000007  1
  Os  Os19  1  0.500007  0.501191  0.167072  1
  Os  Os20  1  0.000005  0.999953  0.333170  1
  Os  Os21  1  0.500000  0.500711  0.499993  1
  Os  Os22  1  0.999995  0.999956  0.666825  1
  Os  Os23  1  0.499994  0.501190  0.832936  1
