# generated using pymatgen
data_Tm4MnSi4Ni3
_symmetry_space_group_name_H-M   'P 1'
_cell_length_a   4.14765500
_cell_length_b   6.76832884
_cell_length_c   7.19456462
_cell_angle_alpha   89.00491074
_cell_angle_beta   90.00000000
_cell_angle_gamma   90.00000000
_symmetry_Int_Tables_number   1
_chemical_formula_structural   Tm4MnSi4Ni3
_chemical_formula_sum   'Tm4 Mn1 Si4 Ni3'
_cell_volume   201.94034381
_cell_formula_units_Z   1
loop_
 _symmetry_equiv_pos_site_id
 _symmetry_equiv_pos_as_xyz
  1  'x, y, z'
loop_
 _atom_site_type_symbol
 _atom_site_label
 _atom_site_symmetry_multiplicity
 _atom_site_fract_x
 _atom_site_fract_y
 _atom_site_fract_z
 _atom_site_occupancy
  Tm  Tm0  1  0.250000  0.492881  0.205279  1
  Tm  Tm1  1  0.750000  0.505558  0.795884  1
  Tm  Tm2  1  0.750000  0.999778  0.692982  1
  Tm  Tm3  1  0.250000  0.989091  0.304254  1
  Mn  Mn4  1  0.250000  0.174684  0.920681  1
  Si  Si5  1  0.250000  0.799759  0.907354  1
  Si  Si6  1  0.750000  0.201634  0.100988  1
  Si  Si7  1  0.750000  0.693726  0.406849  1
  Si  Si8  1  0.250000  0.299987  0.591307  1
  Ni  Ni9  1  0.250000  0.685402  0.578565  1
  Ni  Ni10  1  0.750000  0.322851  0.422375  1
  Ni  Ni11  1  0.750000  0.834648  0.073482  1
