# generated using pymatgen
data_LuTa2(Nb2Cl9)2
_symmetry_space_group_name_H-M   'P 1'
_cell_length_a   10.11798007
_cell_length_b   10.11889501
_cell_length_c   10.11971775
_cell_angle_alpha   56.00083774
_cell_angle_beta   56.00395333
_cell_angle_gamma   55.98111044
_symmetry_Int_Tables_number   1
_chemical_formula_structural   LuTa2(Nb2Cl9)2
_chemical_formula_sum   'Lu1 Ta2 Nb4 Cl18'
_cell_volume   664.65046371
_cell_formula_units_Z   1
loop_
 _symmetry_equiv_pos_site_id
 _symmetry_equiv_pos_as_xyz
  1  'x, y, z'
loop_
 _atom_site_type_symbol
 _atom_site_label
 _atom_site_symmetry_multiplicity
 _atom_site_fract_x
 _atom_site_fract_y
 _atom_site_fract_z
 _atom_site_occupancy
  Lu  Lu0  1  0.998937  0.000544  0.000515  1
  Ta  Ta1  1  0.407891  0.299552  0.650247  1
  Ta  Ta2  1  0.349671  0.592434  0.700170  1
  Nb  Nb3  1  0.701079  0.349312  0.592054  1
  Nb  Nb4  1  0.299499  0.650853  0.407248  1
  Nb  Nb5  1  0.651208  0.407561  0.298657  1
  Nb  Nb6  1  0.592802  0.701046  0.348709  1
  Cl  Cl7  1  0.567081  0.159353  0.444321  1
  Cl  Cl8  1  0.223569  0.370451  0.908994  1
  Cl  Cl9  1  0.911414  0.222066  0.369829  1
  Cl  Cl10  1  0.369487  0.911361  0.222295  1
  Cl  Cl11  1  0.777645  0.630285  0.088838  1
  Cl  Cl12  1  0.090169  0.776699  0.631975  1
  Cl  Cl13  1  0.707697  0.959515  0.157273  1
  Cl  Cl14  1  0.959090  0.156968  0.708252  1
  Cl  Cl15  1  0.159322  0.706240  0.956859  1
  Cl  Cl16  1  0.293541  0.043233  0.841064  1
  Cl  Cl17  1  0.040736  0.842530  0.292247  1
  Cl  Cl18  1  0.842846  0.291956  0.040627  1
  Cl  Cl19  1  0.555808  0.432785  0.840749  1
  Cl  Cl20  1  0.160752  0.439398  0.570487  1
  Cl  Cl21  1  0.441480  0.569128  0.159125  1
  Cl  Cl22  1  0.429426  0.839031  0.560732  1
  Cl  Cl23  1  0.840981  0.558204  0.431121  1
  Cl  Cl24  1  0.627868  0.089496  0.777614  1
