# generated using pymatgen
data_Y6SiBBr6
_symmetry_space_group_name_H-M   'P 1'
_cell_length_a   10.02208472
_cell_length_b   10.02208518
_cell_length_c   9.88838956
_cell_angle_alpha   109.46696062
_cell_angle_beta   109.46696547
_cell_angle_gamma   110.02102202
_symmetry_Int_Tables_number   1
_chemical_formula_structural   Y6SiBBr6
_chemical_formula_sum   'Y12 Si2 B2 Br12'
_cell_volume   759.40636558
_cell_formula_units_Z   2
loop_
 _symmetry_equiv_pos_site_id
 _symmetry_equiv_pos_as_xyz
  1  'x, y, z'
loop_
 _atom_site_type_symbol
 _atom_site_label
 _atom_site_symmetry_multiplicity
 _atom_site_fract_x
 _atom_site_fract_y
 _atom_site_fract_z
 _atom_site_occupancy
  Y  Y0  1  0.260476  0.010476  0.020954  1
  Y  Y1  1  0.032876  0.273799  0.004967  1
  Y  Y2  1  0.472092  0.731167  0.004967  1
  Y  Y3  1  0.770289  0.241806  0.278567  1
  Y  Y4  1  0.008278  0.036762  0.278567  1
  Y  Y5  1  0.022313  0.477687  0.750000  1
  Y  Y6  1  0.227687  0.272313  0.750000  1
  Y  Y7  1  0.258194  0.729711  0.221433  1
  Y  Y8  1  0.226201  0.467124  0.495033  1
  Y  Y9  1  0.463238  0.491722  0.221433  1
  Y  Y10  1  0.768833  0.027908  0.495033  1
  Y  Y11  1  0.489524  0.239524  0.479046  1
  Si  Si12  1  0.500717  0.999283  0.250000  1
  Si  Si13  1  0.249283  0.250717  0.250000  1
  B  B14  1  0.000367  0.250367  0.500734  1
  B  B15  1  0.249633  0.499633  0.999266  1
  Br  Br16  1  0.756236  0.743764  0.250000  1
  Br  Br17  1  0.504603  0.251068  0.994071  1
  Br  Br18  1  0.248932  0.995397  0.505929  1
  Br  Br19  1  0.513500  0.507126  0.758464  1
  Br  Br20  1  0.992874  0.986500  0.741536  1
  Br  Br21  1  0.745313  0.995313  0.990625  1
  Br  Br22  1  0.504687  0.754687  0.509375  1
  Br  Br23  1  0.756998  0.510531  0.505929  1
  Br  Br24  1  0.993764  0.506236  0.250000  1
  Br  Br25  1  0.989469  0.743002  0.994071  1
  Br  Br26  1  0.248662  0.755037  0.741536  1
  Br  Br27  1  0.744963  0.251338  0.758464  1
