# generated using pymatgen
data_DyCoI18
_symmetry_space_group_name_H-M   'P 1'
_cell_length_a   10.16714186
_cell_length_b   10.22194088
_cell_length_c   10.14658238
_cell_angle_alpha   93.38981876
_cell_angle_beta   93.46809352
_cell_angle_gamma   93.31398134
_symmetry_Int_Tables_number   1
_chemical_formula_structural   DyCoI18
_chemical_formula_sum   'Dy1 Co1 I18'
_cell_volume   1048.74462728
_cell_formula_units_Z   1
loop_
 _symmetry_equiv_pos_site_id
 _symmetry_equiv_pos_as_xyz
  1  'x, y, z'
loop_
 _atom_site_type_symbol
 _atom_site_label
 _atom_site_symmetry_multiplicity
 _atom_site_fract_x
 _atom_site_fract_y
 _atom_site_fract_z
 _atom_site_occupancy
  Dy  Dy0  1  0.500000  0.500000  0.500000  1
  Co  Co1  1  0.000000  0.000000  0.000000  1
  I  I2  1  0.797451  0.480156  0.525756  1
  I  I3  1  0.525570  0.795659  0.479642  1
  I  I4  1  0.480465  0.526714  0.797940  1
  I  I5  1  0.202549  0.519844  0.474244  1
  I  I6  1  0.474430  0.204341  0.520358  1
  I  I7  1  0.519535  0.473286  0.202060  1
  I  I8  1  0.901558  0.360263  0.768800  1
  I  I9  1  0.768471  0.900406  0.361107  1
  I  I10  1  0.361079  0.768743  0.901553  1
  I  I11  1  0.098442  0.639737  0.231200  1
  I  I12  1  0.231529  0.099594  0.638893  1
  I  I13  1  0.638921  0.231257  0.098447  1
  I  I14  1  0.001099  0.969027  0.742230  1
  I  I15  1  0.742848  0.001569  0.968030  1
  I  I16  1  0.967951  0.744319  0.000408  1
  I  I17  1  0.998901  0.030973  0.257770  1
  I  I18  1  0.257152  0.998431  0.031970  1
  I  I19  1  0.032049  0.255681  0.999592  1
