# generated using pymatgen
data_Tm5TcWC7
_symmetry_space_group_name_H-M   'P 1'
_cell_length_a   8.26043575
_cell_length_b   8.26043574
_cell_length_c   3.38314500
_cell_angle_alpha   90.00000000
_cell_angle_beta   90.00000000
_cell_angle_gamma   121.96190642
_symmetry_Int_Tables_number   1
_chemical_formula_structural   Tm5TcWC7
_chemical_formula_sum   'Tm5 Tc1 W1 C7'
_cell_volume   195.85168147
_cell_formula_units_Z   1
loop_
 _symmetry_equiv_pos_site_id
 _symmetry_equiv_pos_as_xyz
  1  'x, y, z'
loop_
 _atom_site_type_symbol
 _atom_site_label
 _atom_site_symmetry_multiplicity
 _atom_site_fract_x
 _atom_site_fract_y
 _atom_site_fract_z
 _atom_site_occupancy
  Tm  Tm0  1  0.334060  0.075522  0.500000  1
  Tm  Tm1  1  0.662151  0.921207  0.500000  1
  Tm  Tm2  1  0.078793  0.337849  0.500000  1
  Tm  Tm3  1  0.924478  0.665940  0.500000  1
  Tm  Tm4  1  0.498561  0.501439  0.000000  1
  Tc  Tc5  1  0.286642  0.713358  0.000000  1
  W  W6  1  0.714265  0.285735  0.000000  1
  C  C7  1  0.169636  0.168625  0.000000  1
  C  C8  1  0.831375  0.830364  0.000000  1
  C  C9  1  0.000224  0.999776  0.000000  1
  C  C10  1  0.375858  0.624142  0.500000  1
  C  C11  1  0.622809  0.377191  0.500000  1
  C  C12  1  0.500935  0.999787  0.000000  1
  C  C13  1  0.000213  0.499065  0.000000  1
