# generated using pymatgen
data_Zr2MnZnFe7Co
_symmetry_space_group_name_H-M   'P 1'
_cell_length_a   4.86161165
_cell_length_b   4.86044555
_cell_length_c   8.39233527
_cell_angle_alpha   106.83261080
_cell_angle_beta   73.09957639
_cell_angle_gamma   119.99207146
_symmetry_Int_Tables_number   1
_chemical_formula_structural   Zr2MnZnFe7Co
_chemical_formula_sum   'Zr2 Mn1 Zn1 Fe7 Co1'
_cell_volume   161.82619362
_cell_formula_units_Z   1
loop_
 _symmetry_equiv_pos_site_id
 _symmetry_equiv_pos_as_xyz
  1  'x, y, z'
loop_
 _atom_site_type_symbol
 _atom_site_label
 _atom_site_symmetry_multiplicity
 _atom_site_fract_x
 _atom_site_fract_y
 _atom_site_fract_z
 _atom_site_occupancy
  Zr  Zr0  1  0.001660  0.000564  0.999467  1
  Zr  Zr1  1  0.500436  0.500347  0.500255  1
  Mn  Mn2  1  0.875557  0.125739  0.375922  1
  Zn  Zn3  1  0.374666  0.625599  0.876532  1
  Fe  Fe4  1  0.436956  0.563201  0.187635  1
  Fe  Fe5  1  0.935706  0.064651  0.687860  1
  Fe  Fe6  1  0.436956  0.061390  0.187635  1
  Fe  Fe7  1  0.935706  0.558916  0.687860  1
  Fe  Fe8  1  0.187305  0.811319  0.435331  1
  Fe  Fe9  1  0.686558  0.311853  0.937150  1
  Fe  Fe10  1  0.938893  0.563271  0.187648  1
  Co  Co11  1  0.439597  0.063153  0.686708  1
