# generated using pymatgen
data_Ca6TbEr(Si3Pd)4
_symmetry_space_group_name_H-M   'P 1'
_cell_length_a   8.25160000
_cell_length_b   8.25160067
_cell_length_c   8.24959900
_cell_angle_alpha   90.00000000
_cell_angle_beta   90.00000000
_cell_angle_gamma   119.99999730
_symmetry_Int_Tables_number   1
_chemical_formula_structural   Ca6TbEr(Si3Pd)4
_chemical_formula_sum   'Ca6 Tb1 Er1 Si12 Pd4'
_cell_volume   486.45184181
_cell_formula_units_Z   1
loop_
 _symmetry_equiv_pos_site_id
 _symmetry_equiv_pos_as_xyz
  1  'x, y, z'
loop_
 _atom_site_type_symbol
 _atom_site_label
 _atom_site_symmetry_multiplicity
 _atom_site_fract_x
 _atom_site_fract_y
 _atom_site_fract_z
 _atom_site_occupancy
  Ca  Ca0  1  0.503799  0.007600  0.250000  1
  Ca  Ca1  1  0.496208  0.992415  0.750000  1
  Ca  Ca2  1  0.992400  0.496201  0.250000  1
  Ca  Ca3  1  0.007585  0.503792  0.750000  1
  Ca  Ca4  1  0.503799  0.496201  0.250000  1
  Ca  Ca5  1  0.496208  0.503792  0.750000  1
  Tb  Tb6  1  0.000000  0.000000  0.250000  1
  Er  Er7  1  0.000000  0.000000  0.750000  1
  Si  Si8  1  0.164292  0.328582  0.002911  1
  Si  Si9  1  0.835733  0.671467  0.996302  1
  Si  Si10  1  0.671418  0.835708  0.002911  1
  Si  Si11  1  0.835733  0.671467  0.503698  1
  Si  Si12  1  0.328533  0.164267  0.996302  1
  Si  Si13  1  0.164292  0.328582  0.497089  1
  Si  Si14  1  0.164292  0.835708  0.002911  1
  Si  Si15  1  0.328533  0.164267  0.503698  1
  Si  Si16  1  0.835733  0.164267  0.996302  1
  Si  Si17  1  0.671418  0.835708  0.497089  1
  Si  Si18  1  0.835733  0.164267  0.503698  1
  Si  Si19  1  0.164292  0.835708  0.497089  1
  Pd  Pd20  1  0.333333  0.666667  0.008397  1
  Pd  Pd21  1  0.666667  0.333333  0.991134  1
  Pd  Pd22  1  0.666667  0.333333  0.508866  1
  Pd  Pd23  1  0.333333  0.666667  0.491603  1
