# generated using pymatgen
data_YbLu2Al3Ge2Ir
_symmetry_space_group_name_H-M   'P 1'
_cell_length_a   6.88604500
_cell_length_b   6.90317547
_cell_length_c   4.22031900
_cell_angle_alpha   90.00000000
_cell_angle_beta   90.00000000
_cell_angle_gamma   119.91795018
_symmetry_Int_Tables_number   1
_chemical_formula_structural   YbLu2Al3Ge2Ir
_chemical_formula_sum   'Yb1 Lu2 Al3 Ge2 Ir1'
_cell_volume   173.88141114
_cell_formula_units_Z   1
loop_
 _symmetry_equiv_pos_site_id
 _symmetry_equiv_pos_as_xyz
  1  'x, y, z'
loop_
 _atom_site_type_symbol
 _atom_site_label
 _atom_site_symmetry_multiplicity
 _atom_site_fract_x
 _atom_site_fract_y
 _atom_site_fract_z
 _atom_site_occupancy
  Yb  Yb0  1  0.421639  0.000000  0.000000  1
  Lu  Lu1  1  0.002166  0.416405  0.000000  1
  Lu  Lu2  1  0.585760  0.583594  0.000000  1
  Al  Al3  1  0.769646  0.000000  0.500001  1
  Al  Al4  1  0.228738  0.230337  0.500001  1
  Al  Al5  1  0.998402  0.769662  0.500001  1
  Ge  Ge6  1  0.670980  0.338416  0.500001  1
  Ge  Ge7  1  0.332564  0.661585  0.500001  1
  Ir  Ir8  1  0.990102  0.000000  0.000000  1
