# generated using pymatgen
data_LiGd2AlPt2
_symmetry_space_group_name_H-M   'P 1'
_cell_length_a   4.27716700
_cell_length_b   6.96726000
_cell_length_c   7.99529600
_cell_angle_alpha   90.00000000
_cell_angle_beta   90.00000000
_cell_angle_gamma   90.00000000
_symmetry_Int_Tables_number   1
_chemical_formula_structural   LiGd2AlPt2
_chemical_formula_sum   'Li2 Gd4 Al2 Pt4'
_cell_volume   238.26089659
_cell_formula_units_Z   2
loop_
 _symmetry_equiv_pos_site_id
 _symmetry_equiv_pos_as_xyz
  1  'x, y, z'
loop_
 _atom_site_type_symbol
 _atom_site_label
 _atom_site_symmetry_multiplicity
 _atom_site_fract_x
 _atom_site_fract_y
 _atom_site_fract_z
 _atom_site_occupancy
  Li  Li0  1  0.250000  0.139416  0.066307  1
  Li  Li1  1  0.250000  0.639416  0.433693  1
  Gd  Gd2  1  0.250000  0.030168  0.686116  1
  Gd  Gd3  1  0.250000  0.530168  0.813884  1
  Gd  Gd4  1  0.750000  0.968820  0.315699  1
  Gd  Gd5  1  0.750000  0.468820  0.184301  1
  Al  Al6  1  0.750000  0.864193  0.940228  1
  Al  Al7  1  0.750000  0.364193  0.559772  1
  Pt  Pt8  1  0.250000  0.264433  0.394813  1
  Pt  Pt9  1  0.250000  0.764433  0.105187  1
  Pt  Pt10  1  0.750000  0.732971  0.624837  1
  Pt  Pt11  1  0.750000  0.232971  0.875163  1
