# generated using pymatgen
data_YbHf(TcO4)6
_symmetry_space_group_name_H-M   'P 1'
_cell_length_a   10.08516000
_cell_length_b   10.08515847
_cell_length_c   6.05379400
_cell_angle_alpha   90.00000000
_cell_angle_beta   90.00000000
_cell_angle_gamma   119.99999364
_symmetry_Int_Tables_number   1
_chemical_formula_structural   YbHf(TcO4)6
_chemical_formula_sum   'Yb1 Hf1 Tc6 O24'
_cell_volume   533.24134812
_cell_formula_units_Z   1
loop_
 _symmetry_equiv_pos_site_id
 _symmetry_equiv_pos_as_xyz
  1  'x, y, z'
loop_
 _atom_site_type_symbol
 _atom_site_label
 _atom_site_symmetry_multiplicity
 _atom_site_fract_x
 _atom_site_fract_y
 _atom_site_fract_z
 _atom_site_occupancy
  Yb  Yb0  1  0.333333  0.666667  0.250000  1
  Hf  Hf1  1  0.666667  0.333333  0.750000  1
  Tc  Tc2  1  0.076558  0.389594  0.750000  1
  Tc  Tc3  1  0.404010  0.299519  0.250000  1
  Tc  Tc4  1  0.610406  0.686962  0.750000  1
  Tc  Tc5  1  0.895509  0.595990  0.250000  1
  Tc  Tc6  1  0.313038  0.923442  0.750000  1
  Tc  Tc7  1  0.700481  0.104491  0.250000  1
  O  O8  1  0.494770  0.645578  0.518026  1
  O  O9  1  0.354422  0.849191  0.518026  1
  O  O10  1  0.822998  0.716985  0.250000  1
  O  O11  1  0.122389  0.867369  0.750000  1
  O  O12  1  0.283015  0.106013  0.250000  1
  O  O13  1  0.132631  0.255021  0.750000  1
  O  O14  1  0.521664  0.352597  0.012196  1
  O  O15  1  0.893987  0.177002  0.250000  1
  O  O16  1  0.092194  0.702399  0.250000  1
  O  O17  1  0.150809  0.505230  0.981974  1
  O  O18  1  0.150809  0.505230  0.518026  1
  O  O19  1  0.873969  0.301984  0.750000  1
  O  O20  1  0.297601  0.389795  0.250000  1
  O  O21  1  0.698016  0.571985  0.750000  1
  O  O22  1  0.830933  0.478336  0.487804  1
  O  O23  1  0.428015  0.126031  0.750000  1
  O  O24  1  0.647403  0.169067  0.012196  1
  O  O25  1  0.494770  0.645578  0.981974  1
  O  O26  1  0.354422  0.849191  0.981974  1
  O  O27  1  0.647403  0.169067  0.487804  1
  O  O28  1  0.521664  0.352597  0.487804  1
  O  O29  1  0.830933  0.478336  0.012196  1
  O  O30  1  0.744979  0.877611  0.750000  1
  O  O31  1  0.610205  0.907806  0.250000  1
