# generated using pymatgen
data_Ca20Zn3(CdPd2)3
_symmetry_space_group_name_H-M   'P 1'
_cell_length_a   7.93077263
_cell_length_b   7.93077263
_cell_length_c   14.80430374
_cell_angle_alpha   90.02544180
_cell_angle_beta   90.02544180
_cell_angle_gamma   89.17518470
_symmetry_Int_Tables_number   1
_chemical_formula_structural   Ca20Zn3(CdPd2)3
_chemical_formula_sum   'Ca20 Zn3 Cd3 Pd6'
_cell_volume   931.05191644
_cell_formula_units_Z   1
loop_
 _symmetry_equiv_pos_site_id
 _symmetry_equiv_pos_as_xyz
  1  'x, y, z'
loop_
 _atom_site_type_symbol
 _atom_site_label
 _atom_site_symmetry_multiplicity
 _atom_site_fract_x
 _atom_site_fract_y
 _atom_site_fract_z
 _atom_site_occupancy
  Ca  Ca0  1  0.673206  0.170964  0.110807  1
  Ca  Ca1  1  0.169880  0.674196  0.613406  1
  Ca  Ca2  1  0.321257  0.834796  0.110902  1
  Ca  Ca3  1  0.824671  0.331216  0.613518  1
  Ca  Ca4  1  0.841359  0.666132  0.111637  1
  Ca  Ca5  1  0.338209  0.162679  0.614075  1
  Ca  Ca6  1  0.163809  0.328783  0.112634  1
  Ca  Ca7  1  0.667056  0.831786  0.615322  1
  Ca  Ca8  1  0.829036  0.326794  0.889193  1
  Ca  Ca9  1  0.325804  0.830120  0.386594  1
  Ca  Ca10  1  0.165204  0.678743  0.889098  1
  Ca  Ca11  1  0.668784  0.175329  0.386482  1
  Ca  Ca12  1  0.671217  0.836191  0.887366  1
  Ca  Ca13  1  0.168214  0.332944  0.384678  1
  Ca  Ca14  1  0.333868  0.158641  0.888363  1
  Ca  Ca15  1  0.837321  0.661791  0.385925  1
  Ca  Ca16  1  0.506093  0.502711  0.753713  1
  Ca  Ca17  1  0.005768  0.002742  0.250411  1
  Ca  Ca18  1  0.997258  0.994232  0.749589  1
  Ca  Ca19  1  0.497289  0.493907  0.246287  1
  Zn  Zn20  1  0.117866  0.383272  0.751379  1
  Zn  Zn21  1  0.616728  0.882134  0.248621  1
  Zn  Zn22  1  0.999680  0.000320  0.000000  1
  Cd  Cd23  1  0.499111  0.500889  0.500000  1
  Cd  Cd24  1  0.499036  0.500964  0.000000  1
  Cd  Cd25  1  0.999126  0.000874  0.500000  1
  Pd  Pd26  1  0.626577  0.126881  0.751475  1
  Pd  Pd27  1  0.126656  0.626862  0.248558  1
  Pd  Pd28  1  0.873119  0.373423  0.248525  1
  Pd  Pd29  1  0.373138  0.873344  0.751442  1
  Pd  Pd30  1  0.881668  0.618006  0.751507  1
  Pd  Pd31  1  0.381994  0.118332  0.248493  1
