# generated using pymatgen
data_Sm8Ho12Sn9Pb7
_symmetry_space_group_name_H-M   'P 1'
_cell_length_a   8.11805145
_cell_length_b   8.26881950
_cell_length_c   15.61614356
_cell_angle_alpha   90.06854601
_cell_angle_beta   89.93183204
_cell_angle_gamma   89.99265016
_symmetry_Int_Tables_number   1
_chemical_formula_structural   Sm8Ho12Sn9Pb7
_chemical_formula_sum   'Sm8 Ho12 Sn9 Pb7'
_cell_volume   1048.25871611
_cell_formula_units_Z   1
loop_
 _symmetry_equiv_pos_site_id
 _symmetry_equiv_pos_as_xyz
  1  'x, y, z'
loop_
 _atom_site_type_symbol
 _atom_site_label
 _atom_site_symmetry_multiplicity
 _atom_site_fract_x
 _atom_site_fract_y
 _atom_site_fract_z
 _atom_site_occupancy
  Sm  Sm0  1  0.522038  0.322880  0.900951  1
  Sm  Sm1  1  0.020823  0.178493  0.600327  1
  Sm  Sm2  1  0.479407  0.678462  0.399690  1
  Sm  Sm3  1  0.978674  0.819189  0.099758  1
  Sm  Sm4  1  0.481981  0.676236  0.099628  1
  Sm  Sm5  1  0.979187  0.821559  0.399650  1
  Sm  Sm6  1  0.520637  0.321474  0.600136  1
  Sm  Sm7  1  0.019264  0.179964  0.900523  1
  Ho  Ho8  1  0.364876  0.837066  0.875679  1
  Ho  Ho9  1  0.865192  0.662977  0.624354  1
  Ho  Ho10  1  0.634683  0.163166  0.375583  1
  Ho  Ho11  1  0.132752  0.337155  0.123902  1
  Ho  Ho12  1  0.635828  0.165337  0.123778  1
  Ho  Ho13  1  0.134463  0.337191  0.375598  1
  Ho  Ho14  1  0.365342  0.837427  0.624449  1
  Ho  Ho15  1  0.864673  0.661683  0.876705  1
  Ho  Ho16  1  0.197071  0.502971  0.750235  1
  Ho  Ho17  1  0.697107  0.997067  0.750042  1
  Ho  Ho18  1  0.802516  0.497105  0.248420  1
  Ho  Ho19  1  0.303118  0.003106  0.249829  1
  Sn  Sn20  1  0.796216  0.460955  0.041794  1
  Sn  Sn21  1  0.562705  0.622766  0.750098  1
  Sn  Sn22  1  0.062508  0.876925  0.750200  1
  Sn  Sn23  1  0.436458  0.377542  0.250032  1
  Sn  Sn24  1  0.937229  0.122296  0.249929  1
  Sn  Sn25  1  0.328307  0.146088  0.750471  1
  Sn  Sn26  1  0.827621  0.354786  0.750070  1
  Sn  Sn27  1  0.671820  0.854860  0.249756  1
  Sn  Sn28  1  0.172220  0.645524  0.249770  1
  Pb  Pb29  1  0.295745  0.037445  0.041705  1
  Pb  Pb30  1  0.795649  0.461967  0.458204  1
  Pb  Pb31  1  0.705412  0.961551  0.541616  1
  Pb  Pb32  1  0.203860  0.538665  0.958656  1
  Pb  Pb33  1  0.704566  0.961272  0.958393  1
  Pb  Pb34  1  0.205187  0.538421  0.541889  1
  Pb  Pb35  1  0.294862  0.038424  0.458182  1
