# generated using pymatgen
data_Tb5Co16Tc(P6Ru)2
_symmetry_space_group_name_H-M   'P 1'
_cell_length_a   12.07965200
_cell_length_b   12.07965150
_cell_length_c   3.71325700
_cell_angle_alpha   90.00000000
_cell_angle_beta   90.00000000
_cell_angle_gamma   119.83174990
_symmetry_Int_Tables_number   1
_chemical_formula_structural   Tb5Co16Tc(P6Ru)2
_chemical_formula_sum   'Tb5 Co16 Tc1 P12 Ru2'
_cell_volume   470.03292122
_cell_formula_units_Z   1
loop_
 _symmetry_equiv_pos_site_id
 _symmetry_equiv_pos_as_xyz
  1  'x, y, z'
loop_
 _atom_site_type_symbol
 _atom_site_label
 _atom_site_symmetry_multiplicity
 _atom_site_fract_x
 _atom_site_fract_y
 _atom_site_fract_z
 _atom_site_occupancy
  Tb  Tb0  1  0.814663  0.999857  0.500000  1
  Tb  Tb1  1  0.999857  0.814663  0.500000  1
  Tb  Tb2  1  0.184597  0.184597  0.500000  1
  Tb  Tb3  1  0.333256  0.665858  0.000000  1
  Tb  Tb4  1  0.665858  0.333256  0.000000  1
  Co  Co5  1  0.283276  0.000114  0.500000  1
  Co  Co6  1  0.000114  0.283276  0.500000  1
  Co  Co7  1  0.717834  0.717834  0.500000  1
  Co  Co8  1  0.624569  0.803697  0.000000  1
  Co  Co9  1  0.197166  0.820228  0.000000  1
  Co  Co10  1  0.179339  0.375988  0.000000  1
  Co  Co11  1  0.375988  0.179339  0.000000  1
  Co  Co12  1  0.803697  0.624569  0.000000  1
  Co  Co13  1  0.820228  0.197166  0.000000  1
  Co  Co14  1  0.516041  0.873540  0.500000  1
  Co  Co15  1  0.125307  0.641731  0.500000  1
  Co  Co16  1  0.357914  0.482679  0.500000  1
  Co  Co17  1  0.482679  0.357914  0.500000  1
  Co  Co18  1  0.873540  0.516041  0.500000  1
  Co  Co19  1  0.641731  0.125307  0.500000  1
  Co  Co20  1  0.000526  0.000526  0.000000  1
  Tc  Tc21  1  0.554762  0.554762  0.000000  1
  P  P22  1  0.180358  0.999555  0.000000  1
  P  P23  1  0.999555  0.180358  0.000000  1
  P  P24  1  0.820524  0.820524  0.000000  1
  P  P25  1  0.521785  0.686846  0.500000  1
  P  P26  1  0.312657  0.834100  0.500000  1
  P  P27  1  0.165183  0.477795  0.500000  1
  P  P28  1  0.477795  0.165183  0.500000  1
  P  P29  1  0.686846  0.521785  0.500000  1
  P  P30  1  0.834100  0.312657  0.500000  1
  P  P31  1  0.636190  0.000634  0.000000  1
  P  P32  1  0.000634  0.636190  0.000000  1
  P  P33  1  0.364169  0.364169  0.000000  1
  Ru  Ru34  1  0.446459  0.000803  0.000000  1
  Ru  Ru35  1  0.000803  0.446459  0.000000  1
