# generated using pymatgen
data_Hf4MnTe4
_symmetry_space_group_name_H-M   'P 1'
_cell_length_a   5.25565000
_cell_length_b   11.13287000
_cell_length_c   19.92475600
_cell_angle_alpha   90.00000000
_cell_angle_beta   90.00000000
_cell_angle_gamma   90.00000000
_symmetry_Int_Tables_number   1
_chemical_formula_structural   Hf4MnTe4
_chemical_formula_sum   'Hf16 Mn4 Te16'
_cell_volume   1165.80680264
_cell_formula_units_Z   4
loop_
 _symmetry_equiv_pos_site_id
 _symmetry_equiv_pos_as_xyz
  1  'x, y, z'
loop_
 _atom_site_type_symbol
 _atom_site_label
 _atom_site_symmetry_multiplicity
 _atom_site_fract_x
 _atom_site_fract_y
 _atom_site_fract_z
 _atom_site_occupancy
  Hf  Hf0  1  0.500000  0.566154  0.386085  1
  Hf  Hf1  1  0.500000  0.433846  0.613915  1
  Hf  Hf2  1  0.500000  0.066154  0.113915  1
  Hf  Hf3  1  0.500000  0.933846  0.886085  1
  Hf  Hf4  1  0.500000  0.703085  0.536831  1
  Hf  Hf5  1  0.500000  0.296915  0.463169  1
  Hf  Hf6  1  0.500000  0.203085  0.963169  1
  Hf  Hf7  1  0.500000  0.796915  0.036831  1
  Hf  Hf8  1  0.000000  0.689233  0.445986  1
  Hf  Hf9  1  0.000000  0.310767  0.554014  1
  Hf  Hf10  1  0.000000  0.189233  0.054014  1
  Hf  Hf11  1  0.000000  0.810767  0.945986  1
  Hf  Hf12  1  0.000000  0.404073  0.394244  1
  Hf  Hf13  1  0.000000  0.595927  0.605756  1
  Hf  Hf14  1  0.000000  0.904073  0.105756  1
  Hf  Hf15  1  0.000000  0.095927  0.894244  1
  Mn  Mn16  1  0.253439  0.500000  0.500000  1
  Mn  Mn17  1  0.746561  0.000000  0.000000  1
  Mn  Mn18  1  0.746561  0.500000  0.500000  1
  Mn  Mn19  1  0.253439  0.000000  0.000000  1
  Te  Te20  1  0.000000  0.844801  0.562915  1
  Te  Te21  1  0.000000  0.155199  0.437085  1
  Te  Te22  1  0.000000  0.344801  0.937085  1
  Te  Te23  1  0.000000  0.655199  0.062915  1
  Te  Te24  1  0.500000  0.335031  0.319362  1
  Te  Te25  1  0.500000  0.664969  0.680638  1
  Te  Te26  1  0.500000  0.835031  0.180638  1
  Te  Te27  1  0.500000  0.164969  0.819362  1
  Te  Te28  1  0.500000  0.823708  0.408006  1
  Te  Te29  1  0.500000  0.176292  0.591994  1
  Te  Te30  1  0.500000  0.323708  0.091994  1
  Te  Te31  1  0.500000  0.676292  0.908006  1
  Te  Te32  1  0.000000  0.612458  0.306905  1
  Te  Te33  1  0.000000  0.387542  0.693095  1
  Te  Te34  1  0.000000  0.112458  0.193095  1
  Te  Te35  1  0.000000  0.887542  0.806905  1
