# generated using pymatgen
data_KGa5(HgSe3)4
_symmetry_space_group_name_H-M   'P 1'
_cell_length_a   9.05980908
_cell_length_b   9.12237132
_cell_length_c   9.39260417
_cell_angle_alpha   108.62956989
_cell_angle_beta   106.52668571
_cell_angle_gamma   108.14665455
_symmetry_Int_Tables_number   1
_chemical_formula_structural   KGa5(HgSe3)4
_chemical_formula_sum   'K1 Ga5 Hg4 Se12'
_cell_volume   632.28101645
_cell_formula_units_Z   1
loop_
 _symmetry_equiv_pos_site_id
 _symmetry_equiv_pos_as_xyz
  1  'x, y, z'
loop_
 _atom_site_type_symbol
 _atom_site_label
 _atom_site_symmetry_multiplicity
 _atom_site_fract_x
 _atom_site_fract_y
 _atom_site_fract_z
 _atom_site_occupancy
  K  K0  1  0.999088  0.004307  0.007191  1
  Ga  Ga1  1  0.188062  0.554096  0.026026  1
  Ga  Ga2  1  0.022907  0.186190  0.554152  1
  Ga  Ga3  1  0.562846  0.023066  0.194058  1
  Ga  Ga4  1  0.935205  0.469883  0.332156  1
  Ga  Ga5  1  0.320031  0.929552  0.468237  1
  Hg  Hg6  1  0.488527  0.341333  0.935125  1
  Hg  Hg7  1  0.624320  0.706369  0.403099  1
  Hg  Hg8  1  0.408804  0.642287  0.717254  1
  Hg  Hg9  1  0.714958  0.403306  0.634618  1
  Se  Se10  1  0.879947  0.637263  0.547992  1
  Se  Se11  1  0.548826  0.891850  0.634133  1
  Se  Se12  1  0.664846  0.591569  0.880232  1
  Se  Se13  1  0.349433  0.426389  0.147973  1
  Se  Se14  1  0.146680  0.369512  0.437249  1
  Se  Se15  1  0.429495  0.138863  0.365009  1
  Se  Se16  1  0.065622  0.673736  0.221971  1
  Se  Se17  1  0.209522  0.061986  0.660671  1
  Se  Se18  1  0.699713  0.213335  0.083340  1
  Se  Se19  1  0.782723  0.936360  0.299475  1
  Se  Se20  1  0.298071  0.785554  0.950428  1
  Se  Se21  1  0.941575  0.294395  0.780813  1
