# generated using pymatgen
data_Tb5HoU4O20
_symmetry_space_group_name_H-M   'P 1'
_cell_length_a   6.65291248
_cell_length_b   7.52613834
_cell_length_c   8.43441905
_cell_angle_alpha   101.09162187
_cell_angle_beta   97.64279767
_cell_angle_gamma   107.22349659
_symmetry_Int_Tables_number   1
_chemical_formula_structural   Tb5HoU4O20
_chemical_formula_sum   'Tb5 Ho1 U4 O20'
_cell_volume   387.63038466
_cell_formula_units_Z   1
loop_
 _symmetry_equiv_pos_site_id
 _symmetry_equiv_pos_as_xyz
  1  'x, y, z'
loop_
 _atom_site_type_symbol
 _atom_site_label
 _atom_site_symmetry_multiplicity
 _atom_site_fract_x
 _atom_site_fract_y
 _atom_site_fract_z
 _atom_site_occupancy
  Tb  Tb0  1  0.614745  0.703943  0.699179  1
  Tb  Tb1  1  0.385255  0.296057  0.300821  1
  Tb  Tb2  1  0.197289  0.896637  0.891048  1
  Tb  Tb3  1  0.000000  0.500000  0.500000  1
  Tb  Tb4  1  0.802711  0.103363  0.108952  1
  Ho  Ho5  1  0.000000  0.000000  0.500000  1
  U  U6  1  0.401481  0.804445  0.301881  1
  U  U7  1  0.198954  0.399864  0.899295  1
  U  U8  1  0.801046  0.600136  0.100705  1
  U  U9  1  0.598519  0.195555  0.698119  1
  O  O10  1  0.439754  0.532521  0.136944  1
  O  O11  1  0.555364  0.987877  0.840885  1
  O  O12  1  0.268207  0.144600  0.743677  1
  O  O13  1  0.359746  0.594869  0.442091  1
  O  O14  1  0.053916  0.730235  0.332261  1
  O  O15  1  0.444636  0.012123  0.159115  1
  O  O16  1  0.150765  0.184181  0.032171  1
  O  O17  1  0.560246  0.467479  0.863056  1
  O  O18  1  0.854747  0.337118  0.950603  1
  O  O19  1  0.256710  0.605730  0.759143  1
  O  O20  1  0.953682  0.773572  0.650920  1
  O  O21  1  0.353025  0.061497  0.453610  1
  O  O22  1  0.646975  0.938503  0.546390  1
  O  O23  1  0.046318  0.226428  0.349080  1
  O  O24  1  0.743290  0.394270  0.240857  1
  O  O25  1  0.145253  0.662882  0.049397  1
  O  O26  1  0.849235  0.815819  0.967829  1
  O  O27  1  0.946084  0.269765  0.667739  1
  O  O28  1  0.640254  0.405131  0.557909  1
  O  O29  1  0.731793  0.855400  0.256323  1
