# generated using pymatgen
data_TlAgBi2(Rh2O7)2
_symmetry_space_group_name_H-M   'P 1'
_cell_length_a   7.21833223
_cell_length_b   7.11269639
_cell_length_c   7.21833255
_cell_angle_alpha   61.22041146
_cell_angle_beta   61.79746295
_cell_angle_gamma   61.22041632
_symmetry_Int_Tables_number   1
_chemical_formula_structural   TlAgBi2(Rh2O7)2
_chemical_formula_sum   'Tl1 Ag1 Bi2 Rh4 O14'
_cell_volume   270.35335838
_cell_formula_units_Z   1
loop_
 _symmetry_equiv_pos_site_id
 _symmetry_equiv_pos_as_xyz
  1  'x, y, z'
loop_
 _atom_site_type_symbol
 _atom_site_label
 _atom_site_symmetry_multiplicity
 _atom_site_fract_x
 _atom_site_fract_y
 _atom_site_fract_z
 _atom_site_occupancy
  Tl  Tl0  1  0.125000  0.625000  0.125000  1
  Ag  Ag1  1  0.125000  0.125000  0.125000  1
  Bi  Bi2  1  0.625000  0.125000  0.125000  1
  Bi  Bi3  1  0.125000  0.125000  0.625000  1
  Rh  Rh4  1  0.625000  0.625000  0.625000  1
  Rh  Rh5  1  0.625000  0.625000  0.125000  1
  Rh  Rh6  1  0.125000  0.625000  0.625000  1
  Rh  Rh7  1  0.625000  0.125000  0.625000  1
  O  O8  1  0.249165  0.234747  0.249165  1
  O  O9  1  0.298963  0.692308  0.298963  1
  O  O10  1  0.952586  0.954193  0.553910  1
  O  O11  1  0.539907  0.958678  0.539907  1
  O  O12  1  0.707653  0.711702  0.293423  1
  O  O13  1  0.956577  0.538298  0.542347  1
  O  O14  1  0.710093  0.291322  0.710093  1
  O  O15  1  0.297414  0.295807  0.696090  1
  O  O16  1  0.696090  0.295807  0.297414  1
  O  O17  1  0.293423  0.711702  0.707653  1
  O  O18  1  0.951037  0.557692  0.951037  1
  O  O19  1  0.542347  0.538298  0.956577  1
  O  O20  1  0.000835  0.015253  0.000835  1
  O  O21  1  0.553910  0.954193  0.952586  1
