# generated using pymatgen
data_RbCaMoF7
_symmetry_space_group_name_H-M   'P 1'
_cell_length_a   6.57591170
_cell_length_b   6.57591068
_cell_length_c   8.61514000
_cell_angle_alpha   90.00000000
_cell_angle_beta   90.00000000
_cell_angle_gamma   116.60887329
_symmetry_Int_Tables_number   1
_chemical_formula_structural   RbCaMoF7
_chemical_formula_sum   'Rb2 Ca2 Mo2 F14'
_cell_volume   333.08338473
_cell_formula_units_Z   2
loop_
 _symmetry_equiv_pos_site_id
 _symmetry_equiv_pos_as_xyz
  1  'x, y, z'
loop_
 _atom_site_type_symbol
 _atom_site_label
 _atom_site_symmetry_multiplicity
 _atom_site_fract_x
 _atom_site_fract_y
 _atom_site_fract_z
 _atom_site_occupancy
  Rb  Rb0  1  0.000000  0.000000  0.000000  1
  Rb  Rb1  1  0.000000  0.000000  0.500000  1
  Ca  Ca2  1  0.309506  0.690494  0.750000  1
  Ca  Ca3  1  0.690494  0.309506  0.250000  1
  Mo  Mo4  1  0.694277  0.305723  0.750000  1
  Mo  Mo5  1  0.305723  0.694277  0.250000  1
  F  F6  1  0.513588  0.486412  0.750000  1
  F  F7  1  0.486412  0.513588  0.250000  1
  F  F8  1  0.699730  0.300270  0.987801  1
  F  F9  1  0.300270  0.699730  0.012199  1
  F  F10  1  0.300270  0.699730  0.487801  1
  F  F11  1  0.699730  0.300270  0.512199  1
  F  F12  1  0.673982  0.981815  0.750000  1
  F  F13  1  0.326018  0.018185  0.250000  1
  F  F14  1  0.018185  0.326018  0.750000  1
  F  F15  1  0.981815  0.673982  0.250000  1
  F  F16  1  0.352734  0.068964  0.750000  1
  F  F17  1  0.647266  0.931036  0.250000  1
  F  F18  1  0.931036  0.647266  0.750000  1
  F  F19  1  0.068964  0.352734  0.250000  1
