# generated using pymatgen
data_Ca20Zn11Sn
_symmetry_space_group_name_H-M   'P 1'
_cell_length_a   7.97736000
_cell_length_b   7.97736000
_cell_length_c   14.97866800
_cell_angle_alpha   90.00000000
_cell_angle_beta   90.00000000
_cell_angle_gamma   90.00000000
_symmetry_Int_Tables_number   1
_chemical_formula_structural   Ca20Zn11Sn
_chemical_formula_sum   'Ca20 Zn11 Sn1'
_cell_volume   953.21655691
_cell_formula_units_Z   1
loop_
 _symmetry_equiv_pos_site_id
 _symmetry_equiv_pos_as_xyz
  1  'x, y, z'
loop_
 _atom_site_type_symbol
 _atom_site_label
 _atom_site_symmetry_multiplicity
 _atom_site_fract_x
 _atom_site_fract_y
 _atom_site_fract_z
 _atom_site_occupancy
  Ca  Ca0  1  0.667750  0.170242  0.102128  1
  Ca  Ca1  1  0.167983  0.668833  0.603213  1
  Ca  Ca2  1  0.332250  0.829758  0.102128  1
  Ca  Ca3  1  0.832017  0.331167  0.603213  1
  Ca  Ca4  1  0.829758  0.667750  0.102128  1
  Ca  Ca5  1  0.331167  0.167983  0.603213  1
  Ca  Ca6  1  0.170242  0.332250  0.102128  1
  Ca  Ca7  1  0.668833  0.832017  0.603213  1
  Ca  Ca8  1  0.829758  0.332250  0.897872  1
  Ca  Ca9  1  0.331167  0.832017  0.396787  1
  Ca  Ca10  1  0.170242  0.667750  0.897872  1
  Ca  Ca11  1  0.668833  0.167983  0.396787  1
  Ca  Ca12  1  0.667750  0.829758  0.897872  1
  Ca  Ca13  1  0.167983  0.331167  0.396787  1
  Ca  Ca14  1  0.332250  0.170242  0.897872  1
  Ca  Ca15  1  0.832017  0.668833  0.396787  1
  Ca  Ca16  1  0.500000  0.500000  0.751071  1
  Ca  Ca17  1  0.000000  0.000000  0.248591  1
  Ca  Ca18  1  0.000000  0.000000  0.751409  1
  Ca  Ca19  1  0.500000  0.500000  0.248929  1
  Zn  Zn20  1  0.500000  0.500000  0.500000  1
  Zn  Zn21  1  0.500000  0.500000  0.000000  1
  Zn  Zn22  1  0.000000  0.000000  0.500000  1
  Zn  Zn23  1  0.618952  0.118828  0.749392  1
  Zn  Zn24  1  0.118828  0.618952  0.250608  1
  Zn  Zn25  1  0.881172  0.381048  0.250608  1
  Zn  Zn26  1  0.381048  0.881172  0.749392  1
  Zn  Zn27  1  0.881172  0.618952  0.749392  1
  Zn  Zn28  1  0.381048  0.118828  0.250608  1
  Zn  Zn29  1  0.118828  0.381048  0.749392  1
  Zn  Zn30  1  0.618952  0.881172  0.250608  1
  Sn  Sn31  1  0.000000  0.000000  0.000000  1
