# generated using pymatgen
data_FeF17
_symmetry_space_group_name_H-M   'P 1'
_cell_length_a   8.62268077
_cell_length_b   8.18919307
_cell_length_c   9.95963115
_cell_angle_alpha   84.40654398
_cell_angle_beta   88.43341868
_cell_angle_gamma   68.20757097
_symmetry_Int_Tables_number   1
_chemical_formula_structural   FeF17
_chemical_formula_sum   'Fe2 F34'
_cell_volume   649.87852403
_cell_formula_units_Z   2
loop_
 _symmetry_equiv_pos_site_id
 _symmetry_equiv_pos_as_xyz
  1  'x, y, z'
loop_
 _atom_site_type_symbol
 _atom_site_label
 _atom_site_symmetry_multiplicity
 _atom_site_fract_x
 _atom_site_fract_y
 _atom_site_fract_z
 _atom_site_occupancy
  Fe  Fe0  1  0.861334  0.251857  0.763384  1
  Fe  Fe1  1  0.138666  0.748143  0.236616  1
  F  F2  1  0.607116  0.209794  0.495023  1
  F  F3  1  0.392884  0.790206  0.504977  1
  F  F4  1  0.835080  0.680835  0.699300  1
  F  F5  1  0.164920  0.319165  0.300700  1
  F  F6  1  0.086108  0.775797  0.858875  1
  F  F7  1  0.913892  0.224203  0.141125  1
  F  F8  1  0.556376  0.150806  0.379206  1
  F  F9  1  0.443624  0.849194  0.620794  1
  F  F10  1  0.651959  0.316935  0.702834  1
  F  F11  1  0.348041  0.683065  0.297166  1
  F  F12  1  0.930665  0.076103  0.655067  1
  F  F13  1  0.069335  0.923897  0.344933  1
  F  F14  1  0.906351  0.380688  0.621539  1
  F  F15  1  0.093649  0.619312  0.378461  1
  F  F16  1  0.848016  0.827788  0.618650  1
  F  F17  1  0.151984  0.172212  0.381350  1
  F  F18  1  0.799333  0.438768  0.858101  1
  F  F19  1  0.200667  0.561232  0.141899  1
  F  F20  1  0.220353  0.685349  0.775043  1
  F  F21  1  0.779647  0.314651  0.224957  1
  F  F22  1  0.932490  0.811736  0.172823  1
  F  F23  1  0.067510  0.188264  0.827177  1
  F  F24  1  0.817038  0.115154  0.895263  1
  F  F25  1  0.182962  0.884846  0.104737  1
  F  F26  1  0.493595  0.588258  0.982488  1
  F  F27  1  0.506405  0.411742  0.017512  1
  F  F28  1  0.465141  0.080088  0.863442  1
  F  F29  1  0.534859  0.919912  0.136558  1
  F  F30  1  0.287821  0.237267  0.610216  1
  F  F31  1  0.712179  0.762733  0.389784  1
  F  F32  1  0.254603  0.395392  0.672651  1
  F  F33  1  0.745397  0.604608  0.327349  1
  F  F34  1  0.559891  0.900655  0.843399  1
  F  F35  1  0.440109  0.099345  0.156601  1
