# generated using pymatgen
data_Lu5Pd9
_symmetry_space_group_name_H-M   'P 1'
_cell_length_a   9.62615500
_cell_length_b   9.62615500
_cell_length_c   5.70635600
_cell_angle_alpha   90.00000000
_cell_angle_beta   90.00000000
_cell_angle_gamma   90.00000000
_symmetry_Int_Tables_number   1
_chemical_formula_structural   Lu5Pd9
_chemical_formula_sum   'Lu10 Pd18'
_cell_volume   528.76726762
_cell_formula_units_Z   2
loop_
 _symmetry_equiv_pos_site_id
 _symmetry_equiv_pos_as_xyz
  1  'x, y, z'
loop_
 _atom_site_type_symbol
 _atom_site_label
 _atom_site_symmetry_multiplicity
 _atom_site_fract_x
 _atom_site_fract_y
 _atom_site_fract_z
 _atom_site_occupancy
  Lu  Lu0  1  0.452624  0.808199  0.000000  1
  Lu  Lu1  1  0.547376  0.191801  0.000000  1
  Lu  Lu2  1  0.191801  0.547376  0.000000  1
  Lu  Lu3  1  0.808199  0.452624  0.000000  1
  Lu  Lu4  1  0.500000  0.500000  0.500000  1
  Lu  Lu5  1  0.308199  0.047376  0.500000  1
  Lu  Lu6  1  0.691801  0.952624  0.500000  1
  Lu  Lu7  1  0.952624  0.691801  0.500000  1
  Lu  Lu8  1  0.047376  0.308199  0.500000  1
  Lu  Lu9  1  0.000000  0.000000  0.000000  1
  Pd  Pd10  1  0.190614  0.809386  0.251064  1
  Pd  Pd11  1  0.809386  0.190614  0.748936  1
  Pd  Pd12  1  0.809386  0.190614  0.251064  1
  Pd  Pd13  1  0.190614  0.809386  0.748936  1
  Pd  Pd14  1  0.441292  0.782282  0.500000  1
  Pd  Pd15  1  0.558708  0.217718  0.500000  1
  Pd  Pd16  1  0.217718  0.558708  0.500000  1
  Pd  Pd17  1  0.782282  0.441292  0.500000  1
  Pd  Pd18  1  0.309386  0.309386  0.248936  1
  Pd  Pd19  1  0.690614  0.690614  0.751064  1
  Pd  Pd20  1  0.690614  0.690614  0.248936  1
  Pd  Pd21  1  0.309386  0.309386  0.751064  1
  Pd  Pd22  1  0.282282  0.058708  0.000000  1
  Pd  Pd23  1  0.717718  0.941292  0.000000  1
  Pd  Pd24  1  0.941292  0.717718  0.000000  1
  Pd  Pd25  1  0.058708  0.282282  0.000000  1
  Pd  Pd26  1  0.000000  0.000000  0.500000  1
  Pd  Pd27  1  0.500000  0.500000  0.000000  1
