# generated using pymatgen
data_YbHo3(B4Ru)4
_symmetry_space_group_name_H-M   'P 1'
_cell_length_a   3.54562600
_cell_length_b   5.95647262
_cell_length_c   11.51024966
_cell_angle_alpha   89.95619980
_cell_angle_beta   90.00000000
_cell_angle_gamma   90.00000000
_symmetry_Int_Tables_number   1
_chemical_formula_structural   YbHo3(B4Ru)4
_chemical_formula_sum   'Yb1 Ho3 B16 Ru4'
_cell_volume   243.08977396
_cell_formula_units_Z   1
loop_
 _symmetry_equiv_pos_site_id
 _symmetry_equiv_pos_as_xyz
  1  'x, y, z'
loop_
 _atom_site_type_symbol
 _atom_site_label
 _atom_site_symmetry_multiplicity
 _atom_site_fract_x
 _atom_site_fract_y
 _atom_site_fract_z
 _atom_site_occupancy
  Yb  Yb0  1  0.500000  0.870022  0.649470  1
  Ho  Ho1  1  0.500000  0.628661  0.150039  1
  Ho  Ho2  1  0.500000  0.370635  0.848782  1
  Ho  Ho3  1  0.500000  0.128744  0.351097  1
  B  B4  1  0.000000  0.976457  0.192139  1
  B  B5  1  0.000000  0.024433  0.808073  1
  B  B6  1  0.000000  0.475773  0.308277  1
  B  B7  1  0.000000  0.523827  0.691339  1
  B  B8  1  0.000000  0.789812  0.314926  1
  B  B9  1  0.000000  0.210913  0.685179  1
  B  B10  1  0.000000  0.289353  0.185871  1
  B  B11  1  0.000000  0.711648  0.814108  1
  B  B12  1  0.000000  0.864138  0.469699  1
  B  B13  1  0.000000  0.135567  0.530298  1
  B  B14  1  0.000000  0.364007  0.030448  1
  B  B15  1  0.000000  0.635728  0.969978  1
  B  B16  1  0.000000  0.887554  0.047180  1
  B  B17  1  0.000000  0.111695  0.953079  1
  B  B18  1  0.000000  0.388164  0.453617  1
  B  B19  1  0.000000  0.613353  0.546895  1
  Ru  Ru20  1  0.500000  0.639855  0.407372  1
  Ru  Ru21  1  0.500000  0.360345  0.590909  1
  Ru  Ru22  1  0.500000  0.140428  0.092447  1
  Ru  Ru23  1  0.500000  0.858889  0.908778  1
