# generated using pymatgen
data_Ce4YHoIn10
_symmetry_space_group_name_H-M   'P 1'
_cell_length_a   6.64362300
_cell_length_b   6.64362170
_cell_length_c   10.59606400
_cell_angle_alpha   90.00000000
_cell_angle_beta   90.00000000
_cell_angle_gamma   102.40735317
_symmetry_Int_Tables_number   1
_chemical_formula_structural   Ce4YHoIn10
_chemical_formula_sum   'Ce4 Y1 Ho1 In10'
_cell_volume   456.76314068
_cell_formula_units_Z   1
loop_
 _symmetry_equiv_pos_site_id
 _symmetry_equiv_pos_as_xyz
  1  'x, y, z'
loop_
 _atom_site_type_symbol
 _atom_site_label
 _atom_site_symmetry_multiplicity
 _atom_site_fract_x
 _atom_site_fract_y
 _atom_site_fract_z
 _atom_site_occupancy
  Ce  Ce0  1  0.204768  0.794774  0.500119  1
  Ce  Ce1  1  0.204768  0.794774  0.999881  1
  Ce  Ce2  1  0.794774  0.204768  0.500119  1
  Ce  Ce3  1  0.794774  0.204768  0.999881  1
  Y  Y4  1  0.629180  0.629180  0.250000  1
  Ho  Ho5  1  0.370560  0.370560  0.750000  1
  In  In6  1  0.009731  0.009731  0.250000  1
  In  In7  1  0.990609  0.990609  0.750000  1
  In  In8  1  0.308592  0.308592  0.047936  1
  In  In9  1  0.690564  0.690564  0.950976  1
  In  In10  1  0.308592  0.308592  0.452064  1
  In  In11  1  0.690564  0.690564  0.549024  1
  In  In12  1  0.498829  0.070632  0.250000  1
  In  In13  1  0.931206  0.501856  0.750000  1
  In  In14  1  0.501856  0.931206  0.750000  1
  In  In15  1  0.070632  0.498829  0.250000  1
