# generated using pymatgen
data_Zr10AlGa(SnBi)3
_symmetry_space_group_name_H-M   'P 1'
_cell_length_a   8.82890219
_cell_length_b   8.81261223
_cell_length_c   5.91289213
_cell_angle_alpha   89.99146129
_cell_angle_beta   89.98453353
_cell_angle_gamma   120.03433561
_symmetry_Int_Tables_number   1
_chemical_formula_structural   Zr10AlGa(SnBi)3
_chemical_formula_sum   'Zr10 Al1 Ga1 Sn3 Bi3'
_cell_volume   398.28279901
_cell_formula_units_Z   1
loop_
 _symmetry_equiv_pos_site_id
 _symmetry_equiv_pos_as_xyz
  1  'x, y, z'
loop_
 _atom_site_type_symbol
 _atom_site_label
 _atom_site_symmetry_multiplicity
 _atom_site_fract_x
 _atom_site_fract_y
 _atom_site_fract_z
 _atom_site_occupancy
  Zr  Zr0  1  0.000467  0.269140  0.251249  1
  Zr  Zr1  1  0.734416  0.000566  0.748566  1
  Zr  Zr2  1  0.738025  0.731827  0.251611  1
  Zr  Zr3  1  0.671786  0.338732  0.501599  1
  Zr  Zr4  1  0.994282  0.726883  0.748689  1
  Zr  Zr5  1  0.264994  0.271580  0.748653  1
  Zr  Zr6  1  0.330371  0.663394  0.998171  1
  Zr  Zr7  1  0.671582  0.338424  0.998487  1
  Zr  Zr8  1  0.330301  0.663199  0.501961  1
  Zr  Zr9  1  0.261972  0.994752  0.251365  1
  Al  Al10  1  0.000159  0.999990  0.997984  1
  Ga  Ga11  1  0.000204  0.000082  0.501737  1
  Sn  Sn12  1  0.000900  0.610699  0.249291  1
  Sn  Sn13  1  0.999412  0.388060  0.750649  1
  Sn  Sn14  1  0.612014  0.613563  0.750620  1
  Bi  Bi15  1  0.612681  0.999356  0.249375  1
  Bi  Bi16  1  0.385909  0.000827  0.750638  1
  Bi  Bi17  1  0.390528  0.388927  0.249354  1
