# generated using pymatgen
data_Y2P6Pd20Pb
_symmetry_space_group_name_H-M   'P 1'
_cell_length_a   8.69508792
_cell_length_b   8.69508647
_cell_length_c   8.69508700
_cell_angle_alpha   59.99999419
_cell_angle_beta   59.99999968
_cell_angle_gamma   59.99999869
_symmetry_Int_Tables_number   1
_chemical_formula_structural   Y2P6Pd20Pb
_chemical_formula_sum   'Y2 P6 Pd20 Pb1'
_cell_volume   464.84353212
_cell_formula_units_Z   1
loop_
 _symmetry_equiv_pos_site_id
 _symmetry_equiv_pos_as_xyz
  1  'x, y, z'
loop_
 _atom_site_type_symbol
 _atom_site_label
 _atom_site_symmetry_multiplicity
 _atom_site_fract_x
 _atom_site_fract_y
 _atom_site_fract_z
 _atom_site_occupancy
  Y  Y0  1  0.000000  0.000000  0.000000  1
  Y  Y1  1  0.250000  0.250000  0.250000  1
  P  P2  1  0.736540  0.263460  0.263460  1
  P  P3  1  0.736540  0.736540  0.263460  1
  P  P4  1  0.736540  0.263460  0.736540  1
  P  P5  1  0.263460  0.736540  0.263460  1
  P  P6  1  0.263460  0.736540  0.736540  1
  P  P7  1  0.263460  0.263460  0.736540  1
  Pd  Pd8  1  0.342319  0.002634  0.002634  1
  Pd  Pd9  1  0.002634  0.652413  0.342319  1
  Pd  Pd10  1  0.342319  0.002634  0.652413  1
  Pd  Pd11  1  0.002634  0.652413  0.002634  1
  Pd  Pd12  1  0.652413  0.342319  0.002634  1
  Pd  Pd13  1  0.615546  0.615546  0.153359  1
  Pd  Pd14  1  0.384893  0.845321  0.384893  1
  Pd  Pd15  1  0.153359  0.615546  0.615546  1
  Pd  Pd16  1  0.652413  0.002634  0.342319  1
  Pd  Pd17  1  0.002634  0.342319  0.652413  1
  Pd  Pd18  1  0.652413  0.002634  0.002634  1
  Pd  Pd19  1  0.002634  0.002634  0.342319  1
  Pd  Pd20  1  0.615546  0.153359  0.615546  1
  Pd  Pd21  1  0.342319  0.652413  0.002634  1
  Pd  Pd22  1  0.384893  0.384893  0.384893  1
  Pd  Pd23  1  0.615546  0.615546  0.615546  1
  Pd  Pd24  1  0.384893  0.384893  0.845321  1
  Pd  Pd25  1  0.002634  0.002634  0.652413  1
  Pd  Pd26  1  0.845321  0.384893  0.384893  1
  Pd  Pd27  1  0.002634  0.342319  0.002634  1
  Pb  Pb28  1  0.750000  0.750000  0.750000  1
