# generated using pymatgen
data_Dy3Co(P3Rh4)2
_symmetry_space_group_name_H-M   'P 1'
_cell_length_a   3.87144000
_cell_length_b   11.15230900
_cell_length_c   12.81233900
_cell_angle_alpha   90.00000000
_cell_angle_beta   90.00000000
_cell_angle_gamma   90.00000000
_symmetry_Int_Tables_number   1
_chemical_formula_structural   Dy3Co(P3Rh4)2
_chemical_formula_sum   'Dy6 Co2 P12 Rh16'
_cell_volume   553.17908042
_cell_formula_units_Z   2
loop_
 _symmetry_equiv_pos_site_id
 _symmetry_equiv_pos_as_xyz
  1  'x, y, z'
loop_
 _atom_site_type_symbol
 _atom_site_label
 _atom_site_symmetry_multiplicity
 _atom_site_fract_x
 _atom_site_fract_y
 _atom_site_fract_z
 _atom_site_occupancy
  Dy  Dy0  1  0.000000  0.500000  0.521908  1
  Dy  Dy1  1  0.500000  0.000000  0.478092  1
  Dy  Dy2  1  0.500000  0.814806  0.201851  1
  Dy  Dy3  1  0.500000  0.185194  0.201851  1
  Dy  Dy4  1  0.000000  0.685194  0.798149  1
  Dy  Dy5  1  0.000000  0.314806  0.798149  1
  Co  Co6  1  0.000000  0.500000  0.979356  1
  Co  Co7  1  0.500000  0.000000  0.020644  1
  P  P8  1  0.500000  0.500000  0.881462  1
  P  P9  1  0.000000  0.000000  0.118538  1
  P  P10  1  0.500000  0.500000  0.351521  1
  P  P11  1  0.000000  0.000000  0.648479  1
  P  P12  1  0.500000  0.315667  0.619460  1
  P  P13  1  0.500000  0.684333  0.619460  1
  P  P14  1  0.000000  0.184333  0.380540  1
  P  P15  1  0.000000  0.815667  0.380540  1
  P  P16  1  0.500000  0.853629  0.896019  1
  P  P17  1  0.500000  0.146371  0.896019  1
  P  P18  1  0.000000  0.646371  0.103981  1
  P  P19  1  0.000000  0.353629  0.103981  1
  Rh  Rh20  1  0.500000  0.500000  0.168549  1
  Rh  Rh21  1  0.000000  0.000000  0.831451  1
  Rh  Rh22  1  0.500000  0.500000  0.703106  1
  Rh  Rh23  1  0.000000  0.000000  0.296894  1
  Rh  Rh24  1  0.500000  0.336886  0.994177  1
  Rh  Rh25  1  0.500000  0.663114  0.994177  1
  Rh  Rh26  1  0.000000  0.163114  0.005823  1
  Rh  Rh27  1  0.000000  0.836886  0.005823  1
  Rh  Rh28  1  0.500000  0.293736  0.430189  1
  Rh  Rh29  1  0.500000  0.706264  0.430189  1
  Rh  Rh30  1  0.000000  0.206264  0.569811  1
  Rh  Rh31  1  0.000000  0.793736  0.569811  1
  Rh  Rh32  1  0.500000  0.873546  0.712363  1
  Rh  Rh33  1  0.500000  0.126454  0.712363  1
  Rh  Rh34  1  0.000000  0.626454  0.287637  1
  Rh  Rh35  1  0.000000  0.373546  0.287637  1
