# generated using pymatgen
data_Th5Si9P3Ir19
_symmetry_space_group_name_H-M   'P 1'
_cell_length_a   12.94671200
_cell_length_b   12.94671194
_cell_length_c   4.01453900
_cell_angle_alpha   90.00000000
_cell_angle_beta   90.00000000
_cell_angle_gamma   119.99999503
_symmetry_Int_Tables_number   1
_chemical_formula_structural   Th5Si9P3Ir19
_chemical_formula_sum   'Th5 Si9 P3 Ir19'
_cell_volume   582.75405918
_cell_formula_units_Z   1
loop_
 _symmetry_equiv_pos_site_id
 _symmetry_equiv_pos_as_xyz
  1  'x, y, z'
loop_
 _atom_site_type_symbol
 _atom_site_label
 _atom_site_symmetry_multiplicity
 _atom_site_fract_x
 _atom_site_fract_y
 _atom_site_fract_z
 _atom_site_occupancy
  Th  Th0  1  0.333333  0.666667  0.500000  1
  Th  Th1  1  0.666667  0.333333  0.500000  1
  Th  Th2  1  0.000000  0.814584  0.000000  1
  Th  Th3  1  0.185416  0.185416  0.000000  1
  Th  Th4  1  0.814584  0.000000  0.000000  1
  Si  Si5  1  0.000000  0.632094  0.500000  1
  Si  Si6  1  0.367906  0.367906  0.500000  1
  Si  Si7  1  0.632094  0.000000  0.500000  1
  Si  Si8  1  0.521108  0.685914  0.000000  1
  Si  Si9  1  0.314086  0.835194  0.000000  1
  Si  Si10  1  0.164806  0.478892  0.000000  1
  Si  Si11  1  0.478892  0.164806  0.000000  1
  Si  Si12  1  0.685914  0.521108  0.000000  1
  Si  Si13  1  0.835194  0.314086  0.000000  1
  P  P14  1  0.000000  0.180554  0.500000  1
  P  P15  1  0.819446  0.819446  0.500000  1
  P  P16  1  0.180554  0.000000  0.500000  1
  Ir  Ir17  1  0.513045  0.872977  0.000000  1
  Ir  Ir18  1  0.127023  0.640068  0.000000  1
  Ir  Ir19  1  0.359932  0.486955  0.000000  1
  Ir  Ir20  1  0.486955  0.359932  0.000000  1
  Ir  Ir21  1  0.872977  0.513045  0.000000  1
  Ir  Ir22  1  0.640068  0.127023  0.000000  1
  Ir  Ir23  1  0.000000  0.449146  0.500000  1
  Ir  Ir24  1  0.550854  0.550854  0.500000  1
  Ir  Ir25  1  0.449146  0.000000  0.500000  1
  Ir  Ir26  1  0.000000  0.279060  0.000000  1
  Ir  Ir27  1  0.720940  0.720940  0.000000  1
  Ir  Ir28  1  0.279060  0.000000  0.000000  1
  Ir  Ir29  1  0.626925  0.806020  0.500000  1
  Ir  Ir30  1  0.193980  0.820905  0.500000  1
  Ir  Ir31  1  0.179095  0.373075  0.500000  1
  Ir  Ir32  1  0.373075  0.179095  0.500000  1
  Ir  Ir33  1  0.806020  0.626925  0.500000  1
  Ir  Ir34  1  0.820905  0.193980  0.500000  1
  Ir  Ir35  1  0.000000  0.000000  0.500000  1
