# generated using pymatgen
data_Rb8Ir(WBr8)3
_symmetry_space_group_name_H-M   'P 1'
_cell_length_a   13.16612302
_cell_length_b   13.16612260
_cell_length_c   13.16612317
_cell_angle_alpha   131.53365130
_cell_angle_beta   131.53365183
_cell_angle_gamma   70.96657687
_symmetry_Int_Tables_number   1
_chemical_formula_structural   Rb8Ir(WBr8)3
_chemical_formula_sum   'Rb8 Ir1 W3 Br24'
_cell_volume   1252.37063870
_cell_formula_units_Z   1
loop_
 _symmetry_equiv_pos_site_id
 _symmetry_equiv_pos_as_xyz
  1  'x, y, z'
loop_
 _atom_site_type_symbol
 _atom_site_label
 _atom_site_symmetry_multiplicity
 _atom_site_fract_x
 _atom_site_fract_y
 _atom_site_fract_z
 _atom_site_occupancy
  Rb  Rb0  1  0.117322  0.640759  0.998543  1
  Rb  Rb1  1  0.359241  0.882678  0.001457  1
  Rb  Rb2  1  0.642216  0.640759  0.523437  1
  Rb  Rb3  1  0.359241  0.357784  0.476563  1
  Rb  Rb4  1  0.881222  0.357784  0.998543  1
  Rb  Rb5  1  0.881222  0.882678  0.523437  1
  Rb  Rb6  1  0.117322  0.118778  0.476563  1
  Rb  Rb7  1  0.642216  0.118778  0.001457  1
  Ir  Ir8  1  0.000000  0.000000  0.000000  1
  W  W9  1  0.750000  0.250000  0.500000  1
  W  W10  1  0.500000  0.500000  0.000000  1
  W  W11  1  0.250000  0.750000  0.500000  1
  Br  Br12  1  0.233152  0.999881  0.233271  1
  Br  Br13  1  0.000119  0.766848  0.766729  1
  Br  Br14  1  0.251434  0.987195  0.735763  1
  Br  Br15  1  0.748773  0.484664  0.735892  1
  Br  Br16  1  0.484329  0.748566  0.735763  1
  Br  Br17  1  0.117489  0.117489  0.000000  1
  Br  Br18  1  0.499699  0.735589  0.235889  1
  Br  Br19  1  0.868644  0.368644  0.500000  1
  Br  Br20  1  0.000119  0.233390  0.233271  1
  Br  Br21  1  0.381760  0.381760  0.000000  1
  Br  Br22  1  0.618240  0.618240  0.000000  1
  Br  Br23  1  0.499699  0.263810  0.764111  1
  Br  Br24  1  0.264411  0.500301  0.764111  1
  Br  Br25  1  0.515336  0.251227  0.264108  1
  Br  Br26  1  0.368680  0.868680  0.500000  1
  Br  Br27  1  0.631356  0.131356  0.500000  1
  Br  Br28  1  0.251434  0.515671  0.264237  1
  Br  Br29  1  0.131320  0.631320  0.500000  1
  Br  Br30  1  0.012805  0.748566  0.264237  1
  Br  Br31  1  0.987119  0.251227  0.735892  1
  Br  Br32  1  0.766610  0.999881  0.766729  1
  Br  Br33  1  0.736190  0.500301  0.235889  1
  Br  Br34  1  0.748773  0.012881  0.264108  1
  Br  Br35  1  0.882511  0.882511  0.000000  1
