# generated using pymatgen
data_Yb4Al7Os
_symmetry_space_group_name_H-M   'P 1'
_cell_length_a   5.63889400
_cell_length_b   5.63889347
_cell_length_c   8.83360400
_cell_angle_alpha   90.00000000
_cell_angle_beta   90.00000000
_cell_angle_gamma   119.99997962
_symmetry_Int_Tables_number   1
_chemical_formula_structural   Yb4Al7Os
_chemical_formula_sum   'Yb4 Al7 Os1'
_cell_volume   243.25202726
_cell_formula_units_Z   1
loop_
 _symmetry_equiv_pos_site_id
 _symmetry_equiv_pos_as_xyz
  1  'x, y, z'
loop_
 _atom_site_type_symbol
 _atom_site_label
 _atom_site_symmetry_multiplicity
 _atom_site_fract_x
 _atom_site_fract_y
 _atom_site_fract_z
 _atom_site_occupancy
  Yb  Yb0  1  0.333333  0.666667  0.446961  1
  Yb  Yb1  1  0.666667  0.333333  0.937542  1
  Yb  Yb2  1  0.666667  0.333333  0.553039  1
  Yb  Yb3  1  0.333333  0.666667  0.062458  1
  Al  Al4  1  0.164560  0.329119  0.761728  1
  Al  Al5  1  0.835440  0.164560  0.238272  1
  Al  Al6  1  0.329119  0.164560  0.238272  1
  Al  Al7  1  0.670881  0.835440  0.761728  1
  Al  Al8  1  0.000000  0.000000  0.500000  1
  Al  Al9  1  0.835440  0.670881  0.238272  1
  Al  Al10  1  0.164560  0.835440  0.761728  1
  Os  Os11  1  0.000000  0.000000  0.000000  1
