# generated using pymatgen
data_LaTbYb3Ir2
_symmetry_space_group_name_H-M   'P 1'
_cell_length_a   6.57163171
_cell_length_b   7.42240985
_cell_length_c   8.69893874
_cell_angle_alpha   97.11199415
_cell_angle_beta   112.19289315
_cell_angle_gamma   89.99999797
_symmetry_Int_Tables_number   1
_chemical_formula_structural   LaTbYb3Ir2
_chemical_formula_sum   'La2 Tb2 Yb6 Ir4'
_cell_volume   389.34896233
_cell_formula_units_Z   2
loop_
 _symmetry_equiv_pos_site_id
 _symmetry_equiv_pos_as_xyz
  1  'x, y, z'
loop_
 _atom_site_type_symbol
 _atom_site_label
 _atom_site_symmetry_multiplicity
 _atom_site_fract_x
 _atom_site_fract_y
 _atom_site_fract_z
 _atom_site_occupancy
  La  La0  1  0.985144  0.918742  0.181819  1
  La  La1  1  0.803325  0.581258  0.818181  1
  Tb  Tb2  1  0.427607  0.750000  0.000000  1
  Tb  Tb3  1  0.562528  0.250000  0.000000  1
  Yb  Yb4  1  0.020866  0.080417  0.821806  1
  Yb  Yb5  1  0.199060  0.419583  0.178194  1
  Yb  Yb6  1  0.636830  0.820184  0.431921  1
  Yb  Yb7  1  0.204909  0.679816  0.568079  1
  Yb  Yb8  1  0.364320  0.183869  0.569012  1
  Yb  Yb9  1  0.795308  0.316131  0.430988  1
  Ir  Ir10  1  0.813145  0.580680  0.204127  1
  Ir  Ir11  1  0.609018  0.919320  0.795873  1
  Ir  Ir12  1  0.182489  0.424820  0.787040  1
  Ir  Ir13  1  0.395449  0.075180  0.212960  1
