# generated using pymatgen
data_Li3Tb3SiHgSe
_symmetry_space_group_name_H-M   'P 1'
_cell_length_a   7.14277300
_cell_length_b   7.14277236
_cell_length_c   4.28358300
_cell_angle_alpha   90.00000000
_cell_angle_beta   90.00000000
_cell_angle_gamma   119.99998906
_symmetry_Int_Tables_number   1
_chemical_formula_structural   Li3Tb3SiHgSe
_chemical_formula_sum   'Li3 Tb3 Si1 Hg1 Se1'
_cell_volume   189.26552931
_cell_formula_units_Z   1
loop_
 _symmetry_equiv_pos_site_id
 _symmetry_equiv_pos_as_xyz
  1  'x, y, z'
loop_
 _atom_site_type_symbol
 _atom_site_label
 _atom_site_symmetry_multiplicity
 _atom_site_fract_x
 _atom_site_fract_y
 _atom_site_fract_z
 _atom_site_occupancy
  Li  Li0  1  0.755243  0.752695  0.500000  1
  Li  Li1  1  0.247305  0.002548  0.500000  1
  Li  Li2  1  0.997452  0.244757  0.500000  1
  Tb  Tb3  1  0.432702  0.419749  0.000000  1
  Tb  Tb4  1  0.580251  0.012954  0.000000  1
  Tb  Tb5  1  0.987046  0.567298  0.000000  1
  Si  Si6  1  0.666667  0.333333  0.500000  1
  Hg  Hg7  1  0.000000  0.000000  0.000000  1
  Se  Se8  1  0.333333  0.666667  0.500000  1
