# generated using pymatgen
data_Nd2Tm(TaSn)18
_symmetry_space_group_name_H-M   'P 1'
_cell_length_a   5.80488174
_cell_length_b   9.64481283
_cell_length_c   16.03209142
_cell_angle_alpha   107.50240223
_cell_angle_beta   100.32142622
_cell_angle_gamma   90.05195778
_symmetry_Int_Tables_number   1
_chemical_formula_structural   Nd2Tm(TaSn)18
_chemical_formula_sum   'Nd2 Tm1 Ta18 Sn18'
_cell_volume   840.74475901
_cell_formula_units_Z   1
loop_
 _symmetry_equiv_pos_site_id
 _symmetry_equiv_pos_as_xyz
  1  'x, y, z'
loop_
 _atom_site_type_symbol
 _atom_site_label
 _atom_site_symmetry_multiplicity
 _atom_site_fract_x
 _atom_site_fract_y
 _atom_site_fract_z
 _atom_site_occupancy
  Nd  Nd0  1  0.331775  0.831090  0.665064  1
  Nd  Nd1  1  0.667422  0.167122  0.335558  1
  Tm  Tm2  1  0.999596  0.999082  0.000316  1
  Ta  Ta3  1  0.165760  0.415442  0.333493  1
  Ta  Ta4  1  0.332437  0.832963  0.166697  1
  Ta  Ta5  1  0.667125  0.667327  0.834680  1
  Ta  Ta6  1  0.500099  0.750433  0.000266  1
  Ta  Ta7  1  0.166343  0.165783  0.834264  1
  Ta  Ta8  1  0.833799  0.331362  0.166442  1
  Ta  Ta9  1  0.832781  0.082919  0.667241  1
  Ta  Ta10  1  0.165512  0.666996  0.834183  1
  Ta  Ta11  1  0.499525  0.998979  0.500313  1
  Ta  Ta12  1  0.499293  0.248020  0.000391  1
  Ta  Ta13  1  0.999516  0.998998  0.500301  1
  Ta  Ta14  1  0.999639  0.498988  0.500298  1
  Ta  Ta15  1  0.832946  0.832578  0.166370  1
  Ta  Ta16  1  0.833578  0.582702  0.667133  1
  Ta  Ta17  1  0.332300  0.330994  0.165972  1
  Ta  Ta18  1  0.166295  0.915213  0.333360  1
  Ta  Ta19  1  0.666756  0.165499  0.833953  1
  Ta  Ta20  1  0.499678  0.499007  0.500301  1
  Sn  Sn21  1  0.999076  0.326394  0.999997  1
  Sn  Sn22  1  0.888449  0.888296  0.778291  1
  Sn  Sn23  1  0.110675  0.110035  0.222305  1
  Sn  Sn24  1  0.222595  0.221742  0.445874  1
  Sn  Sn25  1  0.443613  0.443733  0.889407  1
  Sn  Sn26  1  0.109587  0.609064  0.220577  1
  Sn  Sn27  1  0.778700  0.278416  0.558709  1
  Sn  Sn28  1  0.889594  0.389417  0.780097  1
  Sn  Sn29  1  0.220536  0.719642  0.441819  1
  Sn  Sn30  1  0.334343  0.495642  0.667635  1
  Sn  Sn31  1  0.555933  0.054586  0.111384  1
  Sn  Sn32  1  0.665229  0.502593  0.332997  1
  Sn  Sn33  1  0.443169  0.943885  0.889259  1
  Sn  Sn34  1  0.331951  0.170072  0.667515  1
  Sn  Sn35  1  0.776759  0.776337  0.554777  1
  Sn  Sn36  1  0.666910  0.828203  0.333080  1
  Sn  Sn37  1  0.555670  0.554705  0.111368  1
  Sn  Sn38  1  0.000291  0.671790  0.000678  1
