# generated using pymatgen
data_Tb7Tm9Cd2In2Ru3Pt
_symmetry_space_group_name_H-M   'P 1'
_cell_length_a   9.55130672
_cell_length_b   9.58927704
_cell_length_c   9.62090300
_cell_angle_alpha   59.89084457
_cell_angle_beta   59.75867147
_cell_angle_gamma   59.75290439
_symmetry_Int_Tables_number   1
_chemical_formula_structural   Tb7Tm9Cd2In2Ru3Pt
_chemical_formula_sum   'Tb7 Tm9 Cd2 In2 Ru3 Pt1'
_cell_volume   620.26833763
_cell_formula_units_Z   1
loop_
 _symmetry_equiv_pos_site_id
 _symmetry_equiv_pos_as_xyz
  1  'x, y, z'
loop_
 _atom_site_type_symbol
 _atom_site_label
 _atom_site_symmetry_multiplicity
 _atom_site_fract_x
 _atom_site_fract_y
 _atom_site_fract_z
 _atom_site_occupancy
  Tb  Tb0  1  0.814831  0.803484  0.190843  1
  Tb  Tb1  1  0.939454  0.559843  0.561978  1
  Tb  Tb2  1  0.556222  0.940579  0.938350  1
  Tb  Tb3  1  0.556222  0.940579  0.564850  1
  Tb  Tb4  1  0.939454  0.559843  0.938724  1
  Tb  Tb5  1  0.555713  0.564291  0.939998  1
  Tb  Tb6  1  0.938614  0.940108  0.560640  1
  Tm  Tm7  1  0.346674  0.351446  0.350469  1
  Tm  Tm8  1  0.346674  0.351446  0.951412  1
  Tm  Tm9  1  0.346052  0.953662  0.350144  1
  Tm  Tm10  1  0.961552  0.345888  0.346279  1
  Tm  Tm11  1  0.815857  0.189418  0.189662  1
  Tm  Tm12  1  0.188584  0.811687  0.810493  1
  Tm  Tm13  1  0.188584  0.811687  0.189235  1
  Tm  Tm14  1  0.815857  0.189418  0.805065  1
  Tm  Tm15  1  0.186211  0.186660  0.813564  1
  Cd  Cd16  1  0.579788  0.258916  0.580648  1
  Cd  Cd17  1  0.256747  0.580129  0.581560  1
  In  In18  1  0.580648  0.579607  0.581679  1
  In  In19  1  0.580648  0.579607  0.258065  1
  Ru  Ru20  1  0.144151  0.139859  0.138778  1
  Ru  Ru21  1  0.144151  0.139859  0.577213  1
  Ru  Ru22  1  0.145070  0.575687  0.139622  1
  Pt  Pt23  1  0.572242  0.146297  0.140731  1
