# generated using pymatgen
data_La6RuAuBr6
_symmetry_space_group_name_H-M   'P 1'
_cell_length_a   10.61489671
_cell_length_b   10.84532948
_cell_length_c   10.61489603
_cell_angle_alpha   109.42926201
_cell_angle_beta   108.67936990
_cell_angle_gamma   109.42926558
_symmetry_Int_Tables_number   1
_chemical_formula_structural   La6RuAuBr6
_chemical_formula_sum   'La12 Ru2 Au2 Br12'
_cell_volume   950.69317519
_cell_formula_units_Z   2
loop_
 _symmetry_equiv_pos_site_id
 _symmetry_equiv_pos_as_xyz
  1  'x, y, z'
loop_
 _atom_site_type_symbol
 _atom_site_label
 _atom_site_symmetry_multiplicity
 _atom_site_fract_x
 _atom_site_fract_y
 _atom_site_fract_z
 _atom_site_occupancy
  La  La0  1  0.258597  0.750000  0.241403  1
  La  La1  1  0.491403  0.750000  0.008597  1
  La  La2  1  0.234874  0.469746  0.484874  1
  La  La3  1  0.015126  0.030254  0.265126  1
  La  La4  1  0.227788  0.255913  0.733501  1
  La  La5  1  0.006231  0.478439  0.737108  1
  La  La6  1  0.477589  0.244087  0.471874  1
  La  La7  1  0.258669  0.021561  0.027793  1
  La  La8  1  0.766499  0.244087  0.272212  1
  La  La9  1  0.762892  0.021561  0.493769  1
  La  La10  1  0.472207  0.478439  0.241331  1
  La  La11  1  0.028126  0.255913  0.022411  1
  Ru  Ru12  1  0.999917  0.250000  0.500083  1
  Ru  Ru13  1  0.250083  0.250000  0.249917  1
  Au  Au14  1  0.500167  0.000334  0.250167  1
  Au  Au15  1  0.249833  0.499666  0.999833  1
  Br  Br16  1  0.251237  0.994139  0.504950  1
  Br  Br17  1  0.510811  0.505861  0.757099  1
  Br  Br18  1  0.249438  0.753391  0.745883  1
  Br  Br19  1  0.992491  0.746609  0.996047  1
  Br  Br20  1  0.995050  0.505861  0.248763  1
  Br  Br21  1  0.742901  0.994139  0.989189  1
  Br  Br22  1  0.754117  0.746609  0.250562  1
  Br  Br23  1  0.503953  0.753391  0.507509  1
  Br  Br24  1  0.503937  0.250000  0.996063  1
  Br  Br25  1  0.755770  0.511541  0.505770  1
  Br  Br26  1  0.746063  0.250000  0.753937  1
  Br  Br27  1  0.994230  0.988459  0.744230  1
