# generated using pymatgen
data_ZnIr5O12
_symmetry_space_group_name_H-M   'P 1'
_cell_length_a   4.55560694
_cell_length_b   4.55560698
_cell_length_c   9.54922400
_cell_angle_alpha   90.00000000
_cell_angle_beta   90.00000000
_cell_angle_gamma   89.54157609
_symmetry_Int_Tables_number   1
_chemical_formula_structural   ZnIr5O12
_chemical_formula_sum   'Zn1 Ir5 O12'
_cell_volume   198.17399990
_cell_formula_units_Z   1
loop_
 _symmetry_equiv_pos_site_id
 _symmetry_equiv_pos_as_xyz
  1  'x, y, z'
loop_
 _atom_site_type_symbol
 _atom_site_label
 _atom_site_symmetry_multiplicity
 _atom_site_fract_x
 _atom_site_fract_y
 _atom_site_fract_z
 _atom_site_occupancy
  Zn  Zn0  1  0.000000  0.000000  0.000000  1
  Ir  Ir1  1  0.000000  0.000000  0.331933  1
  Ir  Ir2  1  0.000000  0.000000  0.668067  1
  Ir  Ir3  1  0.500000  0.500000  0.500000  1
  Ir  Ir4  1  0.500000  0.500000  0.833801  1
  Ir  Ir5  1  0.500000  0.500000  0.166199  1
  O  O6  1  0.307953  0.307953  0.333871  1
  O  O7  1  0.307953  0.307953  0.666129  1
  O  O8  1  0.692047  0.692047  0.333871  1
  O  O9  1  0.692047  0.692047  0.666129  1
  O  O10  1  0.192328  0.807672  0.500000  1
  O  O11  1  0.196606  0.803394  0.829108  1
  O  O12  1  0.196606  0.803394  0.170892  1
  O  O13  1  0.316265  0.316265  0.000000  1
  O  O14  1  0.683735  0.683735  0.000000  1
  O  O15  1  0.803394  0.196606  0.170892  1
  O  O16  1  0.803394  0.196606  0.829108  1
  O  O17  1  0.807672  0.192328  0.500000  1
