# generated using pymatgen
data_Th2Ga4GeRh3
_symmetry_space_group_name_H-M   'P 1'
_cell_length_a   8.66129530
_cell_length_b   8.66129460
_cell_length_c   8.66129487
_cell_angle_alpha   140.94727000
_cell_angle_beta   107.43062471
_cell_angle_gamma   85.63457242
_symmetry_Int_Tables_number   1
_chemical_formula_structural   Th2Ga4GeRh3
_chemical_formula_sum   'Th4 Ga8 Ge2 Rh6'
_cell_volume   377.09937201
_cell_formula_units_Z   2
loop_
 _symmetry_equiv_pos_site_id
 _symmetry_equiv_pos_as_xyz
  1  'x, y, z'
loop_
 _atom_site_type_symbol
 _atom_site_label
 _atom_site_symmetry_multiplicity
 _atom_site_fract_x
 _atom_site_fract_y
 _atom_site_fract_z
 _atom_site_occupancy
  Th  Th0  1  0.363432  0.138093  0.225338  1
  Th  Th1  1  0.637186  0.861833  0.775354  1
  Th  Th2  1  0.086479  0.361833  0.724646  1
  Th  Th3  1  0.912754  0.638093  0.274662  1
  Ga  Ga4  1  0.000025  0.250025  0.250000  1
  Ga  Ga5  1  0.000025  0.750025  0.750000  1
  Ga  Ga6  1  0.712705  0.962705  0.250000  1
  Ga  Ga7  1  0.288223  0.538223  0.250000  1
  Ga  Ga8  1  0.288223  0.038223  0.750000  1
  Ga  Ga9  1  0.712705  0.462705  0.750000  1
  Ga  Ga10  1  0.566368  0.403523  0.162845  1
  Ga  Ga11  1  0.240677  0.903523  0.337155  1
  Ge  Ge12  1  0.757116  0.095507  0.661610  1
  Ge  Ge13  1  0.433897  0.595507  0.838390  1
  Rh  Rh14  1  0.956770  0.854650  0.102120  1
  Rh  Rh15  1  0.500874  0.750874  0.250000  1
  Rh  Rh16  1  0.752529  0.354650  0.397880  1
  Rh  Rh17  1  0.249196  0.644566  0.604629  1
  Rh  Rh18  1  0.039937  0.144566  0.895371  1
  Rh  Rh19  1  0.500874  0.250874  0.750000  1
