# generated using pymatgen
data_Th2ScBe2Rh5
_symmetry_space_group_name_H-M   'P 1'
_cell_length_a   9.84678300
_cell_length_b   9.84678300
_cell_length_c   3.44156000
_cell_angle_alpha   90.00000000
_cell_angle_beta   90.00000000
_cell_angle_gamma   90.00000000
_symmetry_Int_Tables_number   1
_chemical_formula_structural   Th2ScBe2Rh5
_chemical_formula_sum   'Th4 Sc2 Be4 Rh10'
_cell_volume   333.69068220
_cell_formula_units_Z   2
loop_
 _symmetry_equiv_pos_site_id
 _symmetry_equiv_pos_as_xyz
  1  'x, y, z'
loop_
 _atom_site_type_symbol
 _atom_site_label
 _atom_site_symmetry_multiplicity
 _atom_site_fract_x
 _atom_site_fract_y
 _atom_site_fract_z
 _atom_site_occupancy
  Th  Th0  1  0.823204  0.323204  0.000000  1
  Th  Th1  1  0.323204  0.176796  0.000000  1
  Th  Th2  1  0.676796  0.823204  0.000000  1
  Th  Th3  1  0.176796  0.676796  0.000000  1
  Sc  Sc4  1  0.000000  0.000000  0.000000  1
  Sc  Sc5  1  0.500000  0.500000  0.000000  1
  Be  Be6  1  0.617113  0.117113  0.000000  1
  Be  Be7  1  0.117113  0.382887  0.000000  1
  Be  Be8  1  0.882887  0.617113  0.000000  1
  Be  Be9  1  0.382887  0.882887  0.000000  1
  Rh  Rh10  1  0.071013  0.219600  0.500000  1
  Rh  Rh11  1  0.219600  0.928987  0.500000  1
  Rh  Rh12  1  0.780400  0.071013  0.500000  1
  Rh  Rh13  1  0.928987  0.780400  0.500000  1
  Rh  Rh14  1  0.428987  0.719600  0.500000  1
  Rh  Rh15  1  0.571013  0.280400  0.500000  1
  Rh  Rh16  1  0.719600  0.571013  0.500000  1
  Rh  Rh17  1  0.280400  0.428987  0.500000  1
  Rh  Rh18  1  0.500000  0.000000  0.500000  1
  Rh  Rh19  1  0.000000  0.500000  0.500000  1
