# generated using pymatgen
data_Gd2RuC4
_symmetry_space_group_name_H-M   'P 1'
_cell_length_a   5.32935242
_cell_length_b   6.71784158
_cell_length_c   6.71784174
_cell_angle_alpha   71.12219681
_cell_angle_beta   66.63066468
_cell_angle_gamma   66.63067781
_symmetry_Int_Tables_number   1
_chemical_formula_structural   Gd2RuC4
_chemical_formula_sum   'Gd4 Ru2 C8'
_cell_volume   198.68764892
_cell_formula_units_Z   2
loop_
 _symmetry_equiv_pos_site_id
 _symmetry_equiv_pos_as_xyz
  1  'x, y, z'
loop_
 _atom_site_type_symbol
 _atom_site_label
 _atom_site_symmetry_multiplicity
 _atom_site_fract_x
 _atom_site_fract_y
 _atom_site_fract_z
 _atom_site_occupancy
  Gd  Gd0  1  0.650821  0.203027  0.495331  1
  Gd  Gd1  1  0.349179  0.796973  0.504669  1
  Gd  Gd2  1  0.150821  0.495331  0.203027  1
  Gd  Gd3  1  0.849179  0.504669  0.796973  1
  Ru  Ru4  1  0.250000  0.000000  0.000000  1
  Ru  Ru5  1  0.750000  0.000000  0.000000  1
  C  C6  1  0.874163  0.786537  0.465138  1
  C  C7  1  0.125837  0.213463  0.534862  1
  C  C8  1  0.374163  0.465138  0.786537  1
  C  C9  1  0.625837  0.534862  0.213463  1
  C  C10  1  0.925171  0.898533  0.251125  1
  C  C11  1  0.074829  0.101467  0.748875  1
  C  C12  1  0.425171  0.251125  0.898533  1
  C  C13  1  0.574829  0.748875  0.101467  1
