# generated using pymatgen
data_InGeAsO6
_symmetry_space_group_name_H-M   'P 1'
_cell_length_a   4.94830912
_cell_length_b   4.94831197
_cell_length_c   4.66099037
_cell_angle_alpha   90.03990766
_cell_angle_beta   90.03957399
_cell_angle_gamma   119.99379375
_symmetry_Int_Tables_number   1
_chemical_formula_structural   InGeAsO6
_chemical_formula_sum   'In1 Ge1 As1 O6'
_cell_volume   98.84380837
_cell_formula_units_Z   1
loop_
 _symmetry_equiv_pos_site_id
 _symmetry_equiv_pos_as_xyz
  1  'x, y, z'
loop_
 _atom_site_type_symbol
 _atom_site_label
 _atom_site_symmetry_multiplicity
 _atom_site_fract_x
 _atom_site_fract_y
 _atom_site_fract_z
 _atom_site_occupancy
  In  In0  1  0.517101  0.482903  0.500001  1
  Ge  Ge1  1  0.850392  0.149604  0.000006  1
  As  As2  1  0.183775  0.816234  0.000006  1
  O  O3  1  0.155481  0.114465  0.222215  1
  O  O4  1  0.886584  0.490152  0.222767  1
  O  O5  1  0.510578  0.845516  0.222786  1
  O  O6  1  0.154485  0.489420  0.777216  1
  O  O7  1  0.509851  0.113419  0.777241  1
  O  O8  1  0.885537  0.844517  0.777788  1
