# generated using pymatgen
data_TbNdP2(Ru2C)2
_symmetry_space_group_name_H-M   'P 1'
_cell_length_a   3.85748207
_cell_length_b   5.84312151
_cell_length_c   7.12638400
_cell_angle_alpha   90.00000000
_cell_angle_beta   90.00000000
_cell_angle_gamma   70.74837378
_symmetry_Int_Tables_number   1
_chemical_formula_structural   TbNdP2(Ru2C)2
_chemical_formula_sum   'Tb1 Nd1 P2 Ru4 C2'
_cell_volume   151.64451156
_cell_formula_units_Z   1
loop_
 _symmetry_equiv_pos_site_id
 _symmetry_equiv_pos_as_xyz
  1  'x, y, z'
loop_
 _atom_site_type_symbol
 _atom_site_label
 _atom_site_symmetry_multiplicity
 _atom_site_fract_x
 _atom_site_fract_y
 _atom_site_fract_z
 _atom_site_occupancy
  Tb  Tb0  1  0.044997  0.909615  0.750000  1
  Nd  Nd1  1  0.954137  0.092236  0.250000  1
  P  P2  1  0.230402  0.539505  0.250000  1
  P  P3  1  0.769464  0.460836  0.750000  1
  Ru  Ru4  1  0.666191  0.667497  0.051536  1
  Ru  Ru5  1  0.666191  0.667497  0.448463  1
  Ru  Ru6  1  0.333692  0.332608  0.555598  1
  Ru  Ru7  1  0.333692  0.332608  0.944403  1
  C  C8  1  0.500618  0.998799  0.993961  1
  C  C9  1  0.500618  0.998799  0.506039  1
