# generated using pymatgen
data_DyTm5Co16(P6W)2
_symmetry_space_group_name_H-M   'P 1'
_cell_length_a   3.70447800
_cell_length_b   10.52174300
_cell_length_c   12.20348000
_cell_angle_alpha   90.00000000
_cell_angle_beta   90.00000000
_cell_angle_gamma   90.00000000
_symmetry_Int_Tables_number   1
_chemical_formula_structural   DyTm5Co16(P6W)2
_chemical_formula_sum   'Dy1 Tm5 Co16 P12 W2'
_cell_volume   475.66194060
_cell_formula_units_Z   1
loop_
 _symmetry_equiv_pos_site_id
 _symmetry_equiv_pos_as_xyz
  1  'x, y, z'
loop_
 _atom_site_type_symbol
 _atom_site_label
 _atom_site_symmetry_multiplicity
 _atom_site_fract_x
 _atom_site_fract_y
 _atom_site_fract_z
 _atom_site_occupancy
  Dy  Dy0  1  0.000000  0.500000  0.525041  1
  Tm  Tm1  1  0.500000  0.000000  0.475025  1
  Tm  Tm2  1  0.500000  0.820041  0.205008  1
  Tm  Tm3  1  0.500000  0.179959  0.205008  1
  Tm  Tm4  1  0.000000  0.680296  0.795347  1
  Tm  Tm5  1  0.000000  0.319704  0.795347  1
  Co  Co6  1  0.500000  0.500000  0.702050  1
  Co  Co7  1  0.000000  0.000000  0.298723  1
  Co  Co8  1  0.000000  0.500000  0.987052  1
  Co  Co9  1  0.500000  0.000000  0.013039  1
  Co  Co10  1  0.500000  0.332467  0.990142  1
  Co  Co11  1  0.500000  0.667533  0.990142  1
  Co  Co12  1  0.000000  0.167109  0.009823  1
  Co  Co13  1  0.000000  0.832891  0.009823  1
  Co  Co14  1  0.500000  0.294831  0.431457  1
  Co  Co15  1  0.500000  0.705169  0.431457  1
  Co  Co16  1  0.000000  0.202970  0.568557  1
  Co  Co17  1  0.000000  0.797030  0.568557  1
  Co  Co18  1  0.500000  0.877791  0.707193  1
  Co  Co19  1  0.500000  0.122209  0.707193  1
  Co  Co20  1  0.000000  0.622779  0.292513  1
  Co  Co21  1  0.000000  0.377221  0.292513  1
  P  P22  1  0.500000  0.500000  0.879998  1
  P  P23  1  0.000000  0.000000  0.120354  1
  P  P24  1  0.500000  0.500000  0.350583  1
  P  P25  1  0.000000  0.000000  0.648131  1
  P  P26  1  0.500000  0.311458  0.616892  1
  P  P27  1  0.500000  0.688542  0.616892  1
  P  P28  1  0.000000  0.187253  0.383607  1
  P  P29  1  0.000000  0.812747  0.383607  1
  P  P30  1  0.500000  0.843621  0.891897  1
  P  P31  1  0.500000  0.156379  0.891897  1
  P  P32  1  0.000000  0.656802  0.107944  1
  P  P33  1  0.000000  0.343198  0.107944  1
  W  W34  1  0.500000  0.500000  0.156436  1
  W  W35  1  0.000000  0.000000  0.842806  1
