# generated using pymatgen
data_Nb7VO12
_symmetry_space_group_name_H-M   'P 1'
_cell_length_a   6.76581100
_cell_length_b   6.76581048
_cell_length_c   6.76581100
_cell_angle_alpha   73.44427880
_cell_angle_beta   73.44427127
_cell_angle_gamma   73.44426896
_symmetry_Int_Tables_number   1
_chemical_formula_structural   Nb7VO12
_chemical_formula_sum   'Nb7 V1 O12'
_cell_volume   277.48064335
_cell_formula_units_Z   1
loop_
 _symmetry_equiv_pos_site_id
 _symmetry_equiv_pos_as_xyz
  1  'x, y, z'
loop_
 _atom_site_type_symbol
 _atom_site_label
 _atom_site_symmetry_multiplicity
 _atom_site_fract_x
 _atom_site_fract_y
 _atom_site_fract_z
 _atom_site_occupancy
  Nb  Nb0  1  0.274051  0.274051  0.274051  1
  Nb  Nb1  1  0.937089  0.116268  0.708857  1
  Nb  Nb2  1  0.708857  0.937089  0.116268  1
  Nb  Nb3  1  0.116268  0.708857  0.937089  1
  Nb  Nb4  1  0.048412  0.884924  0.293776  1
  Nb  Nb5  1  0.293776  0.048412  0.884924  1
  Nb  Nb6  1  0.884924  0.293776  0.048412  1
  V  V7  1  0.729094  0.729094  0.729094  1
  O  O8  1  0.172792  0.574695  0.260110  1
  O  O9  1  0.260110  0.172792  0.574695  1
  O  O10  1  0.574695  0.260110  0.172792  1
  O  O11  1  0.830777  0.419351  0.747845  1
  O  O12  1  0.747845  0.830777  0.419351  1
  O  O13  1  0.419351  0.747845  0.830777  1
  O  O14  1  0.644853  0.035574  0.802345  1
  O  O15  1  0.802345  0.644853  0.035574  1
  O  O16  1  0.966862  0.201239  0.351084  1
  O  O17  1  0.201239  0.351084  0.966862  1
  O  O18  1  0.351084  0.966862  0.201239  1
  O  O19  1  0.035574  0.802345  0.644853  1
