# generated using pymatgen
data_Y2Ho8(BiPb)3
_symmetry_space_group_name_H-M   'P 1'
_cell_length_a   9.09824008
_cell_length_b   9.09823955
_cell_length_c   6.47993500
_cell_angle_alpha   90.00000000
_cell_angle_beta   90.00000000
_cell_angle_gamma   119.98436346
_symmetry_Int_Tables_number   1
_chemical_formula_structural   Y2Ho8(BiPb)3
_chemical_formula_sum   'Y2 Ho8 Bi3 Pb3'
_cell_volume   464.60560930
_cell_formula_units_Z   1
loop_
 _symmetry_equiv_pos_site_id
 _symmetry_equiv_pos_as_xyz
  1  'x, y, z'
loop_
 _atom_site_type_symbol
 _atom_site_label
 _atom_site_symmetry_multiplicity
 _atom_site_fract_x
 _atom_site_fract_y
 _atom_site_fract_z
 _atom_site_occupancy
  Y  Y0  1  0.238201  0.999971  0.750000  1
  Y  Y1  1  0.999971  0.238201  0.750000  1
  Ho  Ho2  1  0.666680  0.333348  0.002667  1
  Ho  Ho3  1  0.333348  0.666680  0.002667  1
  Ho  Ho4  1  0.333348  0.666680  0.497333  1
  Ho  Ho5  1  0.666680  0.333348  0.497333  1
  Ho  Ho6  1  0.761732  0.761732  0.750000  1
  Ho  Ho7  1  0.238658  0.238658  0.250000  1
  Ho  Ho8  1  0.761366  0.999933  0.250000  1
  Ho  Ho9  1  0.999933  0.761366  0.250000  1
  Bi  Bi10  1  0.393744  0.393744  0.750000  1
  Bi  Bi11  1  0.606406  0.999894  0.750000  1
  Bi  Bi12  1  0.999894  0.606406  0.750000  1
  Pb  Pb13  1  0.606560  0.606560  0.250000  1
  Pb  Pb14  1  0.393460  0.000018  0.250000  1
  Pb  Pb15  1  0.000018  0.393460  0.250000  1
