# generated using pymatgen
data_Lu5BiIrPd
_symmetry_space_group_name_H-M   'P 1'
_cell_length_a   8.76475938
_cell_length_b   8.76475927
_cell_length_c   8.66203011
_cell_angle_alpha   127.92447100
_cell_angle_beta   127.92447032
_cell_angle_gamma   77.59405031
_symmetry_Int_Tables_number   1
_chemical_formula_structural   Lu5BiIrPd
_chemical_formula_sum   'Lu10 Bi2 Ir2 Pd2'
_cell_volume   399.60915388
_cell_formula_units_Z   2
loop_
 _symmetry_equiv_pos_site_id
 _symmetry_equiv_pos_as_xyz
  1  'x, y, z'
loop_
 _atom_site_type_symbol
 _atom_site_label
 _atom_site_symmetry_multiplicity
 _atom_site_fract_x
 _atom_site_fract_y
 _atom_site_fract_z
 _atom_site_occupancy
  Lu  Lu0  1  0.000000  0.000000  0.000000  1
  Lu  Lu1  1  0.500000  0.500000  0.000000  1
  Lu  Lu2  1  0.799187  0.299187  0.825346  1
  Lu  Lu3  1  0.200813  0.700813  0.174654  1
  Lu  Lu4  1  0.473843  0.973843  0.174654  1
  Lu  Lu5  1  0.280107  0.482736  0.500000  1
  Lu  Lu6  1  0.017264  0.219893  0.500000  1
  Lu  Lu7  1  0.526157  0.026157  0.825346  1
  Lu  Lu8  1  0.719893  0.517264  0.500000  1
  Lu  Lu9  1  0.982736  0.780107  0.500000  1
  Bi  Bi10  1  0.250000  0.250000  0.000000  1
  Bi  Bi11  1  0.750000  0.750000  0.000000  1
  Ir  Ir12  1  0.143887  0.643887  0.787773  1
  Ir  Ir13  1  0.856113  0.356113  0.212227  1
  Pd  Pd14  1  0.634361  0.865639  0.500000  1
  Pd  Pd15  1  0.365639  0.134361  0.500000  1
