# generated using pymatgen
data_Sc4Si6Ni2Ir5
_symmetry_space_group_name_H-M   'P 1'
_cell_length_a   6.89149462
_cell_length_b   6.91678492
_cell_length_c   6.91678442
_cell_angle_alpha   109.54475268
_cell_angle_beta   109.50867155
_cell_angle_gamma   109.50866720
_symmetry_Int_Tables_number   1
_chemical_formula_structural   Sc4Si6Ni2Ir5
_chemical_formula_sum   'Sc4 Si6 Ni2 Ir5'
_cell_volume   253.33890680
_cell_formula_units_Z   1
loop_
 _symmetry_equiv_pos_site_id
 _symmetry_equiv_pos_as_xyz
  1  'x, y, z'
loop_
 _atom_site_type_symbol
 _atom_site_label
 _atom_site_symmetry_multiplicity
 _atom_site_fract_x
 _atom_site_fract_y
 _atom_site_fract_z
 _atom_site_occupancy
  Sc  Sc0  1  0.003555  0.001777  0.501777  1
  Sc  Sc1  1  0.003555  0.501777  0.001777  1
  Sc  Sc2  1  0.493010  0.996761  0.996761  1
  Sc  Sc3  1  0.493010  0.496249  0.496249  1
  Si  Si4  1  0.685827  0.684822  0.001005  1
  Si  Si5  1  0.323342  0.002996  0.320346  1
  Si  Si6  1  0.990101  0.316584  0.316584  1
  Si  Si7  1  0.323342  0.320346  0.002996  1
  Si  Si8  1  0.685827  0.001005  0.684822  1
  Si  Si9  1  0.990101  0.673517  0.673517  1
  Ni  Ni10  1  0.747757  0.251759  0.495998  1
  Ni  Ni11  1  0.747757  0.495998  0.251759  1
  Ir  Ir12  1  0.512334  0.256167  0.756167  1
  Ir  Ir13  1  0.243167  0.495775  0.747391  1
  Ir  Ir14  1  0.243167  0.747391  0.495775  1
  Ir  Ir15  1  0.512334  0.756167  0.256167  1
  Ir  Ir16  1  0.001813  0.000906  0.000906  1
