# generated using pymatgen
data_Tb12InCo5
_symmetry_space_group_name_H-M   'P 1'
_cell_length_a   8.32363813
_cell_length_b   8.32363767
_cell_length_c   8.32363776
_cell_angle_alpha   110.73726312
_cell_angle_beta   110.59665359
_cell_angle_gamma   107.10536999
_symmetry_Int_Tables_number   1
_chemical_formula_structural   Tb12InCo5
_chemical_formula_sum   'Tb12 In1 Co5'
_cell_volume   443.36775309
_cell_formula_units_Z   1
loop_
 _symmetry_equiv_pos_site_id
 _symmetry_equiv_pos_as_xyz
  1  'x, y, z'
loop_
 _atom_site_type_symbol
 _atom_site_label
 _atom_site_symmetry_multiplicity
 _atom_site_fract_x
 _atom_site_fract_y
 _atom_site_fract_z
 _atom_site_occupancy
  Tb  Tb0  1  0.814409  0.706508  0.520917  1
  Tb  Tb1  1  0.185591  0.293492  0.479083  1
  Tb  Tb2  1  0.185591  0.706508  0.892101  1
  Tb  Tb3  1  0.814409  0.293492  0.107899  1
  Tb  Tb4  1  0.684994  0.379137  0.694142  1
  Tb  Tb5  1  0.315006  0.620863  0.305858  1
  Tb  Tb6  1  0.684994  0.990852  0.305858  1
  Tb  Tb7  1  0.315006  0.009148  0.694142  1
  Tb  Tb8  1  0.601093  0.792475  0.808619  1
  Tb  Tb9  1  0.398907  0.207525  0.191381  1
  Tb  Tb10  1  0.983856  0.792475  0.191381  1
  Tb  Tb11  1  0.016144  0.207525  0.808619  1
  In  In12  1  0.500000  0.500000  0.000000  1
  Co  Co13  1  0.621083  0.000000  0.621083  1
  Co  Co14  1  0.378917  0.000000  0.378917  1
  Co  Co15  1  0.112400  0.612400  0.500000  1
  Co  Co16  1  0.887600  0.387600  0.500000  1
  Co  Co17  1  0.000000  0.000000  0.000000  1
