# generated using pymatgen
data_FePt4Rh
_symmetry_space_group_name_H-M   'P 1'
_cell_length_a   6.20102883
_cell_length_b   6.20102923
_cell_length_c   3.92244400
_cell_angle_alpha   90.00000000
_cell_angle_beta   90.00000000
_cell_angle_gamma   143.36506706
_symmetry_Int_Tables_number   1
_chemical_formula_structural   FePt4Rh
_chemical_formula_sum   'Fe1 Pt4 Rh1'
_cell_volume   90.00169348
_cell_formula_units_Z   1
loop_
 _symmetry_equiv_pos_site_id
 _symmetry_equiv_pos_as_xyz
  1  'x, y, z'
loop_
 _atom_site_type_symbol
 _atom_site_label
 _atom_site_symmetry_multiplicity
 _atom_site_fract_x
 _atom_site_fract_y
 _atom_site_fract_z
 _atom_site_occupancy
  Fe  Fe0  1  0.000000  0.000000  0.000000  1
  Pt  Pt1  1  0.659065  0.340937  0.000000  1
  Pt  Pt2  1  0.340937  0.659065  0.000000  1
  Pt  Pt3  1  0.837678  0.162324  0.500001  1
  Pt  Pt4  1  0.162324  0.837678  0.500001  1
  Rh  Rh5  1  0.500001  0.500001  0.500001  1
