# generated using pymatgen
data_Tb2Eu2ReTc3B16
_symmetry_space_group_name_H-M   'P 1'
_cell_length_a   3.63437700
_cell_length_b   6.04051971
_cell_length_c   11.68306104
_cell_angle_alpha   89.85505662
_cell_angle_beta   90.00000000
_cell_angle_gamma   90.00000000
_symmetry_Int_Tables_number   1
_chemical_formula_structural   Tb2Eu2ReTc3B16
_chemical_formula_sum   'Tb2 Eu2 Re1 Tc3 B16'
_cell_volume   256.48356248
_cell_formula_units_Z   1
loop_
 _symmetry_equiv_pos_site_id
 _symmetry_equiv_pos_as_xyz
  1  'x, y, z'
loop_
 _atom_site_type_symbol
 _atom_site_label
 _atom_site_symmetry_multiplicity
 _atom_site_fract_x
 _atom_site_fract_y
 _atom_site_fract_z
 _atom_site_occupancy
  Tb  Tb0  1  0.000000  0.127227  0.150071  1
  Tb  Tb1  1  0.000000  0.872930  0.850124  1
  Eu  Eu2  1  0.000000  0.627132  0.349581  1
  Eu  Eu3  1  0.000000  0.372527  0.650446  1
  Re  Re4  1  0.000000  0.870166  0.585889  1
  Tc  Tc5  1  0.000000  0.632180  0.085208  1
  Tc  Tc6  1  0.000000  0.368071  0.914824  1
  Tc  Tc7  1  0.000000  0.129325  0.414367  1
  B  B8  1  0.500000  0.786300  0.184602  1
  B  B9  1  0.500000  0.213845  0.815419  1
  B  B10  1  0.500000  0.285648  0.314998  1
  B  B11  1  0.500000  0.714260  0.685161  1
  B  B12  1  0.500000  0.863831  0.031598  1
  B  B13  1  0.500000  0.136264  0.968443  1
  B  B14  1  0.500000  0.363476  0.467779  1
  B  B15  1  0.500000  0.636515  0.531922  1
  B  B16  1  0.500000  0.887695  0.453002  1
  B  B17  1  0.500000  0.112762  0.546565  1
  B  B18  1  0.500000  0.386983  0.047068  1
  B  B19  1  0.500000  0.612888  0.953006  1
  B  B20  1  0.500000  0.977959  0.307542  1
  B  B21  1  0.500000  0.022478  0.692325  1
  B  B22  1  0.500000  0.476044  0.191682  1
  B  B23  1  0.500000  0.523493  0.808381  1
