# generated using pymatgen
data_TbYb3(Rh2O7)2
_symmetry_space_group_name_H-M   'P 1'
_cell_length_a   7.20936181
_cell_length_b   7.21787803
_cell_length_c   7.21787800
_cell_angle_alpha   60.00000013
_cell_angle_beta   59.96091628
_cell_angle_gamma   59.96091701
_symmetry_Int_Tables_number   1
_chemical_formula_structural   TbYb3(Rh2O7)2
_chemical_formula_sum   'Tb1 Yb3 Rh4 O14'
_cell_volume   265.42638395
_cell_formula_units_Z   1
loop_
 _symmetry_equiv_pos_site_id
 _symmetry_equiv_pos_as_xyz
  1  'x, y, z'
loop_
 _atom_site_type_symbol
 _atom_site_label
 _atom_site_symmetry_multiplicity
 _atom_site_fract_x
 _atom_site_fract_y
 _atom_site_fract_z
 _atom_site_occupancy
  Tb  Tb0  1  0.125000  0.625000  0.625000  1
  Yb  Yb1  1  0.625000  0.625000  0.125000  1
  Yb  Yb2  1  0.625000  0.625000  0.625000  1
  Yb  Yb3  1  0.625000  0.125000  0.625000  1
  Rh  Rh4  1  0.125000  0.125000  0.125000  1
  Rh  Rh5  1  0.625000  0.125000  0.125000  1
  Rh  Rh6  1  0.125000  0.625000  0.125000  1
  Rh  Rh7  1  0.125000  0.125000  0.625000  1
  O  O8  1  0.048337  0.454998  0.454998  1
  O  O9  1  0.797251  0.796142  0.203303  1
  O  O10  1  0.797251  0.203303  0.203303  1
  O  O11  1  0.452749  0.046697  0.453858  1
  O  O12  1  0.048337  0.454998  0.041668  1
  O  O13  1  0.755549  0.748151  0.748151  1
  O  O14  1  0.048337  0.041668  0.454998  1
  O  O15  1  0.201663  0.795002  0.208332  1
  O  O16  1  0.201663  0.208332  0.795002  1
  O  O17  1  0.494451  0.501849  0.501849  1
  O  O18  1  0.797251  0.203303  0.796142  1
  O  O19  1  0.452749  0.046697  0.046697  1
  O  O20  1  0.452749  0.453858  0.046697  1
  O  O21  1  0.201663  0.795002  0.795002  1
