# generated using pymatgen
data_Pr8Dy7Ho5Ga16
_symmetry_space_group_name_H-M   'P 1'
_cell_length_a   7.73139815
_cell_length_b   8.01181429
_cell_length_c   15.23547400
_cell_angle_alpha   90.00586416
_cell_angle_beta   89.98881712
_cell_angle_gamma   89.98588426
_symmetry_Int_Tables_number   1
_chemical_formula_structural   Pr8Dy7Ho5Ga16
_chemical_formula_sum   'Pr8 Dy7 Ho5 Ga16'
_cell_volume   943.72369464
_cell_formula_units_Z   1
loop_
 _symmetry_equiv_pos_site_id
 _symmetry_equiv_pos_as_xyz
  1  'x, y, z'
loop_
 _atom_site_type_symbol
 _atom_site_label
 _atom_site_symmetry_multiplicity
 _atom_site_fract_x
 _atom_site_fract_y
 _atom_site_fract_z
 _atom_site_occupancy
  Pr  Pr0  1  0.974489  0.821384  0.095699  1
  Pr  Pr1  1  0.474577  0.678689  0.404288  1
  Pr  Pr2  1  0.525550  0.321372  0.904255  1
  Pr  Pr3  1  0.025460  0.178685  0.595779  1
  Pr  Pr4  1  0.025319  0.178472  0.904329  1
  Pr  Pr5  1  0.525452  0.321259  0.595735  1
  Pr  Pr6  1  0.474736  0.678674  0.095628  1
  Pr  Pr7  1  0.974595  0.821315  0.404317  1
  Dy  Dy8  1  0.181593  0.677219  0.621567  1
  Dy  Dy9  1  0.818366  0.322709  0.121673  1
  Dy  Dy10  1  0.318355  0.177242  0.378410  1
  Dy  Dy11  1  0.318379  0.177222  0.121648  1
  Dy  Dy12  1  0.818362  0.322738  0.378422  1
  Dy  Dy13  1  0.181510  0.677444  0.878300  1
  Dy  Dy14  1  0.681610  0.822794  0.621658  1
  Ho  Ho15  1  0.651559  0.988551  0.250101  1
  Ho  Ho16  1  0.151529  0.511486  0.250101  1
  Ho  Ho17  1  0.848418  0.488793  0.749993  1
  Ho  Ho18  1  0.348458  0.011382  0.749968  1
  Ho  Ho19  1  0.681625  0.822863  0.878249  1
  Ga  Ga20  1  0.766701  0.620477  0.250018  1
  Ga  Ga21  1  0.266730  0.879495  0.250016  1
  Ga  Ga22  1  0.733158  0.120305  0.750107  1
  Ga  Ga23  1  0.233381  0.379565  0.749973  1
  Ga  Ga24  1  0.023470  0.110328  0.250029  1
  Ga  Ga25  1  0.523491  0.389574  0.249993  1
  Ga  Ga26  1  0.476706  0.610610  0.750065  1
  Ga  Ga27  1  0.976273  0.889461  0.750129  1
  Ga  Ga28  1  0.852148  0.530708  0.958556  1
  Ga  Ga29  1  0.352560  0.969588  0.541373  1
  Ga  Ga30  1  0.647661  0.030108  0.041213  1
  Ga  Ga31  1  0.147431  0.469589  0.458537  1
  Ga  Ga32  1  0.147340  0.469651  0.041420  1
  Ga  Ga33  1  0.647378  0.030406  0.458570  1
  Ga  Ga34  1  0.353026  0.969484  0.958493  1
  Ga  Ga35  1  0.852605  0.530359  0.541390  1
