# generated using pymatgen
data_Er4Zn10SiSn
_symmetry_space_group_name_H-M   'P 1'
_cell_length_a   8.20636388
_cell_length_b   8.20636473
_cell_length_c   8.86302400
_cell_angle_alpha   90.00000000
_cell_angle_beta   90.00000000
_cell_angle_gamma   149.66581608
_symmetry_Int_Tables_number   1
_chemical_formula_structural   Er4Zn10SiSn
_chemical_formula_sum   'Er4 Zn10 Si1 Sn1'
_cell_volume   301.44741906
_cell_formula_units_Z   1
loop_
 _symmetry_equiv_pos_site_id
 _symmetry_equiv_pos_as_xyz
  1  'x, y, z'
loop_
 _atom_site_type_symbol
 _atom_site_label
 _atom_site_symmetry_multiplicity
 _atom_site_fract_x
 _atom_site_fract_y
 _atom_site_fract_z
 _atom_site_occupancy
  Er  Er0  1  0.197264  0.802736  0.250000  1
  Er  Er1  1  0.799149  0.200851  0.750000  1
  Er  Er2  1  0.000396  0.999604  0.481071  1
  Er  Er3  1  0.000396  0.999604  0.018929  1
  Zn  Zn4  1  0.811889  0.188111  0.390976  1
  Zn  Zn5  1  0.187089  0.812911  0.605599  1
  Zn  Zn6  1  0.811889  0.188111  0.109024  1
  Zn  Zn7  1  0.187089  0.812911  0.894401  1
  Zn  Zn8  1  0.648341  0.351659  0.471845  1
  Zn  Zn9  1  0.345702  0.654298  0.517896  1
  Zn  Zn10  1  0.648341  0.351659  0.028155  1
  Zn  Zn11  1  0.345702  0.654298  0.982104  1
  Zn  Zn12  1  0.400988  0.599012  0.250000  1
  Zn  Zn13  1  0.611649  0.388351  0.750000  1
  Si  Si14  1  0.554607  0.445393  0.250000  1
  Sn  Sn15  1  0.449511  0.550489  0.750000  1
