# generated using pymatgen
data_SrMgIn3Ir
_symmetry_space_group_name_H-M   'P 1'
_cell_length_a   4.36037000
_cell_length_b   7.79590000
_cell_length_c   8.58602900
_cell_angle_alpha   90.00000000
_cell_angle_beta   90.00000000
_cell_angle_gamma   90.00000000
_symmetry_Int_Tables_number   1
_chemical_formula_structural   SrMgIn3Ir
_chemical_formula_sum   'Sr2 Mg2 In6 Ir2'
_cell_volume   291.86495663
_cell_formula_units_Z   2
loop_
 _symmetry_equiv_pos_site_id
 _symmetry_equiv_pos_as_xyz
  1  'x, y, z'
loop_
 _atom_site_type_symbol
 _atom_site_label
 _atom_site_symmetry_multiplicity
 _atom_site_fract_x
 _atom_site_fract_y
 _atom_site_fract_z
 _atom_site_occupancy
  Sr  Sr0  1  0.000000  0.603655  0.750000  1
  Sr  Sr1  1  0.000000  0.396345  0.250000  1
  Mg  Mg2  1  0.000000  0.000000  0.500000  1
  Mg  Mg3  1  0.000000  0.000000  0.000000  1
  In  In4  1  0.500000  0.695307  0.433206  1
  In  In5  1  0.500000  0.051584  0.250000  1
  In  In6  1  0.500000  0.304693  0.933206  1
  In  In7  1  0.500000  0.304693  0.566794  1
  In  In8  1  0.500000  0.948416  0.750000  1
  In  In9  1  0.500000  0.695307  0.066794  1
  Ir  Ir10  1  0.000000  0.807834  0.250000  1
  Ir  Ir11  1  0.000000  0.192166  0.750000  1
