# generated using pymatgen
data_Sr4LaPr(SbO6)2
_symmetry_space_group_name_H-M   'P 1'
_cell_length_a   5.94498709
_cell_length_b   6.08643157
_cell_length_c   8.49190209
_cell_angle_alpha   89.98960662
_cell_angle_beta   90.38492067
_cell_angle_gamma   90.00877556
_symmetry_Int_Tables_number   1
_chemical_formula_structural   Sr4LaPr(SbO6)2
_chemical_formula_sum   'Sr4 La1 Pr1 Sb2 O12'
_cell_volume   307.26197977
_cell_formula_units_Z   1
loop_
 _symmetry_equiv_pos_site_id
 _symmetry_equiv_pos_as_xyz
  1  'x, y, z'
loop_
 _atom_site_type_symbol
 _atom_site_label
 _atom_site_symmetry_multiplicity
 _atom_site_fract_x
 _atom_site_fract_y
 _atom_site_fract_z
 _atom_site_occupancy
  Sr  Sr0  1  0.489021  0.543231  0.248623  1
  Sr  Sr1  1  0.012907  0.043250  0.250282  1
  Sr  Sr2  1  0.987094  0.956750  0.749719  1
  Sr  Sr3  1  0.510979  0.456768  0.751377  1
  La  La4  1  0.000000  0.500001  0.500000  1
  Pr  Pr5  1  0.500000  0.000000  0.000000  1
  Sb  Sb6  1  0.000000  0.500001  0.000000  1
  Sb  Sb7  1  0.500000  0.000000  0.500000  1
  O  O8  1  0.272254  0.310162  0.046040  1
  O  O9  1  0.185101  0.771540  0.054047  1
  O  O10  1  0.906713  0.464525  0.227897  1
  O  O11  1  0.595280  0.963344  0.271924  1
  O  O12  1  0.318458  0.272908  0.444715  1
  O  O13  1  0.226527  0.812462  0.453429  1
  O  O14  1  0.773473  0.187538  0.546571  1
  O  O15  1  0.681543  0.727093  0.555284  1
  O  O16  1  0.404719  0.036656  0.728076  1
  O  O17  1  0.093287  0.535474  0.772103  1
  O  O18  1  0.814899  0.228460  0.945953  1
  O  O19  1  0.727747  0.689838  0.953959  1
