# generated using pymatgen
data_Dy12InCo2Ni2Rh
_symmetry_space_group_name_H-M   'P 1'
_cell_length_a   8.29991805
_cell_length_b   8.29991833
_cell_length_c   8.29991946
_cell_angle_alpha   110.78605989
_cell_angle_beta   109.99721678
_cell_angle_gamma   107.64665997
_symmetry_Int_Tables_number   1
_chemical_formula_structural   Dy12InCo2Ni2Rh
_chemical_formula_sum   'Dy12 In1 Co2 Ni2 Rh1'
_cell_volume   439.79386555
_cell_formula_units_Z   1
loop_
 _symmetry_equiv_pos_site_id
 _symmetry_equiv_pos_as_xyz
  1  'x, y, z'
loop_
 _atom_site_type_symbol
 _atom_site_label
 _atom_site_symmetry_multiplicity
 _atom_site_fract_x
 _atom_site_fract_y
 _atom_site_fract_z
 _atom_site_occupancy
  Dy  Dy0  1  0.406587  0.213507  0.193081  1
  Dy  Dy1  1  0.593413  0.786493  0.806919  1
  Dy  Dy2  1  0.020427  0.213507  0.806919  1
  Dy  Dy3  1  0.979573  0.786493  0.193081  1
  Dy  Dy4  1  0.185304  0.294302  0.479606  1
  Dy  Dy5  1  0.814696  0.705698  0.520394  1
  Dy  Dy6  1  0.185304  0.705698  0.891001  1
  Dy  Dy7  1  0.814696  0.294302  0.108999  1
  Dy  Dy8  1  0.314307  0.618532  0.304225  1
  Dy  Dy9  1  0.685693  0.381468  0.695775  1
  Dy  Dy10  1  0.314307  0.010082  0.695775  1
  Dy  Dy11  1  0.685693  0.989918  0.304225  1
  In  In12  1  0.500000  0.500000  0.000000  1
  Co  Co13  1  0.113749  0.613749  0.500000  1
  Co  Co14  1  0.886251  0.386251  0.500000  1
  Ni  Ni15  1  0.372058  0.000000  0.372058  1
  Ni  Ni16  1  0.627942  0.000000  0.627942  1
  Rh  Rh17  1  0.000000  0.000000  0.000000  1
