# generated using pymatgen
data_La4TmRu2
_symmetry_space_group_name_H-M   'P 1'
_cell_length_a   6.68166741
_cell_length_b   7.20701658
_cell_length_c   9.03598708
_cell_angle_alpha   94.51239631
_cell_angle_beta   111.69868449
_cell_angle_gamma   90.00000295
_symmetry_Int_Tables_number   1
_chemical_formula_structural   La4TmRu2
_chemical_formula_sum   'La8 Tm2 Ru4'
_cell_volume   402.84234548
_cell_formula_units_Z   2
loop_
 _symmetry_equiv_pos_site_id
 _symmetry_equiv_pos_as_xyz
  1  'x, y, z'
loop_
 _atom_site_type_symbol
 _atom_site_label
 _atom_site_symmetry_multiplicity
 _atom_site_fract_x
 _atom_site_fract_y
 _atom_site_fract_z
 _atom_site_occupancy
  La  La0  1  0.792453  0.090627  0.818935  1
  La  La1  1  0.973519  0.409373  0.181065  1
  La  La2  1  0.207547  0.909373  0.181065  1
  La  La3  1  0.026481  0.590627  0.818935  1
  La  La4  1  0.210074  0.184885  0.573259  1
  La  La5  1  0.636816  0.315115  0.426741  1
  La  La6  1  0.789926  0.815115  0.426741  1
  La  La7  1  0.363184  0.684885  0.573259  1
  Tm  Tm8  1  0.430429  0.250000  0.000000  1
  Tm  Tm9  1  0.569571  0.750000  0.000000  1
  Ru  Ru10  1  0.600722  0.421315  0.784238  1
  Ru  Ru11  1  0.816483  0.078685  0.215762  1
  Ru  Ru12  1  0.399278  0.578685  0.215762  1
  Ru  Ru13  1  0.183517  0.921315  0.784238  1
