# generated using pymatgen
data_Y16Er4Sn15Pb
_symmetry_space_group_name_H-M   'P 1'
_cell_length_a   8.07913494
_cell_length_b   8.16002489
_cell_length_c   15.50323745
_cell_angle_alpha   89.97656895
_cell_angle_beta   90.06617064
_cell_angle_gamma   89.92102954
_symmetry_Int_Tables_number   1
_chemical_formula_structural   Y16Er4Sn15Pb
_chemical_formula_sum   'Y16 Er4 Sn15 Pb1'
_cell_volume   1022.06379838
_cell_formula_units_Z   1
loop_
 _symmetry_equiv_pos_site_id
 _symmetry_equiv_pos_as_xyz
  1  'x, y, z'
loop_
 _atom_site_type_symbol
 _atom_site_label
 _atom_site_symmetry_multiplicity
 _atom_site_fract_x
 _atom_site_fract_y
 _atom_site_fract_z
 _atom_site_occupancy
  Y  Y0  1  0.378565  0.837380  0.878561  1
  Y  Y1  1  0.877463  0.661966  0.621255  1
  Y  Y2  1  0.622291  0.161943  0.378674  1
  Y  Y3  1  0.124187  0.338077  0.121620  1
  Y  Y4  1  0.621065  0.159615  0.122098  1
  Y  Y5  1  0.123084  0.338077  0.378832  1
  Y  Y6  1  0.377949  0.837560  0.621198  1
  Y  Y7  1  0.878534  0.663286  0.877694  1
  Y  Y8  1  0.529271  0.321137  0.899452  1
  Y  Y9  1  0.030326  0.177964  0.598852  1
  Y  Y10  1  0.468935  0.677195  0.400908  1
  Y  Y11  1  0.969559  0.825475  0.099816  1
  Y  Y12  1  0.465219  0.679180  0.100272  1
  Y  Y13  1  0.969469  0.822485  0.401228  1
  Y  Y14  1  0.531037  0.322852  0.599332  1
  Y  Y15  1  0.032634  0.176176  0.899897  1
  Er  Er16  1  0.209142  0.504095  0.749834  1
  Er  Er17  1  0.709162  0.995995  0.749968  1
  Er  Er18  1  0.791312  0.495847  0.251525  1
  Er  Er19  1  0.290841  0.004016  0.250146  1
  Sn  Sn20  1  0.284785  0.033592  0.042117  1
  Sn  Sn21  1  0.784885  0.465828  0.458006  1
  Sn  Sn22  1  0.715043  0.966609  0.542385  1
  Sn  Sn23  1  0.215303  0.533238  0.957420  1
  Sn  Sn24  1  0.715905  0.967072  0.957634  1
  Sn  Sn25  1  0.215205  0.533938  0.542264  1
  Sn  Sn26  1  0.285149  0.033628  0.457711  1
  Sn  Sn27  1  0.575599  0.619601  0.749740  1
  Sn  Sn28  1  0.075644  0.880188  0.749627  1
  Sn  Sn29  1  0.425161  0.380440  0.250041  1
  Sn  Sn30  1  0.924846  0.120539  0.250062  1
  Sn  Sn31  1  0.340842  0.147558  0.749346  1
  Sn  Sn32  1  0.841274  0.351869  0.749921  1
  Sn  Sn33  1  0.659034  0.851210  0.250444  1
  Sn  Sn34  1  0.158019  0.648409  0.250379  1
  Pb  Pb35  1  0.783262  0.465959  0.041741  1
