# generated using pymatgen
data_Ho10Hg3Bi2Au
_symmetry_space_group_name_H-M   'P 1'
_cell_length_a   8.74281205
_cell_length_b   8.74281248
_cell_length_c   8.76584370
_cell_angle_alpha   123.86797617
_cell_angle_beta   123.86797764
_cell_angle_gamma   83.25224959
_symmetry_Int_Tables_number   1
_chemical_formula_structural   Ho10Hg3Bi2Au
_chemical_formula_sum   'Ho10 Hg3 Bi2 Au1'
_cell_volume   443.46387860
_cell_formula_units_Z   1
loop_
 _symmetry_equiv_pos_site_id
 _symmetry_equiv_pos_as_xyz
  1  'x, y, z'
loop_
 _atom_site_type_symbol
 _atom_site_label
 _atom_site_symmetry_multiplicity
 _atom_site_fract_x
 _atom_site_fract_y
 _atom_site_fract_z
 _atom_site_occupancy
  Ho  Ho0  1  0.998058  0.995756  0.993814  1
  Ho  Ho1  1  0.504244  0.501942  0.006186  1
  Ho  Ho2  1  0.002632  0.508871  0.800703  1
  Ho  Ho3  1  0.701929  0.208169  0.199297  1
  Ho  Ho4  1  0.515105  0.698054  0.500000  1
  Ho  Ho5  1  0.201234  0.007626  0.500000  1
  Ho  Ho6  1  0.991129  0.497368  0.199297  1
  Ho  Ho7  1  0.291831  0.798071  0.800703  1
  Ho  Ho8  1  0.492374  0.298766  0.500000  1
  Ho  Ho9  1  0.801946  0.984895  0.500000  1
  Hg  Hg10  1  0.639757  0.140531  0.780287  1
  Hg  Hg11  1  0.359469  0.860243  0.219713  1
  Hg  Hg12  1  0.139938  0.360062  0.500000  1
  Bi  Bi13  1  0.748666  0.751334  0.000000  1
  Bi  Bi14  1  0.248666  0.251334  0.000000  1
  Au  Au15  1  0.863021  0.636979  0.500000  1
