# generated using pymatgen
data_Na12Li8Mg(SiAs4)3
_symmetry_space_group_name_H-M   'P 1'
_cell_length_a   9.49779000
_cell_length_b   9.49779006
_cell_length_c   14.08767978
_cell_angle_alpha   89.90100375
_cell_angle_beta   89.90100631
_cell_angle_gamma   143.54121285
_symmetry_Int_Tables_number   1
_chemical_formula_structural   Na12Li8Mg(SiAs4)3
_chemical_formula_sum   'Na12 Li8 Mg1 Si3 As12'
_cell_volume   755.16714549
_cell_formula_units_Z   1
loop_
 _symmetry_equiv_pos_site_id
 _symmetry_equiv_pos_as_xyz
  1  'x, y, z'
loop_
 _atom_site_type_symbol
 _atom_site_label
 _atom_site_symmetry_multiplicity
 _atom_site_fract_x
 _atom_site_fract_y
 _atom_site_fract_z
 _atom_site_occupancy
  Na  Na0  1  0.597236  0.934205  0.822567  1
  Na  Na1  1  0.268499  0.270354  0.322692  1
  Na  Na2  1  0.231793  0.230465  0.820484  1
  Na  Na3  1  0.729646  0.731501  0.677308  1
  Na  Na4  1  0.433618  0.092997  0.672752  1
  Na  Na5  1  0.907003  0.566382  0.327248  1
  Na  Na6  1  0.065795  0.402764  0.177433  1
  Na  Na7  1  0.405427  0.067030  0.178868  1
  Na  Na8  1  0.563708  0.902138  0.325525  1
  Na  Na9  1  0.097862  0.436292  0.674475  1
  Na  Na10  1  0.932970  0.594573  0.821132  1
  Na  Na11  1  0.769535  0.768207  0.179516  1
  Li  Li12  1  0.082553  0.917447  0.000000  1
  Li  Li13  1  0.580920  0.419080  0.500000  1
  Li  Li14  1  0.915967  0.084033  0.000000  1
  Li  Li15  1  0.752988  0.247012  0.000000  1
  Li  Li16  1  0.746267  0.253733  0.500000  1
  Li  Li17  1  0.246532  0.753468  0.000000  1
  Li  Li18  1  0.253840  0.746160  0.500000  1
  Li  Li19  1  0.418581  0.581419  0.500000  1
  Mg  Mg20  1  0.589244  0.410756  0.000000  1
  Si  Si21  1  0.089059  0.910941  0.500000  1
  Si  Si22  1  0.413987  0.586013  0.000000  1
  Si  Si23  1  0.910730  0.089270  0.500000  1
  As  As24  1  0.067524  0.389590  0.395217  1
  As  As25  1  0.914919  0.580035  0.117590  1
  As  As26  1  0.419965  0.085081  0.882410  1
  As  As27  1  0.610410  0.932476  0.604783  1
  As  As28  1  0.929289  0.608450  0.604305  1
  As  As29  1  0.111562  0.433302  0.893830  1
  As  As30  1  0.566698  0.888438  0.106170  1
  As  As31  1  0.391550  0.070711  0.395695  1
  As  As32  1  0.209447  0.209838  0.596392  1
  As  As33  1  0.720616  0.735899  0.894932  1
  As  As34  1  0.264101  0.279384  0.105068  1
  As  As35  1  0.790162  0.790553  0.403608  1
