# generated using pymatgen
data_Tb2Al20Os3Rh
_symmetry_space_group_name_H-M   'P 1'
_cell_length_a   6.86384723
_cell_length_b   6.85453766
_cell_length_c   9.15312204
_cell_angle_alpha   90.14485256
_cell_angle_beta   90.27489452
_cell_angle_gamma   96.65623285
_symmetry_Int_Tables_number   1
_chemical_formula_structural   Tb2Al20Os3Rh
_chemical_formula_sum   'Tb2 Al20 Os3 Rh1'
_cell_volume   427.73093028
_cell_formula_units_Z   1
loop_
 _symmetry_equiv_pos_site_id
 _symmetry_equiv_pos_as_xyz
  1  'x, y, z'
loop_
 _atom_site_type_symbol
 _atom_site_label
 _atom_site_symmetry_multiplicity
 _atom_site_fract_x
 _atom_site_fract_y
 _atom_site_fract_z
 _atom_site_occupancy
  Tb  Tb0  1  0.871557  0.131130  0.749516  1
  Tb  Tb1  1  0.128443  0.868870  0.250484  1
  Al  Al2  1  0.517199  0.780609  0.747969  1
  Al  Al3  1  0.782768  0.517050  0.249367  1
  Al  Al4  1  0.482801  0.219391  0.252031  1
  Al  Al5  1  0.217232  0.482950  0.750633  1
  Al  Al6  1  0.624235  0.378610  0.952273  1
  Al  Al7  1  0.375765  0.621390  0.047727  1
  Al  Al8  1  0.623811  0.376815  0.545858  1
  Al  Al9  1  0.376189  0.623185  0.454142  1
  Al  Al10  1  0.416114  0.148030  0.749851  1
  Al  Al11  1  0.146847  0.414652  0.250392  1
  Al  Al12  1  0.583886  0.851970  0.250149  1
  Al  Al13  1  0.853153  0.585348  0.749608  1
  Al  Al14  1  0.844227  0.155053  0.398509  1
  Al  Al15  1  0.155773  0.844947  0.601491  1
  Al  Al16  1  0.845062  0.156445  0.103195  1
  Al  Al17  1  0.154938  0.843555  0.896805  1
  Al  Al18  1  0.775119  0.774854  0.000430  1
  Al  Al19  1  0.776804  0.776475  0.499270  1
  Al  Al20  1  0.224881  0.225146  0.999570  1
  Al  Al21  1  0.223196  0.223525  0.500730  1
  Os  Os22  1  0.000000  0.500000  0.000000  1
  Os  Os23  1  0.500000  0.000000  0.500000  1
  Os  Os24  1  0.000000  0.500000  0.500000  1
  Rh  Rh25  1  0.500000  0.000000  0.000000  1
