# generated using pymatgen
data_Ti8BeReBi4
_symmetry_space_group_name_H-M   'P 1'
_cell_length_a   7.94261349
_cell_length_b   7.94244729
_cell_length_c   7.94261387
_cell_angle_alpha   95.44187245
_cell_angle_beta   95.44639432
_cell_angle_gamma   144.12221199
_symmetry_Int_Tables_number   1
_chemical_formula_structural   Ti8BeReBi4
_chemical_formula_sum   'Ti8 Be1 Re1 Bi4'
_cell_volume   279.36627292
_cell_formula_units_Z   1
loop_
 _symmetry_equiv_pos_site_id
 _symmetry_equiv_pos_as_xyz
  1  'x, y, z'
loop_
 _atom_site_type_symbol
 _atom_site_label
 _atom_site_symmetry_multiplicity
 _atom_site_fract_x
 _atom_site_fract_y
 _atom_site_fract_z
 _atom_site_occupancy
  Ti  Ti0  1  0.587982  0.702885  0.279146  1
  Ti  Ti1  1  0.911988  0.191140  0.114886  1
  Ti  Ti2  1  0.308870  0.588021  0.885102  1
  Ti  Ti3  1  0.797083  0.911979  0.720850  1
  Ti  Ti4  1  0.702914  0.423719  0.114886  1
  Ti  Ti5  1  0.076261  0.797115  0.885096  1
  Ti  Ti6  1  0.423744  0.308860  0.720848  1
  Ti  Ti7  1  0.191166  0.076281  0.279195  1
  Be  Be8  1  0.749993  0.750000  0.999993  1
  Re  Re9  1  0.250001  0.250000  0.000001  1
  Bi  Bi10  1  0.360333  0.860313  0.220644  1
  Bi  Bi11  1  0.139671  0.360330  0.499995  1
  Bi  Bi12  1  0.639665  0.139670  0.779340  1
  Bi  Bi13  1  0.860330  0.639687  0.500020  1
