# generated using pymatgen
data_La4Ir2Pt
_symmetry_space_group_name_H-M   'P 1'
_cell_length_a   7.86027295
_cell_length_b   7.85332339
_cell_length_c   7.86173472
_cell_angle_alpha   109.07668829
_cell_angle_beta   109.68329450
_cell_angle_gamma   109.64010090
_symmetry_Int_Tables_number   1
_chemical_formula_structural   La4Ir2Pt
_chemical_formula_sum   'La8 Ir4 Pt2'
_cell_volume   373.63625471
_cell_formula_units_Z   2
loop_
 _symmetry_equiv_pos_site_id
 _symmetry_equiv_pos_as_xyz
  1  'x, y, z'
loop_
 _atom_site_type_symbol
 _atom_site_label
 _atom_site_symmetry_multiplicity
 _atom_site_fract_x
 _atom_site_fract_y
 _atom_site_fract_z
 _atom_site_occupancy
  La  La0  1  0.117268  0.496812  0.992279  1
  La  La1  1  0.504813  0.001180  0.616743  1
  La  La2  1  0.391523  0.390869  0.389098  1
  La  La3  1  0.997514  0.115983  0.506562  1
  La  La4  1  0.882732  0.879544  0.875011  1
  La  La5  1  0.002486  0.618469  0.509048  1
  La  La6  1  0.608477  0.499346  0.997575  1
  La  La7  1  0.495187  0.996367  0.111930  1
  Ir  Ir8  1  0.375425  0.627448  0.751103  1
  Ir  Ir9  1  0.247310  0.123181  0.874494  1
  Ir  Ir10  1  0.752690  0.375871  0.627184  1
  Ir  Ir11  1  0.624575  0.752023  0.375678  1
  Pt  Pt12  1  0.876334  0.249621  0.124815  1
  Pt  Pt13  1  0.123666  0.873287  0.248480  1
