# generated using pymatgen
data_DyEr4(RhO6)2
_symmetry_space_group_name_H-M   'P 1'
_cell_length_a   6.81256385
_cell_length_b   6.81256288
_cell_length_c   7.23526319
_cell_angle_alpha   74.49677467
_cell_angle_beta   74.49677895
_cell_angle_gamma   51.23673121
_symmetry_Int_Tables_number   1
_chemical_formula_structural   DyEr4(RhO6)2
_chemical_formula_sum   'Dy1 Er4 Rh2 O12'
_cell_volume   250.06484281
_cell_formula_units_Z   1
loop_
 _symmetry_equiv_pos_site_id
 _symmetry_equiv_pos_as_xyz
  1  'x, y, z'
loop_
 _atom_site_type_symbol
 _atom_site_label
 _atom_site_symmetry_multiplicity
 _atom_site_fract_x
 _atom_site_fract_y
 _atom_site_fract_z
 _atom_site_occupancy
  Dy  Dy0  1  0.000000  0.000000  0.500000  1
  Er  Er1  1  0.301809  0.301809  0.360560  1
  Er  Er2  1  0.698191  0.698191  0.639440  1
  Er  Er3  1  0.309312  0.309312  0.828873  1
  Er  Er4  1  0.690688  0.690688  0.171127  1
  Rh  Rh5  1  0.752831  0.247169  0.000000  1
  Rh  Rh6  1  0.247169  0.752831  0.000000  1
  O  O7  1  0.902125  0.432515  0.914769  1
  O  O8  1  0.432515  0.902125  0.914769  1
  O  O9  1  0.097875  0.567485  0.085231  1
  O  O10  1  0.567485  0.097875  0.085231  1
  O  O11  1  0.097313  0.596190  0.573954  1
  O  O12  1  0.596190  0.097313  0.573954  1
  O  O13  1  0.902687  0.403810  0.426046  1
  O  O14  1  0.403810  0.902687  0.426046  1
  O  O15  1  0.999883  0.999883  0.816182  1
  O  O16  1  0.000117  0.000117  0.183818  1
  O  O17  1  0.500327  0.500327  0.806822  1
  O  O18  1  0.499673  0.499673  0.193178  1
