# generated using pymatgen
data_Ta12Al7Cr4SiC4
_symmetry_space_group_name_H-M   'P 1'
_cell_length_a   8.25848642
_cell_length_b   8.25848653
_cell_length_c   8.25848609
_cell_angle_alpha   59.99646985
_cell_angle_beta   59.99646066
_cell_angle_gamma   59.99646909
_symmetry_Int_Tables_number   1
_chemical_formula_structural   Ta12Al7Cr4SiC4
_chemical_formula_sum   'Ta12 Al7 Cr4 Si1 C4'
_cell_volume   398.24613822
_cell_formula_units_Z   1
loop_
 _symmetry_equiv_pos_site_id
 _symmetry_equiv_pos_as_xyz
  1  'x, y, z'
loop_
 _atom_site_type_symbol
 _atom_site_label
 _atom_site_symmetry_multiplicity
 _atom_site_fract_x
 _atom_site_fract_y
 _atom_site_fract_z
 _atom_site_occupancy
  Ta  Ta0  1  0.555112  0.944559  0.555112  1
  Ta  Ta1  1  0.304504  0.695699  0.695699  1
  Ta  Ta2  1  0.695401  0.304411  0.304411  1
  Ta  Ta3  1  0.304411  0.695401  0.304411  1
  Ta  Ta4  1  0.695699  0.695699  0.304504  1
  Ta  Ta5  1  0.304411  0.304411  0.695401  1
  Ta  Ta6  1  0.555112  0.555112  0.944559  1
  Ta  Ta7  1  0.944559  0.555112  0.555112  1
  Ta  Ta8  1  0.558286  0.944489  0.944489  1
  Ta  Ta9  1  0.944489  0.944489  0.558286  1
  Ta  Ta10  1  0.695699  0.304504  0.695699  1
  Ta  Ta11  1  0.944489  0.558286  0.944489  1
  Al  Al12  1  0.997992  0.334408  0.334408  1
  Al  Al13  1  0.334408  0.997992  0.334408  1
  Al  Al14  1  0.334408  0.334408  0.997992  1
  Al  Al15  1  0.916345  0.253872  0.916345  1
  Al  Al16  1  0.916345  0.916345  0.253872  1
  Al  Al17  1  0.253872  0.916345  0.916345  1
  Al  Al18  1  0.333507  0.333507  0.333507  1
  Cr  Cr19  1  0.125067  0.125067  0.125067  1
  Cr  Cr20  1  0.629254  0.121232  0.121232  1
  Cr  Cr21  1  0.121232  0.629254  0.121232  1
  Cr  Cr22  1  0.121232  0.121232  0.629254  1
  Si  Si23  1  0.914460  0.914460  0.914460  1
  C  C24  1  0.624436  0.624436  0.624436  1
  C  C25  1  0.125508  0.624879  0.624879  1
  C  C26  1  0.624879  0.125508  0.624879  1
  C  C27  1  0.624879  0.624879  0.125508  1
