# generated using pymatgen
data_Tb2Fe3Re2Ni5P6
_symmetry_space_group_name_H-M   'P 1'
_cell_length_a   3.70835800
_cell_length_b   10.42644500
_cell_length_c   11.95696100
_cell_angle_alpha   90.00000000
_cell_angle_beta   90.00000000
_cell_angle_gamma   90.00000000
_symmetry_Int_Tables_number   1
_chemical_formula_structural   Tb2Fe3Re2Ni5P6
_chemical_formula_sum   'Tb4 Fe6 Re4 Ni10 P12'
_cell_volume   462.31578619
_cell_formula_units_Z   2
loop_
 _symmetry_equiv_pos_site_id
 _symmetry_equiv_pos_as_xyz
  1  'x, y, z'
loop_
 _atom_site_type_symbol
 _atom_site_label
 _atom_site_symmetry_multiplicity
 _atom_site_fract_x
 _atom_site_fract_y
 _atom_site_fract_z
 _atom_site_occupancy
  Tb  Tb0  1  0.250000  0.580058  0.706492  1
  Tb  Tb1  1  0.250000  0.919942  0.206492  1
  Tb  Tb2  1  0.750000  0.416977  0.293856  1
  Tb  Tb3  1  0.750000  0.083023  0.793856  1
  Fe  Fe4  1  0.750000  0.118883  0.300497  1
  Fe  Fe5  1  0.750000  0.381117  0.800497  1
  Fe  Fe6  1  0.250000  0.464195  0.936419  1
  Fe  Fe7  1  0.250000  0.035805  0.436419  1
  Fe  Fe8  1  0.750000  0.536734  0.065122  1
  Fe  Fe9  1  0.750000  0.963266  0.565122  1
  Re  Re10  1  0.250000  0.705588  0.990911  1
  Re  Re11  1  0.250000  0.794412  0.490911  1
  Re  Re12  1  0.750000  0.295929  0.011263  1
  Re  Re13  1  0.750000  0.204071  0.511263  1
  Ni  Ni14  1  0.250000  0.407071  0.485320  1
  Ni  Ni15  1  0.250000  0.092929  0.985320  1
  Ni  Ni16  1  0.750000  0.589765  0.511537  1
  Ni  Ni17  1  0.750000  0.910235  0.011537  1
  Ni  Ni18  1  0.250000  0.222707  0.176766  1
  Ni  Ni19  1  0.250000  0.277293  0.676766  1
  Ni  Ni20  1  0.750000  0.774317  0.821968  1
  Ni  Ni21  1  0.750000  0.725683  0.321968  1
  Ni  Ni22  1  0.250000  0.883043  0.701664  1
  Ni  Ni23  1  0.250000  0.616957  0.201664  1
  P  P24  1  0.250000  0.422496  0.113579  1
  P  P25  1  0.250000  0.077504  0.613579  1
  P  P26  1  0.750000  0.573488  0.885689  1
  P  P27  1  0.750000  0.926512  0.385689  1
  P  P28  1  0.250000  0.271071  0.866605  1
  P  P29  1  0.250000  0.228929  0.366605  1
  P  P30  1  0.750000  0.734497  0.129404  1
  P  P31  1  0.750000  0.765503  0.629404  1
  P  P32  1  0.250000  0.599677  0.390571  1
  P  P33  1  0.250000  0.900323  0.890571  1
  P  P34  1  0.750000  0.399771  0.612338  1
  P  P35  1  0.750000  0.100229  0.112338  1
