# generated using pymatgen
data_Dy3In3IrAu2
_symmetry_space_group_name_H-M   'P 1'
_cell_length_a   7.73745100
_cell_length_b   7.73745114
_cell_length_c   3.95196100
_cell_angle_alpha   90.00000000
_cell_angle_beta   90.00000000
_cell_angle_gamma   120.00000367
_symmetry_Int_Tables_number   1
_chemical_formula_structural   Dy3In3IrAu2
_chemical_formula_sum   'Dy3 In3 Ir1 Au2'
_cell_volume   204.89865001
_cell_formula_units_Z   1
loop_
 _symmetry_equiv_pos_site_id
 _symmetry_equiv_pos_as_xyz
  1  'x, y, z'
loop_
 _atom_site_type_symbol
 _atom_site_label
 _atom_site_symmetry_multiplicity
 _atom_site_fract_x
 _atom_site_fract_y
 _atom_site_fract_z
 _atom_site_occupancy
  Dy  Dy0  1  0.580292  0.601232  0.000000  1
  Dy  Dy1  1  0.398768  0.979061  0.000000  1
  Dy  Dy2  1  0.020939  0.419708  0.000000  1
  In  In3  1  0.002238  0.737646  0.500000  1
  In  In4  1  0.262354  0.264591  0.500000  1
  In  In5  1  0.735409  0.997762  0.500000  1
  Ir  Ir6  1  0.333333  0.666667  0.500000  1
  Au  Au7  1  0.000000  0.000000  0.000000  1
  Au  Au8  1  0.666667  0.333333  0.500000  1
