# generated using pymatgen
data_Hf6Al16Fe2Cu4Ru
_symmetry_space_group_name_H-M   'P 1'
_cell_length_a   8.60392924
_cell_length_b   8.55971921
_cell_length_c   8.60393001
_cell_angle_alpha   60.16982946
_cell_angle_beta   59.66034239
_cell_angle_gamma   60.16982741
_symmetry_Int_Tables_number   1
_chemical_formula_structural   Hf6Al16Fe2Cu4Ru
_chemical_formula_sum   'Hf6 Al16 Fe2 Cu4 Ru1'
_cell_volume   448.03856891
_cell_formula_units_Z   1
loop_
 _symmetry_equiv_pos_site_id
 _symmetry_equiv_pos_as_xyz
  1  'x, y, z'
loop_
 _atom_site_type_symbol
 _atom_site_label
 _atom_site_symmetry_multiplicity
 _atom_site_fract_x
 _atom_site_fract_y
 _atom_site_fract_z
 _atom_site_occupancy
  Hf  Hf0  1  0.688140  0.688140  0.311860  1
  Hf  Hf1  1  0.302584  0.697416  0.302584  1
  Hf  Hf2  1  0.688140  0.311860  0.311860  1
  Hf  Hf3  1  0.311860  0.311860  0.688140  1
  Hf  Hf4  1  0.697416  0.302584  0.697416  1
  Hf  Hf5  1  0.311860  0.688140  0.688140  1
  Al  Al6  1  0.869969  0.886114  0.357802  1
  Al  Al7  1  0.886114  0.357802  0.886114  1
  Al  Al8  1  0.357802  0.886114  0.869969  1
  Al  Al9  1  0.886114  0.869969  0.886114  1
  Al  Al10  1  0.130031  0.113886  0.642198  1
  Al  Al11  1  0.113886  0.642198  0.113886  1
  Al  Al12  1  0.642198  0.113886  0.130031  1
  Al  Al13  1  0.113886  0.130031  0.113886  1
  Al  Al14  1  0.669856  0.662760  0.004626  1
  Al  Al15  1  0.662760  0.004626  0.662760  1
  Al  Al16  1  0.004626  0.662760  0.669856  1
  Al  Al17  1  0.662760  0.669856  0.662760  1
  Al  Al18  1  0.330144  0.337240  0.995374  1
  Al  Al19  1  0.337240  0.995374  0.337240  1
  Al  Al20  1  0.995374  0.337240  0.330144  1
  Al  Al21  1  0.337240  0.330144  0.337240  1
  Fe  Fe22  1  0.500000  0.000000  0.500000  1
  Fe  Fe23  1  0.000000  0.500000  0.000000  1
  Cu  Cu24  1  0.000000  0.000000  0.500000  1
  Cu  Cu25  1  0.000000  0.500000  0.500000  1
  Cu  Cu26  1  0.500000  0.500000  0.000000  1
  Cu  Cu27  1  0.500000  0.000000  0.000000  1
  Ru  Ru28  1  0.000000  0.000000  0.000000  1
