# generated using pymatgen
data_Tb2Y2In(FeB3)2
_symmetry_space_group_name_H-M   'P 1'
_cell_length_a   5.37604052
_cell_length_b   5.37603992
_cell_length_c   8.24295720
_cell_angle_alpha   70.96781285
_cell_angle_beta   70.96781685
_cell_angle_gamma   59.99998931
_symmetry_Int_Tables_number   1
_chemical_formula_structural   Tb2Y2In(FeB3)2
_chemical_formula_sum   'Tb2 Y2 In1 Fe2 B6'
_cell_volume   191.13316004
_cell_formula_units_Z   1
loop_
 _symmetry_equiv_pos_site_id
 _symmetry_equiv_pos_as_xyz
  1  'x, y, z'
loop_
 _atom_site_type_symbol
 _atom_site_label
 _atom_site_symmetry_multiplicity
 _atom_site_fract_x
 _atom_site_fract_y
 _atom_site_fract_z
 _atom_site_occupancy
  Tb  Tb0  1  0.748748  0.748748  0.753757  1
  Tb  Tb1  1  0.251252  0.251252  0.246243  1
  Y  Y2  1  0.584243  0.584243  0.247272  1
  Y  Y3  1  0.415757  0.415757  0.752728  1
  In  In4  1  0.000000  0.000000  0.000000  1
  Fe  Fe5  1  0.883139  0.883139  0.350583  1
  Fe  Fe6  1  0.116861  0.116861  0.649417  1
  B  B7  1  0.500000  0.167851  0.500000  1
  B  B8  1  0.832149  0.500000  0.500000  1
  B  B9  1  0.167851  0.832149  0.500000  1
  B  B10  1  0.167851  0.500000  0.500000  1
  B  B11  1  0.832149  0.167851  0.500000  1
  B  B12  1  0.500000  0.832149  0.500000  1
