# generated using pymatgen
data_Li8LaPr7Bi8
_symmetry_space_group_name_H-M   'P 1'
_cell_length_a   9.86962400
_cell_length_b   9.86962254
_cell_length_c   7.55860000
_cell_angle_alpha   90.00000000
_cell_angle_beta   90.00000000
_cell_angle_gamma   119.99999819
_symmetry_Int_Tables_number   1
_chemical_formula_structural   Li8LaPr7Bi8
_chemical_formula_sum   'Li8 La1 Pr7 Bi8'
_cell_volume   637.63647768
_cell_formula_units_Z   1
loop_
 _symmetry_equiv_pos_site_id
 _symmetry_equiv_pos_as_xyz
  1  'x, y, z'
loop_
 _atom_site_type_symbol
 _atom_site_label
 _atom_site_symmetry_multiplicity
 _atom_site_fract_x
 _atom_site_fract_y
 _atom_site_fract_z
 _atom_site_occupancy
  Li  Li0  1  0.167330  0.832670  0.291631  1
  Li  Li1  1  0.665339  0.832670  0.291631  1
  Li  Li2  1  0.167330  0.334661  0.291631  1
  Li  Li3  1  0.832592  0.167408  0.794733  1
  Li  Li4  1  0.334817  0.167408  0.794733  1
  Li  Li5  1  0.832592  0.665183  0.794733  1
  Li  Li6  1  0.333333  0.666667  0.694023  1
  Li  Li7  1  0.666667  0.333333  0.201006  1
  La  La8  1  0.000000  0.000000  0.015896  1
  Pr  Pr9  1  0.511037  0.488963  0.509757  1
  Pr  Pr10  1  0.977927  0.488963  0.509757  1
  Pr  Pr11  1  0.511037  0.022073  0.509757  1
  Pr  Pr12  1  0.489165  0.510835  0.009205  1
  Pr  Pr13  1  0.021670  0.510835  0.009205  1
  Pr  Pr14  1  0.489165  0.978330  0.009205  1
  Pr  Pr15  1  0.000000  0.000000  0.516198  1
  Bi  Bi16  1  0.167194  0.832806  0.750077  1
  Bi  Bi17  1  0.665613  0.832806  0.750077  1
  Bi  Bi18  1  0.167194  0.334387  0.750077  1
  Bi  Bi19  1  0.832623  0.167377  0.252296  1
  Bi  Bi20  1  0.334753  0.167377  0.252296  1
  Bi  Bi21  1  0.832623  0.665247  0.252296  1
  Bi  Bi22  1  0.333333  0.666667  0.278801  1
  Bi  Bi23  1  0.666667  0.333333  0.780963  1
