# generated using pymatgen
data_Er2Ga9PdRh2
_symmetry_space_group_name_H-M   'P 1'
_cell_length_a   7.59292102
_cell_length_b   7.59292098
_cell_length_c   9.48760400
_cell_angle_alpha   90.00000000
_cell_angle_beta   90.00000000
_cell_angle_gamma   119.89806570
_symmetry_Int_Tables_number   1
_chemical_formula_structural   Er2Ga9PdRh2
_chemical_formula_sum   'Er4 Ga18 Pd2 Rh4'
_cell_volume   474.18751704
_cell_formula_units_Z   2
loop_
 _symmetry_equiv_pos_site_id
 _symmetry_equiv_pos_as_xyz
  1  'x, y, z'
loop_
 _atom_site_type_symbol
 _atom_site_label
 _atom_site_symmetry_multiplicity
 _atom_site_fract_x
 _atom_site_fract_y
 _atom_site_fract_z
 _atom_site_occupancy
  Er  Er0  1  0.996822  0.668273  0.250000  1
  Er  Er1  1  0.003178  0.331727  0.750000  1
  Er  Er2  1  0.668273  0.996822  0.250000  1
  Er  Er3  1  0.331727  0.003178  0.750000  1
  Ga  Ga4  1  0.127416  0.127416  0.250000  1
  Ga  Ga5  1  0.872584  0.872584  0.750000  1
  Ga  Ga6  1  0.999061  0.336773  0.080539  1
  Ga  Ga7  1  0.000939  0.663227  0.919461  1
  Ga  Ga8  1  0.000939  0.663227  0.580539  1
  Ga  Ga9  1  0.336773  0.999061  0.419461  1
  Ga  Ga10  1  0.999061  0.336773  0.419461  1
  Ga  Ga11  1  0.663227  0.000939  0.580539  1
  Ga  Ga12  1  0.663227  0.000939  0.919461  1
  Ga  Ga13  1  0.336773  0.999061  0.080539  1
  Ga  Ga14  1  0.335425  0.335425  0.566337  1
  Ga  Ga15  1  0.664575  0.664575  0.433663  1
  Ga  Ga16  1  0.664575  0.664575  0.066337  1
  Ga  Ga17  1  0.335425  0.335425  0.933663  1
  Ga  Ga18  1  0.337495  0.547109  0.250000  1
  Ga  Ga19  1  0.662505  0.452891  0.750000  1
  Ga  Ga20  1  0.547109  0.337495  0.250000  1
  Ga  Ga21  1  0.452891  0.662505  0.750000  1
  Pd  Pd22  1  0.000000  0.000000  0.000000  1
  Pd  Pd23  1  0.000000  0.000000  0.500000  1
  Rh  Rh24  1  0.671646  0.328354  0.000000  1
  Rh  Rh25  1  0.328354  0.671646  0.000000  1
  Rh  Rh26  1  0.328354  0.671646  0.500000  1
  Rh  Rh27  1  0.671646  0.328354  0.500000  1
