# generated using pymatgen
data_K2UBr6
_symmetry_space_group_name_H-M   'P 1'
_cell_length_a   8.33737100
_cell_length_b   7.74863273
_cell_length_c   13.25610849
_cell_angle_alpha   55.36125161
_cell_angle_beta   90.00000000
_cell_angle_gamma   90.00000000
_symmetry_Int_Tables_number   1
_chemical_formula_structural   K2UBr6
_chemical_formula_sum   'K4 U2 Br12'
_cell_volume   704.59455403
_cell_formula_units_Z   2
loop_
 _symmetry_equiv_pos_site_id
 _symmetry_equiv_pos_as_xyz
  1  'x, y, z'
loop_
 _atom_site_type_symbol
 _atom_site_label
 _atom_site_symmetry_multiplicity
 _atom_site_fract_x
 _atom_site_fract_y
 _atom_site_fract_z
 _atom_site_occupancy
  K  K0  1  0.087630  0.278272  0.246581  1
  K  K1  1  0.587630  0.721728  0.253419  1
  K  K2  1  0.912370  0.721728  0.753419  1
  K  K3  1  0.412370  0.278272  0.746581  1
  U  U4  1  0.500000  0.000000  0.500000  1
  U  U5  1  0.000000  0.000000  0.000000  1
  Br  Br6  1  0.526470  0.863796  0.744060  1
  Br  Br7  1  0.473530  0.136204  0.255940  1
  Br  Br8  1  0.825055  0.650019  0.052779  1
  Br  Br9  1  0.973530  0.863796  0.244060  1
  Br  Br10  1  0.174945  0.349981  0.947221  1
  Br  Br11  1  0.674945  0.650019  0.552779  1
  Br  Br12  1  0.289747  0.780086  0.055954  1
  Br  Br13  1  0.789747  0.219914  0.444046  1
  Br  Br14  1  0.710253  0.219914  0.944046  1
  Br  Br15  1  0.210253  0.780086  0.555954  1
  Br  Br16  1  0.325055  0.349981  0.447221  1
  Br  Br17  1  0.026470  0.136204  0.755940  1
