# generated using pymatgen
data_Sc12Co7Si16Ni
_symmetry_space_group_name_H-M   'P 1'
_cell_length_a   3.99307700
_cell_length_b   11.66256521
_cell_length_c   11.83304810
_cell_angle_alpha   89.95872291
_cell_angle_beta   90.00000000
_cell_angle_gamma   90.00000000
_symmetry_Int_Tables_number   1
_chemical_formula_structural   Sc12Co7Si16Ni
_chemical_formula_sum   'Sc12 Co7 Si16 Ni1'
_cell_volume   551.05923751
_cell_formula_units_Z   1
loop_
 _symmetry_equiv_pos_site_id
 _symmetry_equiv_pos_as_xyz
  1  'x, y, z'
loop_
 _atom_site_type_symbol
 _atom_site_label
 _atom_site_symmetry_multiplicity
 _atom_site_fract_x
 _atom_site_fract_y
 _atom_site_fract_z
 _atom_site_occupancy
  Sc  Sc0  1  0.750000  0.981405  0.808051  1
  Sc  Sc1  1  0.250000  0.019532  0.191314  1
  Sc  Sc2  1  0.750000  0.480778  0.691926  1
  Sc  Sc3  1  0.250000  0.518923  0.308553  1
  Sc  Sc4  1  0.750000  0.752411  0.652134  1
  Sc  Sc5  1  0.250000  0.246965  0.347846  1
  Sc  Sc6  1  0.750000  0.252777  0.847208  1
  Sc  Sc7  1  0.250000  0.745582  0.153582  1
  Sc  Sc8  1  0.750000  0.699318  0.923048  1
  Sc  Sc9  1  0.250000  0.301406  0.077657  1
  Sc  Sc10  1  0.750000  0.199803  0.577794  1
  Sc  Sc11  1  0.250000  0.800412  0.422294  1
  Co  Co12  1  0.750000  0.553739  0.131207  1
  Co  Co13  1  0.250000  0.444026  0.868962  1
  Co  Co14  1  0.750000  0.055479  0.369513  1
  Co  Co15  1  0.250000  0.944056  0.630342  1
  Co  Co16  1  0.750000  0.586142  0.478811  1
  Co  Co17  1  0.250000  0.414262  0.521554  1
  Co  Co18  1  0.750000  0.087884  0.021699  1
  Si  Si19  1  0.750000  0.944991  0.534355  1
  Si  Si20  1  0.250000  0.055727  0.465852  1
  Si  Si21  1  0.750000  0.445032  0.965002  1
  Si  Si22  1  0.250000  0.556090  0.033488  1
  Si  Si23  1  0.750000  0.894802  0.068350  1
  Si  Si24  1  0.250000  0.106987  0.934840  1
  Si  Si25  1  0.750000  0.394962  0.434536  1
  Si  Si26  1  0.250000  0.605078  0.565850  1
  Si  Si27  1  0.750000  0.880289  0.275035  1
  Si  Si28  1  0.250000  0.120091  0.724658  1
  Si  Si29  1  0.750000  0.379072  0.225126  1
  Si  Si30  1  0.250000  0.620063  0.775626  1
  Si  Si31  1  0.750000  0.671666  0.302325  1
  Si  Si32  1  0.250000  0.328026  0.697733  1
  Si  Si33  1  0.750000  0.171749  0.198052  1
  Si  Si34  1  0.250000  0.827528  0.799377  1
  Ni  Ni35  1  0.250000  0.912949  0.976300  1
