# generated using pymatgen
data_Dy5Ho3(Si3Rh4)2
_symmetry_space_group_name_H-M   'P 1'
_cell_length_a   10.71315105
_cell_length_b   10.71451942
_cell_length_c   7.71719187
_cell_angle_alpha   71.27664811
_cell_angle_beta   71.27776540
_cell_angle_gamma   29.74120568
_symmetry_Int_Tables_number   1
_chemical_formula_structural   Dy5Ho3(Si3Rh4)2
_chemical_formula_sum   'Dy5 Ho3 Si6 Rh8'
_cell_volume   414.50121933
_cell_formula_units_Z   1
loop_
 _symmetry_equiv_pos_site_id
 _symmetry_equiv_pos_as_xyz
  1  'x, y, z'
loop_
 _atom_site_type_symbol
 _atom_site_label
 _atom_site_symmetry_multiplicity
 _atom_site_fract_x
 _atom_site_fract_y
 _atom_site_fract_z
 _atom_site_occupancy
  Dy  Dy0  1  0.789741  0.549978  0.599929  1
  Dy  Dy1  1  0.450002  0.210238  0.900013  1
  Dy  Dy2  1  0.210157  0.450044  0.400173  1
  Dy  Dy3  1  0.549993  0.789737  0.099918  1
  Dy  Dy4  1  0.791274  0.073723  0.168385  1
  Ho  Ho5  1  0.926282  0.208925  0.331631  1
  Ho  Ho6  1  0.209015  0.926224  0.831473  1
  Ho  Ho7  1  0.073760  0.791072  0.668400  1
  Si  Si8  1  0.952962  0.703280  0.055524  1
  Si  Si9  1  0.296494  0.047102  0.444418  1
  Si  Si10  1  0.047099  0.296538  0.944415  1
  Si  Si11  1  0.703464  0.952817  0.555767  1
  Si  Si12  1  0.634902  0.365154  0.749896  1
  Si  Si13  1  0.365100  0.634957  0.250070  1
  Rh  Rh14  1  0.576447  0.298188  0.520591  1
  Rh  Rh15  1  0.701870  0.423712  0.979486  1
  Rh  Rh16  1  0.423424  0.701963  0.479708  1
  Rh  Rh17  1  0.298071  0.576600  0.020058  1
  Rh  Rh18  1  0.628666  0.929665  0.308776  1
  Rh  Rh19  1  0.070256  0.371196  0.191366  1
  Rh  Rh20  1  0.371244  0.070199  0.691338  1
  Rh  Rh21  1  0.929779  0.628687  0.808666  1
