# generated using pymatgen
data_Tm4Lu4Tc(B8Ru)3
_symmetry_space_group_name_H-M   'P 1'
_cell_length_a   3.61044100
_cell_length_b   9.04312805
_cell_length_c   11.42197201
_cell_angle_alpha   89.91723621
_cell_angle_beta   90.00000000
_cell_angle_gamma   90.00000000
_symmetry_Int_Tables_number   1
_chemical_formula_structural   Tm4Lu4Tc(B8Ru)3
_chemical_formula_sum   'Tm4 Lu4 Tc1 B24 Ru3'
_cell_volume   372.92334542
_cell_formula_units_Z   1
loop_
 _symmetry_equiv_pos_site_id
 _symmetry_equiv_pos_as_xyz
  1  'x, y, z'
loop_
 _atom_site_type_symbol
 _atom_site_label
 _atom_site_symmetry_multiplicity
 _atom_site_fract_x
 _atom_site_fract_y
 _atom_site_fract_z
 _atom_site_occupancy
  Tm  Tm0  1  0.000000  0.323394  0.413210  1
  Tm  Tm1  1  0.000000  0.677876  0.583455  1
  Tm  Tm2  1  0.000000  0.819614  0.087997  1
  Tm  Tm3  1  0.000000  0.178003  0.914985  1
  Lu  Lu4  1  0.000000  0.943350  0.372510  1
  Lu  Lu5  1  0.000000  0.057018  0.627863  1
  Lu  Lu6  1  0.000000  0.444329  0.127981  1
  Lu  Lu7  1  0.000000  0.556647  0.871812  1
  Tc  Tc8  1  0.000000  0.637950  0.320752  1
  B  B9  1  0.500000  0.552843  0.433677  1
  B  B10  1  0.500000  0.446353  0.567043  1
  B  B11  1  0.500000  0.053663  0.066581  1
  B  B12  1  0.500000  0.946210  0.933582  1
  B  B13  1  0.500000  0.749591  0.419895  1
  B  B14  1  0.500000  0.250809  0.580164  1
  B  B15  1  0.500000  0.249317  0.079935  1
  B  B16  1  0.500000  0.750595  0.919946  1
  B  B17  1  0.500000  0.792506  0.265637  1
  B  B18  1  0.500000  0.208062  0.734401  1
  B  B19  1  0.500000  0.291756  0.233648  1
  B  B20  1  0.500000  0.708448  0.765584  1
  B  B21  1  0.500000  0.630866  0.184732  1
  B  B22  1  0.500000  0.368804  0.815665  1
  B  B23  1  0.500000  0.130981  0.315098  1
  B  B24  1  0.500000  0.869403  0.684469  1
  B  B25  1  0.500000  0.982149  0.212850  1
  B  B26  1  0.500000  0.017904  0.787488  1
  B  B27  1  0.500000  0.481148  0.287059  1
  B  B28  1  0.500000  0.517742  0.712968  1
  B  B29  1  0.500000  0.605025  0.028431  1
  B  B30  1  0.500000  0.394553  0.970630  1
  B  B31  1  0.500000  0.105687  0.471109  1
  B  B32  1  0.500000  0.895799  0.529416  1
  Ru  Ru33  1  0.000000  0.361582  0.679957  1
  Ru  Ru34  1  0.000000  0.137992  0.178810  1
  Ru  Ru35  1  0.000000  0.862032  0.820658  1
