# generated using pymatgen
data_Ta2Nb4Co15Si7Ni
_symmetry_space_group_name_H-M   'P 1'
_cell_length_a   7.91255316
_cell_length_b   7.91005049
_cell_length_c   7.91113416
_cell_angle_alpha   60.00936888
_cell_angle_beta   59.99346673
_cell_angle_gamma   59.99652042
_symmetry_Int_Tables_number   1
_chemical_formula_structural   Ta2Nb4Co15Si7Ni
_chemical_formula_sum   'Ta2 Nb4 Co15 Si7 Ni1'
_cell_volume   350.12048043
_cell_formula_units_Z   1
loop_
 _symmetry_equiv_pos_site_id
 _symmetry_equiv_pos_as_xyz
  1  'x, y, z'
loop_
 _atom_site_type_symbol
 _atom_site_label
 _atom_site_symmetry_multiplicity
 _atom_site_fract_x
 _atom_site_fract_y
 _atom_site_fract_z
 _atom_site_occupancy
  Ta  Ta0  1  0.796804  0.795500  0.203646  1
  Ta  Ta1  1  0.795539  0.200525  0.795968  1
  Nb  Nb2  1  0.203127  0.795645  0.203464  1
  Nb  Nb3  1  0.796921  0.199034  0.206658  1
  Nb  Nb4  1  0.202236  0.796409  0.798525  1
  Nb  Nb5  1  0.207203  0.199871  0.796403  1
  Co  Co6  1  0.163685  0.167970  0.503169  1
  Co  Co7  1  0.504485  0.166825  0.163738  1
  Co  Co8  1  0.164965  0.168300  0.165232  1
  Co  Co9  1  0.499944  0.834369  0.832662  1
  Co  Co10  1  0.833064  0.835707  0.834384  1
  Co  Co11  1  0.832783  0.834615  0.498133  1
  Co  Co12  1  0.165389  0.500955  0.166628  1
  Co  Co13  1  0.619489  0.144352  0.618806  1
  Co  Co14  1  0.382504  0.380639  0.856354  1
  Co  Co15  1  0.856431  0.381376  0.381762  1
  Co  Co16  1  0.381771  0.380632  0.381170  1
  Co  Co17  1  0.144739  0.618413  0.618658  1
  Co  Co18  1  0.619188  0.617939  0.618019  1
  Co  Co19  1  0.619225  0.618452  0.144769  1
  Co  Co20  1  0.381613  0.858332  0.380301  1
  Si  Si21  1  0.499531  0.500753  0.499654  1
  Si  Si22  1  0.498934  0.999294  0.499565  1
  Si  Si23  1  0.999192  0.500650  0.999244  1
  Si  Si24  1  0.001786  0.998755  0.499553  1
  Si  Si25  1  0.498992  0.998949  0.002053  1
  Si  Si26  1  0.999649  0.500810  0.500009  1
  Si  Si27  1  0.499492  0.500906  0.999905  1
  Ni  Ni28  1  0.831319  0.504024  0.831567  1
