# generated using pymatgen
data_Tb20Ir7PdRh4
_symmetry_space_group_name_H-M   'P 1'
_cell_length_a   10.98502969
_cell_length_b   10.98502969
_cell_length_c   6.41188218
_cell_angle_alpha   89.98087640
_cell_angle_beta   89.98087640
_cell_angle_gamma   89.56944309
_symmetry_Int_Tables_number   1
_chemical_formula_structural   Tb20Ir7PdRh4
_chemical_formula_sum   'Tb20 Ir7 Pd1 Rh4'
_cell_volume   773.70551622
_cell_formula_units_Z   1
loop_
 _symmetry_equiv_pos_site_id
 _symmetry_equiv_pos_as_xyz
  1  'x, y, z'
loop_
 _atom_site_type_symbol
 _atom_site_label
 _atom_site_symmetry_multiplicity
 _atom_site_fract_x
 _atom_site_fract_y
 _atom_site_fract_z
 _atom_site_occupancy
  Tb  Tb0  1  0.290143  0.089378  0.381142  1
  Tb  Tb1  1  0.291612  0.909785  0.879838  1
  Tb  Tb2  1  0.706274  0.087325  0.872911  1
  Tb  Tb3  1  0.706883  0.905018  0.382105  1
  Tb  Tb4  1  0.589416  0.790381  0.881497  1
  Tb  Tb5  1  0.583380  0.210531  0.380777  1
  Tb  Tb6  1  0.409631  0.790474  0.380944  1
  Tb  Tb7  1  0.409395  0.208791  0.880478  1
  Tb  Tb8  1  0.209619  0.410584  0.618503  1
  Tb  Tb9  1  0.209526  0.590369  0.119056  1
  Tb  Tb10  1  0.789469  0.416620  0.119223  1
  Tb  Tb11  1  0.791209  0.590605  0.619522  1
  Tb  Tb12  1  0.910622  0.709857  0.118858  1
  Tb  Tb13  1  0.912675  0.293726  0.627089  1
  Tb  Tb14  1  0.090215  0.708388  0.620162  1
  Tb  Tb15  1  0.094982  0.293117  0.117895  1
  Tb  Tb16  1  0.001302  0.997874  0.500341  1
  Tb  Tb17  1  0.002126  0.998698  0.999659  1
  Tb  Tb18  1  0.499317  0.499471  0.999452  1
  Tb  Tb19  1  0.500529  0.500683  0.500548  1
  Ir  Ir20  1  0.846149  0.847389  0.749703  1
  Ir  Ir21  1  0.152611  0.153851  0.750297  1
  Ir  Ir22  1  0.154666  0.845334  0.250000  1
  Ir  Ir23  1  0.655617  0.344383  0.750000  1
  Ir  Ir24  1  0.654435  0.653101  0.249104  1
  Ir  Ir25  1  0.346899  0.345565  0.250896  1
  Ir  Ir26  1  0.345994  0.654006  0.750000  1
  Pd  Pd27  1  0.844732  0.155268  0.250000  1
  Rh  Rh28  1  0.500995  0.000371  0.125168  1
  Rh  Rh29  1  0.500331  0.000383  0.622623  1
  Rh  Rh30  1  0.999617  0.499669  0.877377  1
  Rh  Rh31  1  0.999629  0.499005  0.374832  1
