# generated using pymatgen
data_AgPt2PbO7
_symmetry_space_group_name_H-M   'P 1'
_cell_length_a   7.27272358
_cell_length_b   7.27272282
_cell_length_c   7.41954400
_cell_angle_alpha   59.32991128
_cell_angle_beta   59.32991483
_cell_angle_gamma   59.00999638
_symmetry_Int_Tables_number   1
_chemical_formula_structural   AgPt2PbO7
_chemical_formula_sum   'Ag2 Pt4 Pb2 O14'
_cell_volume   272.57989499
_cell_formula_units_Z   2
loop_
 _symmetry_equiv_pos_site_id
 _symmetry_equiv_pos_as_xyz
  1  'x, y, z'
loop_
 _atom_site_type_symbol
 _atom_site_label
 _atom_site_symmetry_multiplicity
 _atom_site_fract_x
 _atom_site_fract_y
 _atom_site_fract_z
 _atom_site_occupancy
  Ag  Ag0  1  0.625000  0.125000  0.625000  1
  Ag  Ag1  1  0.125000  0.625000  0.625000  1
  Pt  Pt2  1  0.125000  0.125000  0.625000  1
  Pt  Pt3  1  0.125000  0.625000  0.125000  1
  Pt  Pt4  1  0.625000  0.125000  0.125000  1
  Pt  Pt5  1  0.125000  0.125000  0.125000  1
  Pb  Pb6  1  0.625000  0.625000  0.125000  1
  Pb  Pb7  1  0.625000  0.625000  0.625000  1
  O  O8  1  0.492684  0.492684  0.507316  1
  O  O9  1  0.757316  0.757316  0.742684  1
  O  O10  1  0.460185  0.036615  0.456684  1
  O  O11  1  0.213385  0.789815  0.203484  1
  O  O12  1  0.460493  0.460493  0.039507  1
  O  O13  1  0.036615  0.460185  0.456684  1
  O  O14  1  0.460185  0.036615  0.046516  1
  O  O15  1  0.043646  0.043646  0.456354  1
  O  O16  1  0.036615  0.460185  0.046516  1
  O  O17  1  0.789815  0.213385  0.203484  1
  O  O18  1  0.213385  0.789815  0.793316  1
  O  O19  1  0.789815  0.213385  0.793316  1
  O  O20  1  0.206354  0.206354  0.793646  1
  O  O21  1  0.789507  0.789507  0.210493  1
