# generated using pymatgen
data_Li4Co3NiP4
_symmetry_space_group_name_H-M   'P 1'
_cell_length_a   3.67851900
_cell_length_b   6.28027357
_cell_length_c   6.28126701
_cell_angle_alpha   89.75121999
_cell_angle_beta   90.00000000
_cell_angle_gamma   90.00000000
_symmetry_Int_Tables_number   1
_chemical_formula_structural   Li4Co3NiP4
_chemical_formula_sum   'Li4 Co3 Ni1 P4'
_cell_volume   145.10912621
_cell_formula_units_Z   1
loop_
 _symmetry_equiv_pos_site_id
 _symmetry_equiv_pos_as_xyz
  1  'x, y, z'
loop_
 _atom_site_type_symbol
 _atom_site_label
 _atom_site_symmetry_multiplicity
 _atom_site_fract_x
 _atom_site_fract_y
 _atom_site_fract_z
 _atom_site_occupancy
  Li  Li0  1  0.750000  0.010038  0.661335  1
  Li  Li1  1  0.250000  0.992657  0.335932  1
  Li  Li2  1  0.750000  0.509458  0.837011  1
  Li  Li3  1  0.250000  0.493859  0.164231  1
  Co  Co4  1  0.750000  0.636980  0.447294  1
  Co  Co5  1  0.250000  0.860460  0.946816  1
  Co  Co6  1  0.750000  0.135789  0.053609  1
  Ni  Ni7  1  0.250000  0.360440  0.554126  1
  P  P8  1  0.250000  0.710981  0.629790  1
  P  P9  1  0.750000  0.293821  0.363146  1
  P  P10  1  0.250000  0.205351  0.877638  1
  P  P11  1  0.750000  0.790167  0.129071  1
