# generated using pymatgen
data_Tl2B2S7
_symmetry_space_group_name_H-M   'P 1'
_cell_length_a   8.33589836
_cell_length_b   8.33589804
_cell_length_c   12.07827200
_cell_angle_alpha   59.62214227
_cell_angle_beta   59.62214355
_cell_angle_gamma   49.52121010
_symmetry_Int_Tables_number   1
_chemical_formula_structural   Tl2B2S7
_chemical_formula_sum   'Tl4 B4 S14'
_cell_volume   530.24203091
_cell_formula_units_Z   2
loop_
 _symmetry_equiv_pos_site_id
 _symmetry_equiv_pos_as_xyz
  1  'x, y, z'
loop_
 _atom_site_type_symbol
 _atom_site_label
 _atom_site_symmetry_multiplicity
 _atom_site_fract_x
 _atom_site_fract_y
 _atom_site_fract_z
 _atom_site_occupancy
  Tl  Tl0  1  0.666458  0.127080  0.025722  1
  Tl  Tl1  1  0.127080  0.666458  0.525722  1
  Tl  Tl2  1  0.333542  0.872920  0.974278  1
  Tl  Tl3  1  0.872920  0.333542  0.474278  1
  B  B4  1  0.841785  0.390123  0.148593  1
  B  B5  1  0.609877  0.158215  0.351407  1
  B  B6  1  0.158215  0.609877  0.851407  1
  B  B7  1  0.390123  0.841785  0.648593  1
  S  S8  1  0.549781  0.450219  0.250000  1
  S  S9  1  0.100846  0.053815  0.727327  1
  S  S10  1  0.946185  0.899154  0.772673  1
  S  S11  1  0.899154  0.946185  0.272673  1
  S  S12  1  0.433427  0.840794  0.477333  1
  S  S13  1  0.450219  0.549781  0.750000  1
  S  S14  1  0.159206  0.566573  0.022667  1
  S  S15  1  0.566573  0.159206  0.522667  1
  S  S16  1  0.840794  0.433427  0.977333  1
  S  S17  1  0.601375  0.858572  0.657607  1
  S  S18  1  0.858572  0.601375  0.157607  1
  S  S19  1  0.398625  0.141428  0.342393  1
  S  S20  1  0.141428  0.398625  0.842393  1
  S  S21  1  0.053815  0.100846  0.227327  1
