# generated using pymatgen
data_YbEr2TmGa8Ag3Au
_symmetry_space_group_name_H-M   'P 1'
_cell_length_a   4.34493700
_cell_length_b   6.95419957
_cell_length_c   10.26939400
_cell_angle_alpha   90.40247113
_cell_angle_beta   90.00000000
_cell_angle_gamma   90.00000000
_symmetry_Int_Tables_number   1
_chemical_formula_structural   YbEr2TmGa8Ag3Au
_chemical_formula_sum   'Yb1 Er2 Tm1 Ga8 Ag3 Au1'
_cell_volume   310.28782505
_cell_formula_units_Z   1
loop_
 _symmetry_equiv_pos_site_id
 _symmetry_equiv_pos_as_xyz
  1  'x, y, z'
loop_
 _atom_site_type_symbol
 _atom_site_label
 _atom_site_symmetry_multiplicity
 _atom_site_fract_x
 _atom_site_fract_y
 _atom_site_fract_z
 _atom_site_occupancy
  Yb  Yb0  1  0.250000  0.275700  0.674196  1
  Er  Er1  1  0.750000  0.226116  0.171679  1
  Er  Er2  1  0.750000  0.723091  0.327953  1
  Tm  Tm3  1  0.250000  0.773839  0.828205  1
  Ga  Ga4  1  0.250000  0.704914  0.537030  1
  Ga  Ga5  1  0.750000  0.298291  0.463856  1
  Ga  Ga6  1  0.750000  0.794754  0.036710  1
  Ga  Ga7  1  0.250000  0.199585  0.964632  1
  Ga  Ga8  1  0.250000  0.927761  0.156087  1
  Ga  Ga9  1  0.750000  0.069823  0.847166  1
  Ga  Ga10  1  0.750000  0.571391  0.651067  1
  Ga  Ga11  1  0.250000  0.429724  0.344249  1
  Ag  Ag12  1  0.250000  0.544414  0.097499  1
  Ag  Ag13  1  0.750000  0.958055  0.597724  1
  Ag  Ag14  1  0.250000  0.045684  0.402997  1
  Au  Au15  1  0.750000  0.456857  0.898947  1
