# generated using pymatgen
data_Ac4Mn4Fe3AgO20
_symmetry_space_group_name_H-M   'P 1'
_cell_length_a   5.98379700
_cell_length_b   7.82713008
_cell_length_c   9.04533300
_cell_angle_alpha   89.19783889
_cell_angle_beta   90.00000000
_cell_angle_gamma   90.00000000
_symmetry_Int_Tables_number   1
_chemical_formula_structural   Ac4Mn4Fe3AgO20
_chemical_formula_sum   'Ac4 Mn4 Fe3 Ag1 O20'
_cell_volume   423.60531334
_cell_formula_units_Z   1
loop_
 _symmetry_equiv_pos_site_id
 _symmetry_equiv_pos_as_xyz
  1  'x, y, z'
loop_
 _atom_site_type_symbol
 _atom_site_label
 _atom_site_symmetry_multiplicity
 _atom_site_fract_x
 _atom_site_fract_y
 _atom_site_fract_z
 _atom_site_occupancy
  Ac  Ac0  1  0.000000  0.361519  0.676257  1
  Ac  Ac1  1  0.000000  0.641480  0.326246  1
  Ac  Ac2  1  0.000000  0.850000  0.826624  1
  Ac  Ac3  1  0.000000  0.150272  0.170562  1
  Mn  Mn4  1  0.260291  0.504903  0.003472  1
  Mn  Mn5  1  0.744934  0.998365  0.495028  1
  Mn  Mn6  1  0.739709  0.504903  0.003472  1
  Mn  Mn7  1  0.255066  0.998365  0.495028  1
  Fe  Fe8  1  0.500000  0.888959  0.147170  1
  Fe  Fe9  1  0.500000  0.610131  0.641765  1
  Fe  Fe10  1  0.500000  0.390497  0.361119  1
  Ag  Ag11  1  0.500000  0.062636  0.841608  1
  O  O12  1  0.256724  0.908550  0.295137  1
  O  O13  1  0.244080  0.091011  0.693788  1
  O  O14  1  0.743102  0.410595  0.208446  1
  O  O15  1  0.741318  0.596111  0.795780  1
  O  O16  1  0.755920  0.091011  0.693788  1
  O  O17  1  0.743276  0.908550  0.295137  1
  O  O18  1  0.258682  0.596111  0.795780  1
  O  O19  1  0.256898  0.410595  0.208446  1
  O  O20  1  0.500000  0.363276  0.952519  1
  O  O21  1  0.500000  0.660250  0.064884  1
  O  O22  1  0.500000  0.847220  0.559257  1
  O  O23  1  0.500000  0.152165  0.435620  1
  O  O24  1  0.278984  0.996816  0.004913  1
  O  O25  1  0.716610  0.499271  0.502575  1
  O  O26  1  0.721016  0.996816  0.004913  1
  O  O27  1  0.283390  0.499271  0.502575  1
  O  O28  1  0.000000  0.148891  0.448906  1
  O  O29  1  0.000000  0.849097  0.544884  1
  O  O30  1  0.000000  0.655185  0.050557  1
  O  O31  1  0.000000  0.357184  0.953744  1
