# generated using pymatgen
data_DyHo(Tm2Os)2
_symmetry_space_group_name_H-M   'P 1'
_cell_length_a   7.36653441
_cell_length_b   8.91084000
_cell_length_c   6.25429985
_cell_angle_alpha   90.00000000
_cell_angle_beta   90.08021972
_cell_angle_gamma   90.00000000
_symmetry_Int_Tables_number   1
_chemical_formula_structural   DyHo(Tm2Os)2
_chemical_formula_sum   'Dy2 Ho2 Tm8 Os4'
_cell_volume   410.54440760
_cell_formula_units_Z   2
loop_
 _symmetry_equiv_pos_site_id
 _symmetry_equiv_pos_as_xyz
  1  'x, y, z'
loop_
 _atom_site_type_symbol
 _atom_site_label
 _atom_site_symmetry_multiplicity
 _atom_site_fract_x
 _atom_site_fract_y
 _atom_site_fract_z
 _atom_site_occupancy
  Dy  Dy0  1  0.039074  0.250000  0.628776  1
  Dy  Dy1  1  0.960926  0.750000  0.371224  1
  Ho  Ho2  1  0.460096  0.750000  0.129215  1
  Ho  Ho3  1  0.539904  0.250000  0.870785  1
  Tm  Tm4  1  0.175514  0.062741  0.164949  1
  Tm  Tm5  1  0.824486  0.937259  0.835051  1
  Tm  Tm6  1  0.326651  0.937364  0.667105  1
  Tm  Tm7  1  0.824486  0.562741  0.835051  1
  Tm  Tm8  1  0.673349  0.062636  0.332895  1
  Tm  Tm9  1  0.175514  0.437259  0.164949  1
  Tm  Tm10  1  0.673349  0.437364  0.332895  1
  Tm  Tm11  1  0.326651  0.562636  0.667105  1
  Os  Os12  1  0.382808  0.250000  0.459673  1
  Os  Os13  1  0.617192  0.750000  0.540327  1
  Os  Os14  1  0.117575  0.750000  0.958505  1
  Os  Os15  1  0.882425  0.250000  0.041495  1
