# generated using pymatgen
data_HoTm2Mg3Si2Ag
_symmetry_space_group_name_H-M   'P 1'
_cell_length_a   7.19616900
_cell_length_b   7.20275400
_cell_length_c   4.29406300
_cell_angle_alpha   90.00000000
_cell_angle_beta   90.00000000
_cell_angle_gamma   119.96975740
_symmetry_Int_Tables_number   1
_chemical_formula_structural   HoTm2Mg3Si2Ag
_chemical_formula_sum   'Ho1 Tm2 Mg3 Si2 Ag1'
_cell_volume   192.81075193
_cell_formula_units_Z   1
loop_
 _symmetry_equiv_pos_site_id
 _symmetry_equiv_pos_as_xyz
  1  'x, y, z'
loop_
 _atom_site_type_symbol
 _atom_site_label
 _atom_site_symmetry_multiplicity
 _atom_site_fract_x
 _atom_site_fract_y
 _atom_site_fract_z
 _atom_site_occupancy
  Ho  Ho0  1  0.577328  0.000000  0.000000  1
  Tm  Tm1  1  0.999763  0.577257  0.000000  1
  Tm  Tm2  1  0.422506  0.422743  0.000000  1
  Mg  Mg3  1  0.248478  0.000000  0.500000  1
  Mg  Mg4  1  0.000164  0.248901  0.500000  1
  Mg  Mg5  1  0.751262  0.751099  0.500000  1
  Si  Si6  1  0.332796  0.665852  0.500000  1
  Si  Si7  1  0.666945  0.334148  0.500000  1
  Ag  Ag8  1  0.000757  0.000000  0.000000  1
