# generated using pymatgen
data_Zr16Co4Tc3Hg
_symmetry_space_group_name_H-M   'P 1'
_cell_length_a   8.79691270
_cell_length_b   8.77106043
_cell_length_c   8.77106100
_cell_angle_alpha   60.00000162
_cell_angle_beta   60.09716843
_cell_angle_gamma   60.09716603
_symmetry_Int_Tables_number   1
_chemical_formula_structural   Zr16Co4Tc3Hg
_chemical_formula_sum   'Zr16 Co4 Tc3 Hg1'
_cell_volume   479.24303029
_cell_formula_units_Z   1
loop_
 _symmetry_equiv_pos_site_id
 _symmetry_equiv_pos_as_xyz
  1  'x, y, z'
loop_
 _atom_site_type_symbol
 _atom_site_label
 _atom_site_symmetry_multiplicity
 _atom_site_fract_x
 _atom_site_fract_y
 _atom_site_fract_z
 _atom_site_occupancy
  Zr  Zr0  1  0.051221  0.649593  0.649593  1
  Zr  Zr1  1  0.647456  0.046923  0.652811  1
  Zr  Zr2  1  0.647456  0.652811  0.046923  1
  Zr  Zr3  1  0.647456  0.652811  0.652811  1
  Zr  Zr4  1  0.798858  0.809601  0.195770  1
  Zr  Zr5  1  0.200446  0.201887  0.798834  1
  Zr  Zr6  1  0.798858  0.195770  0.809601  1
  Zr  Zr7  1  0.200446  0.798834  0.201887  1
  Zr  Zr8  1  0.200446  0.798834  0.798834  1
  Zr  Zr9  1  0.798858  0.195770  0.195770  1
  Zr  Zr10  1  0.437417  0.435137  0.063723  1
  Zr  Zr11  1  0.077396  0.051311  0.435646  1
  Zr  Zr12  1  0.437417  0.063723  0.435137  1
  Zr  Zr13  1  0.077396  0.435646  0.051311  1
  Zr  Zr14  1  0.077396  0.435646  0.435646  1
  Zr  Zr15  1  0.437417  0.063723  0.063723  1
  Co  Co16  1  0.419692  0.860102  0.860102  1
  Co  Co17  1  0.858251  0.421276  0.860236  1
  Co  Co18  1  0.858251  0.860236  0.421276  1
  Co  Co19  1  0.858251  0.860236  0.860236  1
  Tc  Tc20  1  0.409570  0.753355  0.418538  1
  Tc  Tc21  1  0.409570  0.418538  0.753355  1
  Tc  Tc22  1  0.409570  0.418538  0.418538  1
  Hg  Hg23  1  0.740901  0.419700  0.419700  1
