# generated using pymatgen
data_La(Y3Au5)2
_symmetry_space_group_name_H-M   'P 1'
_cell_length_a   8.81268562
_cell_length_b   8.81268564
_cell_length_c   10.43261500
_cell_angle_alpha   89.76264863
_cell_angle_beta   89.76264863
_cell_angle_gamma   107.42138563
_symmetry_Int_Tables_number   1
_chemical_formula_structural   La(Y3Au5)2
_chemical_formula_sum   'La2 Y12 Au20'
_cell_volume   773.04723910
_cell_formula_units_Z   2
loop_
 _symmetry_equiv_pos_site_id
 _symmetry_equiv_pos_as_xyz
  1  'x, y, z'
loop_
 _atom_site_type_symbol
 _atom_site_label
 _atom_site_symmetry_multiplicity
 _atom_site_fract_x
 _atom_site_fract_y
 _atom_site_fract_z
 _atom_site_occupancy
  La  La0  1  0.189603  0.189602  0.691030  1
  La  La1  1  0.810397  0.810398  0.308970  1
  Y  Y2  1  0.694383  0.305615  0.000004  1
  Y  Y3  1  0.305617  0.694385  0.999996  1
  Y  Y4  1  0.803702  0.196311  0.500006  1
  Y  Y5  1  0.196298  0.803689  0.499994  1
  Y  Y6  1  0.000000  0.000000  0.000000  1
  Y  Y7  1  0.500000  0.500000  0.500000  1
  Y  Y8  1  0.004817  0.500245  0.249413  1
  Y  Y9  1  0.995183  0.499755  0.750587  1
  Y  Y10  1  0.499766  0.995193  0.750593  1
  Y  Y11  1  0.500234  0.004807  0.249407  1
  Y  Y12  1  0.312245  0.312247  0.189479  1
  Y  Y13  1  0.687755  0.687753  0.810521  1
  Au  Au14  1  0.857649  0.154091  0.206693  1
  Au  Au15  1  0.142351  0.845909  0.793307  1
  Au  Au16  1  0.637793  0.349977  0.710447  1
  Au  Au17  1  0.650024  0.362203  0.289550  1
  Au  Au18  1  0.362207  0.650023  0.289553  1
  Au  Au19  1  0.349976  0.637797  0.710450  1
  Au  Au20  1  0.845910  0.142350  0.793305  1
  Au  Au21  1  0.154090  0.857650  0.206695  1
  Au  Au22  1  0.935962  0.644714  0.004725  1
  Au  Au23  1  0.064038  0.355286  0.995275  1
  Au  Au24  1  0.559077  0.855407  0.504371  1
  Au  Au25  1  0.144591  0.440918  0.495628  1
  Au  Au26  1  0.440923  0.144593  0.495629  1
  Au  Au27  1  0.855409  0.559082  0.504372  1
  Au  Au28  1  0.355280  0.064042  0.995269  1
  Au  Au29  1  0.644720  0.935958  0.004731  1
  Au  Au30  1  0.105281  0.105280  0.395499  1
  Au  Au31  1  0.894719  0.894720  0.604501  1
  Au  Au32  1  0.398852  0.398842  0.901908  1
  Au  Au33  1  0.601148  0.601158  0.098092  1
