# generated using pymatgen
data_Dy6Sc2InAu9
_symmetry_space_group_name_H-M   'P 1'
_cell_length_a   8.00387490
_cell_length_b   8.00387578
_cell_length_c   8.00387400
_cell_angle_alpha   65.57523313
_cell_angle_beta   65.57523027
_cell_angle_gamma   65.57522532
_symmetry_Int_Tables_number   1
_chemical_formula_structural   Dy6Sc2InAu9
_chemical_formula_sum   'Dy6 Sc2 In1 Au9'
_cell_volume   406.47994125
_cell_formula_units_Z   1
loop_
 _symmetry_equiv_pos_site_id
 _symmetry_equiv_pos_as_xyz
  1  'x, y, z'
loop_
 _atom_site_type_symbol
 _atom_site_label
 _atom_site_symmetry_multiplicity
 _atom_site_fract_x
 _atom_site_fract_y
 _atom_site_fract_z
 _atom_site_occupancy
  Dy  Dy0  1  0.898826  0.184021  0.622039  1
  Dy  Dy1  1  0.622039  0.898826  0.184021  1
  Dy  Dy2  1  0.184021  0.622039  0.898826  1
  Dy  Dy3  1  0.101174  0.815979  0.377961  1
  Dy  Dy4  1  0.377961  0.101174  0.815979  1
  Dy  Dy5  1  0.815979  0.377961  0.101174  1
  Sc  Sc6  1  0.663659  0.663659  0.663659  1
  Sc  Sc7  1  0.336341  0.336341  0.336341  1
  In  In8  1  0.500000  0.500000  0.500000  1
  Au  Au9  1  0.000000  0.000000  0.000000  1
  Au  Au10  1  0.807668  0.807668  0.807668  1
  Au  Au11  1  0.192332  0.192332  0.192332  1
  Au  Au12  1  0.932673  0.547961  0.323693  1
  Au  Au13  1  0.323693  0.932673  0.547961  1
  Au  Au14  1  0.547961  0.323693  0.932673  1
  Au  Au15  1  0.067327  0.452039  0.676307  1
  Au  Au16  1  0.676307  0.067327  0.452039  1
  Au  Au17  1  0.452039  0.676307  0.067327  1
