# generated using pymatgen
data_K3Li2TaAs3
_symmetry_space_group_name_H-M   'P 1'
_cell_length_a   10.03621800
_cell_length_b   10.03621831
_cell_length_c   15.38267100
_cell_angle_alpha   90.00000000
_cell_angle_beta   90.00000000
_cell_angle_gamma   142.47479221
_symmetry_Int_Tables_number   1
_chemical_formula_structural   K3Li2TaAs3
_chemical_formula_sum   'K12 Li8 Ta4 As12'
_cell_volume   943.77389673
_cell_formula_units_Z   4
loop_
 _symmetry_equiv_pos_site_id
 _symmetry_equiv_pos_as_xyz
  1  'x, y, z'
loop_
 _atom_site_type_symbol
 _atom_site_label
 _atom_site_symmetry_multiplicity
 _atom_site_fract_x
 _atom_site_fract_y
 _atom_site_fract_z
 _atom_site_occupancy
  K  K0  1  0.606508  0.945440  0.828306  1
  K  K1  1  0.282383  0.282383  0.319495  1
  K  K2  1  0.217617  0.217617  0.819495  1
  K  K3  1  0.717617  0.717617  0.680505  1
  K  K4  1  0.445440  0.106508  0.671694  1
  K  K5  1  0.893492  0.554560  0.328306  1
  K  K6  1  0.054560  0.393492  0.171694  1
  K  K7  1  0.393492  0.054560  0.171694  1
  K  K8  1  0.554560  0.893492  0.328306  1
  K  K9  1  0.106508  0.445440  0.671694  1
  K  K10  1  0.945440  0.606508  0.828306  1
  K  K11  1  0.782383  0.782383  0.180505  1
  Li  Li12  1  0.082506  0.917494  0.000000  1
  Li  Li13  1  0.582506  0.417494  0.500000  1
  Li  Li14  1  0.917494  0.082506  0.000000  1
  Li  Li15  1  0.750311  0.249689  0.000000  1
  Li  Li16  1  0.749689  0.250311  0.500000  1
  Li  Li17  1  0.249689  0.750311  0.000000  1
  Li  Li18  1  0.250311  0.749689  0.500000  1
  Li  Li19  1  0.417494  0.582506  0.500000  1
  Ta  Ta20  1  0.082661  0.917339  0.500000  1
  Ta  Ta21  1  0.417339  0.582661  0.000000  1
  Ta  Ta22  1  0.917339  0.082661  0.500000  1
  Ta  Ta23  1  0.582661  0.417339  0.000000  1
  As  As24  1  0.065587  0.386103  0.407698  1
  As  As25  1  0.886103  0.565587  0.092302  1
  As  As26  1  0.434413  0.113897  0.907698  1
  As  As27  1  0.613897  0.934413  0.592302  1
  As  As28  1  0.934413  0.613897  0.592302  1
  As  As29  1  0.113897  0.434413  0.907698  1
  As  As30  1  0.565587  0.886103  0.092302  1
  As  As31  1  0.386103  0.065587  0.407698  1
  As  As32  1  0.228794  0.228794  0.592270  1
  As  As33  1  0.728794  0.728794  0.907730  1
  As  As34  1  0.271206  0.271206  0.092270  1
  As  As35  1  0.771206  0.771206  0.407730  1
