# generated using pymatgen
data_Ca4Pr16Si15Pd
_symmetry_space_group_name_H-M   'P 1'
_cell_length_a   7.97308702
_cell_length_b   7.90665849
_cell_length_c   15.11736557
_cell_angle_alpha   89.84403904
_cell_angle_beta   89.75783424
_cell_angle_gamma   90.24706012
_symmetry_Int_Tables_number   1
_chemical_formula_structural   Ca4Pr16Si15Pd
_chemical_formula_sum   'Ca4 Pr16 Si15 Pd1'
_cell_volume   952.98497321
_cell_formula_units_Z   1
loop_
 _symmetry_equiv_pos_site_id
 _symmetry_equiv_pos_as_xyz
  1  'x, y, z'
loop_
 _atom_site_type_symbol
 _atom_site_label
 _atom_site_symmetry_multiplicity
 _atom_site_fract_x
 _atom_site_fract_y
 _atom_site_fract_z
 _atom_site_occupancy
  Ca  Ca0  1  0.310066  0.309671  0.999940  1
  Ca  Ca1  1  0.190496  0.809422  0.250607  1
  Ca  Ca2  1  0.808640  0.191724  0.748854  1
  Ca  Ca3  1  0.689955  0.689262  0.500471  1
  Pr  Pr4  1  0.376351  0.008525  0.449060  1
  Pr  Pr5  1  0.493069  0.875052  0.698990  1
  Pr  Pr6  1  0.509011  0.124416  0.199491  1
  Pr  Pr7  1  0.876223  0.489798  0.300109  1
  Pr  Pr8  1  0.122760  0.511216  0.800082  1
  Pr  Pr9  1  0.626126  0.990547  0.949859  1
  Pr  Pr10  1  0.000715  0.374817  0.549261  1
  Pr  Pr11  1  0.990799  0.624805  0.051263  1
  Pr  Pr12  1  0.131658  0.990945  0.873743  1
  Pr  Pr13  1  0.515035  0.627880  0.125708  1
  Pr  Pr14  1  0.477859  0.365946  0.627866  1
  Pr  Pr15  1  0.626866  0.514421  0.874990  1
  Pr  Pr16  1  0.373138  0.484324  0.374760  1
  Pr  Pr17  1  0.874352  0.015467  0.376460  1
  Pr  Pr18  1  0.986017  0.124794  0.124220  1
  Pr  Pr19  1  0.019242  0.877498  0.623349  1
  Si  Si20  1  0.331981  0.699531  0.948787  1
  Si  Si21  1  0.662363  0.297209  0.449685  1
  Si  Si22  1  0.704085  0.335762  0.052557  1
  Si  Si23  1  0.299111  0.665356  0.549660  1
  Si  Si24  1  0.800172  0.833395  0.200790  1
  Si  Si25  1  0.165824  0.200857  0.299490  1
  Si  Si26  1  0.835222  0.800473  0.799764  1
  Si  Si27  1  0.287329  0.919567  0.058640  1
  Si  Si28  1  0.581201  0.786329  0.309764  1
  Si  Si29  1  0.431185  0.206182  0.814363  1
  Si  Si30  1  0.786076  0.582192  0.689909  1
  Si  Si31  1  0.211907  0.421140  0.190330  1
  Si  Si32  1  0.707060  0.077019  0.559010  1
  Si  Si33  1  0.920260  0.288653  0.941063  1
  Si  Si34  1  0.081629  0.713604  0.440106  1
  Pd  Pd35  1  0.196218  0.172199  0.696996  1
