# generated using pymatgen
data_Nd2Ho2ScSi4
_symmetry_space_group_name_H-M   'P 1'
_cell_length_a   7.36643900
_cell_length_b   7.73004900
_cell_length_c   14.68062000
_cell_angle_alpha   90.00000000
_cell_angle_beta   90.00000000
_cell_angle_gamma   90.00000000
_symmetry_Int_Tables_number   1
_chemical_formula_structural   Nd2Ho2ScSi4
_chemical_formula_sum   'Nd8 Ho8 Sc4 Si16'
_cell_volume   835.95758199
_cell_formula_units_Z   4
loop_
 _symmetry_equiv_pos_site_id
 _symmetry_equiv_pos_as_xyz
  1  'x, y, z'
loop_
 _atom_site_type_symbol
 _atom_site_label
 _atom_site_symmetry_multiplicity
 _atom_site_fract_x
 _atom_site_fract_y
 _atom_site_fract_z
 _atom_site_occupancy
  Nd  Nd0  1  0.017578  0.179189  0.401100  1
  Nd  Nd1  1  0.517578  0.320811  0.401100  1
  Nd  Nd2  1  0.482422  0.679189  0.901100  1
  Nd  Nd3  1  0.482422  0.679189  0.598900  1
  Nd  Nd4  1  0.982422  0.820811  0.598900  1
  Nd  Nd5  1  0.982422  0.820811  0.901100  1
  Nd  Nd6  1  0.517578  0.320811  0.098900  1
  Nd  Nd7  1  0.017578  0.179189  0.098900  1
  Ho  Ho8  1  0.323681  0.177900  0.624666  1
  Ho  Ho9  1  0.676319  0.822100  0.375334  1
  Ho  Ho10  1  0.176319  0.677900  0.375334  1
  Ho  Ho11  1  0.823681  0.322100  0.875334  1
  Ho  Ho12  1  0.823681  0.322100  0.624666  1
  Ho  Ho13  1  0.323681  0.177900  0.875334  1
  Ho  Ho14  1  0.176319  0.677900  0.124666  1
  Ho  Ho15  1  0.676319  0.822100  0.124666  1
  Sc  Sc16  1  0.656690  0.989551  0.750000  1
  Sc  Sc17  1  0.843310  0.489551  0.250000  1
  Sc  Sc18  1  0.343310  0.010449  0.250000  1
  Sc  Sc19  1  0.156690  0.510449  0.750000  1
  Si  Si20  1  0.280730  0.872650  0.750000  1
  Si  Si21  1  0.475717  0.606145  0.250000  1
  Si  Si22  1  0.024283  0.106145  0.750000  1
  Si  Si23  1  0.524283  0.393855  0.750000  1
  Si  Si24  1  0.149271  0.468111  0.539429  1
  Si  Si25  1  0.975717  0.893855  0.250000  1
  Si  Si26  1  0.719270  0.127350  0.250000  1
  Si  Si27  1  0.850729  0.531889  0.039429  1
  Si  Si28  1  0.350729  0.968111  0.039429  1
  Si  Si29  1  0.149271  0.468111  0.960571  1
  Si  Si30  1  0.649271  0.031889  0.539429  1
  Si  Si31  1  0.350729  0.968111  0.460571  1
  Si  Si32  1  0.850729  0.531889  0.460571  1
  Si  Si33  1  0.780730  0.627350  0.750000  1
  Si  Si34  1  0.219270  0.372650  0.250000  1
  Si  Si35  1  0.649271  0.031889  0.960571  1
