# generated using pymatgen
data_CeZn3P7N12
_symmetry_space_group_name_H-M   'P 1'
_cell_length_a   7.28527143
_cell_length_b   7.31316004
_cell_length_c   7.28527168
_cell_angle_alpha   109.54878304
_cell_angle_beta   109.39355204
_cell_angle_gamma   109.54878380
_symmetry_Int_Tables_number   1
_chemical_formula_structural   CeZn3P7N12
_chemical_formula_sum   'Ce1 Zn3 P7 N12'
_cell_volume   298.50941352
_cell_formula_units_Z   1
loop_
 _symmetry_equiv_pos_site_id
 _symmetry_equiv_pos_as_xyz
  1  'x, y, z'
loop_
 _atom_site_type_symbol
 _atom_site_label
 _atom_site_symmetry_multiplicity
 _atom_site_fract_x
 _atom_site_fract_y
 _atom_site_fract_z
 _atom_site_occupancy
  Ce  Ce0  1  0.000000  0.311435  0.000000  1
  Zn  Zn1  1  0.665118  0.663248  0.665118  1
  Zn  Zn2  1  0.334882  0.998131  0.000000  1
  Zn  Zn3  1  0.000000  0.998131  0.334882  1
  P  P4  1  0.744842  0.253820  0.492701  1
  P  P5  1  0.252141  0.761119  0.507299  1
  P  P6  1  0.507299  0.761119  0.252141  1
  P  P7  1  0.492701  0.253820  0.744842  1
  P  P8  1  0.747859  0.508978  0.255158  1
  P  P9  1  0.255158  0.508978  0.747859  1
  P  P10  1  0.000000  0.930613  0.000000  1
  N  N11  1  0.571362  0.282780  0.000000  1
  N  N12  1  0.433587  0.438270  0.703840  1
  N  N13  1  0.000000  0.282780  0.571362  1
  N  N14  1  0.270253  0.004683  0.566413  1
  N  N15  1  0.703840  0.438270  0.433587  1
  N  N16  1  0.000000  0.571548  0.295778  1
  N  N17  1  0.566413  0.004683  0.270253  1
  N  N18  1  0.428638  0.711418  0.428638  1
  N  N19  1  0.295778  0.571548  0.000000  1
  N  N20  1  0.704222  0.275770  0.704222  1
  N  N21  1  0.729747  0.734430  0.296160  1
  N  N22  1  0.296160  0.734430  0.729747  1
