# generated using pymatgen
data_Nd6FeCo15(P6Ru)2
_symmetry_space_group_name_H-M   'P 1'
_cell_length_a   3.78007500
_cell_length_b   10.66675100
_cell_length_c   12.41052900
_cell_angle_alpha   90.00000000
_cell_angle_beta   90.00000000
_cell_angle_gamma   90.00000000
_symmetry_Int_Tables_number   1
_chemical_formula_structural   Nd6FeCo15(P6Ru)2
_chemical_formula_sum   'Nd6 Fe1 Co15 P12 Ru2'
_cell_volume   500.40641401
_cell_formula_units_Z   1
loop_
 _symmetry_equiv_pos_site_id
 _symmetry_equiv_pos_as_xyz
  1  'x, y, z'
loop_
 _atom_site_type_symbol
 _atom_site_label
 _atom_site_symmetry_multiplicity
 _atom_site_fract_x
 _atom_site_fract_y
 _atom_site_fract_z
 _atom_site_occupancy
  Nd  Nd0  1  0.000000  0.500000  0.523325  1
  Nd  Nd1  1  0.500000  0.000000  0.476352  1
  Nd  Nd2  1  0.500000  0.816720  0.206303  1
  Nd  Nd3  1  0.500000  0.183280  0.206303  1
  Nd  Nd4  1  0.000000  0.681975  0.794402  1
  Nd  Nd5  1  0.000000  0.318025  0.794402  1
  Fe  Fe6  1  0.000000  0.500000  0.989090  1
  Co  Co7  1  0.500000  0.500000  0.704722  1
  Co  Co8  1  0.000000  0.000000  0.294669  1
  Co  Co9  1  0.500000  0.000000  0.012715  1
  Co  Co10  1  0.500000  0.331034  0.992962  1
  Co  Co11  1  0.500000  0.668966  0.992962  1
  Co  Co12  1  0.000000  0.166717  0.007186  1
  Co  Co13  1  0.000000  0.833283  0.007186  1
  Co  Co14  1  0.500000  0.297156  0.430228  1
  Co  Co15  1  0.500000  0.702844  0.430228  1
  Co  Co16  1  0.000000  0.202761  0.569866  1
  Co  Co17  1  0.000000  0.797239  0.569866  1
  Co  Co18  1  0.500000  0.881279  0.709642  1
  Co  Co19  1  0.500000  0.118721  0.709642  1
  Co  Co20  1  0.000000  0.618633  0.290515  1
  Co  Co21  1  0.000000  0.381367  0.290515  1
  P  P22  1  0.500000  0.500000  0.887532  1
  P  P23  1  0.000000  0.000000  0.114078  1
  P  P24  1  0.500000  0.500000  0.344646  1
  P  P25  1  0.000000  0.000000  0.654457  1
  P  P26  1  0.500000  0.307019  0.614590  1
  P  P27  1  0.500000  0.692981  0.614590  1
  P  P28  1  0.000000  0.193005  0.385557  1
  P  P29  1  0.000000  0.806995  0.385557  1
  P  P30  1  0.500000  0.848041  0.895818  1
  P  P31  1  0.500000  0.151959  0.895818  1
  P  P32  1  0.000000  0.652541  0.103069  1
  P  P33  1  0.000000  0.347459  0.103069  1
  Ru  Ru34  1  0.500000  0.500000  0.156303  1
  Ru  Ru35  1  0.000000  0.000000  0.841831  1
