# generated using pymatgen
data_Nd3Mg2CdSn2Au
_symmetry_space_group_name_H-M   'P 1'
_cell_length_a   7.71607600
_cell_length_b   7.67301355
_cell_length_c   4.59078300
_cell_angle_alpha   90.00000000
_cell_angle_beta   90.00000000
_cell_angle_gamma   120.18582423
_symmetry_Int_Tables_number   1
_chemical_formula_structural   Nd3Mg2CdSn2Au
_chemical_formula_sum   'Nd3 Mg2 Cd1 Sn2 Au1'
_cell_volume   234.94358835
_cell_formula_units_Z   1
loop_
 _symmetry_equiv_pos_site_id
 _symmetry_equiv_pos_as_xyz
  1  'x, y, z'
loop_
 _atom_site_type_symbol
 _atom_site_label
 _atom_site_symmetry_multiplicity
 _atom_site_fract_x
 _atom_site_fract_y
 _atom_site_fract_z
 _atom_site_occupancy
  Nd  Nd0  1  0.590831  0.000000  0.000000  1
  Nd  Nd1  1  0.002300  0.596522  0.000000  1
  Nd  Nd2  1  0.405778  0.403478  0.000000  1
  Mg  Mg3  1  0.001051  0.232433  0.500000  1
  Mg  Mg4  1  0.768618  0.767567  0.500000  1
  Cd  Cd5  1  0.240009  0.000000  0.500000  1
  Sn  Sn6  1  0.333800  0.663219  0.500000  1
  Sn  Sn7  1  0.670582  0.336781  0.500000  1
  Au  Au8  1  0.987032  0.000000  0.000000  1
