# generated using pymatgen
data_La16Tm4Ir11Rh
_symmetry_space_group_name_H-M   'P 1'
_cell_length_a   11.35157500
_cell_length_b   11.35157500
_cell_length_c   6.54109400
_cell_angle_alpha   90.00000000
_cell_angle_beta   90.00000000
_cell_angle_gamma   90.00000000
_symmetry_Int_Tables_number   1
_chemical_formula_structural   La16Tm4Ir11Rh
_chemical_formula_sum   'La16 Tm4 Ir11 Rh1'
_cell_volume   842.87395850
_cell_formula_units_Z   1
loop_
 _symmetry_equiv_pos_site_id
 _symmetry_equiv_pos_as_xyz
  1  'x, y, z'
loop_
 _atom_site_type_symbol
 _atom_site_label
 _atom_site_symmetry_multiplicity
 _atom_site_fract_x
 _atom_site_fract_y
 _atom_site_fract_z
 _atom_site_occupancy
  La  La0  1  0.286909  0.088206  0.387966  1
  La  La1  1  0.286927  0.911791  0.886404  1
  La  La2  1  0.713073  0.088209  0.886404  1
  La  La3  1  0.713091  0.911794  0.387966  1
  La  La4  1  0.588209  0.786927  0.886404  1
  La  La5  1  0.588206  0.213091  0.387966  1
  La  La6  1  0.411794  0.786909  0.387966  1
  La  La7  1  0.411791  0.213073  0.886404  1
  La  La8  1  0.212749  0.411923  0.613121  1
  La  La9  1  0.212743  0.588110  0.113040  1
  La  La10  1  0.787257  0.411890  0.113040  1
  La  La11  1  0.787251  0.588077  0.613121  1
  La  La12  1  0.911890  0.712743  0.113040  1
  La  La13  1  0.911923  0.287251  0.613121  1
  La  La14  1  0.088077  0.712749  0.613121  1
  La  La15  1  0.088110  0.287257  0.113040  1
  Tm  Tm16  1  0.000000  0.000000  0.500035  1
  Tm  Tm17  1  0.000000  0.000000  0.999979  1
  Tm  Tm18  1  0.500000  0.500000  0.999979  1
  Tm  Tm19  1  0.500000  0.500000  0.500035  1
  Ir  Ir20  1  0.852649  0.146792  0.249786  1
  Ir  Ir21  1  0.852816  0.853037  0.749798  1
  Ir  Ir22  1  0.147184  0.146963  0.749798  1
  Ir  Ir23  1  0.147351  0.853208  0.249786  1
  Ir  Ir24  1  0.646963  0.352816  0.749798  1
  Ir  Ir25  1  0.646792  0.647351  0.249786  1
  Ir  Ir26  1  0.353208  0.352649  0.249786  1
  Ir  Ir27  1  0.353037  0.647184  0.749798  1
  Ir  Ir28  1  0.500000  0.000000  0.617853  1
  Ir  Ir29  1  0.000000  0.500000  0.882431  1
  Ir  Ir30  1  0.000000  0.500000  0.382466  1
  Rh  Rh31  1  0.500000  0.000000  0.116765  1
