# generated using pymatgen
data_Sc5CdRh6
_symmetry_space_group_name_H-M   'P 1'
_cell_length_a   4.54962400
_cell_length_b   6.37400500
_cell_length_c   13.59882500
_cell_angle_alpha   90.00000000
_cell_angle_beta   90.00042818
_cell_angle_gamma   90.00000000
_symmetry_Int_Tables_number   1
_chemical_formula_structural   Sc5CdRh6
_chemical_formula_sum   'Sc10 Cd2 Rh12'
_cell_volume   394.35676108
_cell_formula_units_Z   2
loop_
 _symmetry_equiv_pos_site_id
 _symmetry_equiv_pos_as_xyz
  1  'x, y, z'
loop_
 _atom_site_type_symbol
 _atom_site_label
 _atom_site_symmetry_multiplicity
 _atom_site_fract_x
 _atom_site_fract_y
 _atom_site_fract_z
 _atom_site_occupancy
  Sc  Sc0  1  0.000004  0.500000  0.006862  1
  Sc  Sc1  1  0.499980  0.000000  0.159813  1
  Sc  Sc2  1  0.999990  0.500000  0.328605  1
  Sc  Sc3  1  0.500003  0.000000  0.500927  1
  Sc  Sc4  1  0.000009  0.500000  0.665702  1
  Sc  Sc5  1  0.500014  0.000000  0.838045  1
  Sc  Sc6  1  0.999991  0.000000  0.333247  1
  Sc  Sc7  1  0.500003  0.500000  0.498757  1
  Sc  Sc8  1  0.000010  0.000000  0.667773  1
  Sc  Sc9  1  0.500008  0.500000  0.833466  1
  Cd  Cd10  1  0.000000  0.000000  0.999622  1
  Cd  Cd11  1  0.499984  0.500000  0.167131  1
  Rh  Rh12  1  0.500001  0.258396  0.994758  1
  Rh  Rh13  1  0.500001  0.741604  0.994758  1
  Rh  Rh14  1  0.999980  0.241495  0.172122  1
  Rh  Rh15  1  0.999980  0.758505  0.172122  1
  Rh  Rh16  1  0.499989  0.245446  0.336497  1
  Rh  Rh17  1  0.499989  0.754554  0.336497  1
  Rh  Rh18  1  0.000001  0.250631  0.499760  1
  Rh  Rh19  1  0.000001  0.749369  0.499760  1
  Rh  Rh20  1  0.500012  0.249342  0.666774  1
  Rh  Rh21  1  0.500012  0.750658  0.666774  1
  Rh  Rh22  1  0.000012  0.254621  0.830114  1
  Rh  Rh23  1  0.000012  0.745379  0.830114  1
