# generated using pymatgen
data_Ce3Y2Co19P12
_symmetry_space_group_name_H-M   'P 1'
_cell_length_a   12.03015200
_cell_length_b   12.03015129
_cell_length_c   3.71606500
_cell_angle_alpha   90.00000000
_cell_angle_beta   90.00000000
_cell_angle_gamma   119.99999645
_symmetry_Int_Tables_number   1
_chemical_formula_structural   Ce3Y2Co19P12
_chemical_formula_sum   'Ce3 Y2 Co19 P12'
_cell_volume   465.75352743
_cell_formula_units_Z   1
loop_
 _symmetry_equiv_pos_site_id
 _symmetry_equiv_pos_as_xyz
  1  'x, y, z'
loop_
 _atom_site_type_symbol
 _atom_site_label
 _atom_site_symmetry_multiplicity
 _atom_site_fract_x
 _atom_site_fract_y
 _atom_site_fract_z
 _atom_site_occupancy
  Ce  Ce0  1  0.000000  0.187031  0.000000  1
  Ce  Ce1  1  0.812969  0.812969  0.000000  1
  Ce  Ce2  1  0.187031  0.000000  0.000000  1
  Y  Y3  1  0.333333  0.666667  0.500000  1
  Y  Y4  1  0.666667  0.333333  0.500000  1
  Co  Co5  1  0.621153  0.820939  0.500000  1
  Co  Co6  1  0.179061  0.800215  0.500000  1
  Co  Co7  1  0.199785  0.378847  0.500000  1
  Co  Co8  1  0.378847  0.199785  0.500000  1
  Co  Co9  1  0.820939  0.621153  0.500000  1
  Co  Co10  1  0.800215  0.179061  0.500000  1
  Co  Co11  1  0.000000  0.554275  0.500000  1
  Co  Co12  1  0.445725  0.445725  0.500000  1
  Co  Co13  1  0.554275  0.000000  0.500000  1
  Co  Co14  1  0.515568  0.639789  0.000000  1
  Co  Co15  1  0.360211  0.875779  0.000000  1
  Co  Co16  1  0.124221  0.484432  0.000000  1
  Co  Co17  1  0.484432  0.124221  0.000000  1
  Co  Co18  1  0.639789  0.515568  0.000000  1
  Co  Co19  1  0.875779  0.360211  0.000000  1
  Co  Co20  1  0.000000  0.712878  0.000000  1
  Co  Co21  1  0.287122  0.287122  0.000000  1
  Co  Co22  1  0.712878  0.000000  0.000000  1
  Co  Co23  1  0.000000  0.000000  0.500000  1
  P  P24  1  0.000000  0.371131  0.500000  1
  P  P25  1  0.628869  0.628869  0.500000  1
  P  P26  1  0.371131  0.000000  0.500000  1
  P  P27  1  0.519494  0.832149  0.000000  1
  P  P28  1  0.167851  0.687345  0.000000  1
  P  P29  1  0.312655  0.480506  0.000000  1
  P  P30  1  0.480506  0.312655  0.000000  1
  P  P31  1  0.832149  0.519494  0.000000  1
  P  P32  1  0.687345  0.167851  0.000000  1
  P  P33  1  0.000000  0.815642  0.500000  1
  P  P34  1  0.184358  0.184358  0.500000  1
  P  P35  1  0.815642  0.000000  0.500000  1
