# generated using pymatgen
data_Tb3SnGeIr2
_symmetry_space_group_name_H-M   'P 1'
_cell_length_a   5.70497200
_cell_length_b   8.09156500
_cell_length_c   13.49746300
_cell_angle_alpha   90.00000000
_cell_angle_beta   90.00000000
_cell_angle_gamma   90.00000000
_symmetry_Int_Tables_number   1
_chemical_formula_structural   Tb3SnGeIr2
_chemical_formula_sum   'Tb12 Sn4 Ge4 Ir8'
_cell_volume   623.07193540
_cell_formula_units_Z   4
loop_
 _symmetry_equiv_pos_site_id
 _symmetry_equiv_pos_as_xyz
  1  'x, y, z'
loop_
 _atom_site_type_symbol
 _atom_site_label
 _atom_site_symmetry_multiplicity
 _atom_site_fract_x
 _atom_site_fract_y
 _atom_site_fract_z
 _atom_site_occupancy
  Tb  Tb0  1  0.628292  0.260416  0.250000  1
  Tb  Tb1  1  0.371708  0.739584  0.750000  1
  Tb  Tb2  1  0.371708  0.760416  0.250000  1
  Tb  Tb3  1  0.628292  0.239584  0.750000  1
  Tb  Tb4  1  0.159587  0.398092  0.098926  1
  Tb  Tb5  1  0.840413  0.601908  0.901074  1
  Tb  Tb6  1  0.840413  0.601908  0.598926  1
  Tb  Tb7  1  0.840413  0.898092  0.401074  1
  Tb  Tb8  1  0.159587  0.398092  0.401074  1
  Tb  Tb9  1  0.159587  0.101908  0.598926  1
  Tb  Tb10  1  0.159587  0.101908  0.901074  1
  Tb  Tb11  1  0.840413  0.898092  0.098926  1
  Sn  Sn12  1  0.669672  0.250000  0.000000  1
  Sn  Sn13  1  0.330328  0.750000  0.000000  1
  Sn  Sn14  1  0.330328  0.750000  0.500000  1
  Sn  Sn15  1  0.669672  0.250000  0.500000  1
  Ge  Ge16  1  0.115892  0.108067  0.250000  1
  Ge  Ge17  1  0.884108  0.891933  0.750000  1
  Ge  Ge18  1  0.884108  0.608067  0.250000  1
  Ge  Ge19  1  0.115892  0.391933  0.750000  1
  Ir  Ir20  1  0.360533  0.048871  0.099584  1
  Ir  Ir21  1  0.639467  0.951129  0.900416  1
  Ir  Ir22  1  0.639467  0.951129  0.599584  1
  Ir  Ir23  1  0.639467  0.548871  0.400416  1
  Ir  Ir24  1  0.360533  0.048871  0.400416  1
  Ir  Ir25  1  0.360533  0.451129  0.599584  1
  Ir  Ir26  1  0.360533  0.451129  0.900416  1
  Ir  Ir27  1  0.639467  0.548871  0.099584  1
