# generated using pymatgen
data_Cs2Ti7CBr18
_symmetry_space_group_name_H-M   'P 1'
_cell_length_a   10.69300928
_cell_length_b   10.69300927
_cell_length_c   10.69300926
_cell_angle_alpha   55.50527065
_cell_angle_beta   55.50526929
_cell_angle_gamma   55.50526831
_symmetry_Int_Tables_number   1
_chemical_formula_structural   Cs2Ti7CBr18
_chemical_formula_sum   'Cs2 Ti7 C1 Br18'
_cell_volume   774.31856182
_cell_formula_units_Z   1
loop_
 _symmetry_equiv_pos_site_id
 _symmetry_equiv_pos_as_xyz
  1  'x, y, z'
loop_
 _atom_site_type_symbol
 _atom_site_label
 _atom_site_symmetry_multiplicity
 _atom_site_fract_x
 _atom_site_fract_y
 _atom_site_fract_z
 _atom_site_occupancy
  Cs  Cs0  1  0.775479  0.775479  0.775479  1
  Cs  Cs1  1  0.224521  0.224521  0.224521  1
  Ti  Ti2  1  0.148091  0.908081  0.808146  1
  Ti  Ti3  1  0.851909  0.091919  0.191854  1
  Ti  Ti4  1  0.091919  0.191854  0.851909  1
  Ti  Ti5  1  0.191854  0.851909  0.091919  1
  Ti  Ti6  1  0.908081  0.808146  0.148091  1
  Ti  Ti7  1  0.808146  0.148091  0.908081  1
  Ti  Ti8  1  0.500000  0.500000  0.500000  1
  C  C9  1  0.000000  0.000000  0.000000  1
  Br  Br10  1  0.217818  0.468517  0.646238  1
  Br  Br11  1  0.782182  0.531483  0.353762  1
  Br  Br12  1  0.337406  0.053078  0.933293  1
  Br  Br13  1  0.662594  0.946922  0.066707  1
  Br  Br14  1  0.933293  0.337406  0.053078  1
  Br  Br15  1  0.716662  0.880016  0.403414  1
  Br  Br16  1  0.353762  0.782182  0.531483  1
  Br  Br17  1  0.596586  0.283338  0.119984  1
  Br  Br18  1  0.283338  0.119984  0.596586  1
  Br  Br19  1  0.119984  0.596586  0.283338  1
  Br  Br20  1  0.946922  0.066707  0.662594  1
  Br  Br21  1  0.403414  0.716662  0.880016  1
  Br  Br22  1  0.880016  0.403414  0.716662  1
  Br  Br23  1  0.066707  0.662594  0.946922  1
  Br  Br24  1  0.468517  0.646238  0.217818  1
  Br  Br25  1  0.646238  0.217818  0.468517  1
  Br  Br26  1  0.531483  0.353762  0.782182  1
  Br  Br27  1  0.053078  0.933293  0.337406  1
