# generated using pymatgen
data_Sr2YHo(Ge4N7)2
_symmetry_space_group_name_H-M   'P 1'
_cell_length_a   6.30871600
_cell_length_b   6.30871572
_cell_length_c   10.33210000
_cell_angle_alpha   90.00000000
_cell_angle_beta   90.00000000
_cell_angle_gamma   120.00000146
_symmetry_Int_Tables_number   1
_chemical_formula_structural   Sr2YHo(Ge4N7)2
_chemical_formula_sum   'Sr2 Y1 Ho1 Ge8 N14'
_cell_volume   356.12393328
_cell_formula_units_Z   1
loop_
 _symmetry_equiv_pos_site_id
 _symmetry_equiv_pos_as_xyz
  1  'x, y, z'
loop_
 _atom_site_type_symbol
 _atom_site_label
 _atom_site_symmetry_multiplicity
 _atom_site_fract_x
 _atom_site_fract_y
 _atom_site_fract_z
 _atom_site_occupancy
  Sr  Sr0  1  0.666667  0.333333  0.585480  1
  Sr  Sr1  1  0.333333  0.666667  0.084889  1
  Y  Y2  1  0.333333  0.666667  0.450791  1
  Ho  Ho3  1  0.666667  0.333333  0.950780  1
  Ge  Ge4  1  0.173452  0.346902  0.760798  1
  Ge  Ge5  1  0.826496  0.173504  0.259925  1
  Ge  Ge6  1  0.347006  0.173504  0.259925  1
  Ge  Ge7  1  0.653098  0.826548  0.760798  1
  Ge  Ge8  1  0.173452  0.826548  0.760798  1
  Ge  Ge9  1  0.826496  0.652994  0.259925  1
  Ge  Ge10  1  0.000000  0.000000  0.025321  1
  Ge  Ge11  1  0.000000  0.000000  0.525718  1
  N  N12  1  0.000000  0.000000  0.833920  1
  N  N13  1  0.000000  0.000000  0.333605  1
  N  N14  1  0.840869  0.681738  0.081715  1
  N  N15  1  0.158776  0.841224  0.582744  1
  N  N16  1  0.682447  0.841224  0.582744  1
  N  N17  1  0.318262  0.159131  0.081715  1
  N  N18  1  0.840869  0.159131  0.081715  1
  N  N19  1  0.158776  0.317553  0.582744  1
  N  N20  1  0.495255  0.504745  0.817120  1
  N  N21  1  0.989894  0.494947  0.316077  1
  N  N22  1  0.505053  0.010106  0.316077  1
  N  N23  1  0.495255  0.990509  0.817120  1
  N  N24  1  0.505053  0.494947  0.316077  1
  N  N25  1  0.009491  0.504745  0.817120  1
