# generated using pymatgen
data_CaY7Cd8
_symmetry_space_group_name_H-M   'P 1'
_cell_length_a   7.46790909
_cell_length_b   7.49404300
_cell_length_c   7.44382300
_cell_angle_alpha   90.00000000
_cell_angle_beta   89.99115388
_cell_angle_gamma   90.00000000
_symmetry_Int_Tables_number   1
_chemical_formula_structural   CaY7Cd8
_chemical_formula_sum   'Ca1 Y7 Cd8'
_cell_volume   416.59229743
_cell_formula_units_Z   1
loop_
 _symmetry_equiv_pos_site_id
 _symmetry_equiv_pos_as_xyz
  1  'x, y, z'
loop_
 _atom_site_type_symbol
 _atom_site_label
 _atom_site_symmetry_multiplicity
 _atom_site_fract_x
 _atom_site_fract_y
 _atom_site_fract_z
 _atom_site_occupancy
  Ca  Ca0  1  0.250501  0.750000  0.999877  1
  Y  Y1  1  0.749531  0.250000  0.000125  1
  Y  Y2  1  0.249542  0.750000  0.499875  1
  Y  Y3  1  0.750464  0.250000  0.500120  1
  Y  Y4  1  0.250827  0.250000  0.000003  1
  Y  Y5  1  0.749206  0.750000  0.999999  1
  Y  Y6  1  0.750837  0.750000  0.499987  1
  Y  Y7  1  0.249168  0.250000  0.500015  1
  Cd  Cd8  1  0.999358  0.499250  0.249428  1
  Cd  Cd9  1  0.999358  0.000752  0.249428  1
  Cd  Cd10  1  0.501041  0.000994  0.252116  1
  Cd  Cd11  1  0.501041  0.499006  0.252116  1
  Cd  Cd12  1  0.500632  0.499257  0.747875  1
  Cd  Cd13  1  0.500632  0.000745  0.747875  1
  Cd  Cd14  1  0.998930  0.001000  0.750581  1
  Cd  Cd15  1  0.998930  0.499000  0.750581  1
