# generated using pymatgen
data_Nd8MgNi2Hg
_symmetry_space_group_name_H-M   'P 1'
_cell_length_a   9.85121890
_cell_length_b   9.85121870
_cell_length_c   9.86453000
_cell_angle_alpha   59.95529148
_cell_angle_beta   59.95529215
_cell_angle_gamma   60.11883706
_symmetry_Int_Tables_number   1
_chemical_formula_structural   Nd8MgNi2Hg
_chemical_formula_sum   'Nd16 Mg2 Ni4 Hg2'
_cell_volume   677.07303308
_cell_formula_units_Z   2
loop_
 _symmetry_equiv_pos_site_id
 _symmetry_equiv_pos_as_xyz
  1  'x, y, z'
loop_
 _atom_site_type_symbol
 _atom_site_label
 _atom_site_symmetry_multiplicity
 _atom_site_fract_x
 _atom_site_fract_y
 _atom_site_fract_z
 _atom_site_occupancy
  Nd  Nd0  1  0.810683  0.188861  0.191607  1
  Nd  Nd1  1  0.188861  0.810683  0.808849  1
  Nd  Nd2  1  0.188861  0.810683  0.191607  1
  Nd  Nd3  1  0.810683  0.188861  0.808849  1
  Nd  Nd4  1  0.188295  0.188295  0.811705  1
  Nd  Nd5  1  0.806493  0.806493  0.193507  1
  Nd  Nd6  1  0.937385  0.561491  0.565095  1
  Nd  Nd7  1  0.561491  0.937385  0.936030  1
  Nd  Nd8  1  0.561491  0.937385  0.565095  1
  Nd  Nd9  1  0.937385  0.561491  0.936030  1
  Nd  Nd10  1  0.561471  0.561471  0.938529  1
  Nd  Nd11  1  0.935157  0.935157  0.564843  1
  Nd  Nd12  1  0.346510  0.346510  0.346493  1
  Nd  Nd13  1  0.346510  0.346510  0.960489  1
  Nd  Nd14  1  0.349652  0.954685  0.347832  1
  Nd  Nd15  1  0.954685  0.349652  0.347832  1
  Mg  Mg16  1  0.579837  0.271905  0.574130  1
  Mg  Mg17  1  0.271905  0.579837  0.574130  1
  Ni  Ni18  1  0.142192  0.142192  0.143631  1
  Ni  Ni19  1  0.142192  0.142192  0.571985  1
  Ni  Ni20  1  0.142740  0.573970  0.141645  1
  Ni  Ni21  1  0.573970  0.142740  0.141645  1
  Hg  Hg22  1  0.580777  0.580777  0.586499  1
  Hg  Hg23  1  0.580777  0.580777  0.251948  1
