# generated using pymatgen
data_Er3Sc3As2W
_symmetry_space_group_name_H-M   'P 1'
_cell_length_a   7.48669900
_cell_length_b   7.48669916
_cell_length_c   4.13757000
_cell_angle_alpha   90.00000000
_cell_angle_beta   90.00000000
_cell_angle_gamma   119.99999487
_symmetry_Int_Tables_number   1
_chemical_formula_structural   Er3Sc3As2W
_chemical_formula_sum   'Er3 Sc3 As2 W1'
_cell_volume   200.84302945
_cell_formula_units_Z   1
loop_
 _symmetry_equiv_pos_site_id
 _symmetry_equiv_pos_as_xyz
  1  'x, y, z'
loop_
 _atom_site_type_symbol
 _atom_site_label
 _atom_site_symmetry_multiplicity
 _atom_site_fract_x
 _atom_site_fract_y
 _atom_site_fract_z
 _atom_site_occupancy
  Er  Er0  1  0.590627  0.000000  0.500000  1
  Er  Er1  1  0.409373  0.409373  0.500000  1
  Er  Er2  1  0.000000  0.590627  0.500000  1
  Sc  Sc3  1  0.000000  0.241384  0.000000  1
  Sc  Sc4  1  0.758616  0.758616  0.000000  1
  Sc  Sc5  1  0.241384  0.000000  0.000000  1
  As  As6  1  0.666667  0.333333  0.000000  1
  As  As7  1  0.333333  0.666667  0.000000  1
  W  W8  1  0.000000  0.000000  0.500000  1
