# generated using pymatgen
data_Pr4Ga5Rh9
_symmetry_space_group_name_H-M   'P 1'
_cell_length_a   12.22192559
_cell_length_b   12.22192517
_cell_length_c   12.22192573
_cell_angle_alpha   26.85891881
_cell_angle_beta   26.85892067
_cell_angle_gamma   26.85892229
_symmetry_Int_Tables_number   1
_chemical_formula_structural   Pr4Ga5Rh9
_chemical_formula_sum   'Pr4 Ga5 Rh9'
_cell_volume   328.62958281
_cell_formula_units_Z   1
loop_
 _symmetry_equiv_pos_site_id
 _symmetry_equiv_pos_as_xyz
  1  'x, y, z'
loop_
 _atom_site_type_symbol
 _atom_site_label
 _atom_site_symmetry_multiplicity
 _atom_site_fract_x
 _atom_site_fract_y
 _atom_site_fract_z
 _atom_site_occupancy
  Pr  Pr0  1  0.950131  0.950131  0.950131  1
  Pr  Pr1  1  0.853249  0.853249  0.853249  1
  Pr  Pr2  1  0.146556  0.146556  0.146556  1
  Pr  Pr3  1  0.049301  0.049301  0.049301  1
  Ga  Ga4  1  0.278454  0.278454  0.278454  1
  Ga  Ga5  1  0.500085  0.500085  0.500085  1
  Ga  Ga6  1  0.388618  0.388618  0.388618  1
  Ga  Ga7  1  0.721663  0.721663  0.721663  1
  Ga  Ga8  1  0.611482  0.611482  0.611482  1
  Rh  Rh9  1  0.611760  0.611760  0.106242  1
  Rh  Rh10  1  0.894015  0.388297  0.388297  1
  Rh  Rh11  1  0.500029  0.000032  0.500029  1
  Rh  Rh12  1  0.388297  0.894015  0.388297  1
  Rh  Rh13  1  0.500029  0.500029  0.000032  1
  Rh  Rh14  1  0.106242  0.611760  0.611760  1
  Rh  Rh15  1  0.000032  0.500029  0.500029  1
  Rh  Rh16  1  0.388297  0.388297  0.894015  1
  Rh  Rh17  1  0.611760  0.106242  0.611760  1
