# generated using pymatgen
data_TiBe7SiW3
_symmetry_space_group_name_H-M   'P 1'
_cell_length_a   4.49378700
_cell_length_b   4.49378664
_cell_length_c   7.45729700
_cell_angle_alpha   90.00000000
_cell_angle_beta   90.00000000
_cell_angle_gamma   120.00000999
_symmetry_Int_Tables_number   1
_chemical_formula_structural   TiBe7SiW3
_chemical_formula_sum   'Ti1 Be7 Si1 W3'
_cell_volume   130.41782722
_cell_formula_units_Z   1
loop_
 _symmetry_equiv_pos_site_id
 _symmetry_equiv_pos_as_xyz
  1  'x, y, z'
loop_
 _atom_site_type_symbol
 _atom_site_label
 _atom_site_symmetry_multiplicity
 _atom_site_fract_x
 _atom_site_fract_y
 _atom_site_fract_z
 _atom_site_occupancy
  Ti  Ti0  1  0.333333  0.666667  0.434243  1
  Be  Be1  1  0.000000  0.000000  0.000706  1
  Be  Be2  1  0.827909  0.172091  0.242755  1
  Be  Be3  1  0.827909  0.655818  0.242755  1
  Be  Be4  1  0.344182  0.172091  0.242755  1
  Be  Be5  1  0.171828  0.828172  0.757058  1
  Be  Be6  1  0.171828  0.343656  0.757058  1
  Be  Be7  1  0.656344  0.828172  0.757058  1
  Si  Si8  1  0.000000  0.000000  0.500065  1
  W  W9  1  0.666667  0.333333  0.568078  1
  W  W10  1  0.666667  0.333333  0.936132  1
  W  W11  1  0.333333  0.666667  0.061338  1
