# generated using pymatgen
data_DyHo4(FeO6)2
_symmetry_space_group_name_H-M   'P 1'
_cell_length_a   6.73779745
_cell_length_b   6.73779779
_cell_length_c   7.22061800
_cell_angle_alpha   74.42508784
_cell_angle_beta   74.42508431
_cell_angle_gamma   51.16539121
_symmetry_Int_Tables_number   1
_chemical_formula_structural   DyHo4(FeO6)2
_chemical_formula_sum   'Dy1 Ho4 Fe2 O12'
_cell_volume   243.76768141
_cell_formula_units_Z   1
loop_
 _symmetry_equiv_pos_site_id
 _symmetry_equiv_pos_as_xyz
  1  'x, y, z'
loop_
 _atom_site_type_symbol
 _atom_site_label
 _atom_site_symmetry_multiplicity
 _atom_site_fract_x
 _atom_site_fract_y
 _atom_site_fract_z
 _atom_site_occupancy
  Dy  Dy0  1  0.000000  0.000000  0.500000  1
  Ho  Ho1  1  0.304412  0.304412  0.358999  1
  Ho  Ho2  1  0.695588  0.695588  0.641001  1
  Ho  Ho3  1  0.307381  0.307381  0.832177  1
  Ho  Ho4  1  0.692619  0.692619  0.167823  1
  Fe  Fe5  1  0.756598  0.243402  0.000000  1
  Fe  Fe6  1  0.243402  0.756598  0.000000  1
  O  O7  1  0.899237  0.422191  0.920067  1
  O  O8  1  0.422191  0.899237  0.920067  1
  O  O9  1  0.100763  0.577809  0.079933  1
  O  O10  1  0.577809  0.100763  0.079933  1
  O  O11  1  0.096784  0.595172  0.577130  1
  O  O12  1  0.595172  0.096784  0.577130  1
  O  O13  1  0.903216  0.404828  0.422870  1
  O  O14  1  0.404828  0.903216  0.422870  1
  O  O15  1  0.000244  0.000244  0.817922  1
  O  O16  1  0.999756  0.999756  0.182078  1
  O  O17  1  0.499894  0.499894  0.815771  1
  O  O18  1  0.500106  0.500106  0.184229  1
