# generated using pymatgen
data_HfZr3Fe2(Si2Rh)2
_symmetry_space_group_name_H-M   'P 1'
_cell_length_a   3.95252500
_cell_length_b   6.50602312
_cell_length_c   7.25559986
_cell_angle_alpha   90.92111935
_cell_angle_beta   90.00000000
_cell_angle_gamma   90.00000000
_symmetry_Int_Tables_number   1
_chemical_formula_structural   HfZr3Fe2(Si2Rh)2
_chemical_formula_sum   'Hf1 Zr3 Fe2 Si4 Rh2'
_cell_volume   186.55522886
_cell_formula_units_Z   1
loop_
 _symmetry_equiv_pos_site_id
 _symmetry_equiv_pos_as_xyz
  1  'x, y, z'
loop_
 _atom_site_type_symbol
 _atom_site_label
 _atom_site_symmetry_multiplicity
 _atom_site_fract_x
 _atom_site_fract_y
 _atom_site_fract_z
 _atom_site_occupancy
  Hf  Hf0  1  0.750000  0.990225  0.702156  1
  Zr  Zr1  1  0.250000  0.506318  0.183819  1
  Zr  Zr2  1  0.750000  0.493634  0.815983  1
  Zr  Zr3  1  0.250000  0.010508  0.300105  1
  Fe  Fe4  1  0.750000  0.850178  0.064742  1
  Fe  Fe5  1  0.250000  0.148583  0.931328  1
  Si  Si6  1  0.250000  0.790596  0.900277  1
  Si  Si7  1  0.750000  0.209967  0.098219  1
  Si  Si8  1  0.250000  0.275081  0.623249  1
  Si  Si9  1  0.750000  0.724286  0.378252  1
  Rh  Rh10  1  0.750000  0.345832  0.433239  1
  Rh  Rh11  1  0.250000  0.654793  0.568631  1
