# generated using pymatgen
data_HoLuFeSi2
_symmetry_space_group_name_H-M   'P 1'
_cell_length_a   5.55752466
_cell_length_b   5.55752452
_cell_length_c   9.84350667
_cell_angle_alpha   63.37577893
_cell_angle_beta   63.37577839
_cell_angle_gamma   43.42861538
_symmetry_Int_Tables_number   1
_chemical_formula_structural   HoLuFeSi2
_chemical_formula_sum   'Ho2 Lu2 Fe2 Si4'
_cell_volume   183.08095086
_cell_formula_units_Z   2
loop_
 _symmetry_equiv_pos_site_id
 _symmetry_equiv_pos_as_xyz
  1  'x, y, z'
loop_
 _atom_site_type_symbol
 _atom_site_label
 _atom_site_symmetry_multiplicity
 _atom_site_fract_x
 _atom_site_fract_y
 _atom_site_fract_z
 _atom_site_occupancy
  Ho  Ho0  1  0.810438  0.810438  0.109407  1
  Ho  Ho1  1  0.189562  0.189562  0.890593  1
  Lu  Lu2  1  0.997976  0.997976  0.329555  1
  Lu  Lu3  1  0.002024  0.002024  0.670445  1
  Fe  Fe4  1  0.729264  0.729264  0.623872  1
  Fe  Fe5  1  0.270736  0.270736  0.376128  1
  Si  Si6  1  0.650528  0.650528  0.437508  1
  Si  Si7  1  0.349472  0.349472  0.562492  1
  Si  Si8  1  0.501232  0.501232  0.127693  1
  Si  Si9  1  0.498768  0.498768  0.872307  1
