# generated using pymatgen
data_Er7Tm3(Zn2Sb)2
_symmetry_space_group_name_H-M   'P 1'
_cell_length_a   8.48561461
_cell_length_b   8.48561382
_cell_length_c   8.48442822
_cell_angle_alpha   123.71956459
_cell_angle_beta   123.71956236
_cell_angle_gamma   83.67513372
_symmetry_Int_Tables_number   1
_chemical_formula_structural   Er7Tm3(Zn2Sb)2
_chemical_formula_sum   'Er7 Tm3 Zn4 Sb2'
_cell_volume   404.97914455
_cell_formula_units_Z   1
loop_
 _symmetry_equiv_pos_site_id
 _symmetry_equiv_pos_as_xyz
  1  'x, y, z'
loop_
 _atom_site_type_symbol
 _atom_site_label
 _atom_site_symmetry_multiplicity
 _atom_site_fract_x
 _atom_site_fract_y
 _atom_site_fract_z
 _atom_site_occupancy
  Er  Er0  1  0.701044  0.201044  0.190301  1
  Er  Er1  1  0.510897  0.700836  0.499998  1
  Er  Er2  1  0.200836  0.010897  0.499998  1
  Er  Er3  1  0.989119  0.489119  0.189850  1
  Er  Er4  1  0.299041  0.799041  0.809920  1
  Er  Er5  1  0.489256  0.299164  0.500062  1
  Er  Er6  1  0.799164  0.989256  0.500062  1
  Tm  Tm7  1  0.999973  0.999845  0.999914  1
  Tm  Tm8  1  0.499845  0.499973  0.999914  1
  Tm  Tm9  1  0.010918  0.510918  0.809768  1
  Zn  Zn10  1  0.636287  0.136287  0.772558  1
  Zn  Zn11  1  0.363600  0.863600  0.227317  1
  Zn  Zn12  1  0.136169  0.363818  0.500152  1
  Zn  Zn13  1  0.863818  0.636169  0.500152  1
  Sb  Sb14  1  0.750074  0.749960  0.000017  1
  Sb  Sb15  1  0.249960  0.250074  0.000017  1
