# generated using pymatgen
data_Lu2Zr2Al17Co6Si
_symmetry_space_group_name_H-M   'P 1'
_cell_length_a   7.30176991
_cell_length_b   7.28722424
_cell_length_c   9.07038700
_cell_angle_alpha   90.00000000
_cell_angle_beta   90.00000000
_cell_angle_gamma   119.44037757
_symmetry_Int_Tables_number   1
_chemical_formula_structural   Lu2Zr2Al17Co6Si
_chemical_formula_sum   'Lu2 Zr2 Al17 Co6 Si1'
_cell_volume   420.30857413
_cell_formula_units_Z   1
loop_
 _symmetry_equiv_pos_site_id
 _symmetry_equiv_pos_as_xyz
  1  'x, y, z'
loop_
 _atom_site_type_symbol
 _atom_site_label
 _atom_site_symmetry_multiplicity
 _atom_site_fract_x
 _atom_site_fract_y
 _atom_site_fract_z
 _atom_site_occupancy
  Lu  Lu0  1  0.677308  0.990947  0.250000  1
  Lu  Lu1  1  0.330555  0.006140  0.750000  1
  Zr  Zr2  1  0.992825  0.677135  0.250000  1
  Zr  Zr3  1  0.004864  0.329662  0.750000  1
  Al  Al4  1  0.881589  0.883512  0.750000  1
  Al  Al5  1  0.996590  0.337873  0.072232  1
  Al  Al6  1  0.003830  0.664898  0.929220  1
  Al  Al7  1  0.003830  0.664898  0.570780  1
  Al  Al8  1  0.335524  0.997108  0.425299  1
  Al  Al9  1  0.996590  0.337873  0.427768  1
  Al  Al10  1  0.667249  0.003834  0.572382  1
  Al  Al11  1  0.667249  0.003834  0.927618  1
  Al  Al12  1  0.335524  0.997108  0.074701  1
  Al  Al13  1  0.328689  0.330701  0.552238  1
  Al  Al14  1  0.666182  0.664409  0.453060  1
  Al  Al15  1  0.666182  0.664409  0.046940  1
  Al  Al16  1  0.328689  0.330701  0.947762  1
  Al  Al17  1  0.331536  0.555164  0.250000  1
  Al  Al18  1  0.666741  0.446342  0.750000  1
  Al  Al19  1  0.561419  0.339618  0.250000  1
  Al  Al20  1  0.440272  0.658345  0.750000  1
  Co  Co21  1  0.669731  0.326451  0.999709  1
  Co  Co22  1  0.327076  0.670513  0.000872  1
  Co  Co23  1  0.327076  0.670513  0.499128  1
  Co  Co24  1  0.669731  0.326451  0.500291  1
  Co  Co25  1  0.000318  0.000477  0.008675  1
  Co  Co26  1  0.000318  0.000477  0.491325  1
  Si  Si27  1  0.122512  0.120608  0.250000  1
