# generated using pymatgen
data_DyCo4P3Ru
_symmetry_space_group_name_H-M   'P 1'
_cell_length_a   3.68340900
_cell_length_b   10.37710200
_cell_length_c   11.76755800
_cell_angle_alpha   90.00000000
_cell_angle_beta   90.00000000
_cell_angle_gamma   90.00000000
_symmetry_Int_Tables_number   1
_chemical_formula_structural   DyCo4P3Ru
_chemical_formula_sum   'Dy4 Co16 P12 Ru4'
_cell_volume   449.79267446
_cell_formula_units_Z   4
loop_
 _symmetry_equiv_pos_site_id
 _symmetry_equiv_pos_as_xyz
  1  'x, y, z'
loop_
 _atom_site_type_symbol
 _atom_site_label
 _atom_site_symmetry_multiplicity
 _atom_site_fract_x
 _atom_site_fract_y
 _atom_site_fract_z
 _atom_site_occupancy
  Dy  Dy0  1  0.250000  0.585818  0.704002  1
  Dy  Dy1  1  0.250000  0.914182  0.204002  1
  Dy  Dy2  1  0.750000  0.414182  0.295998  1
  Dy  Dy3  1  0.750000  0.085818  0.795998  1
  Co  Co4  1  0.250000  0.408613  0.489459  1
  Co  Co5  1  0.250000  0.091387  0.989459  1
  Co  Co6  1  0.750000  0.591387  0.510541  1
  Co  Co7  1  0.750000  0.908613  0.010541  1
  Co  Co8  1  0.250000  0.221187  0.176772  1
  Co  Co9  1  0.250000  0.278813  0.676772  1
  Co  Co10  1  0.750000  0.778813  0.823228  1
  Co  Co11  1  0.750000  0.721187  0.323228  1
  Co  Co12  1  0.250000  0.886970  0.702289  1
  Co  Co13  1  0.250000  0.613030  0.202289  1
  Co  Co14  1  0.750000  0.113030  0.297711  1
  Co  Co15  1  0.750000  0.386970  0.797711  1
  Co  Co16  1  0.250000  0.465069  0.930586  1
  Co  Co17  1  0.250000  0.034931  0.430586  1
  Co  Co18  1  0.750000  0.534931  0.069414  1
  Co  Co19  1  0.750000  0.965069  0.569414  1
  P  P20  1  0.250000  0.419715  0.111876  1
  P  P21  1  0.250000  0.080285  0.611876  1
  P  P22  1  0.750000  0.580285  0.888124  1
  P  P23  1  0.750000  0.919715  0.388124  1
  P  P24  1  0.250000  0.271386  0.867190  1
  P  P25  1  0.250000  0.228614  0.367190  1
  P  P26  1  0.750000  0.728614  0.132810  1
  P  P27  1  0.750000  0.771386  0.632810  1
  P  P28  1  0.250000  0.595926  0.390046  1
  P  P29  1  0.250000  0.904074  0.890046  1
  P  P30  1  0.750000  0.404074  0.609954  1
  P  P31  1  0.750000  0.095926  0.109954  1
  Ru  Ru32  1  0.250000  0.716647  0.992078  1
  Ru  Ru33  1  0.250000  0.783353  0.492078  1
  Ru  Ru34  1  0.750000  0.283353  0.007922  1
  Ru  Ru35  1  0.750000  0.216647  0.507922  1
