# generated using pymatgen
data_PaInCu5
_symmetry_space_group_name_H-M   'P 1'
_cell_length_a   5.00766100
_cell_length_b   8.25511700
_cell_length_c   10.49509700
_cell_angle_alpha   90.00000000
_cell_angle_beta   90.00000000
_cell_angle_gamma   90.00000000
_symmetry_Int_Tables_number   1
_chemical_formula_structural   PaInCu5
_chemical_formula_sum   'Pa4 In4 Cu20'
_cell_volume   433.85500397
_cell_formula_units_Z   4
loop_
 _symmetry_equiv_pos_site_id
 _symmetry_equiv_pos_as_xyz
  1  'x, y, z'
loop_
 _atom_site_type_symbol
 _atom_site_label
 _atom_site_symmetry_multiplicity
 _atom_site_fract_x
 _atom_site_fract_y
 _atom_site_fract_z
 _atom_site_occupancy
  Pa  Pa0  1  0.250000  0.750347  0.060008  1
  Pa  Pa1  1  0.750000  0.249653  0.939992  1
  Pa  Pa2  1  0.750000  0.749653  0.560008  1
  Pa  Pa3  1  0.250000  0.250347  0.439992  1
  In  In4  1  0.250000  0.637363  0.361334  1
  In  In5  1  0.750000  0.362637  0.638666  1
  In  In6  1  0.750000  0.862637  0.861334  1
  In  In7  1  0.250000  0.137363  0.138666  1
  Cu  Cu8  1  0.250000  0.815034  0.742865  1
  Cu  Cu9  1  0.750000  0.184966  0.257135  1
  Cu  Cu10  1  0.750000  0.684966  0.242865  1
  Cu  Cu11  1  0.250000  0.315034  0.757135  1
  Cu  Cu12  1  0.501802  0.568096  0.812342  1
  Cu  Cu13  1  0.498198  0.431904  0.187658  1
  Cu  Cu14  1  0.498198  0.931904  0.312342  1
  Cu  Cu15  1  0.001802  0.431904  0.187658  1
  Cu  Cu16  1  0.501802  0.068096  0.687658  1
  Cu  Cu17  1  0.998198  0.568096  0.812342  1
  Cu  Cu18  1  0.998198  0.068096  0.687658  1
  Cu  Cu19  1  0.001802  0.931904  0.312342  1
  Cu  Cu20  1  0.250000  0.558277  0.603342  1
  Cu  Cu21  1  0.750000  0.441723  0.396658  1
  Cu  Cu22  1  0.750000  0.941723  0.103342  1
  Cu  Cu23  1  0.250000  0.058277  0.896658  1
  Cu  Cu24  1  0.250000  0.916822  0.516879  1
  Cu  Cu25  1  0.750000  0.083178  0.483121  1
  Cu  Cu26  1  0.750000  0.583178  0.016879  1
  Cu  Cu27  1  0.250000  0.416822  0.983121  1
