# generated using pymatgen
data_Yb5Pu(PaH12)2
_symmetry_space_group_name_H-M   'P 1'
_cell_length_a   6.61801800
_cell_length_b   6.71928700
_cell_length_c   6.61801800
_cell_angle_alpha   90.00000000
_cell_angle_beta   90.00000000
_cell_angle_gamma   90.00000000
_symmetry_Int_Tables_number   1
_chemical_formula_structural   Yb5Pu(PaH12)2
_chemical_formula_sum   'Yb5 Pu1 Pa2 H24'
_cell_volume   294.29242222
_cell_formula_units_Z   1
loop_
 _symmetry_equiv_pos_site_id
 _symmetry_equiv_pos_as_xyz
  1  'x, y, z'
loop_
 _atom_site_type_symbol
 _atom_site_label
 _atom_site_symmetry_multiplicity
 _atom_site_fract_x
 _atom_site_fract_y
 _atom_site_fract_z
 _atom_site_occupancy
  Yb  Yb0  1  0.247402  0.997564  0.500000  1
  Yb  Yb1  1  0.752598  0.997564  0.500000  1
  Yb  Yb2  1  0.000000  0.502436  0.252598  1
  Yb  Yb3  1  0.000000  0.502436  0.747402  1
  Yb  Yb4  1  0.500000  0.750000  0.000000  1
  Pu  Pu5  1  0.500000  0.250000  0.000000  1
  Pa  Pa6  1  0.000000  0.000694  0.000000  1
  Pa  Pa7  1  0.500000  0.499306  0.500000  1
  H  H8  1  0.000000  0.151793  0.288093  1
  H  H9  1  0.500000  0.212252  0.664809  1
  H  H10  1  0.500000  0.783948  0.347920  1
  H  H11  1  0.789808  0.650588  0.500000  1
  H  H12  1  0.210192  0.650588  0.500000  1
  H  H13  1  0.352769  0.483151  0.806455  1
  H  H14  1  0.647231  0.483151  0.806455  1
  H  H15  1  0.306455  0.016849  0.147231  1
  H  H16  1  0.164809  0.287748  0.000000  1
  H  H17  1  0.847920  0.716052  0.000000  1
  H  H18  1  0.306455  0.016849  0.852769  1
  H  H19  1  0.835191  0.287748  0.000000  1
  H  H20  1  0.693545  0.016849  0.147231  1
  H  H21  1  0.693545  0.016849  0.852769  1
  H  H22  1  0.152080  0.716052  0.000000  1
  H  H23  1  0.000000  0.849412  0.710192  1
  H  H24  1  0.000000  0.151793  0.711907  1
  H  H25  1  0.000000  0.849412  0.289808  1
  H  H26  1  0.647231  0.483151  0.193545  1
  H  H27  1  0.352769  0.483151  0.193545  1
  H  H28  1  0.788093  0.348207  0.500000  1
  H  H29  1  0.211907  0.348207  0.500000  1
  H  H30  1  0.500000  0.783948  0.652080  1
  H  H31  1  0.500000  0.212252  0.335191  1
