# generated using pymatgen
data_Tm3Fe2Co7P6
_symmetry_space_group_name_H-M   'P 1'
_cell_length_a   3.67681000
_cell_length_b   10.52085800
_cell_length_c   12.04750000
_cell_angle_alpha   90.00000000
_cell_angle_beta   90.00000000
_cell_angle_gamma   90.00000000
_symmetry_Int_Tables_number   1
_chemical_formula_structural   Tm3Fe2Co7P6
_chemical_formula_sum   'Tm6 Fe4 Co14 P12'
_cell_volume   466.03580264
_cell_formula_units_Z   2
loop_
 _symmetry_equiv_pos_site_id
 _symmetry_equiv_pos_as_xyz
  1  'x, y, z'
loop_
 _atom_site_type_symbol
 _atom_site_label
 _atom_site_symmetry_multiplicity
 _atom_site_fract_x
 _atom_site_fract_y
 _atom_site_fract_z
 _atom_site_occupancy
  Tm  Tm0  1  0.000000  0.500000  0.523094  1
  Tm  Tm1  1  0.500000  0.000000  0.476906  1
  Tm  Tm2  1  0.500000  0.819619  0.204077  1
  Tm  Tm3  1  0.500000  0.180381  0.204077  1
  Tm  Tm4  1  0.000000  0.680381  0.795923  1
  Tm  Tm5  1  0.000000  0.319619  0.795923  1
  Fe  Fe6  1  0.500000  0.500000  0.156286  1
  Fe  Fe7  1  0.000000  0.000000  0.843714  1
  Fe  Fe8  1  0.000000  0.500000  0.988361  1
  Fe  Fe9  1  0.500000  0.000000  0.011639  1
  Co  Co10  1  0.500000  0.500000  0.700850  1
  Co  Co11  1  0.000000  0.000000  0.299150  1
  Co  Co12  1  0.500000  0.331688  0.994075  1
  Co  Co13  1  0.500000  0.668312  0.994075  1
  Co  Co14  1  0.000000  0.168312  0.005925  1
  Co  Co15  1  0.000000  0.831688  0.005925  1
  Co  Co16  1  0.500000  0.296842  0.430589  1
  Co  Co17  1  0.500000  0.703158  0.430589  1
  Co  Co18  1  0.000000  0.203158  0.569411  1
  Co  Co19  1  0.000000  0.796842  0.569411  1
  Co  Co20  1  0.500000  0.878372  0.708736  1
  Co  Co21  1  0.500000  0.121628  0.708736  1
  Co  Co22  1  0.000000  0.621628  0.291264  1
  Co  Co23  1  0.000000  0.378372  0.291264  1
  P  P24  1  0.500000  0.500000  0.883565  1
  P  P25  1  0.000000  0.000000  0.116435  1
  P  P26  1  0.500000  0.500000  0.343384  1
  P  P27  1  0.000000  0.000000  0.656616  1
  P  P28  1  0.500000  0.311214  0.617107  1
  P  P29  1  0.500000  0.688786  0.617107  1
  P  P30  1  0.000000  0.188786  0.382893  1
  P  P31  1  0.000000  0.811214  0.382893  1
  P  P32  1  0.500000  0.847128  0.892573  1
  P  P33  1  0.500000  0.152872  0.892573  1
  P  P34  1  0.000000  0.652872  0.107427  1
  P  P35  1  0.000000  0.347128  0.107427  1
