# generated using pymatgen
data_BaNd6RuI12
_symmetry_space_group_name_H-M   'P 1'
_cell_length_a   10.09710419
_cell_length_b   10.09710314
_cell_length_c   10.09710203
_cell_angle_alpha   105.78068733
_cell_angle_beta   105.78069101
_cell_angle_gamma   105.78068676
_symmetry_Int_Tables_number   1
_chemical_formula_structural   BaNd6RuI12
_chemical_formula_sum   'Ba1 Nd6 Ru1 I12'
_cell_volume   884.27396497
_cell_formula_units_Z   1
loop_
 _symmetry_equiv_pos_site_id
 _symmetry_equiv_pos_as_xyz
  1  'x, y, z'
loop_
 _atom_site_type_symbol
 _atom_site_label
 _atom_site_symmetry_multiplicity
 _atom_site_fract_x
 _atom_site_fract_y
 _atom_site_fract_z
 _atom_site_occupancy
  Ba  Ba0  1  0.500000  0.500000  0.500000  1
  Nd  Nd1  1  0.907316  0.704397  0.982721  1
  Nd  Nd2  1  0.982721  0.907316  0.704397  1
  Nd  Nd3  1  0.704397  0.982721  0.907316  1
  Nd  Nd4  1  0.092684  0.295603  0.017279  1
  Nd  Nd5  1  0.017279  0.092684  0.295603  1
  Nd  Nd6  1  0.295603  0.017279  0.092684  1
  Ru  Ru7  1  0.000000  0.000000  0.000000  1
  I  I8  1  0.639162  0.872406  0.556609  1
  I  I9  1  0.556609  0.639162  0.872406  1
  I  I10  1  0.872406  0.556609  0.639162  1
  I  I11  1  0.360838  0.127594  0.443391  1
  I  I12  1  0.443391  0.360838  0.127594  1
  I  I13  1  0.127594  0.443391  0.360838  1
  I  I14  1  0.678327  0.074090  0.223392  1
  I  I15  1  0.223392  0.678327  0.074090  1
  I  I16  1  0.074090  0.223392  0.678327  1
  I  I17  1  0.321673  0.925910  0.776608  1
  I  I18  1  0.776608  0.321673  0.925910  1
  I  I19  1  0.925910  0.776608  0.321673  1
