# generated using pymatgen
data_Er3TaZn2Ir3
_symmetry_space_group_name_H-M   'P 1'
_cell_length_a   6.99183049
_cell_length_b   6.85277069
_cell_length_c   4.21832600
_cell_angle_alpha   90.00000000
_cell_angle_beta   90.00000000
_cell_angle_gamma   119.34421358
_symmetry_Int_Tables_number   1
_chemical_formula_structural   Er3TaZn2Ir3
_chemical_formula_sum   'Er3 Ta1 Zn2 Ir3'
_cell_volume   176.18136758
_cell_formula_units_Z   1
loop_
 _symmetry_equiv_pos_site_id
 _symmetry_equiv_pos_as_xyz
  1  'x, y, z'
loop_
 _atom_site_type_symbol
 _atom_site_label
 _atom_site_symmetry_multiplicity
 _atom_site_fract_x
 _atom_site_fract_y
 _atom_site_fract_z
 _atom_site_occupancy
  Er  Er0  1  0.572663  0.581403  0.000000  1
  Er  Er1  1  0.427337  0.008738  0.000000  1
  Er  Er2  1  0.000000  0.393493  0.000000  1
  Ta  Ta3  1  0.000000  0.761227  0.500000  1
  Zn  Zn4  1  0.241998  0.245787  0.500000  1
  Zn  Zn5  1  0.758002  0.003788  0.500000  1
  Ir  Ir6  1  0.000000  0.971672  0.000000  1
  Ir  Ir7  1  0.678894  0.356393  0.500000  1
  Ir  Ir8  1  0.321106  0.677500  0.500000  1
