# generated using pymatgen
data_Dy2LuIn3Ag2Ir
_symmetry_space_group_name_H-M   'P 1'
_cell_length_a   7.89520603
_cell_length_b   7.91927032
_cell_length_c   3.76767200
_cell_angle_alpha   90.00000000
_cell_angle_beta   90.00000000
_cell_angle_gamma   119.70576143
_symmetry_Int_Tables_number   1
_chemical_formula_structural   Dy2LuIn3Ag2Ir
_chemical_formula_sum   'Dy2 Lu1 In3 Ag2 Ir1'
_cell_volume   204.61260883
_cell_formula_units_Z   1
loop_
 _symmetry_equiv_pos_site_id
 _symmetry_equiv_pos_as_xyz
  1  'x, y, z'
loop_
 _atom_site_type_symbol
 _atom_site_label
 _atom_site_symmetry_multiplicity
 _atom_site_fract_x
 _atom_site_fract_y
 _atom_site_fract_z
 _atom_site_occupancy
  Dy  Dy0  1  0.389425  0.969159  0.000000  1
  Dy  Dy1  1  0.030982  0.419419  0.000000  1
  Lu  Lu2  1  0.577355  0.612178  0.000000  1
  In  In3  1  0.990993  0.724050  0.500000  1
  In  In4  1  0.276298  0.268255  0.500000  1
  In  In5  1  0.732006  0.006856  0.500000  1
  Ag  Ag6  1  0.999123  0.998724  0.000000  1
  Ag  Ag7  1  0.666597  0.336051  0.500000  1
  Ir  Ir8  1  0.337220  0.665311  0.500000  1
