# generated using pymatgen
data_TmFe3P3IrRu
_symmetry_space_group_name_H-M   'P 1'
_cell_length_a   3.77237500
_cell_length_b   10.27300600
_cell_length_c   12.10459500
_cell_angle_alpha   90.00000000
_cell_angle_beta   90.00000000
_cell_angle_gamma   90.00000000
_symmetry_Int_Tables_number   1
_chemical_formula_structural   TmFe3P3IrRu
_chemical_formula_sum   'Tm4 Fe12 P12 Ir4 Ru4'
_cell_volume   469.09700815
_cell_formula_units_Z   4
loop_
 _symmetry_equiv_pos_site_id
 _symmetry_equiv_pos_as_xyz
  1  'x, y, z'
loop_
 _atom_site_type_symbol
 _atom_site_label
 _atom_site_symmetry_multiplicity
 _atom_site_fract_x
 _atom_site_fract_y
 _atom_site_fract_z
 _atom_site_occupancy
  Tm  Tm0  1  0.250000  0.581702  0.712715  1
  Tm  Tm1  1  0.250000  0.918298  0.212715  1
  Tm  Tm2  1  0.750000  0.418298  0.287285  1
  Tm  Tm3  1  0.750000  0.081702  0.787285  1
  Fe  Fe4  1  0.250000  0.222736  0.172373  1
  Fe  Fe5  1  0.250000  0.277264  0.672373  1
  Fe  Fe6  1  0.750000  0.777264  0.827627  1
  Fe  Fe7  1  0.750000  0.722736  0.327627  1
  Fe  Fe8  1  0.250000  0.879428  0.696570  1
  Fe  Fe9  1  0.250000  0.620572  0.196570  1
  Fe  Fe10  1  0.750000  0.120572  0.303430  1
  Fe  Fe11  1  0.750000  0.379428  0.803430  1
  Fe  Fe12  1  0.250000  0.460988  0.935744  1
  Fe  Fe13  1  0.250000  0.039012  0.435744  1
  Fe  Fe14  1  0.750000  0.539012  0.064256  1
  Fe  Fe15  1  0.750000  0.960988  0.564256  1
  P  P16  1  0.250000  0.425567  0.112305  1
  P  P17  1  0.250000  0.074433  0.612305  1
  P  P18  1  0.750000  0.574433  0.887695  1
  P  P19  1  0.750000  0.925567  0.387695  1
  P  P20  1  0.250000  0.273313  0.855244  1
  P  P21  1  0.250000  0.226687  0.355244  1
  P  P22  1  0.750000  0.726687  0.144756  1
  P  P23  1  0.750000  0.773313  0.644756  1
  P  P24  1  0.250000  0.606287  0.377537  1
  P  P25  1  0.250000  0.893713  0.877537  1
  P  P26  1  0.750000  0.393713  0.622463  1
  P  P27  1  0.750000  0.106287  0.122463  1
  Ir  Ir28  1  0.250000  0.405211  0.476577  1
  Ir  Ir29  1  0.250000  0.094789  0.976577  1
  Ir  Ir30  1  0.750000  0.594789  0.523423  1
  Ir  Ir31  1  0.750000  0.905211  0.023423  1
  Ru  Ru32  1  0.250000  0.706623  0.984954  1
  Ru  Ru33  1  0.250000  0.793377  0.484954  1
  Ru  Ru34  1  0.750000  0.293377  0.015046  1
  Ru  Ru35  1  0.750000  0.206623  0.515046  1
