# generated using pymatgen
data_Tb2Lu2P7Ir8
_symmetry_space_group_name_H-M   'P 1'
_cell_length_a   3.93597200
_cell_length_b   12.65628893
_cell_length_c   13.07846912
_cell_angle_alpha   99.15892124
_cell_angle_beta   90.00000000
_cell_angle_gamma   90.00000000
_symmetry_Int_Tables_number   1
_chemical_formula_structural   Tb2Lu2P7Ir8
_chemical_formula_sum   'Tb4 Lu4 P14 Ir16'
_cell_volume   643.19508364
_cell_formula_units_Z   2
loop_
 _symmetry_equiv_pos_site_id
 _symmetry_equiv_pos_as_xyz
  1  'x, y, z'
loop_
 _atom_site_type_symbol
 _atom_site_label
 _atom_site_symmetry_multiplicity
 _atom_site_fract_x
 _atom_site_fract_y
 _atom_site_fract_z
 _atom_site_occupancy
  Tb  Tb0  1  0.750000  0.279207  0.897821  1
  Tb  Tb1  1  0.250000  0.720793  0.102179  1
  Tb  Tb2  1  0.750000  0.102944  0.210706  1
  Tb  Tb3  1  0.250000  0.897056  0.789294  1
  Lu  Lu4  1  0.750000  0.208642  0.561546  1
  Lu  Lu5  1  0.250000  0.791358  0.438454  1
  Lu  Lu6  1  0.750000  0.520716  0.705797  1
  Lu  Lu7  1  0.250000  0.479284  0.294203  1
  P  P8  1  0.750000  0.741851  0.919815  1
  P  P9  1  0.250000  0.258149  0.080185  1
  P  P10  1  0.750000  0.905911  0.587675  1
  P  P11  1  0.250000  0.094089  0.412325  1
  P  P12  1  0.750000  0.527943  0.130071  1
  P  P13  1  0.250000  0.472057  0.869929  1
  P  P14  1  0.750000  0.842403  0.283192  1
  P  P15  1  0.250000  0.157597  0.716808  1
  P  P16  1  0.750000  0.608049  0.432562  1
  P  P17  1  0.250000  0.391951  0.567438  1
  P  P18  1  0.750000  0.313516  0.311311  1
  P  P19  1  0.250000  0.686484  0.688689  1
  P  P20  1  0.750000  0.051632  0.899089  1
  P  P21  1  0.250000  0.948368  0.100911  1
  Ir  Ir22  1  0.750000  0.342961  0.143255  1
  Ir  Ir23  1  0.250000  0.657039  0.856745  1
  Ir  Ir24  1  0.750000  0.728577  0.603773  1
  Ir  Ir25  1  0.250000  0.271423  0.396227  1
  Ir  Ir26  1  0.750000  0.914857  0.002586  1
  Ir  Ir27  1  0.250000  0.085143  0.997414  1
  Ir  Ir28  1  0.750000  0.421653  0.478002  1
  Ir  Ir29  1  0.250000  0.578347  0.521998  1
  Ir  Ir30  1  0.750000  0.061219  0.726349  1
  Ir  Ir31  1  0.250000  0.938781  0.273651  1
  Ir  Ir32  1  0.750000  0.554182  0.954345  1
  Ir  Ir33  1  0.250000  0.445818  0.045655  1
  Ir  Ir34  1  0.750000  0.661725  0.270598  1
  Ir  Ir35  1  0.250000  0.338275  0.729402  1
  Ir  Ir36  1  0.750000  0.991726  0.424306  1
  Ir  Ir37  1  0.250000  0.008274  0.575694  1
