# generated using pymatgen
data_NaFe(NO3)4
_symmetry_space_group_name_H-M   'P 1'
_cell_length_a   7.81852292
_cell_length_b   7.81174500
_cell_length_c   7.80323244
_cell_angle_alpha   90.00000000
_cell_angle_beta   89.33492867
_cell_angle_gamma   90.00000000
_symmetry_Int_Tables_number   1
_chemical_formula_structural   NaFe(NO3)4
_chemical_formula_sum   'Na2 Fe2 N8 O24'
_cell_volume   476.56051563
_cell_formula_units_Z   2
loop_
 _symmetry_equiv_pos_site_id
 _symmetry_equiv_pos_as_xyz
  1  'x, y, z'
loop_
 _atom_site_type_symbol
 _atom_site_label
 _atom_site_symmetry_multiplicity
 _atom_site_fract_x
 _atom_site_fract_y
 _atom_site_fract_z
 _atom_site_occupancy
  Na  Na0  1  0.000000  0.500000  0.000000  1
  Na  Na1  1  0.000000  0.000000  0.500000  1
  Fe  Fe2  1  0.500000  0.500000  0.500000  1
  Fe  Fe3  1  0.500000  0.000000  0.000000  1
  N  N4  1  0.659052  0.192162  0.315656  1
  N  N5  1  0.659052  0.307838  0.815656  1
  N  N6  1  0.807191  0.844627  0.828594  1
  N  N7  1  0.807191  0.655373  0.328594  1
  N  N8  1  0.192809  0.155373  0.171406  1
  N  N9  1  0.192809  0.344627  0.671406  1
  N  N10  1  0.340948  0.692162  0.184344  1
  N  N11  1  0.340948  0.807838  0.684344  1
  O  O12  1  0.540632  0.194637  0.812651  1
  O  O13  1  0.540632  0.305363  0.312651  1
  O  O14  1  0.661635  0.421890  0.697067  1
  O  O15  1  0.661635  0.078110  0.197067  1
  O  O16  1  0.692098  0.665363  0.453176  1
  O  O17  1  0.692098  0.834637  0.953176  1
  O  O18  1  0.769610  0.308824  0.926605  1
  O  O19  1  0.769610  0.191176  0.426605  1
  O  O20  1  0.796062  0.962213  0.722242  1
  O  O21  1  0.796062  0.537787  0.222242  1
  O  O22  1  0.920569  0.733894  0.825456  1
  O  O23  1  0.920569  0.766106  0.325456  1
  O  O24  1  0.079431  0.233894  0.674544  1
  O  O25  1  0.079431  0.266106  0.174544  1
  O  O26  1  0.203938  0.462213  0.777758  1
  O  O27  1  0.203938  0.037787  0.277758  1
  O  O28  1  0.230390  0.691176  0.073395  1
  O  O29  1  0.230390  0.808824  0.573395  1
  O  O30  1  0.307902  0.165363  0.046824  1
  O  O31  1  0.307902  0.334637  0.546824  1
  O  O32  1  0.338365  0.578110  0.302933  1
  O  O33  1  0.338365  0.921890  0.802933  1
  O  O34  1  0.459368  0.694637  0.687349  1
  O  O35  1  0.459368  0.805363  0.187349  1
