# generated using pymatgen
data_Tm9Lu(In2Ir)4
_symmetry_space_group_name_H-M   'P 1'
_cell_length_a   3.55361900
_cell_length_b   8.00385504
_cell_length_c   18.14950709
_cell_angle_alpha   89.98835021
_cell_angle_beta   90.00000000
_cell_angle_gamma   90.00000000
_symmetry_Int_Tables_number   1
_chemical_formula_structural   Tm9Lu(In2Ir)4
_chemical_formula_sum   'Tm9 Lu1 In8 Ir4'
_cell_volume   516.22009174
_cell_formula_units_Z   1
loop_
 _symmetry_equiv_pos_site_id
 _symmetry_equiv_pos_as_xyz
  1  'x, y, z'
loop_
 _atom_site_type_symbol
 _atom_site_label
 _atom_site_symmetry_multiplicity
 _atom_site_fract_x
 _atom_site_fract_y
 _atom_site_fract_z
 _atom_site_occupancy
  Tm  Tm0  1  0.000000  0.883223  0.087336  1
  Tm  Tm1  1  0.000000  0.755486  0.278899  1
  Tm  Tm2  1  0.000000  0.744416  0.778773  1
  Tm  Tm3  1  0.000000  0.383252  0.412804  1
  Tm  Tm4  1  0.000000  0.116720  0.912646  1
  Tm  Tm5  1  0.000000  0.244534  0.721077  1
  Tm  Tm6  1  0.000000  0.500008  0.000012  1
  Tm  Tm7  1  0.000000  0.255556  0.221153  1
  Tm  Tm8  1  0.000000  0.999963  0.500060  1
  Lu  Lu9  1  0.000000  0.616525  0.587613  1
  In  In10  1  0.500000  0.207223  0.066643  1
  In  In11  1  0.500000  0.427267  0.850772  1
  In  In12  1  0.500000  0.572692  0.149080  1
  In  In13  1  0.500000  0.072778  0.351008  1
  In  In14  1  0.500000  0.926381  0.648892  1
  In  In15  1  0.500000  0.792752  0.933355  1
  In  In16  1  0.500000  0.706887  0.433798  1
  In  In17  1  0.500000  0.293751  0.566614  1
  Ir  Ir18  1  0.500000  0.976325  0.196483  1
  Ir  Ir19  1  0.500000  0.023580  0.803496  1
  Ir  Ir20  1  0.500000  0.524218  0.695850  1
  Ir  Ir21  1  0.500000  0.476464  0.303638  1
