# generated using pymatgen
data_Nd9(SbO)5
_symmetry_space_group_name_H-M   'P 1'
_cell_length_a   10.25552500
_cell_length_b   10.25552500
_cell_length_c   9.23299600
_cell_angle_alpha   90.00000000
_cell_angle_beta   90.00000000
_cell_angle_gamma   90.00000000
_symmetry_Int_Tables_number   1
_chemical_formula_structural   Nd9(SbO)5
_chemical_formula_sum   'Nd18 Sb10 O10'
_cell_volume   971.08767630
_cell_formula_units_Z   2
loop_
 _symmetry_equiv_pos_site_id
 _symmetry_equiv_pos_as_xyz
  1  'x, y, z'
loop_
 _atom_site_type_symbol
 _atom_site_label
 _atom_site_symmetry_multiplicity
 _atom_site_fract_x
 _atom_site_fract_y
 _atom_site_fract_z
 _atom_site_occupancy
  Nd  Nd0  1  0.500000  0.000000  0.667256  1
  Nd  Nd1  1  0.000000  0.500000  0.332744  1
  Nd  Nd2  1  0.103559  0.204298  0.655648  1
  Nd  Nd3  1  0.896441  0.795702  0.655648  1
  Nd  Nd4  1  0.295702  0.603559  0.655648  1
  Nd  Nd5  1  0.704298  0.396441  0.655648  1
  Nd  Nd6  1  0.396441  0.295702  0.344352  1
  Nd  Nd7  1  0.603559  0.704298  0.344352  1
  Nd  Nd8  1  0.204298  0.896441  0.344352  1
  Nd  Nd9  1  0.795702  0.103559  0.344352  1
  Nd  Nd10  1  0.725942  0.918180  0.001311  1
  Nd  Nd11  1  0.274058  0.081820  0.001311  1
  Nd  Nd12  1  0.581820  0.225942  0.001311  1
  Nd  Nd13  1  0.418180  0.774058  0.001311  1
  Nd  Nd14  1  0.774058  0.581820  0.998689  1
  Nd  Nd15  1  0.225942  0.418180  0.998689  1
  Nd  Nd16  1  0.918180  0.274058  0.998689  1
  Nd  Nd17  1  0.081820  0.725942  0.998689  1
  Sb  Sb18  1  0.500000  0.000000  0.312386  1
  Sb  Sb19  1  0.000000  0.500000  0.687614  1
  Sb  Sb20  1  0.403138  0.303370  0.699979  1
  Sb  Sb21  1  0.596862  0.696630  0.699979  1
  Sb  Sb22  1  0.196630  0.903138  0.699979  1
  Sb  Sb23  1  0.803370  0.096862  0.699979  1
  Sb  Sb24  1  0.096862  0.196630  0.300021  1
  Sb  Sb25  1  0.903138  0.803370  0.300021  1
  Sb  Sb26  1  0.303370  0.596862  0.300021  1
  Sb  Sb27  1  0.696630  0.403138  0.300021  1
  O  O28  1  0.500000  0.000000  0.931542  1
  O  O29  1  0.000000  0.500000  0.068458  1
  O  O30  1  0.775918  0.120863  0.089768  1
  O  O31  1  0.224082  0.879137  0.089768  1
  O  O32  1  0.379137  0.275918  0.089768  1
  O  O33  1  0.620863  0.724082  0.089768  1
  O  O34  1  0.724082  0.379137  0.910232  1
  O  O35  1  0.275918  0.620863  0.910232  1
  O  O36  1  0.120863  0.224082  0.910232  1
  O  O37  1  0.879137  0.775918  0.910232  1
