# generated using pymatgen
data_Nd2NiRuCl
_symmetry_space_group_name_H-M   'P 1'
_cell_length_a   4.11421800
_cell_length_b   4.11421910
_cell_length_c   16.47624900
_cell_angle_alpha   90.00000000
_cell_angle_beta   90.00000000
_cell_angle_gamma   120.00000722
_symmetry_Int_Tables_number   1
_chemical_formula_structural   Nd2NiRuCl
_chemical_formula_sum   'Nd4 Ni2 Ru2 Cl2'
_cell_volume   241.52587435
_cell_formula_units_Z   2
loop_
 _symmetry_equiv_pos_site_id
 _symmetry_equiv_pos_as_xyz
  1  'x, y, z'
loop_
 _atom_site_type_symbol
 _atom_site_label
 _atom_site_symmetry_multiplicity
 _atom_site_fract_x
 _atom_site_fract_y
 _atom_site_fract_z
 _atom_site_occupancy
  Nd  Nd0  1  0.000000  0.000000  0.614175  1
  Nd  Nd1  1  0.000000  0.000000  0.387117  1
  Nd  Nd2  1  0.000000  0.000000  0.114175  1
  Nd  Nd3  1  0.000000  0.000000  0.887117  1
  Ni  Ni4  1  0.666667  0.333333  0.997528  1
  Ni  Ni5  1  0.333333  0.666667  0.497528  1
  Ru  Ru6  1  0.666667  0.333333  0.502551  1
  Ru  Ru7  1  0.333333  0.666667  0.002551  1
  Cl  Cl8  1  0.666667  0.333333  0.248628  1
  Cl  Cl9  1  0.333333  0.666667  0.748628  1
