# generated using pymatgen
data_Y4Ta4Co16Si7P5
_symmetry_space_group_name_H-M   'P 1'
_cell_length_a   3.72847200
_cell_length_b   10.63939027
_cell_length_c   12.21226032
_cell_angle_alpha   89.97381591
_cell_angle_beta   90.00000000
_cell_angle_gamma   90.00000000
_symmetry_Int_Tables_number   1
_chemical_formula_structural   Y4Ta4Co16Si7P5
_chemical_formula_sum   'Y4 Ta4 Co16 Si7 P5'
_cell_volume   484.44405866
_cell_formula_units_Z   1
loop_
 _symmetry_equiv_pos_site_id
 _symmetry_equiv_pos_as_xyz
  1  'x, y, z'
loop_
 _atom_site_type_symbol
 _atom_site_label
 _atom_site_symmetry_multiplicity
 _atom_site_fract_x
 _atom_site_fract_y
 _atom_site_fract_z
 _atom_site_occupancy
  Y  Y0  1  0.250000  0.924394  0.204087  1
  Y  Y1  1  0.750000  0.079434  0.795108  1
  Y  Y2  1  0.750000  0.423844  0.295073  1
  Y  Y3  1  0.250000  0.576359  0.704598  1
  Ta  Ta4  1  0.250000  0.800082  0.493789  1
  Ta  Ta5  1  0.750000  0.200027  0.506976  1
  Ta  Ta6  1  0.750000  0.299171  0.004609  1
  Ta  Ta7  1  0.250000  0.700435  0.992973  1
  Co  Co8  1  0.250000  0.093858  0.984988  1
  Co  Co9  1  0.750000  0.910760  0.011996  1
  Co  Co10  1  0.750000  0.590445  0.512953  1
  Co  Co11  1  0.250000  0.408372  0.489915  1
  Co  Co12  1  0.250000  0.283399  0.672595  1
  Co  Co13  1  0.750000  0.714040  0.332674  1
  Co  Co14  1  0.750000  0.785214  0.832762  1
  Co  Co15  1  0.250000  0.214488  0.166724  1
  Co  Co16  1  0.250000  0.617751  0.204540  1
  Co  Co17  1  0.750000  0.379839  0.795966  1
  Co  Co18  1  0.750000  0.119286  0.295280  1
  Co  Co19  1  0.250000  0.881645  0.705087  1
  Co  Co20  1  0.250000  0.036324  0.432399  1
  Co  Co21  1  0.750000  0.963423  0.567335  1
  Co  Co22  1  0.750000  0.535213  0.066254  1
  Co  Co23  1  0.250000  0.461401  0.930499  1
  Si  Si24  1  0.250000  0.074689  0.616776  1
  Si  Si25  1  0.750000  0.924272  0.382573  1
  Si  Si26  1  0.750000  0.576169  0.882535  1
  Si  Si27  1  0.250000  0.423683  0.116525  1
  Si  Si28  1  0.250000  0.231128  0.354461  1
  Si  Si29  1  0.750000  0.769246  0.646084  1
  Si  Si30  1  0.750000  0.730647  0.145249  1
  P  P31  1  0.250000  0.269546  0.856057  1
  P  P32  1  0.250000  0.907679  0.891128  1
  P  P33  1  0.750000  0.094120  0.108525  1
  P  P34  1  0.750000  0.406457  0.609048  1
  P  P35  1  0.250000  0.593163  0.391859  1
