# generated using pymatgen
data_Sm(ScPb)5
_symmetry_space_group_name_H-M   'P 1'
_cell_length_a   11.23936036
_cell_length_b   11.23936084
_cell_length_c   11.25683135
_cell_angle_alpha   131.89683276
_cell_angle_beta   59.41460335
_cell_angle_gamma   147.22294753
_symmetry_Int_Tables_number   1
_chemical_formula_structural   Sm(ScPb)5
_chemical_formula_sum   'Sm2 Sc10 Pb10'
_cell_volume   568.11042940
_cell_formula_units_Z   2
loop_
 _symmetry_equiv_pos_site_id
 _symmetry_equiv_pos_as_xyz
  1  'x, y, z'
loop_
 _atom_site_type_symbol
 _atom_site_label
 _atom_site_symmetry_multiplicity
 _atom_site_fract_x
 _atom_site_fract_y
 _atom_site_fract_z
 _atom_site_occupancy
  Sm  Sm0  1  0.141646  0.113709  0.255356  1
  Sm  Sm1  1  0.858353  0.886293  0.744645  1
  Sc  Sc2  1  0.358043  0.612921  0.970963  1
  Sc  Sc3  1  0.641957  0.387080  0.029035  1
  Sc  Sc4  1  0.556142  0.249689  0.306137  1
  Sc  Sc5  1  0.943552  0.250004  0.693863  1
  Sc  Sc6  1  0.443859  0.750311  0.693863  1
  Sc  Sc7  1  0.056448  0.749996  0.306137  1
  Sc  Sc8  1  0.439063  0.234929  0.673992  1
  Sc  Sc9  1  0.560938  0.765071  0.326008  1
  Sc  Sc10  1  0.062104  0.742310  0.804413  1
  Sc  Sc11  1  0.937896  0.257692  0.195588  1
  Pb  Pb12  1  0.292945  0.304601  0.597545  1
  Pb  Pb13  1  0.707055  0.695399  0.402454  1
  Pb  Pb14  1  0.210500  0.796060  0.006557  1
  Pb  Pb15  1  0.789502  0.203940  0.993443  1
  Pb  Pb16  1  0.254259  0.254259  0.000000  1
  Pb  Pb17  1  0.745740  0.745740  0.000000  1
  Pb  Pb18  1  0.070055  0.410010  0.480064  1
  Pb  Pb19  1  0.929946  0.589990  0.519936  1
  Pb  Pb20  1  0.426128  0.898984  0.325111  1
  Pb  Pb21  1  0.573872  0.101016  0.674889  1
