# generated using pymatgen
data_Er4Sc4B24Ir3Rh
_symmetry_space_group_name_H-M   'P 1'
_cell_length_a   3.53735400
_cell_length_b   8.99159331
_cell_length_c   11.34759839
_cell_angle_alpha   89.97013970
_cell_angle_beta   90.00000000
_cell_angle_gamma   90.00000000
_symmetry_Int_Tables_number   1
_chemical_formula_structural   Er4Sc4B24Ir3Rh
_chemical_formula_sum   'Er4 Sc4 B24 Ir3 Rh1'
_cell_volume   360.92675513
_cell_formula_units_Z   1
loop_
 _symmetry_equiv_pos_site_id
 _symmetry_equiv_pos_as_xyz
  1  'x, y, z'
loop_
 _atom_site_type_symbol
 _atom_site_label
 _atom_site_symmetry_multiplicity
 _atom_site_fract_x
 _atom_site_fract_y
 _atom_site_fract_z
 _atom_site_occupancy
  Er  Er0  1  0.500000  0.319623  0.413372  1
  Er  Er1  1  0.500000  0.680270  0.585769  1
  Er  Er2  1  0.500000  0.179917  0.914785  1
  Er  Er3  1  0.500000  0.820599  0.086175  1
  Sc  Sc4  1  0.500000  0.444527  0.124456  1
  Sc  Sc5  1  0.500000  0.555027  0.875861  1
  Sc  Sc6  1  0.500000  0.054894  0.624225  1
  Sc  Sc7  1  0.500000  0.945313  0.375334  1
  B  B8  1  0.000000  0.100748  0.472721  1
  B  B9  1  0.000000  0.899357  0.527165  1
  B  B10  1  0.000000  0.399151  0.972800  1
  B  B11  1  0.000000  0.600677  0.027249  1
  B  B12  1  0.000000  0.130367  0.318493  1
  B  B13  1  0.000000  0.869700  0.681338  1
  B  B14  1  0.000000  0.369903  0.818734  1
  B  B15  1  0.000000  0.630142  0.181572  1
  B  B16  1  0.000000  0.054421  0.065308  1
  B  B17  1  0.000000  0.945523  0.934781  1
  B  B18  1  0.000000  0.445287  0.565360  1
  B  B19  1  0.000000  0.554605  0.434532  1
  B  B20  1  0.000000  0.481243  0.285300  1
  B  B21  1  0.000000  0.518565  0.714689  1
  B  B22  1  0.000000  0.018430  0.785397  1
  B  B23  1  0.000000  0.981627  0.214481  1
  B  B24  1  0.000000  0.253504  0.080071  1
  B  B25  1  0.000000  0.746413  0.920148  1
  B  B26  1  0.000000  0.246098  0.579882  1
  B  B27  1  0.000000  0.753920  0.420109  1
  B  B28  1  0.000000  0.295761  0.235921  1
  B  B29  1  0.000000  0.704172  0.764162  1
  B  B30  1  0.000000  0.204281  0.735731  1
  B  B31  1  0.000000  0.796043  0.264244  1
  Ir  Ir32  1  0.500000  0.858414  0.818392  1
  Ir  Ir33  1  0.500000  0.358846  0.681223  1
  Ir  Ir34  1  0.500000  0.641321  0.318943  1
  Rh  Rh35  1  0.500000  0.141313  0.181280  1
