# generated using pymatgen
data_Na3Mg2AuO6
_symmetry_space_group_name_H-M   'P 1'
_cell_length_a   5.39497226
_cell_length_b   5.39497224
_cell_length_c   5.70756149
_cell_angle_alpha   99.09924611
_cell_angle_beta   99.09924990
_cell_angle_gamma   119.94017737
_symmetry_Int_Tables_number   1
_chemical_formula_structural   Na3Mg2AuO6
_chemical_formula_sum   'Na3 Mg2 Au1 O6'
_cell_volume   136.57664823
_cell_formula_units_Z   1
loop_
 _symmetry_equiv_pos_site_id
 _symmetry_equiv_pos_as_xyz
  1  'x, y, z'
loop_
 _atom_site_type_symbol
 _atom_site_label
 _atom_site_symmetry_multiplicity
 _atom_site_fract_x
 _atom_site_fract_y
 _atom_site_fract_z
 _atom_site_occupancy
  Na  Na0  1  0.831559  0.168442  0.500000  1
  Na  Na1  1  0.500001  0.500001  0.500000  1
  Na  Na2  1  0.168442  0.831559  0.500000  1
  Mg  Mg3  1  0.666315  0.333685  0.000000  1
  Mg  Mg4  1  0.333685  0.666315  0.000000  1
  Au  Au5  1  0.000000  0.000000  0.000000  1
  O  O6  1  0.391986  0.068081  0.205151  1
  O  O7  1  0.068081  0.391986  0.205151  1
  O  O8  1  0.744690  0.744690  0.204547  1
  O  O9  1  0.255312  0.255312  0.795454  1
  O  O10  1  0.931921  0.608016  0.794848  1
  O  O11  1  0.608016  0.931921  0.794848  1
