# generated using pymatgen
data_Y4PtRh3O14
_symmetry_space_group_name_H-M   'P 1'
_cell_length_a   7.24217887
_cell_length_b   7.26374381
_cell_length_c   7.26374400
_cell_angle_alpha   59.99999911
_cell_angle_beta   59.90144907
_cell_angle_gamma   59.90144657
_symmetry_Int_Tables_number   1
_chemical_formula_structural   Y4PtRh3O14
_chemical_formula_sum   'Y4 Pt1 Rh3 O14'
_cell_volume   269.79056247
_cell_formula_units_Z   1
loop_
 _symmetry_equiv_pos_site_id
 _symmetry_equiv_pos_as_xyz
  1  'x, y, z'
loop_
 _atom_site_type_symbol
 _atom_site_label
 _atom_site_symmetry_multiplicity
 _atom_site_fract_x
 _atom_site_fract_y
 _atom_site_fract_z
 _atom_site_occupancy
  Y  Y0  1  0.125000  0.625000  0.125000  1
  Y  Y1  1  0.125000  0.125000  0.625000  1
  Y  Y2  1  0.625000  0.125000  0.125000  1
  Y  Y3  1  0.125000  0.125000  0.125000  1
  Pt  Pt4  1  0.125000  0.625000  0.625000  1
  Rh  Rh5  1  0.625000  0.625000  0.625000  1
  Rh  Rh6  1  0.625000  0.625000  0.125000  1
  Rh  Rh7  1  0.625000  0.125000  0.625000  1
  O  O8  1  0.285924  0.713951  0.713951  1
  O  O9  1  0.540338  0.960562  0.960562  1
  O  O10  1  0.709662  0.711462  0.289438  1
  O  O11  1  0.285924  0.286174  0.713951  1
  O  O12  1  0.000016  0.999995  0.999995  1
  O  O13  1  0.285924  0.713951  0.286174  1
  O  O14  1  0.709662  0.289438  0.711462  1
  O  O15  1  0.964076  0.536049  0.963826  1
  O  O16  1  0.540338  0.538538  0.960562  1
  O  O17  1  0.964076  0.963826  0.536049  1
  O  O18  1  0.249984  0.250005  0.250005  1
  O  O19  1  0.540338  0.960562  0.538538  1
  O  O20  1  0.709662  0.289438  0.289438  1
  O  O21  1  0.964076  0.536049  0.536049  1
