# generated using pymatgen
data_TmHfTiFe9
_symmetry_space_group_name_H-M   'P 1'
_cell_length_a   4.91124870
_cell_length_b   4.91124837
_cell_length_c   8.36193471
_cell_angle_alpha   72.92238662
_cell_angle_beta   72.92239014
_cell_angle_gamma   59.99999661
_symmetry_Int_Tables_number   1
_chemical_formula_structural   TmHfTiFe9
_chemical_formula_sum   'Tm1 Hf1 Ti1 Fe9'
_cell_volume   164.32212961
_cell_formula_units_Z   1
loop_
 _symmetry_equiv_pos_site_id
 _symmetry_equiv_pos_as_xyz
  1  'x, y, z'
loop_
 _atom_site_type_symbol
 _atom_site_label
 _atom_site_symmetry_multiplicity
 _atom_site_fract_x
 _atom_site_fract_y
 _atom_site_fract_z
 _atom_site_occupancy
  Tm  Tm0  1  0.000712  0.000712  0.997863  1
  Hf  Hf1  1  0.855882  0.855882  0.432354  1
  Ti  Ti2  1  0.143045  0.143045  0.570863  1
  Fe  Fe3  1  0.082341  0.586976  0.743706  1
  Fe  Fe4  1  0.586976  0.586976  0.743706  1
  Fe  Fe5  1  0.586976  0.082341  0.743706  1
  Fe  Fe6  1  0.918518  0.412807  0.255868  1
  Fe  Fe7  1  0.412807  0.412807  0.255868  1
  Fe  Fe8  1  0.412807  0.918518  0.255868  1
  Fe  Fe9  1  0.333093  0.333093  0.000722  1
  Fe  Fe10  1  0.667025  0.667025  0.998926  1
  Fe  Fe11  1  0.499817  0.499817  0.500549  1
