# generated using pymatgen
data_Dy9Tm2LuIn2FeTc2
_symmetry_space_group_name_H-M   'P 1'
_cell_length_a   8.38986360
_cell_length_b   8.37971709
_cell_length_c   8.37971505
_cell_angle_alpha   108.71215551
_cell_angle_beta   108.77711060
_cell_angle_gamma   110.88398929
_symmetry_Int_Tables_number   1
_chemical_formula_structural   Dy9Tm2LuIn2FeTc2
_chemical_formula_sum   'Dy9 Tm2 Lu1 In2 Fe1 Tc2'
_cell_volume   453.58175734
_cell_formula_units_Z   1
loop_
 _symmetry_equiv_pos_site_id
 _symmetry_equiv_pos_as_xyz
  1  'x, y, z'
loop_
 _atom_site_type_symbol
 _atom_site_label
 _atom_site_symmetry_multiplicity
 _atom_site_fract_x
 _atom_site_fract_y
 _atom_site_fract_z
 _atom_site_occupancy
  Dy  Dy0  1  0.303887  0.304440  0.610013  1
  Dy  Dy1  1  0.693978  0.691853  0.390031  1
  Dy  Dy2  1  0.693978  0.303947  0.002126  1
  Dy  Dy3  1  0.303887  0.693875  0.999448  1
  Dy  Dy4  1  0.192606  0.434623  0.243736  1
  Dy  Dy5  1  0.804929  0.568045  0.761914  1
  Dy  Dy6  1  0.192606  0.948868  0.757983  1
  Dy  Dy7  1  0.949067  0.188528  0.760539  1
  Dy  Dy8  1  0.804929  0.043017  0.236885  1
  Tm  Tm9  1  0.043818  0.808576  0.235241  1
  Tm  Tm10  1  0.427070  0.188395  0.238675  1
  Lu  Lu11  1  0.572711  0.808031  0.764678  1
  In  In12  1  0.998108  0.497987  0.500121  1
  In  In13  1  0.495700  0.996162  0.499537  1
  Fe  Fe14  1  0.631105  0.633068  0.998038  1
  Tc  Tc15  1  0.391309  0.390532  0.000778  1
  Tc  Tc16  1  0.000313  0.000055  0.000258  1
