# generated using pymatgen
data_Ac(CoO2)8
_symmetry_space_group_name_H-M   'P 1'
_cell_length_a   5.68538410
_cell_length_b   6.63802042
_cell_length_c   6.90553800
_cell_angle_alpha   92.14889899
_cell_angle_beta   78.16260081
_cell_angle_gamma   77.57480777
_symmetry_Int_Tables_number   1
_chemical_formula_structural   Ac(CoO2)8
_chemical_formula_sum   'Ac1 Co8 O16'
_cell_volume   248.18611062
_cell_formula_units_Z   1
loop_
 _symmetry_equiv_pos_site_id
 _symmetry_equiv_pos_as_xyz
  1  'x, y, z'
loop_
 _atom_site_type_symbol
 _atom_site_label
 _atom_site_symmetry_multiplicity
 _atom_site_fract_x
 _atom_site_fract_y
 _atom_site_fract_z
 _atom_site_occupancy
  Ac  Ac0  1  0.005070  0.999044  0.000998  1
  Co  Co1  1  0.582388  0.507831  0.181053  1
  Co  Co2  1  0.083859  0.502494  0.181423  1
  Co  Co3  1  0.169282  0.817876  0.523082  1
  Co  Co4  1  0.667060  0.815468  0.534034  1
  Co  Co5  1  0.340628  0.184629  0.467929  1
  Co  Co6  1  0.838861  0.184022  0.476828  1
  Co  Co7  1  0.425912  0.491727  0.818109  1
  Co  Co8  1  0.926259  0.496743  0.817469  1
  O  O9  1  0.827313  0.652462  0.068104  1
  O  O10  1  0.321387  0.653104  0.066935  1
  O  O11  1  0.982102  0.676662  0.404501  1
  O  O12  1  0.485323  0.678556  0.403811  1
  O  O13  1  0.849818  0.975174  0.657807  1
  O  O14  1  0.343205  0.977822  0.652661  1
  O  O15  1  0.353605  0.350353  0.259804  1
  O  O16  1  0.853309  0.339472  0.255817  1
  O  O17  1  0.154356  0.661725  0.745589  1
  O  O18  1  0.656957  0.647951  0.733663  1
  O  O19  1  0.157250  0.026052  0.342029  1
  O  O20  1  0.665708  0.020457  0.350075  1
  O  O21  1  0.026218  0.323832  0.595720  1
  O  O22  1  0.522647  0.321139  0.596363  1
  O  O23  1  0.181115  0.347698  0.932474  1
  O  O24  1  0.687465  0.347712  0.933718  1
