# generated using pymatgen
data_Lu6ZrCo17P12
_symmetry_space_group_name_H-M   'P 1'
_cell_length_a   3.67296900
_cell_length_b   10.52334000
_cell_length_c   12.19403500
_cell_angle_alpha   90.00000000
_cell_angle_beta   90.00000000
_cell_angle_gamma   90.00000000
_symmetry_Int_Tables_number   1
_chemical_formula_structural   Lu6ZrCo17P12
_chemical_formula_sum   'Lu6 Zr1 Co17 P12'
_cell_volume   471.32264088
_cell_formula_units_Z   1
loop_
 _symmetry_equiv_pos_site_id
 _symmetry_equiv_pos_as_xyz
  1  'x, y, z'
loop_
 _atom_site_type_symbol
 _atom_site_label
 _atom_site_symmetry_multiplicity
 _atom_site_fract_x
 _atom_site_fract_y
 _atom_site_fract_z
 _atom_site_occupancy
  Lu  Lu0  1  0.000000  0.500000  0.529673  1
  Lu  Lu1  1  0.500000  0.000000  0.477155  1
  Lu  Lu2  1  0.500000  0.822403  0.207272  1
  Lu  Lu3  1  0.500000  0.177597  0.207272  1
  Lu  Lu4  1  0.000000  0.681957  0.795796  1
  Lu  Lu5  1  0.000000  0.318043  0.795796  1
  Zr  Zr6  1  0.500000  0.500000  0.155806  1
  Co  Co7  1  0.000000  0.000000  0.835898  1
  Co  Co8  1  0.500000  0.500000  0.702343  1
  Co  Co9  1  0.000000  0.000000  0.296599  1
  Co  Co10  1  0.000000  0.500000  0.982779  1
  Co  Co11  1  0.500000  0.000000  0.013845  1
  Co  Co12  1  0.500000  0.326797  0.987477  1
  Co  Co13  1  0.500000  0.673203  0.987477  1
  Co  Co14  1  0.000000  0.161643  0.001619  1
  Co  Co15  1  0.000000  0.838357  0.001619  1
  Co  Co16  1  0.500000  0.294329  0.435048  1
  Co  Co17  1  0.500000  0.705671  0.435048  1
  Co  Co18  1  0.000000  0.201404  0.570287  1
  Co  Co19  1  0.000000  0.798596  0.570287  1
  Co  Co20  1  0.500000  0.879442  0.706990  1
  Co  Co21  1  0.500000  0.120558  0.706990  1
  Co  Co22  1  0.000000  0.624324  0.297411  1
  Co  Co23  1  0.000000  0.375676  0.297411  1
  P  P24  1  0.500000  0.500000  0.880322  1
  P  P25  1  0.000000  0.000000  0.117487  1
  P  P26  1  0.500000  0.500000  0.364406  1
  P  P27  1  0.000000  0.000000  0.652586  1
  P  P28  1  0.500000  0.310929  0.618582  1
  P  P29  1  0.500000  0.689071  0.618582  1
  P  P30  1  0.000000  0.186311  0.385655  1
  P  P31  1  0.000000  0.813689  0.385655  1
  P  P32  1  0.500000  0.851211  0.887398  1
  P  P33  1  0.500000  0.148789  0.887398  1
  P  P34  1  0.000000  0.666696  0.102015  1
  P  P35  1  0.000000  0.333304  0.102015  1
