# generated using pymatgen
data_Yb3Mn3N5
_symmetry_space_group_name_H-M   'P 1'
_cell_length_a   5.48415186
_cell_length_b   6.67942213
_cell_length_c   8.23958923
_cell_angle_alpha   108.18457031
_cell_angle_beta   104.42107744
_cell_angle_gamma   94.89089190
_symmetry_Int_Tables_number   1
_chemical_formula_structural   Yb3Mn3N5
_chemical_formula_sum   'Yb6 Mn6 N10'
_cell_volume   273.32346658
_cell_formula_units_Z   2
loop_
 _symmetry_equiv_pos_site_id
 _symmetry_equiv_pos_as_xyz
  1  'x, y, z'
loop_
 _atom_site_type_symbol
 _atom_site_label
 _atom_site_symmetry_multiplicity
 _atom_site_fract_x
 _atom_site_fract_y
 _atom_site_fract_z
 _atom_site_occupancy
  Yb  Yb0  1  0.825220  0.418678  0.619430  1
  Yb  Yb1  1  0.174780  0.581322  0.380570  1
  Yb  Yb2  1  0.662528  0.872487  0.880935  1
  Yb  Yb3  1  0.337472  0.127513  0.119065  1
  Yb  Yb4  1  0.656007  0.669209  0.199920  1
  Yb  Yb5  1  0.343993  0.330791  0.800080  1
  Mn  Mn6  1  0.903900  0.323030  0.972329  1
  Mn  Mn7  1  0.096100  0.676970  0.027671  1
  Mn  Mn8  1  0.689125  0.945205  0.565950  1
  Mn  Mn9  1  0.310875  0.054795  0.434050  1
  Mn  Mn10  1  0.105099  0.882433  0.698107  1
  Mn  Mn11  1  0.894901  0.117567  0.301893  1
  N  N12  1  0.938523  0.117030  0.777311  1
  N  N13  1  0.061477  0.882970  0.222689  1
  N  N14  1  0.832808  0.704141  0.503678  1
  N  N15  1  0.167192  0.295859  0.496322  1
  N  N16  1  0.747559  0.541635  0.910014  1
  N  N17  1  0.252441  0.458365  0.089986  1
  N  N18  1  0.377485  0.935316  0.617230  1
  N  N19  1  0.622515  0.064684  0.382770  1
  N  N20  1  0.197187  0.772794  0.873272  1
  N  N21  1  0.802813  0.227206  0.126728  1
