# generated using pymatgen
data_TbDy3(TcB6)2
_symmetry_space_group_name_H-M   'P 1'
_cell_length_a   3.69341400
_cell_length_b   9.17115103
_cell_length_c   11.55394101
_cell_angle_alpha   89.99297839
_cell_angle_beta   90.00000000
_cell_angle_gamma   90.00000000
_symmetry_Int_Tables_number   1
_chemical_formula_structural   TbDy3(TcB6)2
_chemical_formula_sum   'Tb2 Dy6 Tc4 B24'
_cell_volume   391.36499576
_cell_formula_units_Z   2
loop_
 _symmetry_equiv_pos_site_id
 _symmetry_equiv_pos_as_xyz
  1  'x, y, z'
loop_
 _atom_site_type_symbol
 _atom_site_label
 _atom_site_symmetry_multiplicity
 _atom_site_fract_x
 _atom_site_fract_y
 _atom_site_fract_z
 _atom_site_occupancy
  Tb  Tb0  1  0.000000  0.323861  0.414012  1
  Tb  Tb1  1  0.000000  0.676139  0.585988  1
  Dy  Dy2  1  0.000000  0.824051  0.085840  1
  Dy  Dy3  1  0.000000  0.175949  0.914160  1
  Dy  Dy4  1  0.000000  0.942764  0.369020  1
  Dy  Dy5  1  0.000000  0.057236  0.630980  1
  Dy  Dy6  1  0.000000  0.442740  0.130636  1
  Dy  Dy7  1  0.000000  0.557260  0.869364  1
  Tc  Tc8  1  0.000000  0.639053  0.320171  1
  Tc  Tc9  1  0.000000  0.360947  0.679829  1
  Tc  Tc10  1  0.000000  0.138739  0.179319  1
  Tc  Tc11  1  0.000000  0.861261  0.820681  1
  B  B12  1  0.500000  0.553701  0.432530  1
  B  B13  1  0.500000  0.446299  0.567470  1
  B  B14  1  0.500000  0.053522  0.067084  1
  B  B15  1  0.500000  0.946478  0.932916  1
  B  B16  1  0.500000  0.748816  0.418135  1
  B  B17  1  0.500000  0.251184  0.581865  1
  B  B18  1  0.500000  0.248636  0.081352  1
  B  B19  1  0.500000  0.751364  0.918648  1
  B  B20  1  0.500000  0.791787  0.265142  1
  B  B21  1  0.500000  0.208213  0.734858  1
  B  B22  1  0.500000  0.291537  0.234285  1
  B  B23  1  0.500000  0.708463  0.765715  1
  B  B24  1  0.500000  0.631234  0.185428  1
  B  B25  1  0.500000  0.368766  0.814572  1
  B  B26  1  0.500000  0.130933  0.314074  1
  B  B27  1  0.500000  0.869067  0.685926  1
  B  B28  1  0.500000  0.982664  0.211555  1
  B  B29  1  0.500000  0.017336  0.788445  1
  B  B30  1  0.500000  0.482934  0.287969  1
  B  B31  1  0.500000  0.517066  0.712031  1
  B  B32  1  0.500000  0.600846  0.028093  1
  B  B33  1  0.500000  0.399154  0.971907  1
  B  B34  1  0.500000  0.100164  0.472060  1
  B  B35  1  0.500000  0.899836  0.527940  1
