# generated using pymatgen
data_Cs2MnNiS4
_symmetry_space_group_name_H-M   'P 1'
_cell_length_a   7.60464227
_cell_length_b   7.60464285
_cell_length_c   7.60464319
_cell_angle_alpha   140.14867369
_cell_angle_beta   124.00091565
_cell_angle_gamma   70.91831076
_symmetry_Int_Tables_number   1
_chemical_formula_structural   Cs2MnNiS4
_chemical_formula_sum   'Cs2 Mn1 Ni1 S4'
_cell_volume   229.24842352
_cell_formula_units_Z   1
loop_
 _symmetry_equiv_pos_site_id
 _symmetry_equiv_pos_as_xyz
  1  'x, y, z'
loop_
 _atom_site_type_symbol
 _atom_site_label
 _atom_site_symmetry_multiplicity
 _atom_site_fract_x
 _atom_site_fract_y
 _atom_site_fract_z
 _atom_site_occupancy
  Cs  Cs0  1  0.328677  0.823474  0.494796  1
  Cs  Cs1  1  0.671323  0.166119  0.494796  1
  Mn  Mn2  1  0.000000  0.751227  0.751227  1
  Ni  Ni3  1  0.000000  0.250840  0.250840  1
  S  S4  1  0.244568  0.513695  0.758262  1
  S  S5  1  0.755432  0.513695  0.269128  1
  S  S6  1  0.141856  0.132332  0.990476  1
  S  S7  1  0.858144  0.848620  0.990476  1
