# generated using pymatgen
data_NaNd3Ti4O12
_symmetry_space_group_name_H-M   'P 1'
_cell_length_a   7.83067700
_cell_length_b   5.48135320
_cell_length_c   5.57919396
_cell_angle_alpha   89.76420981
_cell_angle_beta   90.00000000
_cell_angle_gamma   90.00000000
_symmetry_Int_Tables_number   1
_chemical_formula_structural   NaNd3Ti4O12
_chemical_formula_sum   'Na1 Nd3 Ti4 O12'
_cell_volume   239.47207684
_cell_formula_units_Z   1
loop_
 _symmetry_equiv_pos_site_id
 _symmetry_equiv_pos_as_xyz
  1  'x, y, z'
loop_
 _atom_site_type_symbol
 _atom_site_label
 _atom_site_symmetry_multiplicity
 _atom_site_fract_x
 _atom_site_fract_y
 _atom_site_fract_z
 _atom_site_occupancy
  Na  Na0  1  0.000000  0.005786  0.969441  1
  Nd  Nd1  1  0.000000  0.490137  0.453052  1
  Nd  Nd2  1  0.500000  0.989230  0.047114  1
  Nd  Nd3  1  0.500000  0.507468  0.546766  1
  Ti  Ti4  1  0.244606  0.001651  0.503636  1
  Ti  Ti5  1  0.756823  0.496310  0.998001  1
  Ti  Ti6  1  0.755394  0.001651  0.503636  1
  Ti  Ti7  1  0.243177  0.496310  0.998001  1
  O  O8  1  0.000000  0.569338  0.015153  1
  O  O9  1  0.000000  0.924336  0.522979  1
  O  O10  1  0.500000  0.416950  0.981957  1
  O  O11  1  0.500000  0.076008  0.479448  1
  O  O12  1  0.698450  0.786032  0.785078  1
  O  O13  1  0.291072  0.710698  0.288830  1
  O  O14  1  0.213295  0.214634  0.216076  1
  O  O15  1  0.782110  0.301048  0.700424  1
  O  O16  1  0.786705  0.214634  0.216076  1
  O  O17  1  0.217890  0.301048  0.700424  1
  O  O18  1  0.301550  0.786032  0.785078  1
  O  O19  1  0.708928  0.710698  0.288830  1
