# generated using pymatgen
data_Ca8YbThIr4
_symmetry_space_group_name_H-M   'P 1'
_cell_length_a   8.61228892
_cell_length_b   8.61228890
_cell_length_c   7.58715600
_cell_angle_alpha   82.80283660
_cell_angle_beta   82.80284332
_cell_angle_gamma   44.78861776
_symmetry_Int_Tables_number   1
_chemical_formula_structural   Ca8YbThIr4
_chemical_formula_sum   'Ca8 Yb1 Th1 Ir4'
_cell_volume   392.79766570
_cell_formula_units_Z   1
loop_
 _symmetry_equiv_pos_site_id
 _symmetry_equiv_pos_as_xyz
  1  'x, y, z'
loop_
 _atom_site_type_symbol
 _atom_site_label
 _atom_site_symmetry_multiplicity
 _atom_site_fract_x
 _atom_site_fract_y
 _atom_site_fract_z
 _atom_site_occupancy
  Ca  Ca0  1  0.025005  0.800188  0.913908  1
  Ca  Ca1  1  0.199812  0.974995  0.586092  1
  Ca  Ca2  1  0.978218  0.198119  0.076465  1
  Ca  Ca3  1  0.801881  0.021782  0.423535  1
  Ca  Ca4  1  0.364088  0.203431  0.821711  1
  Ca  Ca5  1  0.796569  0.635912  0.678289  1
  Ca  Ca6  1  0.644101  0.799937  0.178570  1
  Ca  Ca7  1  0.200063  0.355899  0.321430  1
  Yb  Yb8  1  0.569453  0.430547  0.750000  1
  Th  Th9  1  0.433423  0.566577  0.250000  1
  Ir  Ir10  1  0.191576  0.599203  0.564437  1
  Ir  Ir11  1  0.400797  0.808424  0.935563  1
  Ir  Ir12  1  0.801204  0.406191  0.413777  1
  Ir  Ir13  1  0.593809  0.198796  0.086223  1
