# generated using pymatgen
data_AsP6RhO18
_symmetry_space_group_name_H-M   'P 1'
_cell_length_a   5.17226081
_cell_length_b   7.08731795
_cell_length_c   10.63712623
_cell_angle_alpha   98.71457654
_cell_angle_beta   92.16980562
_cell_angle_gamma   93.40926017
_symmetry_Int_Tables_number   1
_chemical_formula_structural   AsP6RhO18
_chemical_formula_sum   'As1 P6 Rh1 O18'
_cell_volume   384.31194237
_cell_formula_units_Z   1
loop_
 _symmetry_equiv_pos_site_id
 _symmetry_equiv_pos_as_xyz
  1  'x, y, z'
loop_
 _atom_site_type_symbol
 _atom_site_label
 _atom_site_symmetry_multiplicity
 _atom_site_fract_x
 _atom_site_fract_y
 _atom_site_fract_z
 _atom_site_occupancy
  As  As0  1  0.000000  0.500000  0.500000  1
  P  P1  1  0.518788  0.961566  0.177236  1
  P  P2  1  0.240178  0.310898  0.226295  1
  P  P3  1  0.499742  0.326443  0.645338  1
  P  P4  1  0.481212  0.038434  0.822764  1
  P  P5  1  0.759822  0.689102  0.773705  1
  P  P6  1  0.500258  0.673557  0.354662  1
  Rh  Rh7  1  0.000000  0.000000  0.000000  1
  O  O8  1  0.488390  0.182790  0.229824  1
  O  O9  1  0.101971  0.269685  0.096547  1
  O  O10  1  0.318638  0.884980  0.071927  1
  O  O11  1  0.214038  0.352056  0.628595  1
  O  O12  1  0.662501  0.328072  0.530547  1
  O  O13  1  0.200530  0.069579  0.848626  1
  O  O14  1  0.620739  0.479432  0.764929  1
  O  O15  1  0.898029  0.730315  0.903453  1
  O  O16  1  0.542076  0.129422  0.696516  1
  O  O17  1  0.785962  0.647944  0.371405  1
  O  O18  1  0.910967  0.705806  0.656735  1
  O  O19  1  0.799470  0.930421  0.151374  1
  O  O20  1  0.511610  0.817210  0.770176  1
  O  O21  1  0.681362  0.115020  0.928073  1
  O  O22  1  0.457924  0.870578  0.303484  1
  O  O23  1  0.089033  0.294194  0.343265  1
  O  O24  1  0.379261  0.520568  0.235071  1
  O  O25  1  0.337499  0.671928  0.469453  1
