# generated using pymatgen
data_PrCuHgPt3
_symmetry_space_group_name_H-M   'P 1'
_cell_length_a   5.50897466
_cell_length_b   5.50897438
_cell_length_c   5.29390817
_cell_angle_alpha   58.64678752
_cell_angle_beta   58.64678699
_cell_angle_gamma   60.00000686
_symmetry_Int_Tables_number   1
_chemical_formula_structural   PrCuHgPt3
_chemical_formula_sum   'Pr1 Cu1 Hg1 Pt3'
_cell_volume   111.22702396
_cell_formula_units_Z   1
loop_
 _symmetry_equiv_pos_site_id
 _symmetry_equiv_pos_as_xyz
  1  'x, y, z'
loop_
 _atom_site_type_symbol
 _atom_site_label
 _atom_site_symmetry_multiplicity
 _atom_site_fract_x
 _atom_site_fract_y
 _atom_site_fract_z
 _atom_site_occupancy
  Pr  Pr0  1  0.002037  0.002037  0.993888  1
  Cu  Cu1  1  0.623099  0.623099  0.130701  1
  Hg  Hg2  1  0.253528  0.253528  0.239416  1
  Pt  Pt3  1  0.623087  0.125159  0.628664  1
  Pt  Pt4  1  0.125159  0.623087  0.628664  1
  Pt  Pt5  1  0.623087  0.623087  0.628664  1
