# generated using pymatgen
data_YbDyHoZn11
_symmetry_space_group_name_H-M   'P 1'
_cell_length_a   8.15605175
_cell_length_b   8.15605030
_cell_length_c   8.15605134
_cell_angle_alpha   148.20093980
_cell_angle_beta   115.99375954
_cell_angle_gamma   73.25129689
_symmetry_Int_Tables_number   1
_chemical_formula_structural   YbDyHoZn11
_chemical_formula_sum   'Yb1 Dy1 Ho1 Zn11'
_cell_volume   252.86757695
_cell_formula_units_Z   1
loop_
 _symmetry_equiv_pos_site_id
 _symmetry_equiv_pos_as_xyz
  1  'x, y, z'
loop_
 _atom_site_type_symbol
 _atom_site_label
 _atom_site_symmetry_multiplicity
 _atom_site_fract_x
 _atom_site_fract_y
 _atom_site_fract_z
 _atom_site_occupancy
  Yb  Yb0  1  0.999924  0.999924  0.000000  1
  Dy  Dy1  1  0.702083  0.702083  0.000000  1
  Ho  Ho2  1  0.298026  0.298026  0.000000  1
  Zn  Zn3  1  0.500200  0.000200  0.500000  1
  Zn  Zn4  1  0.678462  0.499793  0.178669  1
  Zn  Zn5  1  0.321124  0.499793  0.821331  1
  Zn  Zn6  1  0.693621  0.337824  0.355797  1
  Zn  Zn7  1  0.306105  0.662450  0.643655  1
  Zn  Zn8  1  0.982027  0.337824  0.644203  1
  Zn  Zn9  1  0.018794  0.662450  0.356345  1
  Zn  Zn10  1  0.420148  0.136917  0.283231  1
  Zn  Zn11  1  0.578509  0.862899  0.715610  1
  Zn  Zn12  1  0.853687  0.136917  0.716769  1
  Zn  Zn13  1  0.147289  0.862899  0.284390  1
