# generated using pymatgen
data_Lu3Al2GaGe2Ir
_symmetry_space_group_name_H-M   'P 1'
_cell_length_a   6.90981400
_cell_length_b   6.86684339
_cell_length_c   4.16950800
_cell_angle_alpha   90.00000000
_cell_angle_beta   90.00000000
_cell_angle_gamma   120.20721001
_symmetry_Int_Tables_number   1
_chemical_formula_structural   Lu3Al2GaGe2Ir
_chemical_formula_sum   'Lu3 Al2 Ga1 Ge2 Ir1'
_cell_volume   170.97332214
_cell_formula_units_Z   1
loop_
 _symmetry_equiv_pos_site_id
 _symmetry_equiv_pos_as_xyz
  1  'x, y, z'
loop_
 _atom_site_type_symbol
 _atom_site_label
 _atom_site_symmetry_multiplicity
 _atom_site_fract_x
 _atom_site_fract_y
 _atom_site_fract_z
 _atom_site_occupancy
  Lu  Lu0  1  0.412672  0.000000  0.000000  1
  Lu  Lu1  1  0.998736  0.411420  0.000000  1
  Lu  Lu2  1  0.587315  0.588579  0.000000  1
  Al  Al3  1  0.231651  0.230947  0.500001  1
  Al  Al4  1  0.000704  0.769052  0.500001  1
  Ga  Ga5  1  0.765856  0.000000  0.500001  1
  Ge  Ge6  1  0.666084  0.335064  0.500001  1
  Ge  Ge7  1  0.331020  0.664937  0.500001  1
  Ir  Ir8  1  0.005959  0.000000  0.000000  1
