# generated using pymatgen
data_Tb2LuAl3Ga2Ag
_symmetry_space_group_name_H-M   'P 1'
_cell_length_a   7.05614500
_cell_length_b   7.05614484
_cell_length_c   4.33518000
_cell_angle_alpha   90.00000000
_cell_angle_beta   90.00000000
_cell_angle_gamma   119.59166690
_symmetry_Int_Tables_number   1
_chemical_formula_structural   Tb2LuAl3Ga2Ag
_chemical_formula_sum   'Tb2 Lu1 Al3 Ga2 Ag1'
_cell_volume   187.69169125
_cell_formula_units_Z   1
loop_
 _symmetry_equiv_pos_site_id
 _symmetry_equiv_pos_as_xyz
  1  'x, y, z'
loop_
 _atom_site_type_symbol
 _atom_site_label
 _atom_site_symmetry_multiplicity
 _atom_site_fract_x
 _atom_site_fract_y
 _atom_site_fract_z
 _atom_site_occupancy
  Tb  Tb0  1  0.578373  0.998266  0.000000  1
  Tb  Tb1  1  0.998266  0.578373  0.000000  1
  Lu  Lu2  1  0.419362  0.419362  0.000000  1
  Al  Al3  1  0.243979  0.999564  0.500000  1
  Al  Al4  1  0.999564  0.243979  0.500000  1
  Al  Al5  1  0.756276  0.756276  0.500000  1
  Ga  Ga6  1  0.335200  0.663172  0.500000  1
  Ga  Ga7  1  0.663172  0.335200  0.500000  1
  Ag  Ag8  1  0.005807  0.005807  0.000000  1
