# generated using pymatgen
data_LaInHgRh
_symmetry_space_group_name_H-M   'P 1'
_cell_length_a   5.47685060
_cell_length_b   5.47685130
_cell_length_c   8.74875875
_cell_angle_alpha   89.96457846
_cell_angle_beta   90.03542244
_cell_angle_gamma   134.19519297
_symmetry_Int_Tables_number   1
_chemical_formula_structural   LaInHgRh
_chemical_formula_sum   'La2 In2 Hg2 Rh2'
_cell_volume   188.15190657
_cell_formula_units_Z   2
loop_
 _symmetry_equiv_pos_site_id
 _symmetry_equiv_pos_as_xyz
  1  'x, y, z'
loop_
 _atom_site_type_symbol
 _atom_site_label
 _atom_site_symmetry_multiplicity
 _atom_site_fract_x
 _atom_site_fract_y
 _atom_site_fract_z
 _atom_site_occupancy
  La  La0  1  0.063946  0.936054  0.260936  1
  La  La1  1  0.936054  0.063946  0.739064  1
  In  In2  1  0.647696  0.352304  0.952609  1
  In  In3  1  0.352304  0.647696  0.047391  1
  Hg  Hg4  1  0.646017  0.353983  0.544351  1
  Hg  Hg5  1  0.353983  0.646017  0.455649  1
  Rh  Rh6  1  0.213912  0.786088  0.762480  1
  Rh  Rh7  1  0.786088  0.213912  0.237520  1
