# generated using pymatgen
data_Dy9Ho7(AgRh)4
_symmetry_space_group_name_H-M   'P 1'
_cell_length_a   9.50574212
_cell_length_b   9.51804835
_cell_length_c   9.52844135
_cell_angle_alpha   60.03606980
_cell_angle_beta   60.00497274
_cell_angle_gamma   59.95716564
_symmetry_Int_Tables_number   1
_chemical_formula_structural   Dy9Ho7(AgRh)4
_chemical_formula_sum   'Dy9 Ho7 Ag4 Rh4'
_cell_volume   609.58532394
_cell_formula_units_Z   1
loop_
 _symmetry_equiv_pos_site_id
 _symmetry_equiv_pos_as_xyz
  1  'x, y, z'
loop_
 _atom_site_type_symbol
 _atom_site_label
 _atom_site_symmetry_multiplicity
 _atom_site_fract_x
 _atom_site_fract_y
 _atom_site_fract_z
 _atom_site_occupancy
  Dy  Dy0  1  0.185347  0.185527  0.814550  1
  Dy  Dy1  1  0.602262  0.602137  0.193462  1
  Dy  Dy2  1  0.438644  0.061716  0.437923  1
  Dy  Dy3  1  0.438575  0.438205  0.061545  1
  Dy  Dy4  1  0.814613  0.185351  0.814685  1
  Dy  Dy5  1  0.185058  0.814739  0.185463  1
  Dy  Dy6  1  0.438575  0.061675  0.061545  1
  Dy  Dy7  1  0.185347  0.814576  0.814550  1
  Dy  Dy8  1  0.061823  0.438204  0.061769  1
  Ho  Ho9  1  0.814702  0.814776  0.185392  1
  Ho  Ho10  1  0.193542  0.602182  0.602093  1
  Ho  Ho11  1  0.061808  0.438296  0.438006  1
  Ho  Ho12  1  0.061808  0.061890  0.438006  1
  Ho  Ho13  1  0.814702  0.185130  0.185392  1
  Ho  Ho14  1  0.602230  0.193597  0.602017  1
  Ho  Ho15  1  0.602230  0.602155  0.602017  1
  Ag  Ag16  1  0.832022  0.832139  0.832085  1
  Ag  Ag17  1  0.831883  0.832107  0.503904  1
  Ag  Ag18  1  0.503690  0.832124  0.832062  1
  Ag  Ag19  1  0.832022  0.503755  0.832085  1
  Rh  Rh20  1  0.392563  0.820346  0.394025  1
  Rh  Rh21  1  0.392563  0.393065  0.394025  1
  Rh  Rh22  1  0.820800  0.392720  0.393760  1
  Rh  Rh23  1  0.393188  0.393586  0.819640  1
