# generated using pymatgen
data_Th10AlSn6Bi
_symmetry_space_group_name_H-M   'P 1'
_cell_length_a   9.67985772
_cell_length_b   9.67985782
_cell_length_c   6.57331029
_cell_angle_alpha   89.98289735
_cell_angle_beta   89.98289830
_cell_angle_gamma   120.08415429
_symmetry_Int_Tables_number   1
_chemical_formula_structural   Th10AlSn6Bi
_chemical_formula_sum   'Th10 Al1 Sn6 Bi1'
_cell_volume   532.94664892
_cell_formula_units_Z   1
loop_
 _symmetry_equiv_pos_site_id
 _symmetry_equiv_pos_as_xyz
  1  'x, y, z'
loop_
 _atom_site_type_symbol
 _atom_site_label
 _atom_site_symmetry_multiplicity
 _atom_site_fract_x
 _atom_site_fract_y
 _atom_site_fract_z
 _atom_site_occupancy
  Th  Th0  1  0.002870  0.725351  0.755316  1
  Th  Th1  1  0.274195  0.274195  0.755310  1
  Th  Th2  1  0.331118  0.667138  0.498795  1
  Th  Th3  1  0.667138  0.331118  0.498795  1
  Th  Th4  1  0.725643  0.725643  0.244743  1
  Th  Th5  1  0.725351  0.002870  0.755316  1
  Th  Th6  1  0.999837  0.275777  0.244732  1
  Th  Th7  1  0.275777  0.999837  0.244732  1
  Th  Th8  1  0.331430  0.667004  0.001265  1
  Th  Th9  1  0.667004  0.331430  0.001265  1
  Al  Al10  1  0.000050  0.000050  0.000306  1
  Sn  Sn11  1  0.000232  0.379460  0.748123  1
  Sn  Sn12  1  0.379460  0.000232  0.748123  1
  Sn  Sn13  1  0.620806  0.000135  0.251842  1
  Sn  Sn14  1  0.379427  0.379427  0.251732  1
  Sn  Sn15  1  0.000135  0.620806  0.251842  1
  Sn  Sn16  1  0.999810  0.999810  0.500036  1
  Bi  Bi17  1  0.619718  0.619718  0.747727  1
