# generated using pymatgen
data_Tb6Gd6TcNi4Sn
_symmetry_space_group_name_H-M   'P 1'
_cell_length_a   8.38467429
_cell_length_b   8.38467452
_cell_length_c   8.38467400
_cell_angle_alpha   107.43730078
_cell_angle_beta   109.38202751
_cell_angle_gamma   111.62146124
_symmetry_Int_Tables_number   1
_chemical_formula_structural   Tb6Gd6TcNi4Sn
_chemical_formula_sum   'Tb6 Gd6 Tc1 Ni4 Sn1'
_cell_volume   453.16411059
_cell_formula_units_Z   1
loop_
 _symmetry_equiv_pos_site_id
 _symmetry_equiv_pos_as_xyz
  1  'x, y, z'
loop_
 _atom_site_type_symbol
 _atom_site_label
 _atom_site_symmetry_multiplicity
 _atom_site_fract_x
 _atom_site_fract_y
 _atom_site_fract_z
 _atom_site_occupancy
  Tb  Tb0  1  0.192949  0.871732  0.678783  1
  Tb  Tb1  1  0.192949  0.514167  0.321217  1
  Tb  Tb2  1  0.605968  0.784989  0.820979  1
  Tb  Tb3  1  0.964012  0.784989  0.179021  1
  Tb  Tb4  1  0.035988  0.215011  0.820979  1
  Tb  Tb5  1  0.394032  0.215011  0.179021  1
  Gd  Gd6  1  0.689966  0.280795  0.970761  1
  Gd  Gd7  1  0.310034  0.719205  0.029239  1
  Gd  Gd8  1  0.689966  0.719205  0.409171  1
  Gd  Gd9  1  0.310034  0.280795  0.590829  1
  Gd  Gd10  1  0.807051  0.128268  0.321217  1
  Gd  Gd11  1  0.807051  0.485833  0.678783  1
  Tc  Tc12  1  0.500000  0.500000  0.000000  1
  Ni  Ni13  1  0.859502  0.500000  0.359502  1
  Ni  Ni14  1  0.140498  0.500000  0.640498  1
  Ni  Ni15  1  0.000000  0.120504  0.120504  1
  Ni  Ni16  1  0.000000  0.879496  0.879496  1
  Sn  Sn17  1  0.500000  0.000000  0.500000  1
