# generated using pymatgen
data_BaScCo2CuH12
_symmetry_space_group_name_H-M   'P 1'
_cell_length_a   4.58166900
_cell_length_b   4.58166897
_cell_length_c   8.06077800
_cell_angle_alpha   90.00000000
_cell_angle_beta   90.00000000
_cell_angle_gamma   119.99999300
_symmetry_Int_Tables_number   1
_chemical_formula_structural   BaScCo2CuH12
_chemical_formula_sum   'Ba1 Sc1 Co2 Cu1 H12'
_cell_volume   146.53961335
_cell_formula_units_Z   1
loop_
 _symmetry_equiv_pos_site_id
 _symmetry_equiv_pos_as_xyz
  1  'x, y, z'
loop_
 _atom_site_type_symbol
 _atom_site_label
 _atom_site_symmetry_multiplicity
 _atom_site_fract_x
 _atom_site_fract_y
 _atom_site_fract_z
 _atom_site_occupancy
  Ba  Ba0  1  0.000000  0.000000  0.022889  1
  Sc  Sc1  1  0.333333  0.666667  0.610459  1
  Co  Co2  1  0.666667  0.333333  0.714374  1
  Co  Co3  1  0.333333  0.666667  0.292610  1
  Cu  Cu4  1  0.666667  0.333333  0.338328  1
  H  H5  1  0.171891  0.828109  0.394590  1
  H  H6  1  0.656218  0.828109  0.394590  1
  H  H7  1  0.171891  0.343782  0.394590  1
  H  H8  1  0.826719  0.173281  0.608069  1
  H  H9  1  0.346561  0.173281  0.608069  1
  H  H10  1  0.826719  0.653439  0.608069  1
  H  H11  1  0.505978  0.011955  0.822516  1
  H  H12  1  0.505978  0.494022  0.822516  1
  H  H13  1  0.988045  0.494022  0.822516  1
  H  H14  1  0.494375  0.988752  0.181938  1
  H  H15  1  0.494375  0.505625  0.181938  1
  H  H16  1  0.011248  0.505625  0.181938  1
