# generated using pymatgen
data_Na3Ge(BPt3)2
_symmetry_space_group_name_H-M   'P 1'
_cell_length_a   8.05744805
_cell_length_b   8.05744785
_cell_length_c   8.05744700
_cell_angle_alpha   41.10874744
_cell_angle_beta   41.10874909
_cell_angle_gamma   41.10875427
_symmetry_Int_Tables_number   1
_chemical_formula_structural   Na3Ge(BPt3)2
_chemical_formula_sum   'Na3 Ge1 B2 Pt6'
_cell_volume   204.19511948
_cell_formula_units_Z   1
loop_
 _symmetry_equiv_pos_site_id
 _symmetry_equiv_pos_as_xyz
  1  'x, y, z'
loop_
 _atom_site_type_symbol
 _atom_site_label
 _atom_site_symmetry_multiplicity
 _atom_site_fract_x
 _atom_site_fract_y
 _atom_site_fract_z
 _atom_site_occupancy
  Na  Na0  1  0.860499  0.860499  0.860499  1
  Na  Na1  1  0.139501  0.139501  0.139501  1
  Na  Na2  1  0.000000  0.000000  0.000000  1
  Ge  Ge3  1  0.500000  0.500000  0.500000  1
  B  B4  1  0.668381  0.668381  0.668381  1
  B  B5  1  0.331619  0.331619  0.331619  1
  Pt  Pt6  1  0.434161  0.931707  0.434161  1
  Pt  Pt7  1  0.434161  0.434161  0.931707  1
  Pt  Pt8  1  0.931707  0.434161  0.434161  1
  Pt  Pt9  1  0.565839  0.068293  0.565839  1
  Pt  Pt10  1  0.565839  0.565839  0.068293  1
  Pt  Pt11  1  0.068293  0.565839  0.565839  1
