# generated using pymatgen
data_Tb5Ni16(MoAs4)3
_symmetry_space_group_name_H-M   'P 1'
_cell_length_a   12.62756700
_cell_length_b   12.62756791
_cell_length_c   3.85651900
_cell_angle_alpha   90.00000000
_cell_angle_beta   90.00000000
_cell_angle_gamma   120.00000546
_symmetry_Int_Tables_number   1
_chemical_formula_structural   Tb5Ni16(MoAs4)3
_chemical_formula_sum   'Tb5 Ni16 Mo3 As12'
_cell_volume   532.55623984
_cell_formula_units_Z   1
loop_
 _symmetry_equiv_pos_site_id
 _symmetry_equiv_pos_as_xyz
  1  'x, y, z'
loop_
 _atom_site_type_symbol
 _atom_site_label
 _atom_site_symmetry_multiplicity
 _atom_site_fract_x
 _atom_site_fract_y
 _atom_site_fract_z
 _atom_site_occupancy
  Tb  Tb0  1  0.185715  0.185715  0.500000  1
  Tb  Tb1  1  0.814285  0.000000  0.500000  1
  Tb  Tb2  1  0.000000  0.814285  0.500000  1
  Tb  Tb3  1  0.333333  0.666667  0.000000  1
  Tb  Tb4  1  0.666667  0.333333  0.000000  1
  Ni  Ni5  1  0.717936  0.717936  0.500000  1
  Ni  Ni6  1  0.282064  0.000000  0.500000  1
  Ni  Ni7  1  0.000000  0.282064  0.500000  1
  Ni  Ni8  1  0.182873  0.376463  0.000000  1
  Ni  Ni9  1  0.623537  0.806410  0.000000  1
  Ni  Ni10  1  0.193590  0.817127  0.000000  1
  Ni  Ni11  1  0.806410  0.623537  0.000000  1
  Ni  Ni12  1  0.817127  0.193590  0.000000  1
  Ni  Ni13  1  0.376463  0.182873  0.000000  1
  Ni  Ni14  1  0.359179  0.482595  0.500000  1
  Ni  Ni15  1  0.517405  0.876586  0.500000  1
  Ni  Ni16  1  0.123414  0.640821  0.500000  1
  Ni  Ni17  1  0.876586  0.517405  0.500000  1
  Ni  Ni18  1  0.640821  0.123414  0.500000  1
  Ni  Ni19  1  0.482595  0.359179  0.500000  1
  Ni  Ni20  1  0.000000  0.000000  0.000000  1
  Mo  Mo21  1  0.561721  0.561721  0.000000  1
  Mo  Mo22  1  0.438279  0.000000  0.000000  1
  Mo  Mo23  1  0.000000  0.438279  0.000000  1
  As  As24  1  0.821435  0.821435  0.000000  1
  As  As25  1  0.178565  0.000000  0.000000  1
  As  As26  1  0.000000  0.178565  0.000000  1
  As  As27  1  0.167387  0.481241  0.500000  1
  As  As28  1  0.518759  0.686145  0.500000  1
  As  As29  1  0.313855  0.832613  0.500000  1
  As  As30  1  0.686145  0.518759  0.500000  1
  As  As31  1  0.832613  0.313855  0.500000  1
  As  As32  1  0.481241  0.167387  0.500000  1
  As  As33  1  0.364785  0.364785  0.000000  1
  As  As34  1  0.635215  0.000000  0.000000  1
  As  As35  1  0.000000  0.635215  0.000000  1
