# generated using pymatgen
data_Fe3SiTcMo
_symmetry_space_group_name_H-M   'P 1'
_cell_length_a   4.73535000
_cell_length_b   4.73386212
_cell_length_c   7.58895200
_cell_angle_alpha   89.99964018
_cell_angle_beta   89.99995316
_cell_angle_gamma   120.01145640
_symmetry_Int_Tables_number   1
_chemical_formula_structural   Fe3SiTcMo
_chemical_formula_sum   'Fe6 Si2 Tc2 Mo2'
_cell_volume   147.30923656
_cell_formula_units_Z   2
loop_
 _symmetry_equiv_pos_site_id
 _symmetry_equiv_pos_as_xyz
  1  'x, y, z'
loop_
 _atom_site_type_symbol
 _atom_site_label
 _atom_site_symmetry_multiplicity
 _atom_site_fract_x
 _atom_site_fract_y
 _atom_site_fract_z
 _atom_site_occupancy
  Fe  Fe0  1  0.828554  0.657168  0.751056  1
  Fe  Fe1  1  0.828446  0.171585  0.751057  1
  Fe  Fe2  1  0.343009  0.171550  0.751049  1
  Fe  Fe3  1  0.171446  0.342832  0.248944  1
  Fe  Fe4  1  0.171554  0.828415  0.248943  1
  Fe  Fe5  1  0.656991  0.828450  0.248951  1
  Si  Si6  1  0.000000  0.000000  0.500000  1
  Si  Si7  1  0.000000  0.000000  0.000000  1
  Tc  Tc8  1  0.666692  0.333410  0.061868  1
  Tc  Tc9  1  0.333308  0.666590  0.938132  1
  Mo  Mo10  1  0.333314  0.666596  0.570125  1
  Mo  Mo11  1  0.666686  0.333404  0.429875  1
