# generated using pymatgen
data_Dy9Al(Co2Au)2
_symmetry_space_group_name_H-M   'P 1'
_cell_length_a   8.53345439
_cell_length_b   8.53345498
_cell_length_c   8.53345470
_cell_angle_alpha   129.39679478
_cell_angle_beta   129.39679276
_cell_angle_gamma   74.37294753
_symmetry_Int_Tables_number   1
_chemical_formula_structural   Dy9Al(Co2Au)2
_chemical_formula_sum   'Dy9 Al1 Co4 Au2'
_cell_volume   361.70070703
_cell_formula_units_Z   1
loop_
 _symmetry_equiv_pos_site_id
 _symmetry_equiv_pos_as_xyz
  1  'x, y, z'
loop_
 _atom_site_type_symbol
 _atom_site_label
 _atom_site_symmetry_multiplicity
 _atom_site_fract_x
 _atom_site_fract_y
 _atom_site_fract_z
 _atom_site_occupancy
  Dy  Dy0  1  0.500000  0.500000  0.000000  1
  Dy  Dy1  1  0.816528  0.288222  0.842838  1
  Dy  Dy2  1  0.183472  0.711778  0.157163  1
  Dy  Dy3  1  0.445385  0.973691  0.157163  1
  Dy  Dy4  1  0.288222  0.445385  0.471694  1
  Dy  Dy5  1  0.026309  0.183472  0.471694  1
  Dy  Dy6  1  0.554615  0.026309  0.842837  1
  Dy  Dy7  1  0.711778  0.554615  0.528306  1
  Dy  Dy8  1  0.973691  0.816528  0.528306  1
  Al  Al9  1  0.000000  0.000000  0.000000  1
  Co  Co10  1  0.122750  0.632694  0.755445  1
  Co  Co11  1  0.877250  0.367306  0.244555  1
  Co  Co12  1  0.632694  0.877250  0.509944  1
  Co  Co13  1  0.367306  0.122750  0.490056  1
  Au  Au14  1  0.259869  0.259869  0.000000  1
  Au  Au15  1  0.740131  0.740131  0.000000  1
