# generated using pymatgen
data_Sc4Zn2CoB4Ir9
_symmetry_space_group_name_H-M   'P 1'
_cell_length_a   9.36858441
_cell_length_b   9.36858441
_cell_length_c   3.04101800
_cell_angle_alpha   90.00000000
_cell_angle_beta   90.00000000
_cell_angle_gamma   89.68050136
_symmetry_Int_Tables_number   1
_chemical_formula_structural   Sc4Zn2CoB4Ir9
_chemical_formula_sum   'Sc4 Zn2 Co1 B4 Ir9'
_cell_volume   266.90713719
_cell_formula_units_Z   1
loop_
 _symmetry_equiv_pos_site_id
 _symmetry_equiv_pos_as_xyz
  1  'x, y, z'
loop_
 _atom_site_type_symbol
 _atom_site_label
 _atom_site_symmetry_multiplicity
 _atom_site_fract_x
 _atom_site_fract_y
 _atom_site_fract_z
 _atom_site_occupancy
  Sc  Sc0  1  0.672059  0.172059  0.000000  1
  Sc  Sc1  1  0.180374  0.319626  0.000000  1
  Sc  Sc2  1  0.819626  0.680374  0.000000  1
  Sc  Sc3  1  0.327941  0.827941  0.000000  1
  Zn  Zn4  1  0.000000  0.000000  0.000000  1
  Zn  Zn5  1  0.500000  0.500000  0.000000  1
  Co  Co6  1  0.500000  0.000000  0.500001  1
  B  B7  1  0.385156  0.114844  0.000000  1
  B  B8  1  0.873124  0.373124  0.000000  1
  B  B9  1  0.126876  0.626875  0.000000  1
  B  B10  1  0.614843  0.885156  0.000000  1
  Ir  Ir11  1  0.223997  0.063709  0.500001  1
  Ir  Ir12  1  0.931372  0.216147  0.500001  1
  Ir  Ir13  1  0.436290  0.276003  0.500001  1
  Ir  Ir14  1  0.716146  0.431371  0.500001  1
  Ir  Ir15  1  0.000000  0.500000  0.500001  1
  Ir  Ir16  1  0.283853  0.568628  0.500001  1
  Ir  Ir17  1  0.563709  0.723996  0.500001  1
  Ir  Ir18  1  0.068628  0.783853  0.500001  1
  Ir  Ir19  1  0.776003  0.936291  0.500001  1
