# generated using pymatgen
data_Nd3Y7C4I15
_symmetry_space_group_name_H-M   'P 1'
_cell_length_a   9.68264827
_cell_length_b   10.44969049
_cell_length_c   11.61952302
_cell_angle_alpha   93.13378830
_cell_angle_beta   114.16749211
_cell_angle_gamma   109.57790795
_symmetry_Int_Tables_number   1
_chemical_formula_structural   Nd3Y7C4I15
_chemical_formula_sum   'Nd3 Y7 C4 I15'
_cell_volume   985.12202510
_cell_formula_units_Z   1
loop_
 _symmetry_equiv_pos_site_id
 _symmetry_equiv_pos_as_xyz
  1  'x, y, z'
loop_
 _atom_site_type_symbol
 _atom_site_label
 _atom_site_symmetry_multiplicity
 _atom_site_fract_x
 _atom_site_fract_y
 _atom_site_fract_z
 _atom_site_occupancy
  Nd  Nd0  1  0.703304  0.567843  0.044158  1
  Nd  Nd1  1  0.297149  0.433061  0.955540  1
  Nd  Nd2  1  0.659869  0.257353  0.838195  1
  Y  Y3  1  0.589901  0.540005  0.336767  1
  Y  Y4  1  0.349434  0.740098  0.160269  1
  Y  Y5  1  0.765659  0.872877  0.250981  1
  Y  Y6  1  0.527119  0.185753  0.099543  1
  Y  Y7  1  0.236573  0.125931  0.751208  1
  Y  Y8  1  0.407450  0.459400  0.662867  1
  Y  Y9  1  0.473462  0.815437  0.900497  1
  C  C10  1  0.483651  0.299858  0.940361  1
  C  C11  1  0.516698  0.701976  0.060099  1
  C  C12  1  0.454993  0.364947  0.834539  1
  C  C13  1  0.544274  0.635356  0.165605  1
  I  I14  1  0.214676  0.907354  0.939834  1
  I  I15  1  0.112570  0.193627  0.479525  1
  I  I16  1  0.164157  0.563823  0.699981  1
  I  I17  1  0.400293  0.967938  0.654500  1
  I  I18  1  0.703319  0.739283  0.814068  1
  I  I19  1  0.294549  0.260837  0.183796  1
  I  I20  1  0.834919  0.435998  0.300748  1
  I  I21  1  0.885166  0.804467  0.522310  1
  I  I22  1  0.355695  0.626609  0.406856  1
  I  I23  1  0.046887  0.838865  0.222256  1
  I  I24  1  0.788142  0.091321  0.066729  1
  I  I25  1  0.640185  0.378218  0.585687  1
  I  I26  1  0.953933  0.161254  0.779199  1
  I  I27  1  0.589689  0.023768  0.341010  1
  I  I28  1  0.006283  0.506745  0.002867  1
