# generated using pymatgen
data_Sc8Re(B8Ir)3
_symmetry_space_group_name_H-M   'P 1'
_cell_length_a   3.49313800
_cell_length_b   8.90028899
_cell_length_c   11.21937066
_cell_angle_alpha   90.10973634
_cell_angle_beta   90.00000000
_cell_angle_gamma   90.00000000
_symmetry_Int_Tables_number   1
_chemical_formula_structural   Sc8Re(B8Ir)3
_chemical_formula_sum   'Sc8 Re1 B24 Ir3'
_cell_volume   348.80889510
_cell_formula_units_Z   1
loop_
 _symmetry_equiv_pos_site_id
 _symmetry_equiv_pos_as_xyz
  1  'x, y, z'
loop_
 _atom_site_type_symbol
 _atom_site_label
 _atom_site_symmetry_multiplicity
 _atom_site_fract_x
 _atom_site_fract_y
 _atom_site_fract_z
 _atom_site_occupancy
  Sc  Sc0  1  0.000000  0.317083  0.413919  1
  Sc  Sc1  1  0.000000  0.687494  0.591039  1
  Sc  Sc2  1  0.000000  0.817867  0.081623  1
  Sc  Sc3  1  0.000000  0.178378  0.912804  1
  Sc  Sc4  1  0.000000  0.944002  0.374608  1
  Sc  Sc5  1  0.000000  0.053888  0.625949  1
  Sc  Sc6  1  0.000000  0.443447  0.124969  1
  Sc  Sc7  1  0.000000  0.558228  0.875420  1
  Re  Re8  1  0.000000  0.861779  0.820492  1
  B  B9  1  0.500000  0.553900  0.436092  1
  B  B10  1  0.500000  0.446922  0.564143  1
  B  B11  1  0.500000  0.053304  0.064516  1
  B  B12  1  0.500000  0.946935  0.935733  1
  B  B13  1  0.500000  0.752932  0.422241  1
  B  B14  1  0.500000  0.247414  0.577719  1
  B  B15  1  0.500000  0.252198  0.077614  1
  B  B16  1  0.500000  0.747333  0.921491  1
  B  B17  1  0.500000  0.794028  0.262962  1
  B  B18  1  0.500000  0.205815  0.735395  1
  B  B19  1  0.500000  0.294600  0.237057  1
  B  B20  1  0.500000  0.704964  0.764200  1
  B  B21  1  0.500000  0.629665  0.181411  1
  B  B22  1  0.500000  0.369606  0.818230  1
  B  B23  1  0.500000  0.130490  0.318751  1
  B  B24  1  0.500000  0.870358  0.682403  1
  B  B25  1  0.500000  0.978677  0.213262  1
  B  B26  1  0.500000  0.021551  0.786864  1
  B  B27  1  0.500000  0.478887  0.287011  1
  B  B28  1  0.500000  0.520788  0.712996  1
  B  B29  1  0.500000  0.601324  0.028546  1
  B  B30  1  0.500000  0.396580  0.972179  1
  B  B31  1  0.500000  0.102716  0.471509  1
  B  B32  1  0.500000  0.898234  0.527258  1
  Ir  Ir33  1  0.000000  0.638822  0.321018  1
  Ir  Ir34  1  0.000000  0.361344  0.679164  1
  Ir  Ir35  1  0.000000  0.138451  0.179410  1
