# generated using pymatgen
data_HoErSbO2
_symmetry_space_group_name_H-M   'P 1'
_cell_length_a   7.18072857
_cell_length_b   7.17243542
_cell_length_c   7.18072924
_cell_angle_alpha   149.09986803
_cell_angle_beta   148.98746079
_cell_angle_gamma   44.36064943
_symmetry_Int_Tables_number   1
_chemical_formula_structural   HoErSbO2
_chemical_formula_sum   'Ho1 Er1 Sb1 O2'
_cell_volume   97.56107778
_cell_formula_units_Z   1
loop_
 _symmetry_equiv_pos_site_id
 _symmetry_equiv_pos_as_xyz
  1  'x, y, z'
loop_
 _atom_site_type_symbol
 _atom_site_label
 _atom_site_symmetry_multiplicity
 _atom_site_fract_x
 _atom_site_fract_y
 _atom_site_fract_z
 _atom_site_occupancy
  Ho  Ho0  1  0.333774  0.349288  0.015513  1
  Er  Er1  1  0.666760  0.680337  0.013577  1
  Sb  Sb2  1  0.000441  0.017176  0.016735  1
  O  O3  1  0.750093  0.264595  0.514502  1
  O  O4  1  0.248932  0.763604  0.514672  1
