# generated using pymatgen
data_DyZr2Fe9
_symmetry_space_group_name_H-M   'P 1'
_cell_length_a   5.00569103
_cell_length_b   5.00569083
_cell_length_c   8.49545773
_cell_angle_alpha   72.86584982
_cell_angle_beta   72.86585037
_cell_angle_gamma   59.99998926
_symmetry_Int_Tables_number   1
_chemical_formula_structural   DyZr2Fe9
_chemical_formula_sum   'Dy1 Zr2 Fe9'
_cell_volume   173.35592516
_cell_formula_units_Z   1
loop_
 _symmetry_equiv_pos_site_id
 _symmetry_equiv_pos_as_xyz
  1  'x, y, z'
loop_
 _atom_site_type_symbol
 _atom_site_label
 _atom_site_symmetry_multiplicity
 _atom_site_fract_x
 _atom_site_fract_y
 _atom_site_fract_z
 _atom_site_occupancy
  Dy  Dy0  1  0.000000  0.000000  0.000000  1
  Zr  Zr1  1  0.142396  0.142396  0.572812  1
  Zr  Zr2  1  0.857604  0.857604  0.427188  1
  Fe  Fe3  1  0.082541  0.584865  0.747728  1
  Fe  Fe4  1  0.584865  0.584865  0.747728  1
  Fe  Fe5  1  0.584865  0.082541  0.747728  1
  Fe  Fe6  1  0.917459  0.415135  0.252272  1
  Fe  Fe7  1  0.415135  0.415135  0.252272  1
  Fe  Fe8  1  0.415135  0.917459  0.252272  1
  Fe  Fe9  1  0.332753  0.332753  0.001741  1
  Fe  Fe10  1  0.667246  0.667246  0.998259  1
  Fe  Fe11  1  0.500000  0.500000  0.500000  1
