# generated using pymatgen
data_HoTm9IrOs3
_symmetry_space_group_name_H-M   'P 1'
_cell_length_a   6.31891650
_cell_length_b   7.29493860
_cell_length_c   8.28360759
_cell_angle_alpha   96.82228239
_cell_angle_beta   112.29422842
_cell_angle_gamma   89.95577162
_symmetry_Int_Tables_number   1
_chemical_formula_structural   HoTm9IrOs3
_chemical_formula_sum   'Ho1 Tm9 Ir1 Os3'
_cell_volume   350.38907489
_cell_formula_units_Z   1
loop_
 _symmetry_equiv_pos_site_id
 _symmetry_equiv_pos_as_xyz
  1  'x, y, z'
loop_
 _atom_site_type_symbol
 _atom_site_label
 _atom_site_symmetry_multiplicity
 _atom_site_fract_x
 _atom_site_fract_y
 _atom_site_fract_z
 _atom_site_occupancy
  Ho  Ho0  1  0.969892  0.915926  0.179649  1
  Tm  Tm1  1  0.789968  0.581975  0.818169  1
  Tm  Tm2  1  0.025893  0.083471  0.815098  1
  Tm  Tm3  1  0.208618  0.419090  0.179774  1
  Tm  Tm4  1  0.649648  0.816991  0.439818  1
  Tm  Tm5  1  0.210249  0.681751  0.561973  1
  Tm  Tm6  1  0.350991  0.181692  0.563299  1
  Tm  Tm7  1  0.793051  0.319583  0.439444  1
  Tm  Tm8  1  0.422126  0.748688  0.999179  1
  Tm  Tm9  1  0.577869  0.250699  0.999336  1
  Ir  Ir10  1  0.395302  0.077176  0.221145  1
  Os  Os11  1  0.823360  0.575562  0.218258  1
  Os  Os12  1  0.607382  0.924130  0.781748  1
  Os  Os13  1  0.175653  0.423269  0.783110  1
