# generated using pymatgen
data_Tb15Sm5Sn16
_symmetry_space_group_name_H-M   'P 1'
_cell_length_a   8.10753478
_cell_length_b   8.25967066
_cell_length_c   15.59007736
_cell_angle_alpha   90.01328185
_cell_angle_beta   89.89764277
_cell_angle_gamma   89.92868443
_symmetry_Int_Tables_number   1
_chemical_formula_structural   Tb15Sm5Sn16
_chemical_formula_sum   'Tb15 Sm5 Sn16'
_cell_volume   1043.99586936
_cell_formula_units_Z   1
loop_
 _symmetry_equiv_pos_site_id
 _symmetry_equiv_pos_as_xyz
  1  'x, y, z'
loop_
 _atom_site_type_symbol
 _atom_site_label
 _atom_site_symmetry_multiplicity
 _atom_site_fract_x
 _atom_site_fract_y
 _atom_site_fract_z
 _atom_site_occupancy
  Tb  Tb0  1  0.365792  0.836098  0.877848  1
  Tb  Tb1  1  0.866528  0.663755  0.621801  1
  Tb  Tb2  1  0.633347  0.163928  0.378288  1
  Tb  Tb3  1  0.133772  0.336347  0.121962  1
  Tb  Tb4  1  0.633715  0.163890  0.122205  1
  Tb  Tb5  1  0.133281  0.336091  0.378472  1
  Tb  Tb6  1  0.366803  0.836337  0.621853  1
  Tb  Tb7  1  0.866010  0.663597  0.877915  1
  Tb  Tb8  1  0.519292  0.320733  0.901352  1
  Tb  Tb9  1  0.019631  0.179127  0.598610  1
  Tb  Tb10  1  0.480322  0.678845  0.401805  1
  Tb  Tb11  1  0.198635  0.502154  0.749963  1
  Tb  Tb12  1  0.698528  0.997916  0.749739  1
  Tb  Tb13  1  0.801368  0.497807  0.250388  1
  Tb  Tb14  1  0.301561  0.002353  0.250334  1
  Sm  Sm15  1  0.981941  0.820383  0.097988  1
  Sm  Sm16  1  0.482173  0.678854  0.097226  1
  Sm  Sm17  1  0.981720  0.820598  0.402585  1
  Sm  Sm18  1  0.517997  0.320670  0.597175  1
  Sm  Sm19  1  0.017476  0.179886  0.902720  1
  Sn  Sn20  1  0.296548  0.037898  0.041763  1
  Sn  Sn21  1  0.793937  0.464010  0.457800  1
  Sn  Sn22  1  0.706167  0.964166  0.542240  1
  Sn  Sn23  1  0.205945  0.536087  0.957725  1
  Sn  Sn24  1  0.702650  0.963042  0.958053  1
  Sn  Sn25  1  0.204739  0.538074  0.541218  1
  Sn  Sn26  1  0.295186  0.037576  0.458891  1
  Sn  Sn27  1  0.794896  0.460570  0.040773  1
  Sn  Sn28  1  0.565086  0.619394  0.749931  1
  Sn  Sn29  1  0.065009  0.880274  0.749811  1
  Sn  Sn30  1  0.434873  0.380147  0.250186  1
  Sn  Sn31  1  0.934770  0.120364  0.250133  1
  Sn  Sn32  1  0.327336  0.145323  0.750413  1
  Sn  Sn33  1  0.827349  0.354798  0.749451  1
  Sn  Sn34  1  0.671687  0.854640  0.250909  1
  Sn  Sn35  1  0.173933  0.644268  0.250472  1
