# generated using pymatgen
data_Sr4Mg2Co3Si8Ir5
_symmetry_space_group_name_H-M   'P 1'
_cell_length_a   6.37601249
_cell_length_b   6.37601097
_cell_length_c   11.01535868
_cell_angle_alpha   89.77623547
_cell_angle_beta   89.77623048
_cell_angle_gamma   113.38347575
_symmetry_Int_Tables_number   1
_chemical_formula_structural   Sr4Mg2Co3Si8Ir5
_chemical_formula_sum   'Sr4 Mg2 Co3 Si8 Ir5'
_cell_volume   411.02348347
_cell_formula_units_Z   1
loop_
 _symmetry_equiv_pos_site_id
 _symmetry_equiv_pos_as_xyz
  1  'x, y, z'
loop_
 _atom_site_type_symbol
 _atom_site_label
 _atom_site_symmetry_multiplicity
 _atom_site_fract_x
 _atom_site_fract_y
 _atom_site_fract_z
 _atom_site_occupancy
  Sr  Sr0  1  0.201448  0.801076  0.498667  1
  Sr  Sr1  1  0.201381  0.798507  0.999635  1
  Sr  Sr2  1  0.801076  0.201448  0.498667  1
  Sr  Sr3  1  0.798507  0.201381  0.999635  1
  Mg  Mg4  1  0.016183  0.016183  0.251299  1
  Mg  Mg5  1  0.978683  0.978683  0.749306  1
  Co  Co6  1  0.670394  0.670394  0.367001  1
  Co  Co7  1  0.331343  0.331343  0.630058  1
  Co  Co8  1  0.671881  0.671881  0.132976  1
  Si  Si9  1  0.529955  0.886389  0.250134  1
  Si  Si10  1  0.111322  0.475186  0.743741  1
  Si  Si11  1  0.475186  0.111322  0.743741  1
  Si  Si12  1  0.886389  0.529955  0.250134  1
  Si  Si13  1  0.350403  0.350403  0.430707  1
  Si  Si14  1  0.650855  0.650855  0.567813  1
  Si  Si15  1  0.350529  0.350529  0.080606  1
  Si  Si16  1  0.656322  0.656322  0.929965  1
  Ir  Ir17  1  0.504779  0.238405  0.254186  1
  Ir  Ir18  1  0.760913  0.498067  0.747406  1
  Ir  Ir19  1  0.498067  0.760913  0.747406  1
  Ir  Ir20  1  0.238405  0.504779  0.254186  1
  Ir  Ir21  1  0.315981  0.315981  0.872730  1
