# generated using pymatgen
data_Mn2Sb12PdAu
_symmetry_space_group_name_H-M   'P 1'
_cell_length_a   8.15236556
_cell_length_b   8.13450650
_cell_length_c   9.41427695
_cell_angle_alpha   55.00849785
_cell_angle_beta   54.71794419
_cell_angle_gamma   70.49690095
_symmetry_Int_Tables_number   1
_chemical_formula_structural   Mn2Sb12PdAu
_chemical_formula_sum   'Mn2 Sb12 Pd1 Au1'
_cell_volume   417.51082226
_cell_formula_units_Z   1
loop_
 _symmetry_equiv_pos_site_id
 _symmetry_equiv_pos_as_xyz
  1  'x, y, z'
loop_
 _atom_site_type_symbol
 _atom_site_label
 _atom_site_symmetry_multiplicity
 _atom_site_fract_x
 _atom_site_fract_y
 _atom_site_fract_z
 _atom_site_occupancy
  Mn  Mn0  1  0.500000  0.000000  0.500000  1
  Mn  Mn1  1  0.000000  0.500000  0.500000  1
  Sb  Sb2  1  0.677076  0.669654  0.485453  1
  Sb  Sb3  1  0.322924  0.330346  0.514547  1
  Sb  Sb4  1  0.641097  0.651200  0.202910  1
  Sb  Sb5  1  0.358903  0.348800  0.797090  1
  Sb  Sb6  1  0.167088  0.858677  0.641733  1
  Sb  Sb7  1  0.832912  0.141323  0.358267  1
  Sb  Sb8  1  0.853151  0.168599  0.652915  1
  Sb  Sb9  1  0.146849  0.831401  0.347085  1
  Sb  Sb10  1  0.812774  0.494605  0.830302  1
  Sb  Sb11  1  0.187226  0.505395  0.169698  1
  Sb  Sb12  1  0.504840  0.183539  0.162963  1
  Sb  Sb13  1  0.495160  0.816461  0.837037  1
  Pd  Pd14  1  0.500000  0.000000  0.000000  1
  Au  Au15  1  0.000000  0.500000  0.000000  1
