# generated using pymatgen
data_Ba12SiGe(PI4)2
_symmetry_space_group_name_H-M   'P 1'
_cell_length_a   16.31892167
_cell_length_b   15.57118720
_cell_length_c   8.65976415
_cell_angle_alpha   79.07254600
_cell_angle_beta   69.48776004
_cell_angle_gamma   31.22244417
_symmetry_Int_Tables_number   1
_chemical_formula_structural   Ba12SiGe(PI4)2
_chemical_formula_sum   'Ba12 Si1 Ge1 P2 I8'
_cell_volume   1040.50170983
_cell_formula_units_Z   1
loop_
 _symmetry_equiv_pos_site_id
 _symmetry_equiv_pos_as_xyz
  1  'x, y, z'
loop_
 _atom_site_type_symbol
 _atom_site_label
 _atom_site_symmetry_multiplicity
 _atom_site_fract_x
 _atom_site_fract_y
 _atom_site_fract_z
 _atom_site_occupancy
  Ba  Ba0  1  0.375089  0.944165  0.586962  1
  Ba  Ba1  1  0.594037  0.088909  0.372363  1
  Ba  Ba2  1  0.307667  0.873959  0.158779  1
  Ba  Ba3  1  0.944305  0.375100  0.094932  1
  Ba  Ba4  1  0.457204  0.040395  0.042710  1
  Ba  Ba5  1  0.874027  0.307759  0.658586  1
  Ba  Ba6  1  0.089917  0.592606  0.944275  1
  Ba  Ba7  1  0.661197  0.158248  0.876015  1
  Ba  Ba8  1  0.788962  0.209942  0.209262  1
  Ba  Ba9  1  0.210304  0.788627  0.791440  1
  Ba  Ba10  1  0.157526  0.662064  0.304852  1
  Ba  Ba11  1  0.039970  0.457686  0.460002  1
  Si  Si12  1  0.333287  0.334289  0.166315  1
  Ge  Ge13  1  0.083840  0.084561  0.916129  1
  P  P14  1  0.917289  0.916230  0.083102  1
  P  P15  1  0.165062  0.164668  0.335069  1
  I  I16  1  0.671202  0.671009  0.828881  1
  I  I17  1  0.745662  0.746283  0.253783  1
  I  I18  1  0.253574  0.252554  0.746675  1
  I  I19  1  0.578166  0.578612  0.421471  1
  I  I20  1  0.997102  0.997402  0.502823  1
  I  I21  1  0.828514  0.828295  0.672117  1
  I  I22  1  0.421606  0.422609  0.577624  1
  I  I23  1  0.504492  0.504029  0.995835  1
