# generated using pymatgen
data_Dy2V2Ni10P7
_symmetry_space_group_name_H-M   'P 1'
_cell_length_a   9.13473875
_cell_length_b   9.14060124
_cell_length_c   3.67494100
_cell_angle_alpha   90.00000000
_cell_angle_beta   90.00000000
_cell_angle_gamma   120.10265837
_symmetry_Int_Tables_number   1
_chemical_formula_structural   Dy2V2Ni10P7
_chemical_formula_sum   'Dy2 V2 Ni10 P7'
_cell_volume   265.46160092
_cell_formula_units_Z   1
loop_
 _symmetry_equiv_pos_site_id
 _symmetry_equiv_pos_as_xyz
  1  'x, y, z'
loop_
 _atom_site_type_symbol
 _atom_site_label
 _atom_site_symmetry_multiplicity
 _atom_site_fract_x
 _atom_site_fract_y
 _atom_site_fract_z
 _atom_site_occupancy
  Dy  Dy0  1  0.662336  0.330382  0.000000  1
  Dy  Dy1  1  0.334934  0.667354  0.500000  1
  V  V2  1  0.097212  0.214830  0.500000  1
  V  V3  1  0.786044  0.883381  0.500000  1
  Ni  Ni4  1  0.371686  0.935704  0.000000  1
  Ni  Ni5  1  0.061444  0.434359  0.000000  1
  Ni  Ni6  1  0.568484  0.628805  0.000000  1
  Ni  Ni7  1  0.878420  0.719993  0.000000  1
  Ni  Ni8  1  0.277144  0.152132  0.000000  1
  Ni  Ni9  1  0.843372  0.127200  0.000000  1
  Ni  Ni10  1  0.950820  0.567162  0.500000  1
  Ni  Ni11  1  0.436076  0.383828  0.500000  1
  Ni  Ni12  1  0.615072  0.051900  0.500000  1
  Ni  Ni13  1  0.121413  0.902880  0.500000  1
  P  P14  1  0.114407  0.706621  0.000000  1
  P  P15  1  0.295131  0.407681  0.000000  1
  P  P16  1  0.593033  0.888018  0.000000  1
  P  P17  1  0.707484  0.595134  0.500000  1
  P  P18  1  0.400874  0.111653  0.500000  1
  P  P19  1  0.885899  0.291827  0.500000  1
  P  P20  1  0.998712  0.999154  0.000000  1
