# generated using pymatgen
data_Hf16Pt7RhC4
_symmetry_space_group_name_H-M   'P 1'
_cell_length_a   8.81011172
_cell_length_b   8.81011179
_cell_length_c   8.81011159
_cell_angle_alpha   60.03419973
_cell_angle_beta   60.03419935
_cell_angle_gamma   60.03419560
_symmetry_Int_Tables_number   1
_chemical_formula_structural   Hf16Pt7RhC4
_chemical_formula_sum   'Hf16 Pt7 Rh1 C4'
_cell_volume   483.91131533
_cell_formula_units_Z   1
loop_
 _symmetry_equiv_pos_site_id
 _symmetry_equiv_pos_as_xyz
  1  'x, y, z'
loop_
 _atom_site_type_symbol
 _atom_site_label
 _atom_site_symmetry_multiplicity
 _atom_site_fract_x
 _atom_site_fract_y
 _atom_site_fract_z
 _atom_site_occupancy
  Hf  Hf0  1  0.123306  0.626513  0.626513  1
  Hf  Hf1  1  0.626513  0.123306  0.626513  1
  Hf  Hf2  1  0.626513  0.626513  0.123306  1
  Hf  Hf3  1  0.624816  0.624816  0.624816  1
  Hf  Hf4  1  0.817911  0.817911  0.179520  1
  Hf  Hf5  1  0.182377  0.182377  0.817735  1
  Hf  Hf6  1  0.817911  0.179520  0.817911  1
  Hf  Hf7  1  0.182377  0.817735  0.182377  1
  Hf  Hf8  1  0.179520  0.817911  0.817911  1
  Hf  Hf9  1  0.817735  0.182377  0.182377  1
  Hf  Hf10  1  0.432604  0.432604  0.067575  1
  Hf  Hf11  1  0.067276  0.067276  0.433268  1
  Hf  Hf12  1  0.432604  0.067575  0.432604  1
  Hf  Hf13  1  0.067276  0.433268  0.067276  1
  Hf  Hf14  1  0.067575  0.432604  0.432604  1
  Hf  Hf15  1  0.433268  0.067276  0.067276  1
  Pt  Pt16  1  0.773959  0.408741  0.408741  1
  Pt  Pt17  1  0.408741  0.773959  0.408741  1
  Pt  Pt18  1  0.408741  0.408741  0.773959  1
  Pt  Pt19  1  0.409071  0.409071  0.409071  1
  Pt  Pt20  1  0.477797  0.841194  0.841194  1
  Pt  Pt21  1  0.841194  0.477797  0.841194  1
  Pt  Pt22  1  0.841194  0.841194  0.477797  1
  Rh  Rh23  1  0.839432  0.839432  0.839432  1
  C  C24  1  0.625614  0.124946  0.124946  1
  C  C25  1  0.124946  0.625614  0.124946  1
  C  C26  1  0.124946  0.124946  0.625614  1
  C  C27  1  0.124780  0.124780  0.124780  1
