# generated using pymatgen
data_Ca20InGa11
_symmetry_space_group_name_H-M   'P 1'
_cell_length_a   8.04456800
_cell_length_b   8.04456800
_cell_length_c   14.68210700
_cell_angle_alpha   90.00000000
_cell_angle_beta   90.00000000
_cell_angle_gamma   90.00000000
_symmetry_Int_Tables_number   1
_chemical_formula_structural   Ca20InGa11
_chemical_formula_sum   'Ca20 In1 Ga11'
_cell_volume   950.15364548
_cell_formula_units_Z   1
loop_
 _symmetry_equiv_pos_site_id
 _symmetry_equiv_pos_as_xyz
  1  'x, y, z'
loop_
 _atom_site_type_symbol
 _atom_site_label
 _atom_site_symmetry_multiplicity
 _atom_site_fract_x
 _atom_site_fract_y
 _atom_site_fract_z
 _atom_site_occupancy
  Ca  Ca0  1  0.671048  0.180961  0.106709  1
  Ca  Ca1  1  0.176355  0.675693  0.604905  1
  Ca  Ca2  1  0.328952  0.819039  0.106709  1
  Ca  Ca3  1  0.823645  0.324307  0.604905  1
  Ca  Ca4  1  0.819039  0.671048  0.106709  1
  Ca  Ca5  1  0.324307  0.176355  0.604905  1
  Ca  Ca6  1  0.180961  0.328952  0.106709  1
  Ca  Ca7  1  0.675693  0.823645  0.604905  1
  Ca  Ca8  1  0.819039  0.328952  0.893291  1
  Ca  Ca9  1  0.324307  0.823645  0.395095  1
  Ca  Ca10  1  0.180961  0.671048  0.893291  1
  Ca  Ca11  1  0.675693  0.176355  0.395095  1
  Ca  Ca12  1  0.671048  0.819039  0.893291  1
  Ca  Ca13  1  0.176355  0.324307  0.395095  1
  Ca  Ca14  1  0.328952  0.180961  0.893291  1
  Ca  Ca15  1  0.823645  0.675693  0.395095  1
  Ca  Ca16  1  0.500000  0.500000  0.746868  1
  Ca  Ca17  1  0.000000  0.000000  0.252225  1
  Ca  Ca18  1  0.000000  0.000000  0.747775  1
  Ca  Ca19  1  0.500000  0.500000  0.253132  1
  In  In20  1  0.000000  0.000000  0.000000  1
  Ga  Ga21  1  0.500000  0.500000  0.500000  1
  Ga  Ga22  1  0.500000  0.500000  0.000000  1
  Ga  Ga23  1  0.000000  0.000000  0.500000  1
  Ga  Ga24  1  0.611654  0.110267  0.749549  1
  Ga  Ga25  1  0.110267  0.611654  0.250451  1
  Ga  Ga26  1  0.889733  0.388346  0.250451  1
  Ga  Ga27  1  0.388346  0.889733  0.749549  1
  Ga  Ga28  1  0.889733  0.611654  0.749549  1
  Ga  Ga29  1  0.388346  0.110267  0.250451  1
  Ga  Ga30  1  0.110267  0.388346  0.749549  1
  Ga  Ga31  1  0.611654  0.889733  0.250451  1
