# generated using pymatgen
data_Ac2Pr(InPd)3
_symmetry_space_group_name_H-M   'P 1'
_cell_length_a   7.91481273
_cell_length_b   7.87025682
_cell_length_c   4.25566300
_cell_angle_alpha   90.00000000
_cell_angle_beta   90.00000000
_cell_angle_gamma   119.81396087
_symmetry_Int_Tables_number   1
_chemical_formula_structural   Ac2Pr(InPd)3
_chemical_formula_sum   'Ac2 Pr1 In3 Pd3'
_cell_volume   230.00565397
_cell_formula_units_Z   1
loop_
 _symmetry_equiv_pos_site_id
 _symmetry_equiv_pos_as_xyz
  1  'x, y, z'
loop_
 _atom_site_type_symbol
 _atom_site_label
 _atom_site_symmetry_multiplicity
 _atom_site_fract_x
 _atom_site_fract_y
 _atom_site_fract_z
 _atom_site_occupancy
  Ac  Ac0  1  0.412757  0.411682  0.500000  1
  Ac  Ac1  1  0.587243  0.998925  0.500000  1
  Pr  Pr2  1  0.000000  0.589409  0.500000  1
  In  In3  1  0.764362  0.755054  0.000000  1
  In  In4  1  0.235638  0.990692  0.000000  1
  In  In5  1  0.000000  0.253083  0.000000  1
  Pd  Pd6  1  0.670259  0.335395  0.000000  1
  Pd  Pd7  1  0.329741  0.665138  0.000000  1
  Pd  Pd8  1  0.000000  0.000621  0.500000  1
