# generated using pymatgen
data_La2Tb2LuRu2
_symmetry_space_group_name_H-M   'P 1'
_cell_length_a   6.49301743
_cell_length_b   7.23644179
_cell_length_c   8.77494488
_cell_angle_alpha   96.37844744
_cell_angle_beta   111.71406021
_cell_angle_gamma   90.00000251
_symmetry_Int_Tables_number   1
_chemical_formula_structural   La2Tb2LuRu2
_chemical_formula_sum   'La4 Tb4 Lu2 Ru4'
_cell_volume   380.29778503
_cell_formula_units_Z   2
loop_
 _symmetry_equiv_pos_site_id
 _symmetry_equiv_pos_as_xyz
  1  'x, y, z'
loop_
 _atom_site_type_symbol
 _atom_site_label
 _atom_site_symmetry_multiplicity
 _atom_site_fract_x
 _atom_site_fract_y
 _atom_site_fract_z
 _atom_site_occupancy
  La  La0  1  0.522193  0.088871  0.805447  1
  La  La1  1  0.477807  0.911129  0.194553  1
  La  La2  1  0.716746  0.411129  0.194553  1
  La  La3  1  0.283254  0.588871  0.805447  1
  Tb  Tb4  1  0.299014  0.312989  0.428854  1
  Tb  Tb5  1  0.700986  0.687011  0.571146  1
  Tb  Tb6  1  0.870162  0.187011  0.571146  1
  Tb  Tb7  1  0.129838  0.812989  0.428854  1
  Lu  Lu8  1  0.073354  0.250000  0.000000  1
  Lu  Lu9  1  0.926646  0.750000  0.000000  1
  Ru  Ru10  1  0.320504  0.581050  0.222763  1
  Ru  Ru11  1  0.679496  0.418950  0.777237  1
  Ru  Ru12  1  0.097742  0.918950  0.777237  1
  Ru  Ru13  1  0.902258  0.081050  0.222763  1
