# generated using pymatgen
data_DyLu3CoB14
_symmetry_space_group_name_H-M   'P 1'
_cell_length_a   7.15577286
_cell_length_b   7.15117585
_cell_length_c   7.41181200
_cell_angle_alpha   90.00000000
_cell_angle_beta   90.00000000
_cell_angle_gamma   89.63720090
_symmetry_Int_Tables_number   1
_chemical_formula_structural   DyLu3CoB14
_chemical_formula_sum   'Dy2 Lu6 Co2 B28'
_cell_volume   379.27104856
_cell_formula_units_Z   2
loop_
 _symmetry_equiv_pos_site_id
 _symmetry_equiv_pos_as_xyz
  1  'x, y, z'
loop_
 _atom_site_type_symbol
 _atom_site_label
 _atom_site_symmetry_multiplicity
 _atom_site_fract_x
 _atom_site_fract_y
 _atom_site_fract_z
 _atom_site_occupancy
  Dy  Dy0  1  0.829913  0.693693  0.500000  1
  Dy  Dy1  1  0.170087  0.306307  0.500000  1
  Lu  Lu2  1  0.193737  0.330123  0.000000  1
  Lu  Lu3  1  0.668617  0.192573  0.000000  1
  Lu  Lu4  1  0.331383  0.807427  0.000000  1
  Lu  Lu5  1  0.691447  0.168439  0.500000  1
  Lu  Lu6  1  0.308553  0.831561  0.500000  1
  Lu  Lu7  1  0.806263  0.669877  0.000000  1
  Co  Co8  1  0.000000  0.000000  0.000000  1
  Co  Co9  1  0.500000  0.500000  0.500000  1
  B  B10  1  0.175264  0.038016  0.229413  1
  B  B11  1  0.960594  0.175120  0.228570  1
  B  B12  1  0.039406  0.824880  0.228570  1
  B  B13  1  0.675192  0.460398  0.267875  1
  B  B14  1  0.324808  0.539602  0.267875  1
  B  B15  1  0.824736  0.961984  0.229413  1
  B  B16  1  0.537641  0.675223  0.268316  1
  B  B17  1  0.462359  0.324777  0.268316  1
  B  B18  1  0.824736  0.961984  0.770587  1
  B  B19  1  0.039406  0.824880  0.771430  1
  B  B20  1  0.960594  0.175120  0.771430  1
  B  B21  1  0.324808  0.539602  0.732125  1
  B  B22  1  0.675192  0.460398  0.732125  1
  B  B23  1  0.175264  0.038016  0.770587  1
  B  B24  1  0.462359  0.324777  0.731684  1
  B  B25  1  0.537641  0.675223  0.731684  1
  B  B26  1  0.087671  0.587336  0.246255  1
  B  B27  1  0.412138  0.087883  0.248916  1
  B  B28  1  0.587862  0.912117  0.248916  1
  B  B29  1  0.912329  0.412664  0.246255  1
  B  B30  1  0.912329  0.412664  0.753745  1
  B  B31  1  0.587862  0.912117  0.751084  1
  B  B32  1  0.412138  0.087883  0.751084  1
  B  B33  1  0.087671  0.587336  0.753745  1
  B  B34  1  0.000000  0.000000  0.387762  1
  B  B35  1  0.500000  0.500000  0.110891  1
  B  B36  1  0.000000  0.000000  0.612238  1
  B  B37  1  0.500000  0.500000  0.889109  1
