# generated using pymatgen
data_Nd3BePd5
_symmetry_space_group_name_H-M   'P 1'
_cell_length_a   8.26563262
_cell_length_b   8.26563352
_cell_length_c   8.26563374
_cell_angle_alpha   126.12982708
_cell_angle_beta   125.15445890
_cell_angle_gamma   80.47955081
_symmetry_Int_Tables_number   1
_chemical_formula_structural   Nd3BePd5
_chemical_formula_sum   'Nd6 Be2 Pd10'
_cell_volume   359.72430966
_cell_formula_units_Z   2
loop_
 _symmetry_equiv_pos_site_id
 _symmetry_equiv_pos_as_xyz
  1  'x, y, z'
loop_
 _atom_site_type_symbol
 _atom_site_label
 _atom_site_symmetry_multiplicity
 _atom_site_fract_x
 _atom_site_fract_y
 _atom_site_fract_z
 _atom_site_occupancy
  Nd  Nd0  1  0.220917  0.447481  0.773435  1
  Nd  Nd1  1  0.779083  0.552519  0.226565  1
  Nd  Nd2  1  0.825954  0.052519  0.773435  1
  Nd  Nd3  1  0.174046  0.947481  0.226565  1
  Nd  Nd4  1  0.404184  0.250000  0.154184  1
  Nd  Nd5  1  0.595816  0.750000  0.845816  1
  Be  Be6  1  0.794333  0.250000  0.544333  1
  Be  Be7  1  0.205667  0.750000  0.455667  1
  Pd  Pd8  1  0.172020  0.414188  0.358945  1
  Pd  Pd9  1  0.827980  0.186925  0.242168  1
  Pd  Pd10  1  0.444758  0.085812  0.757832  1
  Pd  Pd11  1  0.555242  0.313075  0.641055  1
  Pd  Pd12  1  0.000000  0.500000  0.000000  1
  Pd  Pd13  1  0.000000  0.000000  0.500000  1
  Pd  Pd14  1  0.444758  0.686925  0.358945  1
  Pd  Pd15  1  0.555242  0.914188  0.242168  1
  Pd  Pd16  1  0.172020  0.813075  0.757832  1
  Pd  Pd17  1  0.827980  0.585812  0.641055  1
