# generated using pymatgen
data_Lu2Si3Ni14
_symmetry_space_group_name_H-M   'P 1'
_cell_length_a   8.21791200
_cell_length_b   8.20872507
_cell_length_c   7.98175200
_cell_angle_alpha   90.00000000
_cell_angle_beta   90.00000000
_cell_angle_gamma   120.03702059
_symmetry_Int_Tables_number   1
_chemical_formula_structural   Lu2Si3Ni14
_chemical_formula_sum   'Lu4 Si6 Ni28'
_cell_volume   466.12664189
_cell_formula_units_Z   2
loop_
 _symmetry_equiv_pos_site_id
 _symmetry_equiv_pos_as_xyz
  1  'x, y, z'
loop_
 _atom_site_type_symbol
 _atom_site_label
 _atom_site_symmetry_multiplicity
 _atom_site_fract_x
 _atom_site_fract_y
 _atom_site_fract_z
 _atom_site_occupancy
  Lu  Lu0  1  0.999912  0.999823  0.250000  1
  Lu  Lu1  1  0.666723  0.333446  0.250000  1
  Lu  Lu2  1  0.000088  0.000177  0.750000  1
  Lu  Lu3  1  0.333277  0.666554  0.750000  1
  Si  Si4  1  0.500000  0.000000  0.000000  1
  Si  Si5  1  0.000000  0.500000  0.000000  1
  Si  Si6  1  0.499999  0.500000  0.000000  1
  Si  Si7  1  0.500000  0.000000  0.500000  1
  Si  Si8  1  0.000000  0.500000  0.500000  1
  Si  Si9  1  0.499999  0.500000  0.500000  1
  Ni  Ni10  1  0.340020  0.170924  0.022743  1
  Ni  Ni11  1  0.830905  0.170924  0.022743  1
  Ni  Ni12  1  0.830037  0.660073  0.022733  1
  Ni  Ni13  1  0.333666  0.667331  0.099594  1
  Ni  Ni14  1  0.038450  0.368615  0.250000  1
  Ni  Ni15  1  0.330165  0.368615  0.250000  1
  Ni  Ni16  1  0.038810  0.669812  0.250000  1
  Ni  Ni17  1  0.631001  0.669812  0.250000  1
  Ni  Ni18  1  0.330546  0.961700  0.250000  1
  Ni  Ni19  1  0.631154  0.961700  0.250000  1
  Ni  Ni20  1  0.333666  0.667331  0.400406  1
  Ni  Ni21  1  0.830037  0.660073  0.477267  1
  Ni  Ni22  1  0.340020  0.170924  0.477258  1
  Ni  Ni23  1  0.830905  0.170924  0.477258  1
  Ni  Ni24  1  0.169095  0.829075  0.522743  1
  Ni  Ni25  1  0.659980  0.829075  0.522743  1
  Ni  Ni26  1  0.169964  0.339928  0.522732  1
  Ni  Ni27  1  0.666334  0.332668  0.599593  1
  Ni  Ni28  1  0.368846  0.038300  0.750000  1
  Ni  Ni29  1  0.669454  0.038300  0.750000  1
  Ni  Ni30  1  0.368999  0.330188  0.750000  1
  Ni  Ni31  1  0.961190  0.330188  0.750000  1
  Ni  Ni32  1  0.669835  0.631385  0.750000  1
  Ni  Ni33  1  0.961550  0.631385  0.750000  1
  Ni  Ni34  1  0.666334  0.332668  0.900407  1
  Ni  Ni35  1  0.169964  0.339928  0.977267  1
  Ni  Ni36  1  0.169095  0.829075  0.977257  1
  Ni  Ni37  1  0.659980  0.829075  0.977257  1
