# generated using pymatgen
data_Tb4Yb(Cd2Pt)2
_symmetry_space_group_name_H-M   'P 1'
_cell_length_a   3.72561400
_cell_length_b   8.00059900
_cell_length_c   18.26753000
_cell_angle_alpha   90.00000000
_cell_angle_beta   90.00000000
_cell_angle_gamma   90.00000000
_symmetry_Int_Tables_number   1
_chemical_formula_structural   Tb4Yb(Cd2Pt)2
_chemical_formula_sum   'Tb8 Yb2 Cd8 Pt4'
_cell_volume   544.50289071
_cell_formula_units_Z   2
loop_
 _symmetry_equiv_pos_site_id
 _symmetry_equiv_pos_as_xyz
  1  'x, y, z'
loop_
 _atom_site_type_symbol
 _atom_site_label
 _atom_site_symmetry_multiplicity
 _atom_site_fract_x
 _atom_site_fract_y
 _atom_site_fract_z
 _atom_site_occupancy
  Tb  Tb0  1  0.000000  0.114966  0.414941  1
  Tb  Tb1  1  0.000000  0.885034  0.585059  1
  Tb  Tb2  1  0.000000  0.385034  0.914941  1
  Tb  Tb3  1  0.000000  0.614966  0.085059  1
  Tb  Tb4  1  0.000000  0.241364  0.218283  1
  Tb  Tb5  1  0.000000  0.758636  0.781717  1
  Tb  Tb6  1  0.000000  0.258636  0.718283  1
  Tb  Tb7  1  0.000000  0.741364  0.281717  1
  Yb  Yb8  1  0.000000  0.000000  0.000000  1
  Yb  Yb9  1  0.000000  0.500000  0.500000  1
  Cd  Cd10  1  0.500000  0.425741  0.351999  1
  Cd  Cd11  1  0.500000  0.574259  0.648001  1
  Cd  Cd12  1  0.500000  0.074259  0.851999  1
  Cd  Cd13  1  0.500000  0.925741  0.148001  1
  Cd  Cd14  1  0.500000  0.288995  0.065740  1
  Cd  Cd15  1  0.500000  0.711005  0.934260  1
  Cd  Cd16  1  0.500000  0.211005  0.565740  1
  Cd  Cd17  1  0.500000  0.788995  0.434260  1
  Pt  Pt18  1  0.500000  0.028845  0.303934  1
  Pt  Pt19  1  0.500000  0.971155  0.696066  1
  Pt  Pt20  1  0.500000  0.471155  0.803934  1
  Pt  Pt21  1  0.500000  0.528845  0.196066  1
