# generated using pymatgen
data_HgIrRh3Pb3O14
_symmetry_space_group_name_H-M   'P 1'
_cell_length_a   7.39803111
_cell_length_b   7.36913357
_cell_length_c   7.26544636
_cell_angle_alpha   59.52841656
_cell_angle_beta   59.39448223
_cell_angle_gamma   59.87021125
_symmetry_Int_Tables_number   1
_chemical_formula_structural   HgIrRh3Pb3O14
_chemical_formula_sum   'Hg1 Ir1 Rh3 Pb3 O14'
_cell_volume   277.50725242
_cell_formula_units_Z   1
loop_
 _symmetry_equiv_pos_site_id
 _symmetry_equiv_pos_as_xyz
  1  'x, y, z'
loop_
 _atom_site_type_symbol
 _atom_site_label
 _atom_site_symmetry_multiplicity
 _atom_site_fract_x
 _atom_site_fract_y
 _atom_site_fract_z
 _atom_site_occupancy
  Hg  Hg0  1  0.125000  0.125000  0.625000  1
  Ir  Ir1  1  0.625000  0.125000  0.625000  1
  Rh  Rh2  1  0.125000  0.625000  0.625000  1
  Rh  Rh3  1  0.625000  0.625000  0.125000  1
  Rh  Rh4  1  0.625000  0.625000  0.625000  1
  Pb  Pb5  1  0.625000  0.125000  0.125000  1
  Pb  Pb6  1  0.125000  0.625000  0.125000  1
  Pb  Pb7  1  0.125000  0.125000  0.125000  1
  O  O8  1  0.705377  0.710319  0.290108  1
  O  O9  1  0.307159  0.299495  0.708958  1
  O  O10  1  0.684386  0.299495  0.708958  1
  O  O11  1  0.294194  0.710319  0.290108  1
  O  O12  1  0.296305  0.696837  0.710552  1
  O  O13  1  0.706342  0.294172  0.293143  1
  O  O14  1  0.544623  0.539681  0.959892  1
  O  O15  1  0.942841  0.950505  0.541042  1
  O  O16  1  0.565614  0.950505  0.541042  1
  O  O17  1  0.955806  0.539681  0.959892  1
  O  O18  1  0.953695  0.553163  0.539448  1
  O  O19  1  0.543658  0.955828  0.956857  1
  O  O20  1  0.244348  0.241972  0.269331  1
  O  O21  1  0.005652  0.008028  0.980669  1
