# generated using pymatgen
data_Ti6BAs5Ru6
_symmetry_space_group_name_H-M   'P 1'
_cell_length_a   7.41681239
_cell_length_b   7.41589812
_cell_length_c   7.41681359
_cell_angle_alpha   127.66739917
_cell_angle_beta   123.05178311
_cell_angle_gamma   81.00099202
_symmetry_Int_Tables_number   1
_chemical_formula_structural   Ti6BAs5Ru6
_chemical_formula_sum   'Ti6 B1 As5 Ru6'
_cell_volume   260.86686368
_cell_formula_units_Z   1
loop_
 _symmetry_equiv_pos_site_id
 _symmetry_equiv_pos_as_xyz
  1  'x, y, z'
loop_
 _atom_site_type_symbol
 _atom_site_label
 _atom_site_symmetry_multiplicity
 _atom_site_fract_x
 _atom_site_fract_y
 _atom_site_fract_z
 _atom_site_occupancy
  Ti  Ti0  1  0.454150  0.665760  0.711610  1
  Ti  Ti1  1  0.554485  0.254461  0.199976  1
  Ti  Ti2  1  0.750031  0.835927  0.585896  1
  Ti  Ti3  1  0.250042  0.855245  0.105202  1
  Ti  Ti4  1  0.045823  0.257483  0.711660  1
  Ti  Ti5  1  0.945487  0.645328  0.199841  1
  B  B6  1  0.249973  0.254126  0.504154  1
  As  As7  1  0.749914  0.235415  0.985502  1
  As  As8  1  0.333888  0.589221  0.256234  1
  As  As9  1  0.667087  0.922404  0.256268  1
  As  As10  1  0.166134  0.922404  0.755316  1
  As  As11  1  0.832988  0.589221  0.755332  1
  Ru  Ru12  1  0.463055  0.497609  0.960640  1
  Ru  Ru13  1  0.036970  0.497609  0.534554  1
  Ru  Ru14  1  0.159378  0.257313  0.170813  1
  Ru  Ru15  1  0.913495  0.011381  0.170781  1
  Ru  Ru16  1  0.340600  0.011381  0.597886  1
  Ru  Ru17  1  0.586500  0.257313  0.597935  1
