# generated using pymatgen
data_Ho6TcRh
_symmetry_space_group_name_H-M   'P 1'
_cell_length_a   6.29104100
_cell_length_b   7.29702000
_cell_length_c   9.16457100
_cell_angle_alpha   90.00000000
_cell_angle_beta   90.00000000
_cell_angle_gamma   90.00000000
_symmetry_Int_Tables_number   1
_chemical_formula_structural   Ho6TcRh
_chemical_formula_sum   'Ho12 Tc2 Rh2'
_cell_volume   420.70743995
_cell_formula_units_Z   2
loop_
 _symmetry_equiv_pos_site_id
 _symmetry_equiv_pos_as_xyz
  1  'x, y, z'
loop_
 _atom_site_type_symbol
 _atom_site_label
 _atom_site_symmetry_multiplicity
 _atom_site_fract_x
 _atom_site_fract_y
 _atom_site_fract_z
 _atom_site_occupancy
  Ho  Ho0  1  0.670738  0.176412  0.065265  1
  Ho  Ho1  1  0.170738  0.323588  0.934735  1
  Ho  Ho2  1  0.832060  0.679155  0.438427  1
  Ho  Ho3  1  0.332060  0.820845  0.561573  1
  Ho  Ho4  1  0.332060  0.820845  0.938427  1
  Ho  Ho5  1  0.832060  0.679155  0.061573  1
  Ho  Ho6  1  0.170738  0.323588  0.565265  1
  Ho  Ho7  1  0.670738  0.176412  0.434735  1
  Ho  Ho8  1  0.867416  0.960173  0.750000  1
  Ho  Ho9  1  0.367416  0.539827  0.250000  1
  Ho  Ho10  1  0.630938  0.461518  0.750000  1
  Ho  Ho11  1  0.130938  0.038482  0.250000  1
  Tc  Tc12  1  0.038699  0.611820  0.750000  1
  Tc  Tc13  1  0.538699  0.888180  0.250000  1
  Rh  Rh14  1  0.457349  0.115565  0.750000  1
  Rh  Rh15  1  0.957349  0.384435  0.250000  1
