# generated using pymatgen
data_Pr7Ni16
_symmetry_space_group_name_H-M   'P 1'
_cell_length_a   8.84612402
_cell_length_b   8.84612484
_cell_length_c   8.84612361
_cell_angle_alpha   131.44981996
_cell_angle_beta   131.44982497
_cell_angle_gamma   71.09937370
_symmetry_Int_Tables_number   1
_chemical_formula_structural   Pr7Ni16
_chemical_formula_sum   'Pr7 Ni16'
_cell_volume   380.77579493
_cell_formula_units_Z   1
loop_
 _symmetry_equiv_pos_site_id
 _symmetry_equiv_pos_as_xyz
  1  'x, y, z'
loop_
 _atom_site_type_symbol
 _atom_site_label
 _atom_site_symmetry_multiplicity
 _atom_site_fract_x
 _atom_site_fract_y
 _atom_site_fract_z
 _atom_site_occupancy
  Pr  Pr0  1  0.095262  0.095262  0.398141  1
  Pr  Pr1  1  0.697120  0.697120  0.601859  1
  Pr  Pr2  1  0.904738  0.302880  0.000000  1
  Pr  Pr3  1  0.750000  0.250000  0.500000  1
  Pr  Pr4  1  0.500000  0.500000  0.000000  1
  Pr  Pr5  1  0.302880  0.904738  0.000000  1
  Pr  Pr6  1  0.250000  0.750000  0.500000  1
  Ni  Ni7  1  0.432204  0.195604  0.000000  1
  Ni  Ni8  1  0.682060  0.932986  0.482865  1
  Ni  Ni9  1  0.932986  0.682060  0.482865  1
  Ni  Ni10  1  0.195604  0.432204  0.000000  1
  Ni  Ni11  1  0.317940  0.800804  0.250926  1
  Ni  Ni12  1  0.941285  0.661373  0.000000  1
  Ni  Ni13  1  0.804396  0.804396  0.236600  1
  Ni  Ni14  1  0.067014  0.549878  0.749074  1
  Ni  Ni15  1  0.058715  0.058715  0.720088  1
  Ni  Ni16  1  0.661373  0.941285  0.000000  1
  Ni  Ni17  1  0.567796  0.567796  0.763400  1
  Ni  Ni18  1  0.800804  0.317940  0.250926  1
  Ni  Ni19  1  0.549878  0.067014  0.749074  1
  Ni  Ni20  1  0.199196  0.450122  0.517135  1
  Ni  Ni21  1  0.338627  0.338627  0.279912  1
  Ni  Ni22  1  0.450122  0.199196  0.517135  1
