# generated using pymatgen
data_Tb4Dy6Si5As
_symmetry_space_group_name_H-M   'P 1'
_cell_length_a   8.45728100
_cell_length_b   8.47598841
_cell_length_c   6.34906000
_cell_angle_alpha   90.00000000
_cell_angle_beta   90.00000000
_cell_angle_gamma   119.92701241
_symmetry_Int_Tables_number   1
_chemical_formula_structural   Tb4Dy6Si5As
_chemical_formula_sum   'Tb4 Dy6 Si5 As1'
_cell_volume   394.43924556
_cell_formula_units_Z   1
loop_
 _symmetry_equiv_pos_site_id
 _symmetry_equiv_pos_as_xyz
  1  'x, y, z'
loop_
 _atom_site_type_symbol
 _atom_site_label
 _atom_site_symmetry_multiplicity
 _atom_site_fract_x
 _atom_site_fract_y
 _atom_site_fract_z
 _atom_site_occupancy
  Tb  Tb0  1  0.996671  0.753310  0.750000  1
  Tb  Tb1  1  0.757817  0.000000  0.750000  1
  Tb  Tb2  1  0.243361  0.246690  0.750000  1
  Tb  Tb3  1  0.243422  0.000000  0.250000  1
  Dy  Dy4  1  0.000180  0.244434  0.250000  1
  Dy  Dy5  1  0.755745  0.755566  0.250000  1
  Dy  Dy6  1  0.333032  0.664023  0.498768  1
  Dy  Dy7  1  0.669010  0.335977  0.001232  1
  Dy  Dy8  1  0.669010  0.335977  0.498768  1
  Dy  Dy9  1  0.333032  0.664023  0.001232  1
  Si  Si10  1  0.393735  0.393073  0.250000  1
  Si  Si11  1  0.000662  0.606927  0.250000  1
  Si  Si12  1  0.999862  0.393598  0.750000  1
  Si  Si13  1  0.606264  0.606402  0.750000  1
  Si  Si14  1  0.607282  0.000000  0.250000  1
  As  As15  1  0.390914  0.000000  0.750000  1
