# generated using pymatgen
data_Mg5(Si8Ni5)2
_symmetry_space_group_name_H-M   'P 1'
_cell_length_a   8.53822400
_cell_length_b   8.53822323
_cell_length_c   8.53822400
_cell_angle_alpha   120.00000299
_cell_angle_beta   90.00000000
_cell_angle_gamma   120.00000299
_symmetry_Int_Tables_number   1
_chemical_formula_structural   Mg5(Si8Ni5)2
_chemical_formula_sum   'Mg5 Si16 Ni10'
_cell_volume   440.13667345
_cell_formula_units_Z   1
loop_
 _symmetry_equiv_pos_site_id
 _symmetry_equiv_pos_as_xyz
  1  'x, y, z'
loop_
 _atom_site_type_symbol
 _atom_site_label
 _atom_site_symmetry_multiplicity
 _atom_site_fract_x
 _atom_site_fract_y
 _atom_site_fract_z
 _atom_site_occupancy
  Mg  Mg0  1  0.000000  0.000000  0.000000  1
  Mg  Mg1  1  0.653149  0.306298  0.346850  1
  Mg  Mg2  1  0.040552  0.693701  0.346850  1
  Mg  Mg3  1  0.653149  0.693701  0.346850  1
  Mg  Mg4  1  0.653149  0.306298  0.959447  1
  Si  Si5  1  0.424621  0.849242  0.273864  1
  Si  Si6  1  0.039798  0.079596  0.404202  1
  Si  Si7  1  0.039798  0.364405  0.404202  1
  Si  Si8  1  0.324607  0.364405  0.404202  1
  Si  Si9  1  0.424621  0.849242  0.575378  1
  Si  Si10  1  0.424621  0.150757  0.575378  1
  Si  Si11  1  0.726137  0.150757  0.575379  1
  Si  Si12  1  0.039798  0.079596  0.675392  1
  Si  Si13  1  0.039798  0.635594  0.675392  1
  Si  Si14  1  0.595797  0.635594  0.675392  1
  Si  Si15  1  0.039797  0.364405  0.960202  1
  Si  Si16  1  0.324608  0.364405  0.960202  1
  Si  Si17  1  0.039797  0.635594  0.960202  1
  Si  Si18  1  0.595798  0.635594  0.960202  1
  Si  Si19  1  0.324608  0.920405  0.960202  1
  Si  Si20  1  0.595798  0.920405  0.960202  1
  Ni  Ni21  1  0.378145  0.252097  0.126048  1
  Ni  Ni22  1  0.873953  0.252097  0.126048  1
  Ni  Ni23  1  0.873953  0.747904  0.126048  1
  Ni  Ni24  1  0.741517  0.000000  0.258482  1
  Ni  Ni25  1  0.258483  0.000000  0.258483  1
  Ni  Ni26  1  0.258483  0.516967  0.258483  1
  Ni  Ni27  1  0.873953  0.747904  0.621856  1
  Ni  Ni28  1  0.741517  0.000000  0.741517  1
  Ni  Ni29  1  0.258482  0.000000  0.741517  1
  Ni  Ni30  1  0.741517  0.483034  0.741517  1
