# generated using pymatgen
data_NdHo2PaPt4
_symmetry_space_group_name_H-M   'P 1'
_cell_length_a   4.57248300
_cell_length_b   5.64357684
_cell_length_c   7.04970486
_cell_angle_alpha   91.74811330
_cell_angle_beta   90.00000000
_cell_angle_gamma   90.00000000
_symmetry_Int_Tables_number   1
_chemical_formula_structural   NdHo2PaPt4
_chemical_formula_sum   'Nd1 Ho2 Pa1 Pt4'
_cell_volume   181.83409009
_cell_formula_units_Z   1
loop_
 _symmetry_equiv_pos_site_id
 _symmetry_equiv_pos_as_xyz
  1  'x, y, z'
loop_
 _atom_site_type_symbol
 _atom_site_label
 _atom_site_symmetry_multiplicity
 _atom_site_fract_x
 _atom_site_fract_y
 _atom_site_fract_z
 _atom_site_occupancy
  Nd  Nd0  1  0.250000  0.141015  0.184062  1
  Ho  Ho1  1  0.750000  0.643677  0.317311  1
  Ho  Ho2  1  0.750000  0.854782  0.817822  1
  Pa  Pa3  1  0.250000  0.358376  0.682617  1
  Pt  Pt4  1  0.250000  0.835207  0.554525  1
  Pt  Pt5  1  0.250000  0.650209  0.033820  1
  Pt  Pt6  1  0.750000  0.169910  0.472048  1
  Pt  Pt7  1  0.750000  0.346824  0.937794  1
