# generated using pymatgen
data_DyTm3Al24Pt8Au
_symmetry_space_group_name_H-M   'P 1'
_cell_length_a   7.54051373
_cell_length_b   7.55989854
_cell_length_c   13.13829109
_cell_angle_alpha   84.55855026
_cell_angle_beta   79.01776525
_cell_angle_gamma   59.89944436
_symmetry_Int_Tables_number   1
_chemical_formula_structural   DyTm3Al24Pt8Au
_chemical_formula_sum   'Dy1 Tm3 Al24 Pt8 Au1'
_cell_volume   636.08922942
_cell_formula_units_Z   1
loop_
 _symmetry_equiv_pos_site_id
 _symmetry_equiv_pos_as_xyz
  1  'x, y, z'
loop_
 _atom_site_type_symbol
 _atom_site_label
 _atom_site_symmetry_multiplicity
 _atom_site_fract_x
 _atom_site_fract_y
 _atom_site_fract_z
 _atom_site_occupancy
  Dy  Dy0  1  0.392868  0.169214  0.808778  1
  Tm  Tm1  1  0.605972  0.831639  0.192814  1
  Tm  Tm2  1  0.734066  0.499109  0.808292  1
  Tm  Tm3  1  0.266431  0.501125  0.192181  1
  Al  Al4  1  0.683129  0.833711  0.945146  1
  Al  Al5  1  0.316104  0.166104  0.056458  1
  Al  Al6  1  0.146848  0.838872  0.560106  1
  Al  Al7  1  0.854312  0.167376  0.436399  1
  Al  Al8  1  0.488106  0.159604  0.557447  1
  Al  Al9  1  0.520276  0.833604  0.439743  1
  Al  Al10  1  0.218180  0.165338  0.327942  1
  Al  Al11  1  0.777359  0.838667  0.674074  1
  Al  Al12  1  0.440238  0.507049  0.674248  1
  Al  Al13  1  0.563103  0.493711  0.327626  1
  Al  Al14  1  0.108286  0.154712  0.672936  1
  Al  Al15  1  0.890687  0.839821  0.328931  1
  Al  Al16  1  0.353837  0.498833  0.944978  1
  Al  Al17  1  0.646476  0.501180  0.056297  1
  Al  Al18  1  0.015281  0.168188  0.952984  1
  Al  Al19  1  0.983852  0.831915  0.048371  1
  Al  Al20  1  0.188095  0.499664  0.436412  1
  Al  Al21  1  0.806890  0.500083  0.557436  1
  Al  Al22  1  0.733616  0.163982  0.183259  1
  Al  Al23  1  0.267211  0.835093  0.816949  1
  Al  Al24  1  0.060264  0.633312  0.818133  1
  Al  Al25  1  0.938557  0.369123  0.184605  1
  Al  Al26  1  0.854146  0.042406  0.816354  1
  Al  Al27  1  0.145159  0.957812  0.183792  1
  Pt  Pt28  1  0.879731  0.509164  0.360639  1
  Pt  Pt29  1  0.657200  0.171575  0.999472  1
  Pt  Pt30  1  0.343113  0.828234  0.999880  1
  Pt  Pt31  1  0.537060  0.166850  0.360842  1
  Pt  Pt32  1  0.462976  0.832850  0.638420  1
  Pt  Pt33  1  0.778838  0.175648  0.636976  1
  Pt  Pt34  1  0.221848  0.824294  0.362182  1
  Pt  Pt35  1  0.999877  0.499993  0.000317  1
  Au  Au36  1  0.120004  0.490146  0.638575  1
