# generated using pymatgen
data_HoTm9(In2Pd)4
_symmetry_space_group_name_H-M   'P 1'
_cell_length_a   3.57574700
_cell_length_b   8.02575454
_cell_length_c   18.04063100
_cell_angle_alpha   90.02109572
_cell_angle_beta   90.00000000
_cell_angle_gamma   90.00000000
_symmetry_Int_Tables_number   1
_chemical_formula_structural   HoTm9(In2Pd)4
_chemical_formula_sum   'Ho1 Tm9 In8 Pd4'
_cell_volume   517.73121530
_cell_formula_units_Z   1
loop_
 _symmetry_equiv_pos_site_id
 _symmetry_equiv_pos_as_xyz
  1  'x, y, z'
loop_
 _atom_site_type_symbol
 _atom_site_label
 _atom_site_symmetry_multiplicity
 _atom_site_fract_x
 _atom_site_fract_y
 _atom_site_fract_z
 _atom_site_occupancy
  Ho  Ho0  1  0.000000  0.500000  0.500000  1
  Tm  Tm1  1  0.000000  0.000000  0.000000  1
  Tm  Tm2  1  0.000000  0.742699  0.279716  1
  Tm  Tm3  1  0.000000  0.257301  0.720284  1
  Tm  Tm4  1  0.000000  0.757064  0.779863  1
  Tm  Tm5  1  0.000000  0.242936  0.220137  1
  Tm  Tm6  1  0.000000  0.618420  0.083648  1
  Tm  Tm7  1  0.000000  0.381580  0.916352  1
  Tm  Tm8  1  0.000000  0.881221  0.584037  1
  Tm  Tm9  1  0.000000  0.118779  0.415963  1
  In  In10  1  0.500000  0.708505  0.932550  1
  In  In11  1  0.500000  0.291495  0.067450  1
  In  In12  1  0.500000  0.793486  0.432618  1
  In  In13  1  0.500000  0.206514  0.567382  1
  In  In14  1  0.500000  0.577837  0.649571  1
  In  In15  1  0.500000  0.422163  0.350429  1
  In  In16  1  0.500000  0.922992  0.148842  1
  In  In17  1  0.500000  0.077008  0.851158  1
  Pd  Pd18  1  0.500000  0.525786  0.195552  1
  Pd  Pd19  1  0.500000  0.474214  0.804448  1
  Pd  Pd20  1  0.500000  0.974429  0.695942  1
  Pd  Pd21  1  0.500000  0.025571  0.304058  1
