# generated using pymatgen
data_Sc10Ga3SiSb2
_symmetry_space_group_name_H-M   'P 1'
_cell_length_a   8.15614357
_cell_length_b   8.15290339
_cell_length_c   5.99989500
_cell_angle_alpha   90.00000000
_cell_angle_beta   90.00000000
_cell_angle_gamma   120.04028898
_symmetry_Int_Tables_number   1
_chemical_formula_structural   Sc10Ga3SiSb2
_chemical_formula_sum   'Sc10 Ga3 Si1 Sb2'
_cell_volume   345.37824818
_cell_formula_units_Z   1
loop_
 _symmetry_equiv_pos_site_id
 _symmetry_equiv_pos_as_xyz
  1  'x, y, z'
loop_
 _atom_site_type_symbol
 _atom_site_label
 _atom_site_symmetry_multiplicity
 _atom_site_fract_x
 _atom_site_fract_y
 _atom_site_fract_z
 _atom_site_occupancy
  Sc  Sc0  1  0.314344  0.656407  0.999560  1
  Sc  Sc1  1  0.672591  0.335934  0.500554  1
  Sc  Sc2  1  0.672591  0.335934  0.999446  1
  Sc  Sc3  1  0.314344  0.656407  0.500440  1
  Sc  Sc4  1  0.231487  0.999808  0.250000  1
  Sc  Sc5  1  0.230580  0.232543  0.750000  1
  Sc  Sc6  1  0.013090  0.763335  0.750000  1
  Sc  Sc7  1  0.013174  0.249137  0.250000  1
  Sc  Sc8  1  0.766479  0.752490  0.250000  1
  Sc  Sc9  1  0.767323  0.015847  0.750000  1
  Ga  Ga10  1  0.997730  0.600722  0.250000  1
  Ga  Ga11  1  0.399262  0.396787  0.250000  1
  Ga  Ga12  1  0.399181  0.002933  0.750000  1
  Si  Si13  1  0.997590  0.396033  0.750000  1
  Sb  Sb14  1  0.605021  0.995513  0.250000  1
  Sb  Sb15  1  0.605210  0.610170  0.750000  1
