# generated using pymatgen
data_Tm9Cd(SiB4)4
_symmetry_space_group_name_H-M   'P 1'
_cell_length_a   7.13246200
_cell_length_b   7.13246200
_cell_length_c   7.86031400
_cell_angle_alpha   90.00000000
_cell_angle_beta   90.00000000
_cell_angle_gamma   90.00000000
_symmetry_Int_Tables_number   1
_chemical_formula_structural   Tm9Cd(SiB4)4
_chemical_formula_sum   'Tm9 Cd1 Si4 B16'
_cell_volume   399.87000528
_cell_formula_units_Z   1
loop_
 _symmetry_equiv_pos_site_id
 _symmetry_equiv_pos_as_xyz
  1  'x, y, z'
loop_
 _atom_site_type_symbol
 _atom_site_label
 _atom_site_symmetry_multiplicity
 _atom_site_fract_x
 _atom_site_fract_y
 _atom_site_fract_z
 _atom_site_occupancy
  Tm  Tm0  1  0.681211  0.180274  0.227836  1
  Tm  Tm1  1  0.318789  0.819726  0.772164  1
  Tm  Tm2  1  0.318789  0.819726  0.227836  1
  Tm  Tm3  1  0.819726  0.681211  0.227836  1
  Tm  Tm4  1  0.819726  0.681211  0.772164  1
  Tm  Tm5  1  0.681211  0.180274  0.772164  1
  Tm  Tm6  1  0.180274  0.318789  0.772164  1
  Tm  Tm7  1  0.180274  0.318789  0.227836  1
  Tm  Tm8  1  0.500000  0.500000  0.500000  1
  Cd  Cd9  1  0.000000  0.000000  0.500000  1
  Si  Si10  1  0.119183  0.612747  0.500000  1
  Si  Si11  1  0.880817  0.387253  0.500000  1
  Si  Si12  1  0.387253  0.119183  0.500000  1
  Si  Si13  1  0.612747  0.880817  0.500000  1
  B  B14  1  0.175444  0.038643  0.000000  1
  B  B15  1  0.824556  0.961357  0.000000  1
  B  B16  1  0.961357  0.175444  0.000000  1
  B  B17  1  0.326911  0.539539  0.000000  1
  B  B18  1  0.038643  0.824556  0.000000  1
  B  B19  1  0.673089  0.460461  0.000000  1
  B  B20  1  0.539539  0.673089  0.000000  1
  B  B21  1  0.460461  0.326911  0.000000  1
  B  B22  1  0.088980  0.587821  0.000000  1
  B  B23  1  0.911020  0.412179  0.000000  1
  B  B24  1  0.412179  0.088980  0.000000  1
  B  B25  1  0.587821  0.911020  0.000000  1
  B  B26  1  0.000000  0.000000  0.160098  1
  B  B27  1  0.000000  0.000000  0.839902  1
  B  B28  1  0.500000  0.500000  0.833273  1
  B  B29  1  0.500000  0.500000  0.166727  1
