# generated using pymatgen
data_Tb2Sn2IrRh
_symmetry_space_group_name_H-M   'P 1'
_cell_length_a   7.49250600
_cell_length_b   7.49250554
_cell_length_c   7.95090900
_cell_angle_alpha   90.00000000
_cell_angle_beta   90.00000000
_cell_angle_gamma   120.00000204
_symmetry_Int_Tables_number   1
_chemical_formula_structural   Tb2Sn2IrRh
_chemical_formula_sum   'Tb6 Sn6 Ir3 Rh3'
_cell_volume   386.54635078
_cell_formula_units_Z   3
loop_
 _symmetry_equiv_pos_site_id
 _symmetry_equiv_pos_as_xyz
  1  'x, y, z'
loop_
 _atom_site_type_symbol
 _atom_site_label
 _atom_site_symmetry_multiplicity
 _atom_site_fract_x
 _atom_site_fract_y
 _atom_site_fract_z
 _atom_site_occupancy
  Tb  Tb0  1  0.591269  0.001093  0.750851  1
  Tb  Tb1  1  0.409824  0.408731  0.750851  1
  Tb  Tb2  1  0.998907  0.590176  0.750851  1
  Tb  Tb3  1  0.592585  0.002711  0.249052  1
  Tb  Tb4  1  0.410126  0.407415  0.249052  1
  Tb  Tb5  1  0.997289  0.589874  0.249052  1
  Sn  Sn6  1  0.255792  0.998988  0.000340  1
  Sn  Sn7  1  0.742497  0.743162  0.500171  1
  Sn  Sn8  1  0.000665  0.257503  0.500171  1
  Sn  Sn9  1  0.001012  0.256805  0.000340  1
  Sn  Sn10  1  0.743195  0.744208  0.000340  1
  Sn  Sn11  1  0.256838  0.999335  0.500171  1
  Ir  Ir12  1  0.666667  0.333333  0.998815  1
  Ir  Ir13  1  0.666667  0.333333  0.501097  1
  Ir  Ir14  1  0.333333  0.666667  0.001660  1
  Rh  Rh15  1  0.333333  0.666667  0.497045  1
  Rh  Rh16  1  0.000000  0.000000  0.750004  1
  Rh  Rh17  1  0.000000  0.000000  0.250139  1
