# generated using pymatgen
data_Dy4TaVOs6
_symmetry_space_group_name_H-M   'P 1'
_cell_length_a   5.24322311
_cell_length_b   5.24322537
_cell_length_c   8.99401100
_cell_angle_alpha   90.00000000
_cell_angle_beta   90.00000000
_cell_angle_gamma   116.03155108
_symmetry_Int_Tables_number   1
_chemical_formula_structural   Dy4TaVOs6
_chemical_formula_sum   'Dy4 Ta1 V1 Os6'
_cell_volume   222.17425900
_cell_formula_units_Z   1
loop_
 _symmetry_equiv_pos_site_id
 _symmetry_equiv_pos_as_xyz
  1  'x, y, z'
loop_
 _atom_site_type_symbol
 _atom_site_label
 _atom_site_symmetry_multiplicity
 _atom_site_fract_x
 _atom_site_fract_y
 _atom_site_fract_z
 _atom_site_occupancy
  Dy  Dy0  1  0.329350  0.670650  0.439252  1
  Dy  Dy1  1  0.669137  0.330863  0.567176  1
  Dy  Dy2  1  0.669137  0.330863  0.932824  1
  Dy  Dy3  1  0.329350  0.670650  0.060748  1
  Ta  Ta4  1  0.842327  0.157673  0.250000  1
  V  V5  1  0.157691  0.842309  0.750000  1
  Os  Os6  1  0.002057  0.997943  0.506048  1
  Os  Os7  1  0.002057  0.997943  0.993952  1
  Os  Os8  1  0.824355  0.649268  0.250000  1
  Os  Os9  1  0.350732  0.175645  0.250000  1
  Os  Os10  1  0.176568  0.352762  0.750000  1
  Os  Os11  1  0.647238  0.823432  0.750000  1
