# generated using pymatgen
data_TbHo2Sc3MnBi2
_symmetry_space_group_name_H-M   'P 1'
_cell_length_a   7.94242300
_cell_length_b   7.94281289
_cell_length_c   4.26660100
_cell_angle_alpha   90.00000000
_cell_angle_beta   90.00000000
_cell_angle_gamma   120.00161941
_symmetry_Int_Tables_number   1
_chemical_formula_structural   TbHo2Sc3MnBi2
_chemical_formula_sum   'Tb1 Ho2 Sc3 Mn1 Bi2'
_cell_volume   233.09498011
_cell_formula_units_Z   1
loop_
 _symmetry_equiv_pos_site_id
 _symmetry_equiv_pos_as_xyz
  1  'x, y, z'
loop_
 _atom_site_type_symbol
 _atom_site_label
 _atom_site_symmetry_multiplicity
 _atom_site_fract_x
 _atom_site_fract_y
 _atom_site_fract_z
 _atom_site_occupancy
  Tb  Tb0  1  0.000000  0.611050  0.500000  1
  Ho  Ho1  1  0.388447  0.388321  0.500000  1
  Ho  Ho2  1  0.611553  0.999874  0.500000  1
  Sc  Sc3  1  0.223871  0.000410  0.000000  1
  Sc  Sc4  1  0.776129  0.776539  0.000000  1
  Sc  Sc5  1  0.000000  0.223585  0.000000  1
  Mn  Mn6  1  0.000000  0.000606  0.500000  1
  Bi  Bi7  1  0.333934  0.666775  0.000000  1
  Bi  Bi8  1  0.666066  0.332841  0.000000  1
