# generated using pymatgen
data_HoEr3BOs2C3
_symmetry_space_group_name_H-M   'P 1'
_cell_length_a   5.09138400
_cell_length_b   6.52219770
_cell_length_c   9.76048044
_cell_angle_alpha   90.25657918
_cell_angle_beta   90.00000000
_cell_angle_gamma   90.00000000
_symmetry_Int_Tables_number   1
_chemical_formula_structural   HoEr3BOs2C3
_chemical_formula_sum   'Ho2 Er6 B2 Os4 C6'
_cell_volume   324.11315100
_cell_formula_units_Z   2
loop_
 _symmetry_equiv_pos_site_id
 _symmetry_equiv_pos_as_xyz
  1  'x, y, z'
loop_
 _atom_site_type_symbol
 _atom_site_label
 _atom_site_symmetry_multiplicity
 _atom_site_fract_x
 _atom_site_fract_y
 _atom_site_fract_z
 _atom_site_occupancy
  Ho  Ho0  1  0.750000  0.973213  0.716013  1
  Ho  Ho1  1  0.250000  0.026787  0.283987  1
  Er  Er2  1  0.250000  0.678661  0.550569  1
  Er  Er3  1  0.750000  0.321339  0.449431  1
  Er  Er4  1  0.750000  0.826712  0.053409  1
  Er  Er5  1  0.250000  0.173288  0.946591  1
  Er  Er6  1  0.250000  0.523662  0.211903  1
  Er  Er7  1  0.750000  0.476338  0.788097  1
  B  B8  1  0.250000  0.450918  0.757350  1
  B  B9  1  0.750000  0.549082  0.242650  1
  Os  Os10  1  0.250000  0.725707  0.864235  1
  Os  Os11  1  0.750000  0.274293  0.135765  1
  Os  Os12  1  0.750000  0.788070  0.371948  1
  Os  Os13  1  0.250000  0.211930  0.628052  1
  C  C14  1  0.750000  0.045055  0.260493  1
  C  C15  1  0.250000  0.954945  0.739507  1
  C  C16  1  0.250000  0.823346  0.052702  1
  C  C17  1  0.750000  0.176654  0.947298  1
  C  C18  1  0.750000  0.673344  0.554704  1
  C  C19  1  0.250000  0.326656  0.445296  1
