# generated using pymatgen
data_YbDy7Y2Cd3Ru
_symmetry_space_group_name_H-M   'P 1'
_cell_length_a   9.63531600
_cell_length_b   9.63543793
_cell_length_c   9.81576200
_cell_angle_alpha   90.00000000
_cell_angle_beta   90.00000000
_cell_angle_gamma   120.00041650
_symmetry_Int_Tables_number   1
_chemical_formula_structural   YbDy7Y2Cd3Ru
_chemical_formula_sum   'Yb2 Dy14 Y4 Cd6 Ru2'
_cell_volume   789.20576479
_cell_formula_units_Z   2
loop_
 _symmetry_equiv_pos_site_id
 _symmetry_equiv_pos_as_xyz
  1  'x, y, z'
loop_
 _atom_site_type_symbol
 _atom_site_label
 _atom_site_symmetry_multiplicity
 _atom_site_fract_x
 _atom_site_fract_y
 _atom_site_fract_z
 _atom_site_occupancy
  Yb  Yb0  1  0.000006  0.000003  0.500020  1
  Yb  Yb1  1  0.000006  0.000003  0.999980  1
  Dy  Dy2  1  0.210848  0.789242  0.439696  1
  Dy  Dy3  1  0.210848  0.421608  0.439696  1
  Dy  Dy4  1  0.578396  0.789199  0.439673  1
  Dy  Dy5  1  0.789167  0.210770  0.560289  1
  Dy  Dy6  1  0.789167  0.578394  0.560289  1
  Dy  Dy7  1  0.421630  0.210814  0.560253  1
  Dy  Dy8  1  0.789167  0.210770  0.939711  1
  Dy  Dy9  1  0.789167  0.578394  0.939711  1
  Dy  Dy10  1  0.421630  0.210814  0.939747  1
  Dy  Dy11  1  0.210848  0.789242  0.060304  1
  Dy  Dy12  1  0.210848  0.421608  0.060304  1
  Dy  Dy13  1  0.578396  0.789199  0.060327  1
  Dy  Dy14  1  0.541931  0.458048  0.250000  1
  Dy  Dy15  1  0.541931  0.083882  0.250000  1
  Y  Y16  1  0.916003  0.458002  0.250000  1
  Y  Y17  1  0.458045  0.541944  0.750000  1
  Y  Y18  1  0.458045  0.916100  0.750000  1
  Y  Y19  1  0.083899  0.541950  0.750000  1
  Cd  Cd20  1  0.884615  0.115340  0.250000  1
  Cd  Cd21  1  0.884615  0.769276  0.250000  1
  Cd  Cd22  1  0.230758  0.115379  0.250000  1
  Cd  Cd23  1  0.115360  0.884644  0.750000  1
  Cd  Cd24  1  0.115360  0.230715  0.750000  1
  Cd  Cd25  1  0.769284  0.884642  0.750000  1
  Ru  Ru26  1  0.333374  0.666688  0.250000  1
  Ru  Ru27  1  0.666657  0.333328  0.750000  1
