# generated using pymatgen
data_Ce2AgSb4Pd
_symmetry_space_group_name_H-M   'P 1'
_cell_length_a   4.40487700
_cell_length_b   4.40487700
_cell_length_c   10.14623700
_cell_angle_alpha   90.00000000
_cell_angle_beta   90.00000000
_cell_angle_gamma   90.00000000
_symmetry_Int_Tables_number   1
_chemical_formula_structural   Ce2AgSb4Pd
_chemical_formula_sum   'Ce2 Ag1 Sb4 Pd1'
_cell_volume   196.86684179
_cell_formula_units_Z   1
loop_
 _symmetry_equiv_pos_site_id
 _symmetry_equiv_pos_as_xyz
  1  'x, y, z'
loop_
 _atom_site_type_symbol
 _atom_site_label
 _atom_site_symmetry_multiplicity
 _atom_site_fract_x
 _atom_site_fract_y
 _atom_site_fract_z
 _atom_site_occupancy
  Ce  Ce0  1  0.000000  0.500000  0.753686  1
  Ce  Ce1  1  0.500000  0.000000  0.246314  1
  Ag  Ag2  1  0.500000  0.500000  0.500000  1
  Sb  Sb3  1  0.500000  0.500000  0.000000  1
  Sb  Sb4  1  0.000000  0.000000  0.000000  1
  Sb  Sb5  1  0.000000  0.500000  0.325014  1
  Sb  Sb6  1  0.500000  0.000000  0.674986  1
  Pd  Pd7  1  0.000000  0.000000  0.500000  1
