# generated using pymatgen
data_Dy7Sn22Ru6Pb
_symmetry_space_group_name_H-M   'P 1'
_cell_length_a   9.86499400
_cell_length_b   9.86499538
_cell_length_c   10.10972400
_cell_angle_alpha   90.00000000
_cell_angle_beta   90.00000000
_cell_angle_gamma   119.99999539
_symmetry_Int_Tables_number   1
_chemical_formula_structural   Dy7Sn22Ru6Pb
_chemical_formula_sum   'Dy7 Sn22 Ru6 Pb1'
_cell_volume   852.04721769
_cell_formula_units_Z   1
loop_
 _symmetry_equiv_pos_site_id
 _symmetry_equiv_pos_as_xyz
  1  'x, y, z'
loop_
 _atom_site_type_symbol
 _atom_site_label
 _atom_site_symmetry_multiplicity
 _atom_site_fract_x
 _atom_site_fract_y
 _atom_site_fract_z
 _atom_site_occupancy
  Dy  Dy0  1  0.000000  0.000000  0.000000  1
  Dy  Dy1  1  0.484394  0.515606  0.302946  1
  Dy  Dy2  1  0.515606  0.484394  0.697054  1
  Dy  Dy3  1  0.484394  0.968789  0.302946  1
  Dy  Dy4  1  0.515606  0.031211  0.697054  1
  Dy  Dy5  1  0.031211  0.515606  0.302946  1
  Dy  Dy6  1  0.968789  0.484394  0.697054  1
  Sn  Sn7  1  0.348942  0.000000  0.000000  1
  Sn  Sn8  1  0.651058  0.000000  0.000000  1
  Sn  Sn9  1  0.000000  0.348942  0.000000  1
  Sn  Sn10  1  0.000000  0.651058  0.000000  1
  Sn  Sn11  1  0.651058  0.651058  0.000000  1
  Sn  Sn12  1  0.348942  0.348942  0.000000  1
  Sn  Sn13  1  0.333333  0.666667  0.821771  1
  Sn  Sn14  1  0.666667  0.333333  0.178229  1
  Sn  Sn15  1  0.780077  0.219923  0.462598  1
  Sn  Sn16  1  0.219923  0.780077  0.537402  1
  Sn  Sn17  1  0.780077  0.560154  0.462598  1
  Sn  Sn18  1  0.219923  0.439846  0.537402  1
  Sn  Sn19  1  0.439846  0.219923  0.462598  1
  Sn  Sn20  1  0.560154  0.780077  0.537402  1
  Sn  Sn21  1  0.333333  0.666667  0.127274  1
  Sn  Sn22  1  0.666667  0.333333  0.872726  1
  Sn  Sn23  1  0.119545  0.880455  0.270621  1
  Sn  Sn24  1  0.880455  0.119545  0.729379  1
  Sn  Sn25  1  0.119545  0.239090  0.270621  1
  Sn  Sn26  1  0.880455  0.760910  0.729379  1
  Sn  Sn27  1  0.760910  0.880455  0.270621  1
  Sn  Sn28  1  0.239090  0.119545  0.729379  1
  Ru  Ru29  1  0.830192  0.169808  0.202469  1
  Ru  Ru30  1  0.169808  0.830192  0.797531  1
  Ru  Ru31  1  0.830192  0.660384  0.202469  1
  Ru  Ru32  1  0.169808  0.339616  0.797531  1
  Ru  Ru33  1  0.339616  0.169808  0.202469  1
  Ru  Ru34  1  0.660384  0.830192  0.797531  1
  Pb  Pb35  1  0.000000  0.000000  0.500000  1
