# generated using pymatgen
data_TbTm7Re3B24Rh
_symmetry_space_group_name_H-M   'P 1'
_cell_length_a   3.64701400
_cell_length_b   9.10535922
_cell_length_c   11.48239016
_cell_angle_alpha   90.13814223
_cell_angle_beta   90.00000000
_cell_angle_gamma   90.00000000
_symmetry_Int_Tables_number   1
_chemical_formula_structural   TbTm7Re3B24Rh
_chemical_formula_sum   'Tb1 Tm7 Re3 B24 Rh1'
_cell_volume   381.29889955
_cell_formula_units_Z   1
loop_
 _symmetry_equiv_pos_site_id
 _symmetry_equiv_pos_as_xyz
  1  'x, y, z'
loop_
 _atom_site_type_symbol
 _atom_site_label
 _atom_site_symmetry_multiplicity
 _atom_site_fract_x
 _atom_site_fract_y
 _atom_site_fract_z
 _atom_site_occupancy
  Tb  Tb0  1  0.000000  0.318294  0.415434  1
  Tm  Tm1  1  0.000000  0.678675  0.591780  1
  Tm  Tm2  1  0.000000  0.826955  0.080743  1
  Tm  Tm3  1  0.000000  0.177800  0.912657  1
  Tm  Tm4  1  0.000000  0.942894  0.370126  1
  Tm  Tm5  1  0.000000  0.055754  0.629147  1
  Tm  Tm6  1  0.000000  0.441371  0.128399  1
  Tm  Tm7  1  0.000000  0.557014  0.872054  1
  Re  Re8  1  0.000000  0.362604  0.678715  1
  Re  Re9  1  0.000000  0.137448  0.179356  1
  Re  Re10  1  0.000000  0.861647  0.820769  1
  B  B11  1  0.500000  0.554594  0.434101  1
  B  B12  1  0.500000  0.447296  0.567232  1
  B  B13  1  0.500000  0.053097  0.065762  1
  B  B14  1  0.500000  0.947570  0.932812  1
  B  B15  1  0.500000  0.749487  0.420700  1
  B  B16  1  0.500000  0.249870  0.581796  1
  B  B17  1  0.500000  0.249752  0.080392  1
  B  B18  1  0.500000  0.751515  0.919349  1
  B  B19  1  0.500000  0.791479  0.264445  1
  B  B20  1  0.500000  0.208000  0.735060  1
  B  B21  1  0.500000  0.291714  0.234629  1
  B  B22  1  0.500000  0.707909  0.765749  1
  B  B23  1  0.500000  0.631814  0.183217  1
  B  B24  1  0.500000  0.369938  0.815205  1
  B  B25  1  0.500000  0.129453  0.314770  1
  B  B26  1  0.500000  0.868847  0.684939  1
  B  B27  1  0.500000  0.981234  0.211542  1
  B  B28  1  0.500000  0.018369  0.787057  1
  B  B29  1  0.500000  0.483154  0.287284  1
  B  B30  1  0.500000  0.519337  0.713046  1
  B  B31  1  0.500000  0.603816  0.029248  1
  B  B32  1  0.500000  0.398108  0.972225  1
  B  B33  1  0.500000  0.099282  0.471710  1
  B  B34  1  0.500000  0.895722  0.528044  1
  Rh  Rh35  1  0.000000  0.638187  0.320508  1
