# generated using pymatgen
data_Hf6Ti4Al12Fe5Pd2
_symmetry_space_group_name_H-M   'P 1'
_cell_length_a   8.63101117
_cell_length_b   8.62772624
_cell_length_c   8.61956271
_cell_angle_alpha   60.15527122
_cell_angle_beta   60.12701386
_cell_angle_gamma   59.92011270
_symmetry_Int_Tables_number   1
_chemical_formula_structural   Hf6Ti4Al12Fe5Pd2
_chemical_formula_sum   'Hf6 Ti4 Al12 Fe5 Pd2'
_cell_volume   454.55604729
_cell_formula_units_Z   1
loop_
 _symmetry_equiv_pos_site_id
 _symmetry_equiv_pos_as_xyz
  1  'x, y, z'
loop_
 _atom_site_type_symbol
 _atom_site_label
 _atom_site_symmetry_multiplicity
 _atom_site_fract_x
 _atom_site_fract_y
 _atom_site_fract_z
 _atom_site_occupancy
  Hf  Hf0  1  0.698203  0.698296  0.310621  1
  Hf  Hf1  1  0.301731  0.692032  0.307148  1
  Hf  Hf2  1  0.691960  0.301710  0.307204  1
  Hf  Hf3  1  0.301208  0.301125  0.691513  1
  Hf  Hf4  1  0.695872  0.311102  0.689589  1
  Hf  Hf5  1  0.311136  0.695886  0.689552  1
  Ti  Ti6  1  0.881093  0.880966  0.355482  1
  Ti  Ti7  1  0.877464  0.352740  0.876214  1
  Ti  Ti8  1  0.352745  0.877415  0.876262  1
  Ti  Ti9  1  0.890135  0.890116  0.870578  1
  Al  Al10  1  0.119554  0.119649  0.643887  1
  Al  Al11  1  0.120312  0.646452  0.122472  1
  Al  Al12  1  0.646448  0.120377  0.122411  1
  Al  Al13  1  0.112629  0.112688  0.125330  1
  Al  Al14  1  0.661120  0.661095  0.008489  1
  Al  Al15  1  0.667913  0.004357  0.659400  1
  Al  Al16  1  0.004429  0.667824  0.659360  1
  Al  Al17  1  0.666211  0.666131  0.666629  1
  Al  Al18  1  0.339841  0.339874  0.994672  1
  Al  Al19  1  0.329314  0.998813  0.341142  1
  Al  Al20  1  0.998747  0.329396  0.341166  1
  Al  Al21  1  0.333110  0.333230  0.331979  1
  Fe  Fe22  1  0.000100  0.000085  0.997935  1
  Fe  Fe23  1  0.997276  0.997256  0.506319  1
  Fe  Fe24  1  0.501443  0.996776  0.503493  1
  Fe  Fe25  1  0.996783  0.501361  0.503463  1
  Fe  Fe26  1  0.502808  0.502803  0.997347  1
  Pd  Pd27  1  0.001204  0.499223  0.000169  1
  Pd  Pd28  1  0.499212  0.001220  0.000174  1
