# generated using pymatgen
data_SrZn3Ir2
_symmetry_space_group_name_H-M   'P 1'
_cell_length_a   5.70090100
_cell_length_b   6.39066600
_cell_length_c   12.74013800
_cell_angle_alpha   90.00000000
_cell_angle_beta   90.00000000
_cell_angle_gamma   90.00000000
_symmetry_Int_Tables_number   1
_chemical_formula_structural   SrZn3Ir2
_chemical_formula_sum   'Sr4 Zn12 Ir8'
_cell_volume   464.15576807
_cell_formula_units_Z   4
loop_
 _symmetry_equiv_pos_site_id
 _symmetry_equiv_pos_as_xyz
  1  'x, y, z'
loop_
 _atom_site_type_symbol
 _atom_site_label
 _atom_site_symmetry_multiplicity
 _atom_site_fract_x
 _atom_site_fract_y
 _atom_site_fract_z
 _atom_site_occupancy
  Sr  Sr0  1  0.250000  0.638561  0.919979  1
  Sr  Sr1  1  0.250000  0.861439  0.419979  1
  Sr  Sr2  1  0.750000  0.361439  0.080021  1
  Sr  Sr3  1  0.750000  0.138561  0.580021  1
  Zn  Zn4  1  0.250000  0.356644  0.723917  1
  Zn  Zn5  1  0.250000  0.143356  0.223917  1
  Zn  Zn6  1  0.750000  0.643356  0.276083  1
  Zn  Zn7  1  0.750000  0.856644  0.776083  1
  Zn  Zn8  1  0.250000  0.944832  0.720443  1
  Zn  Zn9  1  0.250000  0.555168  0.220443  1
  Zn  Zn10  1  0.750000  0.055168  0.279557  1
  Zn  Zn11  1  0.750000  0.444832  0.779557  1
  Zn  Zn12  1  0.250000  0.417825  0.516783  1
  Zn  Zn13  1  0.250000  0.082175  0.016783  1
  Zn  Zn14  1  0.750000  0.582175  0.483217  1
  Zn  Zn15  1  0.750000  0.917825  0.983217  1
  Ir  Ir16  1  0.997532  0.150821  0.856808  1
  Ir  Ir17  1  0.502468  0.349179  0.356808  1
  Ir  Ir18  1  0.497532  0.849179  0.143192  1
  Ir  Ir19  1  0.002468  0.650821  0.643192  1
  Ir  Ir20  1  0.002468  0.849179  0.143192  1
  Ir  Ir21  1  0.497532  0.650821  0.643192  1
  Ir  Ir22  1  0.502468  0.150821  0.856808  1
  Ir  Ir23  1  0.997532  0.349179  0.356808  1
