# generated using pymatgen
data_Tb3YScIr3O14
_symmetry_space_group_name_H-M   'P 1'
_cell_length_a   7.27923097
_cell_length_b   7.27923126
_cell_length_c   7.33471790
_cell_angle_alpha   60.24993954
_cell_angle_beta   60.24993779
_cell_angle_gamma   60.00000195
_symmetry_Int_Tables_number   1
_chemical_formula_structural   Tb3YScIr3O14
_chemical_formula_sum   'Tb3 Y1 Sc1 Ir3 O14'
_cell_volume   275.84799929
_cell_formula_units_Z   1
loop_
 _symmetry_equiv_pos_site_id
 _symmetry_equiv_pos_as_xyz
  1  'x, y, z'
loop_
 _atom_site_type_symbol
 _atom_site_label
 _atom_site_symmetry_multiplicity
 _atom_site_fract_x
 _atom_site_fract_y
 _atom_site_fract_z
 _atom_site_occupancy
  Tb  Tb0  1  0.625000  0.125000  0.125000  1
  Tb  Tb1  1  0.125000  0.625000  0.125000  1
  Tb  Tb2  1  0.125000  0.125000  0.125000  1
  Y  Y3  1  0.125000  0.125000  0.625000  1
  Sc  Sc4  1  0.625000  0.625000  0.125000  1
  Ir  Ir5  1  0.125000  0.625000  0.625000  1
  Ir  Ir6  1  0.625000  0.125000  0.625000  1
  Ir  Ir7  1  0.625000  0.625000  0.625000  1
  O  O8  1  0.720038  0.720038  0.289674  1
  O  O9  1  0.296464  0.296464  0.687420  1
  O  O10  1  0.719652  0.296464  0.687420  1
  O  O11  1  0.270249  0.720038  0.289674  1
  O  O12  1  0.296464  0.719652  0.687420  1
  O  O13  1  0.720038  0.270249  0.289674  1
  O  O14  1  0.529962  0.529962  0.960326  1
  O  O15  1  0.953536  0.953536  0.562580  1
  O  O16  1  0.530348  0.953536  0.562580  1
  O  O17  1  0.979751  0.529962  0.960326  1
  O  O18  1  0.953536  0.530348  0.562580  1
  O  O19  1  0.529962  0.979751  0.960326  1
  O  O20  1  0.246963  0.246963  0.259111  1
  O  O21  1  0.003037  0.003037  0.990889  1
