# generated using pymatgen
data_LiHo6Co17P12
_symmetry_space_group_name_H-M   'P 1'
_cell_length_a   3.70595900
_cell_length_b   10.50922400
_cell_length_c   12.16635000
_cell_angle_alpha   90.00000000
_cell_angle_beta   90.00000000
_cell_angle_gamma   90.00000000
_symmetry_Int_Tables_number   1
_chemical_formula_structural   LiHo6Co17P12
_chemical_formula_sum   'Li1 Ho6 Co17 P12'
_cell_volume   473.83983160
_cell_formula_units_Z   1
loop_
 _symmetry_equiv_pos_site_id
 _symmetry_equiv_pos_as_xyz
  1  'x, y, z'
loop_
 _atom_site_type_symbol
 _atom_site_label
 _atom_site_symmetry_multiplicity
 _atom_site_fract_x
 _atom_site_fract_y
 _atom_site_fract_z
 _atom_site_occupancy
  Li  Li0  1  0.500000  0.500000  0.153078  1
  Ho  Ho1  1  0.000000  0.500000  0.522783  1
  Ho  Ho2  1  0.500000  0.000000  0.478075  1
  Ho  Ho3  1  0.500000  0.819011  0.206347  1
  Ho  Ho4  1  0.500000  0.180989  0.206347  1
  Ho  Ho5  1  0.000000  0.682535  0.794247  1
  Ho  Ho6  1  0.000000  0.317465  0.794247  1
  Co  Co7  1  0.000000  0.500000  0.985208  1
  Co  Co8  1  0.500000  0.000000  0.012671  1
  Co  Co9  1  0.500000  0.296428  0.431782  1
  Co  Co10  1  0.500000  0.703572  0.431782  1
  Co  Co11  1  0.000000  0.202253  0.570061  1
  Co  Co12  1  0.000000  0.797747  0.570061  1
  Co  Co13  1  0.500000  0.879634  0.709103  1
  Co  Co14  1  0.500000  0.120366  0.709103  1
  Co  Co15  1  0.000000  0.622278  0.292981  1
  Co  Co16  1  0.000000  0.377722  0.292981  1
  Co  Co17  1  0.500000  0.331200  0.994932  1
  Co  Co18  1  0.500000  0.668800  0.994932  1
  Co  Co19  1  0.000000  0.165275  0.003606  1
  Co  Co20  1  0.000000  0.834725  0.003606  1
  Co  Co21  1  0.000000  0.000000  0.840758  1
  Co  Co22  1  0.500000  0.500000  0.703463  1
  Co  Co23  1  0.000000  0.000000  0.296890  1
  P  P24  1  0.500000  0.310162  0.616769  1
  P  P25  1  0.500000  0.689838  0.616769  1
  P  P26  1  0.000000  0.189402  0.384773  1
  P  P27  1  0.000000  0.810598  0.384773  1
  P  P28  1  0.500000  0.500000  0.883870  1
  P  P29  1  0.000000  0.000000  0.117260  1
  P  P30  1  0.500000  0.847451  0.891958  1
  P  P31  1  0.500000  0.152549  0.891958  1
  P  P32  1  0.000000  0.656961  0.105591  1
  P  P33  1  0.000000  0.343039  0.105591  1
  P  P34  1  0.500000  0.500000  0.346171  1
  P  P35  1  0.000000  0.000000  0.655472  1
