# generated using pymatgen
data_CaAu6
_symmetry_space_group_name_H-M   'P 1'
_cell_length_a   5.57987844
_cell_length_b   5.57987841
_cell_length_c   9.21460663
_cell_angle_alpha   82.69668031
_cell_angle_beta   82.69668051
_cell_angle_gamma   89.09478114
_symmetry_Int_Tables_number   1
_chemical_formula_structural   CaAu6
_chemical_formula_sum   'Ca2 Au12'
_cell_volume   282.26089196
_cell_formula_units_Z   2
loop_
 _symmetry_equiv_pos_site_id
 _symmetry_equiv_pos_as_xyz
  1  'x, y, z'
loop_
 _atom_site_type_symbol
 _atom_site_label
 _atom_site_symmetry_multiplicity
 _atom_site_fract_x
 _atom_site_fract_y
 _atom_site_fract_z
 _atom_site_occupancy
  Ca  Ca0  1  0.314983  0.685017  0.750000  1
  Ca  Ca1  1  0.685017  0.314983  0.250000  1
  Au  Au2  1  0.042255  0.157460  0.863869  1
  Au  Au3  1  0.842540  0.957745  0.636131  1
  Au  Au4  1  0.957745  0.842540  0.136131  1
  Au  Au5  1  0.157460  0.042255  0.363869  1
  Au  Au6  1  0.779032  0.617253  0.917639  1
  Au  Au7  1  0.382747  0.220968  0.582361  1
  Au  Au8  1  0.220968  0.382747  0.082361  1
  Au  Au9  1  0.617253  0.779032  0.417639  1
  Au  Au10  1  0.835696  0.459826  0.629119  1
  Au  Au11  1  0.540174  0.164304  0.870881  1
  Au  Au12  1  0.164304  0.540174  0.370881  1
  Au  Au13  1  0.459826  0.835696  0.129119  1
