# generated using pymatgen
data_Er3Tm13(CdPt)4
_symmetry_space_group_name_H-M   'P 1'
_cell_length_a   9.57011860
_cell_length_b   9.57059686
_cell_length_c   9.57059700
_cell_angle_alpha   60.00000298
_cell_angle_beta   59.99834981
_cell_angle_gamma   59.99835277
_symmetry_Int_Tables_number   1
_chemical_formula_structural   Er3Tm13(CdPt)4
_chemical_formula_sum   'Er3 Tm13 Cd4 Pt4'
_cell_volume   619.82567335
_cell_formula_units_Z   1
loop_
 _symmetry_equiv_pos_site_id
 _symmetry_equiv_pos_as_xyz
  1  'x, y, z'
loop_
 _atom_site_type_symbol
 _atom_site_label
 _atom_site_symmetry_multiplicity
 _atom_site_fract_x
 _atom_site_fract_y
 _atom_site_fract_z
 _atom_site_occupancy
  Er  Er0  1  0.353031  0.353064  0.353064  1
  Er  Er1  1  0.353031  0.353064  0.940842  1
  Er  Er2  1  0.353031  0.940842  0.353064  1
  Tm  Tm3  1  0.941039  0.352987  0.352987  1
  Tm  Tm4  1  0.811004  0.189041  0.189041  1
  Tm  Tm5  1  0.188996  0.811016  0.811016  1
  Tm  Tm6  1  0.188996  0.811016  0.188972  1
  Tm  Tm7  1  0.811004  0.189041  0.810913  1
  Tm  Tm8  1  0.188996  0.188972  0.811016  1
  Tm  Tm9  1  0.811004  0.810913  0.189041  1
  Tm  Tm10  1  0.934837  0.565156  0.565156  1
  Tm  Tm11  1  0.565209  0.934787  0.934787  1
  Tm  Tm12  1  0.565209  0.934787  0.565217  1
  Tm  Tm13  1  0.934837  0.565156  0.934852  1
  Tm  Tm14  1  0.565209  0.565217  0.934787  1
  Tm  Tm15  1  0.934837  0.934852  0.565156  1
  Cd  Cd16  1  0.582514  0.582320  0.582320  1
  Cd  Cd17  1  0.582514  0.582320  0.252846  1
  Cd  Cd18  1  0.582514  0.252846  0.582320  1
  Cd  Cd19  1  0.252827  0.582391  0.582391  1
  Pt  Pt20  1  0.143165  0.143611  0.143611  1
  Pt  Pt21  1  0.143165  0.143611  0.569614  1
  Pt  Pt22  1  0.143165  0.569614  0.143611  1
  Pt  Pt23  1  0.569871  0.143377  0.143377  1
