# generated using pymatgen
data_Li3Ho4Co12P12Ir5
_symmetry_space_group_name_H-M   'P 1'
_cell_length_a   3.74626600
_cell_length_b   10.40432204
_cell_length_c   12.14674451
_cell_angle_alpha   90.26111846
_cell_angle_beta   90.00000000
_cell_angle_gamma   90.00000000
_symmetry_Int_Tables_number   1
_chemical_formula_structural   Li3Ho4Co12P12Ir5
_chemical_formula_sum   'Li3 Ho4 Co12 P12 Ir5'
_cell_volume   473.44309126
_cell_formula_units_Z   1
loop_
 _symmetry_equiv_pos_site_id
 _symmetry_equiv_pos_as_xyz
  1  'x, y, z'
loop_
 _atom_site_type_symbol
 _atom_site_label
 _atom_site_symmetry_multiplicity
 _atom_site_fract_x
 _atom_site_fract_y
 _atom_site_fract_z
 _atom_site_occupancy
  Li  Li0  1  0.250000  0.703515  0.992826  1
  Li  Li1  1  0.250000  0.795595  0.492524  1
  Li  Li2  1  0.750000  0.295811  0.006598  1
  Ho  Ho3  1  0.250000  0.583752  0.711145  1
  Ho  Ho4  1  0.250000  0.918511  0.209905  1
  Ho  Ho5  1  0.750000  0.421992  0.290040  1
  Ho  Ho6  1  0.750000  0.081953  0.789990  1
  Co  Co7  1  0.250000  0.221700  0.177388  1
  Co  Co8  1  0.250000  0.276706  0.675606  1
  Co  Co9  1  0.750000  0.778679  0.822569  1
  Co  Co10  1  0.750000  0.722245  0.322205  1
  Co  Co11  1  0.250000  0.882416  0.697109  1
  Co  Co12  1  0.250000  0.618628  0.195862  1
  Co  Co13  1  0.750000  0.118492  0.304948  1
  Co  Co14  1  0.750000  0.379686  0.801800  1
  Co  Co15  1  0.250000  0.467885  0.932199  1
  Co  Co16  1  0.250000  0.037377  0.433995  1
  Co  Co17  1  0.750000  0.531080  0.065615  1
  Co  Co18  1  0.750000  0.962274  0.565844  1
  P  P19  1  0.250000  0.423810  0.112828  1
  P  P20  1  0.250000  0.073658  0.612714  1
  P  P21  1  0.750000  0.576518  0.886007  1
  P  P22  1  0.750000  0.921944  0.386357  1
  P  P23  1  0.250000  0.274273  0.860203  1
  P  P24  1  0.250000  0.225951  0.357634  1
  P  P25  1  0.750000  0.724018  0.140279  1
  P  P26  1  0.750000  0.772824  0.639553  1
  P  P27  1  0.250000  0.607253  0.380976  1
  P  P28  1  0.250000  0.892756  0.881811  1
  P  P29  1  0.750000  0.399131  0.620718  1
  P  P30  1  0.750000  0.107093  0.118526  1
  Ir  Ir31  1  0.750000  0.207617  0.517652  1
  Ir  Ir32  1  0.250000  0.400945  0.477781  1
  Ir  Ir33  1  0.250000  0.098258  0.981367  1
  Ir  Ir34  1  0.750000  0.594139  0.518058  1
  Ir  Ir35  1  0.750000  0.901513  0.019371  1
