# generated using pymatgen
data_Lu12ZnGaCo4
_symmetry_space_group_name_H-M   'P 1'
_cell_length_a   8.07418161
_cell_length_b   8.07418105
_cell_length_c   8.07418234
_cell_angle_alpha   106.29687391
_cell_angle_beta   110.16626515
_cell_angle_gamma   112.00205861
_symmetry_Int_Tables_number   1
_chemical_formula_structural   Lu12ZnGaCo4
_chemical_formula_sum   'Lu12 Zn1 Ga1 Co4'
_cell_volume   404.16760517
_cell_formula_units_Z   1
loop_
 _symmetry_equiv_pos_site_id
 _symmetry_equiv_pos_as_xyz
  1  'x, y, z'
loop_
 _atom_site_type_symbol
 _atom_site_label
 _atom_site_symmetry_multiplicity
 _atom_site_fract_x
 _atom_site_fract_y
 _atom_site_fract_z
 _atom_site_occupancy
  Lu  Lu0  1  0.304324  0.261424  0.565746  1
  Lu  Lu1  1  0.695676  0.738576  0.434254  1
  Lu  Lu2  1  0.304324  0.738576  0.042900  1
  Lu  Lu3  1  0.695676  0.261424  0.957100  1
  Lu  Lu4  1  0.188700  0.515003  0.326303  1
  Lu  Lu5  1  0.188700  0.862397  0.673697  1
  Lu  Lu6  1  0.811300  0.484997  0.673697  1
  Lu  Lu7  1  0.811300  0.137603  0.326303  1
  Lu  Lu8  1  0.400495  0.219260  0.181235  1
  Lu  Lu9  1  0.038024  0.219260  0.818765  1
  Lu  Lu10  1  0.961976  0.780740  0.181235  1
  Lu  Lu11  1  0.599505  0.780740  0.818765  1
  Zn  Zn12  1  0.500000  0.500000  0.000000  1
  Ga  Ga13  1  0.500000  0.000000  0.500000  1
  Co  Co14  1  0.163324  0.500000  0.663324  1
  Co  Co15  1  0.836676  0.500000  0.336676  1
  Co  Co16  1  0.000000  0.117091  0.117091  1
  Co  Co17  1  0.000000  0.882909  0.882909  1
