# generated using pymatgen
data_Nd6ZnCdSb14
_symmetry_space_group_name_H-M   'P 1'
_cell_length_a   12.53294310
_cell_length_b   12.53294324
_cell_length_c   4.32321836
_cell_angle_alpha   80.15378527
_cell_angle_beta   80.15379261
_cell_angle_gamma   101.35689602
_symmetry_Int_Tables_number   1
_chemical_formula_structural   Nd6ZnCdSb14
_chemical_formula_sum   'Nd6 Zn1 Cd1 Sb14'
_cell_volume   641.07078768
_cell_formula_units_Z   1
loop_
 _symmetry_equiv_pos_site_id
 _symmetry_equiv_pos_as_xyz
  1  'x, y, z'
loop_
 _atom_site_type_symbol
 _atom_site_label
 _atom_site_symmetry_multiplicity
 _atom_site_fract_x
 _atom_site_fract_y
 _atom_site_fract_z
 _atom_site_occupancy
  Nd  Nd0  1  0.326333  0.678714  0.929698  1
  Nd  Nd1  1  0.678714  0.326333  0.929698  1
  Nd  Nd2  1  0.271291  0.002415  0.796598  1
  Nd  Nd3  1  0.726315  0.996431  0.071289  1
  Nd  Nd4  1  0.996431  0.726315  0.071289  1
  Nd  Nd5  1  0.002415  0.271291  0.796598  1
  Zn  Zn6  1  0.261296  0.261296  0.674123  1
  Cd  Cd7  1  0.400394  0.400394  0.034817  1
  Sb  Sb8  1  0.586806  0.586806  0.844168  1
  Sb  Sb9  1  0.474393  0.251915  0.567930  1
  Sb  Sb10  1  0.545637  0.748629  0.288063  1
  Sb  Sb11  1  0.748629  0.545637  0.288063  1
  Sb  Sb12  1  0.251915  0.474393  0.567930  1
  Sb  Sb13  1  0.514466  0.914144  0.718270  1
  Sb  Sb14  1  0.487540  0.080967  0.149867  1
  Sb  Sb15  1  0.080967  0.487540  0.149867  1
  Sb  Sb16  1  0.914144  0.514466  0.718270  1
  Sb  Sb17  1  0.150910  0.150910  0.283521  1
  Sb  Sb18  1  0.851022  0.851022  0.580993  1
  Sb  Sb19  1  0.199542  0.801154  0.432279  1
  Sb  Sb20  1  0.801154  0.199542  0.432279  1
  Sb  Sb21  1  0.990288  0.990288  0.941689  1
