# generated using pymatgen
data_Dy7YMg2(SiB4)4
_symmetry_space_group_name_H-M   'P 1'
_cell_length_a   7.17053701
_cell_length_b   7.17053701
_cell_length_c   7.84878401
_cell_angle_alpha   89.99624625
_cell_angle_beta   90.00375375
_cell_angle_gamma   89.99423096
_symmetry_Int_Tables_number   1
_chemical_formula_structural   Dy7YMg2(SiB4)4
_chemical_formula_sum   'Dy7 Y1 Mg2 Si4 B16'
_cell_volume   403.55779234
_cell_formula_units_Z   1
loop_
 _symmetry_equiv_pos_site_id
 _symmetry_equiv_pos_as_xyz
  1  'x, y, z'
loop_
 _atom_site_type_symbol
 _atom_site_label
 _atom_site_symmetry_multiplicity
 _atom_site_fract_x
 _atom_site_fract_y
 _atom_site_fract_z
 _atom_site_occupancy
  Dy  Dy0  1  0.682933  0.182867  0.233559  1
  Dy  Dy1  1  0.317084  0.817105  0.766455  1
  Dy  Dy2  1  0.317133  0.817067  0.233559  1
  Dy  Dy3  1  0.817054  0.682946  0.233455  1
  Dy  Dy4  1  0.817145  0.682855  0.766576  1
  Dy  Dy5  1  0.682895  0.182916  0.766455  1
  Dy  Dy6  1  0.182868  0.317132  0.766599  1
  Y  Y7  1  0.182806  0.317194  0.233818  1
  Mg  Mg8  1  0.999969  0.999948  0.500034  1
  Mg  Mg9  1  0.500052  0.500031  0.500034  1
  Si  Si10  1  0.115276  0.615467  0.500137  1
  Si  Si11  1  0.884533  0.384724  0.500137  1
  Si  Si12  1  0.384816  0.115184  0.500170  1
  Si  Si13  1  0.615299  0.884701  0.499997  1
  B  B14  1  0.173587  0.039743  0.999932  1
  B  B15  1  0.826392  0.960111  0.000019  1
  B  B16  1  0.960003  0.173570  0.999885  1
  B  B17  1  0.326430  0.539997  0.999885  1
  B  B18  1  0.039855  0.826324  0.999998  1
  B  B19  1  0.673676  0.460145  0.999998  1
  B  B20  1  0.539889  0.673608  0.000019  1
  B  B21  1  0.460257  0.326413  0.999932  1
  B  B22  1  0.089519  0.589629  0.999812  1
  B  B23  1  0.910371  0.410481  0.999812  1
  B  B24  1  0.410487  0.089513  0.999858  1
  B  B25  1  0.589594  0.910406  0.000028  1
  B  B26  1  0.999881  0.999804  0.162219  1
  B  B27  1  0.000026  0.000026  0.837701  1
  B  B28  1  0.499974  0.499974  0.837701  1
  B  B29  1  0.500196  0.500119  0.162219  1
