# generated using pymatgen
data_Pa2B8OsW
_symmetry_space_group_name_H-M   'P 1'
_cell_length_a   3.65226300
_cell_length_b   5.99913119
_cell_length_c   11.66300537
_cell_angle_alpha   89.97096648
_cell_angle_beta   90.00000000
_cell_angle_gamma   90.00000000
_symmetry_Int_Tables_number   1
_chemical_formula_structural   Pa2B8OsW
_chemical_formula_sum   'Pa4 B16 Os2 W2'
_cell_volume   255.54113714
_cell_formula_units_Z   2
loop_
 _symmetry_equiv_pos_site_id
 _symmetry_equiv_pos_as_xyz
  1  'x, y, z'
loop_
 _atom_site_type_symbol
 _atom_site_label
 _atom_site_symmetry_multiplicity
 _atom_site_fract_x
 _atom_site_fract_y
 _atom_site_fract_z
 _atom_site_occupancy
  Pa  Pa0  1  0.000000  0.626725  0.349162  1
  Pa  Pa1  1  0.000000  0.373275  0.650838  1
  Pa  Pa2  1  0.000000  0.128252  0.148876  1
  Pa  Pa3  1  0.000000  0.871748  0.851124  1
  B  B4  1  0.500000  0.788374  0.186754  1
  B  B5  1  0.500000  0.211626  0.813246  1
  B  B6  1  0.500000  0.289438  0.310107  1
  B  B7  1  0.500000  0.710562  0.689893  1
  B  B8  1  0.500000  0.864346  0.031271  1
  B  B9  1  0.500000  0.135654  0.968729  1
  B  B10  1  0.500000  0.366393  0.467964  1
  B  B11  1  0.500000  0.633607  0.532036  1
  B  B12  1  0.500000  0.885444  0.454147  1
  B  B13  1  0.500000  0.114556  0.545853  1
  B  B14  1  0.500000  0.387709  0.046255  1
  B  B15  1  0.500000  0.612291  0.953745  1
  B  B16  1  0.500000  0.970875  0.306847  1
  B  B17  1  0.500000  0.029125  0.693153  1
  B  B18  1  0.500000  0.472984  0.190836  1
  B  B19  1  0.500000  0.527016  0.809164  1
  Os  Os20  1  0.000000  0.642471  0.095456  1
  Os  Os21  1  0.000000  0.357529  0.904544  1
  W  W22  1  0.000000  0.132963  0.407680  1
  W  W23  1  0.000000  0.867037  0.592320  1
