# generated using pymatgen
data_YbNi(P4Os)3
_symmetry_space_group_name_H-M   'P 1'
_cell_length_a   6.96524651
_cell_length_b   6.96524645
_cell_length_c   7.02107600
_cell_angle_alpha   109.63367498
_cell_angle_beta   109.63367483
_cell_angle_gamma   109.30827917
_symmetry_Int_Tables_number   1
_chemical_formula_structural   YbNi(P4Os)3
_chemical_formula_sum   'Yb1 Ni1 P12 Os3'
_cell_volume   261.68577292
_cell_formula_units_Z   1
loop_
 _symmetry_equiv_pos_site_id
 _symmetry_equiv_pos_as_xyz
  1  'x, y, z'
loop_
 _atom_site_type_symbol
 _atom_site_label
 _atom_site_symmetry_multiplicity
 _atom_site_fract_x
 _atom_site_fract_y
 _atom_site_fract_z
 _atom_site_occupancy
  Yb  Yb0  1  0.000000  0.000000  0.000000  1
  Ni  Ni1  1  0.000000  0.000000  0.500000  1
  P  P2  1  0.353041  0.211480  0.855015  1
  P  P3  1  0.646959  0.788520  0.144985  1
  P  P4  1  0.643470  0.501937  0.856725  1
  P  P5  1  0.356530  0.498063  0.143275  1
  P  P6  1  0.211480  0.858438  0.356465  1
  P  P7  1  0.788520  0.141562  0.643535  1
  P  P8  1  0.501937  0.858468  0.645212  1
  P  P9  1  0.498063  0.141532  0.354788  1
  P  P10  1  0.858468  0.356530  0.213256  1
  P  P11  1  0.141532  0.643470  0.786744  1
  P  P12  1  0.858438  0.646959  0.501973  1
  P  P13  1  0.141562  0.353041  0.498027  1
  Os  Os14  1  0.500000  0.000000  0.000000  1
  Os  Os15  1  0.000000  0.500000  0.000000  1
  Os  Os16  1  0.500000  0.500000  0.500000  1
