# generated using pymatgen
data_Ho24NiRu13
_symmetry_space_group_name_H-M   'P 1'
_cell_length_a   11.25040857
_cell_length_b   8.39541702
_cell_length_c   11.26296000
_cell_angle_alpha   56.22554334
_cell_angle_beta   89.95433310
_cell_angle_gamma   89.82689287
_symmetry_Int_Tables_number   1
_chemical_formula_structural   Ho24NiRu13
_chemical_formula_sum   'Ho24 Ni1 Ru13'
_cell_volume   884.26684439
_cell_formula_units_Z   1
loop_
 _symmetry_equiv_pos_site_id
 _symmetry_equiv_pos_as_xyz
  1  'x, y, z'
loop_
 _atom_site_type_symbol
 _atom_site_label
 _atom_site_symmetry_multiplicity
 _atom_site_fract_x
 _atom_site_fract_y
 _atom_site_fract_z
 _atom_site_occupancy
  Ho  Ho0  1  0.705065  0.243509  0.532151  1
  Ho  Ho1  1  0.204404  0.755819  0.968889  1
  Ho  Ho2  1  0.845848  0.508136  0.655674  1
  Ho  Ho3  1  0.346133  0.493117  0.843356  1
  Ho  Ho4  1  0.153740  0.491694  0.344967  1
  Ho  Ho5  1  0.654564  0.500577  0.158261  1
  Ho  Ho6  1  0.005777  0.852173  0.360833  1
  Ho  Ho7  1  0.505644  0.151252  0.137728  1
  Ho  Ho8  1  0.992853  0.149439  0.639495  1
  Ho  Ho9  1  0.493310  0.850020  0.861530  1
  Ho  Ho10  1  0.798246  0.247411  0.029093  1
  Ho  Ho11  1  0.294412  0.756649  0.468090  1
  Ho  Ho12  1  0.929230  0.780672  0.089267  1
  Ho  Ho13  1  0.430706  0.222342  0.409583  1
  Ho  Ho14  1  0.071923  0.222595  0.908983  1
  Ho  Ho15  1  0.568483  0.778390  0.590516  1
  Ho  Ho16  1  0.303534  0.242095  0.674425  1
  Ho  Ho17  1  0.800965  0.760988  0.824245  1
  Ho  Ho18  1  0.697780  0.757426  0.327982  1
  Ho  Ho19  1  0.198018  0.240430  0.175336  1
  Ho  Ho20  1  0.925694  0.280636  0.292792  1
  Ho  Ho21  1  0.424955  0.722430  0.203704  1
  Ho  Ho22  1  0.074261  0.719638  0.706979  1
  Ho  Ho23  1  0.577189  0.276906  0.795337  1
  Ni  Ni24  1  0.654856  0.911508  0.038935  1
  Ru  Ru25  1  0.501299  0.502439  0.498113  1
  Ru  Ru26  1  0.999828  0.501133  0.999468  1
  Ru  Ru27  1  0.145663  0.074879  0.465649  1
  Ru  Ru28  1  0.349561  0.081388  0.963810  1
  Ru  Ru29  1  0.854540  0.927356  0.534815  1
  Ru  Ru30  1  0.398077  0.485964  0.103760  1
  Ru  Ru31  1  0.895174  0.519242  0.394145  1
  Ru  Ru32  1  0.602863  0.512916  0.898761  1
  Ru  Ru33  1  0.101888  0.484448  0.602577  1
  Ru  Ru34  1  0.811670  0.098132  0.851631  1
  Ru  Ru35  1  0.319092  0.902296  0.649673  1
  Ru  Ru36  1  0.180676  0.897614  0.151626  1
  Ru  Ru37  1  0.682079  0.096346  0.347828  1
