# generated using pymatgen
data_Dy6Ho13InIr12
_symmetry_space_group_name_H-M   'P 1'
_cell_length_a   10.83848103
_cell_length_b   10.83922602
_cell_length_c   6.30193301
_cell_angle_alpha   89.99969198
_cell_angle_beta   89.99441763
_cell_angle_gamma   89.99297999
_symmetry_Int_Tables_number   1
_chemical_formula_structural   Dy6Ho13InIr12
_chemical_formula_sum   'Dy6 Ho13 In1 Ir12'
_cell_volume   740.35577959
_cell_formula_units_Z   1
loop_
 _symmetry_equiv_pos_site_id
 _symmetry_equiv_pos_as_xyz
  1  'x, y, z'
loop_
 _atom_site_type_symbol
 _atom_site_label
 _atom_site_symmetry_multiplicity
 _atom_site_fract_x
 _atom_site_fract_y
 _atom_site_fract_z
 _atom_site_occupancy
  Dy  Dy0  1  0.284158  0.085083  0.379279  1
  Dy  Dy1  1  0.290562  0.911471  0.879574  1
  Dy  Dy2  1  0.709428  0.088613  0.879569  1
  Dy  Dy3  1  0.715852  0.914804  0.379341  1
  Dy  Dy4  1  0.588296  0.791292  0.880574  1
  Dy  Dy5  1  0.588044  0.208638  0.377230  1
  Ho  Ho6  1  0.411912  0.791628  0.377407  1
  Ho  Ho7  1  0.411617  0.208442  0.880751  1
  Ho  Ho8  1  0.208045  0.412091  0.622684  1
  Ho  Ho9  1  0.208133  0.588176  0.119252  1
  Ho  Ho10  1  0.791942  0.411916  0.119109  1
  Ho  Ho11  1  0.792020  0.587845  0.622523  1
  Ho  Ho12  1  0.911731  0.708805  0.120113  1
  Ho  Ho13  1  0.915173  0.284707  0.620408  1
  Ho  Ho14  1  0.084875  0.715305  0.620381  1
  Ho  Ho15  1  0.088299  0.291198  0.120070  1
  Ho  Ho16  1  0.999990  0.000014  0.000174  1
  Ho  Ho17  1  0.499928  0.499874  0.000076  1
  Ho  Ho18  1  0.499915  0.500115  0.500098  1
  In  In19  1  0.000027  0.999999  0.500165  1
  Ir  Ir20  1  0.846124  0.156093  0.245848  1
  Ir  Ir21  1  0.844613  0.845375  0.754607  1
  Ir  Ir22  1  0.155687  0.154664  0.754766  1
  Ir  Ir23  1  0.154142  0.843846  0.245986  1
  Ir  Ir24  1  0.654606  0.346866  0.747766  1
  Ir  Ir25  1  0.653534  0.654198  0.252891  1
  Ir  Ir26  1  0.346387  0.345740  0.252292  1
  Ir  Ir27  1  0.345304  0.653194  0.747152  1
  Ir  Ir28  1  0.499833  0.000058  0.124822  1
  Ir  Ir29  1  0.499826  0.999961  0.620597  1
  Ir  Ir30  1  0.999997  0.499997  0.875115  1
  Ir  Ir31  1  0.000001  0.499991  0.379377  1
