# generated using pymatgen
data_Ho2Er2ReB12Os
_symmetry_space_group_name_H-M   'P 1'
_cell_length_a   3.65000100
_cell_length_b   9.12434270
_cell_length_c   11.50618703
_cell_angle_alpha   90.13198415
_cell_angle_beta   90.00000000
_cell_angle_gamma   90.00000000
_symmetry_Int_Tables_number   1
_chemical_formula_structural   Ho2Er2ReB12Os
_chemical_formula_sum   'Ho4 Er4 Re2 B24 Os2'
_cell_volume   383.19942496
_cell_formula_units_Z   2
loop_
 _symmetry_equiv_pos_site_id
 _symmetry_equiv_pos_as_xyz
  1  'x, y, z'
loop_
 _atom_site_type_symbol
 _atom_site_label
 _atom_site_symmetry_multiplicity
 _atom_site_fract_x
 _atom_site_fract_y
 _atom_site_fract_z
 _atom_site_occupancy
  Ho  Ho0  1  0.000000  0.320730  0.412472  1
  Ho  Ho1  1  0.000000  0.679270  0.587528  1
  Ho  Ho2  1  0.000000  0.824471  0.084724  1
  Ho  Ho3  1  0.000000  0.175529  0.915276  1
  Er  Er4  1  0.000000  0.943483  0.370720  1
  Er  Er5  1  0.000000  0.056517  0.629280  1
  Er  Er6  1  0.000000  0.442663  0.128791  1
  Er  Er7  1  0.000000  0.557337  0.871209  1
  Re  Re8  1  0.000000  0.138656  0.179738  1
  Re  Re9  1  0.000000  0.861344  0.820262  1
  B  B10  1  0.500000  0.553741  0.433130  1
  B  B11  1  0.500000  0.446259  0.566870  1
  B  B12  1  0.500000  0.053139  0.066847  1
  B  B13  1  0.500000  0.946861  0.933153  1
  B  B14  1  0.500000  0.749058  0.418858  1
  B  B15  1  0.500000  0.250942  0.581142  1
  B  B16  1  0.500000  0.249125  0.080938  1
  B  B17  1  0.500000  0.750875  0.919062  1
  B  B18  1  0.500000  0.791004  0.265840  1
  B  B19  1  0.500000  0.208996  0.734160  1
  B  B20  1  0.500000  0.292001  0.234665  1
  B  B21  1  0.500000  0.707999  0.765335  1
  B  B22  1  0.500000  0.630807  0.185904  1
  B  B23  1  0.500000  0.369193  0.814096  1
  B  B24  1  0.500000  0.131249  0.314980  1
  B  B25  1  0.500000  0.868751  0.685020  1
  B  B26  1  0.500000  0.982412  0.212624  1
  B  B27  1  0.500000  0.017588  0.787376  1
  B  B28  1  0.500000  0.482848  0.287901  1
  B  B29  1  0.500000  0.517152  0.712099  1
  B  B30  1  0.500000  0.602766  0.028709  1
  B  B31  1  0.500000  0.397234  0.971291  1
  B  B32  1  0.500000  0.103106  0.471603  1
  B  B33  1  0.500000  0.896894  0.528397  1
  Os  Os34  1  0.000000  0.637683  0.321710  1
  Os  Os35  1  0.000000  0.362317  0.678290  1
