# generated using pymatgen
data_PrU3(Al3Ir)6
_symmetry_space_group_name_H-M   'P 1'
_cell_length_a   7.59951319
_cell_length_b   7.62248709
_cell_length_c   9.44988900
_cell_angle_alpha   90.00000000
_cell_angle_beta   90.00000000
_cell_angle_gamma   119.48303683
_symmetry_Int_Tables_number   1
_chemical_formula_structural   PrU3(Al3Ir)6
_chemical_formula_sum   'Pr1 U3 Al18 Ir6'
_cell_volume   476.51730270
_cell_formula_units_Z   1
loop_
 _symmetry_equiv_pos_site_id
 _symmetry_equiv_pos_as_xyz
  1  'x, y, z'
loop_
 _atom_site_type_symbol
 _atom_site_label
 _atom_site_symmetry_multiplicity
 _atom_site_fract_x
 _atom_site_fract_y
 _atom_site_fract_z
 _atom_site_occupancy
  Pr  Pr0  1  0.995262  0.669775  0.750000  1
  U  U1  1  0.004161  0.327400  0.250000  1
  U  U2  1  0.670682  0.996676  0.750000  1
  U  U3  1  0.329402  0.005067  0.250000  1
  Al  Al4  1  0.127406  0.130503  0.750000  1
  Al  Al5  1  0.867951  0.870055  0.250000  1
  Al  Al6  1  0.003189  0.334965  0.572371  1
  Al  Al7  1  0.997794  0.664205  0.421575  1
  Al  Al8  1  0.997794  0.664205  0.078425  1
  Al  Al9  1  0.335669  0.002387  0.927190  1
  Al  Al10  1  0.003189  0.334965  0.927629  1
  Al  Al11  1  0.663450  0.997428  0.073759  1
  Al  Al12  1  0.663450  0.997428  0.426241  1
  Al  Al13  1  0.335669  0.002387  0.572810  1
  Al  Al14  1  0.335239  0.335313  0.053826  1
  Al  Al15  1  0.665912  0.666250  0.948091  1
  Al  Al16  1  0.665912  0.666250  0.551909  1
  Al  Al17  1  0.335239  0.335313  0.446174  1
  Al  Al18  1  0.344280  0.549681  0.750000  1
  Al  Al19  1  0.658259  0.452841  0.250000  1
  Al  Al20  1  0.545573  0.336041  0.750000  1
  Al  Al21  1  0.449853  0.659410  0.250000  1
  Ir  Ir22  1  0.672324  0.326759  0.498244  1
  Ir  Ir23  1  0.328562  0.672358  0.498147  1
  Ir  Ir24  1  0.328562  0.672358  0.001853  1
  Ir  Ir25  1  0.672324  0.326759  0.001756  1
  Ir  Ir26  1  0.001448  0.001609  0.496857  1
  Ir  Ir27  1  0.001448  0.001609  0.003143  1
