# generated using pymatgen
data_Er3P6PdN13
_symmetry_space_group_name_H-M   'P 1'
_cell_length_a   7.30543881
_cell_length_b   7.30543978
_cell_length_c   7.30544000
_cell_angle_alpha   108.88031949
_cell_angle_beta   108.88032210
_cell_angle_gamma   108.88031184
_symmetry_Int_Tables_number   1
_chemical_formula_structural   Er3P6PdN13
_chemical_formula_sum   'Er3 P6 Pd1 N13'
_cell_volume   306.52574622
_cell_formula_units_Z   1
loop_
 _symmetry_equiv_pos_site_id
 _symmetry_equiv_pos_as_xyz
  1  'x, y, z'
loop_
 _atom_site_type_symbol
 _atom_site_label
 _atom_site_symmetry_multiplicity
 _atom_site_fract_x
 _atom_site_fract_y
 _atom_site_fract_z
 _atom_site_occupancy
  Er  Er0  1  0.695141  0.014702  0.014702  1
  Er  Er1  1  0.014702  0.014702  0.695141  1
  Er  Er2  1  0.014702  0.695141  0.014702  1
  P  P3  1  0.257228  0.757183  0.509247  1
  P  P4  1  0.757183  0.257228  0.509247  1
  P  P5  1  0.757183  0.509247  0.257228  1
  P  P6  1  0.257228  0.509247  0.757183  1
  P  P7  1  0.509247  0.757183  0.257228  1
  P  P8  1  0.509247  0.257228  0.757183  1
  Pd  Pd9  1  0.194537  0.194537  0.194537  1
  N  N10  1  0.915547  0.915547  0.915547  1
  N  N11  1  0.744171  0.306102  0.306102  1
  N  N12  1  0.306102  0.744171  0.306102  1
  N  N13  1  0.292962  0.581468  0.581468  1
  N  N14  1  0.581468  0.581468  0.292962  1
  N  N15  1  0.417589  0.730490  0.004812  1
  N  N16  1  0.004812  0.730490  0.417589  1
  N  N17  1  0.581468  0.292962  0.581468  1
  N  N18  1  0.730490  0.004812  0.417589  1
  N  N19  1  0.417589  0.004812  0.730490  1
  N  N20  1  0.730490  0.417589  0.004812  1
  N  N21  1  0.306102  0.306102  0.744171  1
  N  N22  1  0.004812  0.417589  0.730490  1
