# generated using pymatgen
data_Ta12Al8Co3TcN4
_symmetry_space_group_name_H-M   'P 1'
_cell_length_a   8.18544361
_cell_length_b   8.21300417
_cell_length_c   8.18544400
_cell_angle_alpha   60.11094288
_cell_angle_beta   59.99999844
_cell_angle_gamma   60.11094340
_symmetry_Int_Tables_number   1
_chemical_formula_structural   Ta12Al8Co3TcN4
_chemical_formula_sum   'Ta12 Al8 Co3 Tc1 N4'
_cell_volume   389.76042673
_cell_formula_units_Z   1
loop_
 _symmetry_equiv_pos_site_id
 _symmetry_equiv_pos_as_xyz
  1  'x, y, z'
loop_
 _atom_site_type_symbol
 _atom_site_label
 _atom_site_symmetry_multiplicity
 _atom_site_fract_x
 _atom_site_fract_y
 _atom_site_fract_z
 _atom_site_occupancy
  Ta  Ta0  1  0.561762  0.936931  0.561762  1
  Ta  Ta1  1  0.308717  0.686719  0.695847  1
  Ta  Ta2  1  0.688238  0.313069  0.310455  1
  Ta  Ta3  1  0.308717  0.686719  0.308717  1
  Ta  Ta4  1  0.695847  0.686719  0.308717  1
  Ta  Ta5  1  0.310455  0.313069  0.688238  1
  Ta  Ta6  1  0.554153  0.563281  0.941283  1
  Ta  Ta7  1  0.941283  0.563281  0.554153  1
  Ta  Ta8  1  0.561762  0.936931  0.939545  1
  Ta  Ta9  1  0.939545  0.936931  0.561762  1
  Ta  Ta10  1  0.688238  0.313069  0.688238  1
  Ta  Ta11  1  0.941283  0.563281  0.941283  1
  Al  Al12  1  0.913096  0.927822  0.913096  1
  Al  Al13  1  0.004011  0.322178  0.336904  1
  Al  Al14  1  0.333594  0.999215  0.333594  1
  Al  Al15  1  0.336904  0.322178  0.004011  1
  Al  Al16  1  0.916406  0.250785  0.916406  1
  Al  Al17  1  0.913096  0.927822  0.245989  1
  Al  Al18  1  0.245989  0.927822  0.913096  1
  Al  Al19  1  0.336904  0.322178  0.336904  1
  Co  Co20  1  0.125000  0.125000  0.125000  1
  Co  Co21  1  0.625000  0.125000  0.125000  1
  Co  Co22  1  0.125000  0.125000  0.625000  1
  Tc  Tc23  1  0.125000  0.625000  0.125000  1
  N  N24  1  0.625000  0.625000  0.625000  1
  N  N25  1  0.125000  0.625000  0.625000  1
  N  N26  1  0.625000  0.125000  0.625000  1
  N  N27  1  0.625000  0.625000  0.125000  1
