# generated using pymatgen
data_Rb4MnFe7F24
_symmetry_space_group_name_H-M   'P 1'
_cell_length_a   7.13761900
_cell_length_b   7.57743700
_cell_length_c   10.33528900
_cell_angle_alpha   90.00000000
_cell_angle_beta   90.00000000
_cell_angle_gamma   90.00000000
_symmetry_Int_Tables_number   1
_chemical_formula_structural   Rb4MnFe7F24
_chemical_formula_sum   'Rb4 Mn1 Fe7 F24'
_cell_volume   558.98264108
_cell_formula_units_Z   1
loop_
 _symmetry_equiv_pos_site_id
 _symmetry_equiv_pos_as_xyz
  1  'x, y, z'
loop_
 _atom_site_type_symbol
 _atom_site_label
 _atom_site_symmetry_multiplicity
 _atom_site_fract_x
 _atom_site_fract_y
 _atom_site_fract_z
 _atom_site_occupancy
  Rb  Rb0  1  0.494201  0.250000  0.120254  1
  Rb  Rb1  1  0.993747  0.250000  0.379380  1
  Rb  Rb2  1  0.506538  0.750000  0.879586  1
  Rb  Rb3  1  0.005629  0.750000  0.620531  1
  Mn  Mn4  1  0.298156  0.250000  0.767640  1
  Fe  Fe5  1  0.799135  0.250000  0.730810  1
  Fe  Fe6  1  0.702647  0.750000  0.231717  1
  Fe  Fe7  1  0.202479  0.750000  0.268221  1
  Fe  Fe8  1  0.998880  0.999688  0.000767  1
  Fe  Fe9  1  0.500047  0.500604  0.499415  1
  Fe  Fe10  1  0.998880  0.500312  0.000767  1
  Fe  Fe11  1  0.500047  0.999396  0.499415  1
  F  F12  1  0.236539  0.063856  0.922262  1
  F  F13  1  0.735760  0.437043  0.580112  1
  F  F14  1  0.761727  0.563603  0.080501  1
  F  F15  1  0.262926  0.936325  0.419140  1
  F  F16  1  0.761727  0.936397  0.080501  1
  F  F17  1  0.262926  0.563675  0.419140  1
  F  F18  1  0.236539  0.436144  0.922262  1
  F  F19  1  0.735760  0.062957  0.580112  1
  F  F20  1  0.876533  0.009456  0.833457  1
  F  F21  1  0.374996  0.493853  0.666342  1
  F  F22  1  0.124454  0.511068  0.167204  1
  F  F23  1  0.625196  0.989858  0.333082  1
  F  F24  1  0.124454  0.988932  0.167204  1
  F  F25  1  0.625196  0.510142  0.333082  1
  F  F26  1  0.876533  0.490544  0.833457  1
  F  F27  1  0.374996  0.006147  0.666342  1
  F  F28  1  0.933722  0.250000  0.036353  1
  F  F29  1  0.433151  0.250000  0.466122  1
  F  F30  1  0.065988  0.750000  0.964523  1
  F  F31  1  0.567978  0.750000  0.534804  1
  F  F32  1  0.059318  0.250000  0.655281  1
  F  F33  1  0.571211  0.250000  0.839978  1
  F  F34  1  0.936107  0.750000  0.338512  1
  F  F35  1  0.435881  0.750000  0.161723  1
