# generated using pymatgen
data_LaNiAs2Au
_symmetry_space_group_name_H-M   'P 1'
_cell_length_a   4.40743200
_cell_length_b   4.40743200
_cell_length_c   9.98891400
_cell_angle_alpha   90.00000000
_cell_angle_beta   90.00000000
_cell_angle_gamma   90.00000000
_symmetry_Int_Tables_number   1
_chemical_formula_structural   LaNiAs2Au
_chemical_formula_sum   'La2 Ni2 As4 Au2'
_cell_volume   194.03921773
_cell_formula_units_Z   2
loop_
 _symmetry_equiv_pos_site_id
 _symmetry_equiv_pos_as_xyz
  1  'x, y, z'
loop_
 _atom_site_type_symbol
 _atom_site_label
 _atom_site_symmetry_multiplicity
 _atom_site_fract_x
 _atom_site_fract_y
 _atom_site_fract_z
 _atom_site_occupancy
  La  La0  1  0.000000  0.500000  0.762778  1
  La  La1  1  0.500000  0.000000  0.237222  1
  Ni  Ni2  1  0.000000  0.500000  0.102084  1
  Ni  Ni3  1  0.500000  0.000000  0.897916  1
  As  As4  1  0.000000  0.500000  0.337740  1
  As  As5  1  0.000000  0.000000  0.000000  1
  As  As6  1  0.500000  0.000000  0.662260  1
  As  As7  1  0.500000  0.500000  0.000000  1
  Au  Au8  1  0.000000  0.000000  0.500000  1
  Au  Au9  1  0.500000  0.500000  0.500000  1
