# generated using pymatgen
data_Y2Er3In4IrPd
_symmetry_space_group_name_H-M   'P 1'
_cell_length_a   3.61806900
_cell_length_b   8.12856604
_cell_length_c   18.21938505
_cell_angle_alpha   89.92341816
_cell_angle_beta   90.00000000
_cell_angle_gamma   90.00000000
_symmetry_Int_Tables_number   1
_chemical_formula_structural   Y2Er3In4IrPd
_chemical_formula_sum   'Y4 Er6 In8 Ir2 Pd2'
_cell_volume   535.82640283
_cell_formula_units_Z   2
loop_
 _symmetry_equiv_pos_site_id
 _symmetry_equiv_pos_as_xyz
  1  'x, y, z'
loop_
 _atom_site_type_symbol
 _atom_site_label
 _atom_site_symmetry_multiplicity
 _atom_site_fract_x
 _atom_site_fract_y
 _atom_site_fract_z
 _atom_site_occupancy
  Y  Y0  1  0.000000  0.500000  0.500000  1
  Y  Y1  1  0.000000  0.000000  0.000000  1
  Y  Y2  1  0.000000  0.728404  0.277846  1
  Y  Y3  1  0.000000  0.271596  0.722154  1
  Er  Er4  1  0.000000  0.746985  0.779879  1
  Er  Er5  1  0.000000  0.253015  0.220121  1
  Er  Er6  1  0.000000  0.613193  0.087224  1
  Er  Er7  1  0.000000  0.386807  0.912776  1
  Er  Er8  1  0.000000  0.884811  0.584717  1
  Er  Er9  1  0.000000  0.115189  0.415283  1
  In  In10  1  0.500000  0.708351  0.932134  1
  In  In11  1  0.500000  0.291649  0.067866  1
  In  In12  1  0.500000  0.792507  0.432371  1
  In  In13  1  0.500000  0.207493  0.567629  1
  In  In14  1  0.500000  0.580030  0.648451  1
  In  In15  1  0.500000  0.419970  0.351549  1
  In  In16  1  0.500000  0.922921  0.149855  1
  In  In17  1  0.500000  0.077079  0.850145  1
  Ir  Ir18  1  0.500000  0.517152  0.194995  1
  Ir  Ir19  1  0.500000  0.482848  0.805005  1
  Pd  Pd20  1  0.500000  0.978269  0.695835  1
  Pd  Pd21  1  0.500000  0.021731  0.304165  1
