# generated using pymatgen
data_K4Sn(SeS)2
_symmetry_space_group_name_H-M   'P 1'
_cell_length_a   8.19948600
_cell_length_b   10.20600200
_cell_length_c   14.77629100
_cell_angle_alpha   90.00000000
_cell_angle_beta   90.00000000
_cell_angle_gamma   90.00000000
_symmetry_Int_Tables_number   1
_chemical_formula_structural   K4Sn(SeS)2
_chemical_formula_sum   'K16 Sn4 Se8 S8'
_cell_volume   1236.53870036
_cell_formula_units_Z   4
loop_
 _symmetry_equiv_pos_site_id
 _symmetry_equiv_pos_as_xyz
  1  'x, y, z'
loop_
 _atom_site_type_symbol
 _atom_site_label
 _atom_site_symmetry_multiplicity
 _atom_site_fract_x
 _atom_site_fract_y
 _atom_site_fract_z
 _atom_site_occupancy
  K  K0  1  0.500000  0.500000  0.500000  1
  K  K1  1  0.148588  0.455148  0.272747  1
  K  K2  1  0.148588  0.044852  0.272747  1
  K  K3  1  0.998232  0.750000  0.435556  1
  K  K4  1  0.001768  0.250000  0.564444  1
  K  K5  1  0.648588  0.955148  0.227253  1
  K  K6  1  0.351412  0.044852  0.772747  1
  K  K7  1  0.851412  0.955148  0.727253  1
  K  K8  1  0.351412  0.455148  0.772747  1
  K  K9  1  0.000000  0.500000  0.000000  1
  K  K10  1  0.498232  0.250000  0.064444  1
  K  K11  1  0.648588  0.544852  0.227253  1
  K  K12  1  0.501768  0.750000  0.935556  1
  K  K13  1  0.000000  0.000000  0.000000  1
  K  K14  1  0.851412  0.544852  0.727253  1
  K  K15  1  0.500000  0.000000  0.500000  1
  Sn  Sn16  1  0.742732  0.250000  0.837537  1
  Sn  Sn17  1  0.757268  0.250000  0.337537  1
  Sn  Sn18  1  0.242732  0.750000  0.662463  1
  Sn  Sn19  1  0.257268  0.750000  0.162463  1
  Se  Se20  1  0.556356  0.750000  0.665833  1
  Se  Se21  1  0.443644  0.250000  0.334167  1
  Se  Se22  1  0.367949  0.750000  0.326338  1
  Se  Se23  1  0.132051  0.750000  0.826338  1
  Se  Se24  1  0.056356  0.250000  0.834167  1
  Se  Se25  1  0.943644  0.750000  0.165833  1
  Se  Se26  1  0.632051  0.250000  0.673662  1
  Se  Se27  1  0.867949  0.250000  0.173662  1
  S  S28  1  0.850020  0.446717  0.411609  1
  S  S29  1  0.649980  0.053283  0.911609  1
  S  S30  1  0.350020  0.946717  0.088391  1
  S  S31  1  0.350020  0.553283  0.088391  1
  S  S32  1  0.149980  0.553283  0.588391  1
  S  S33  1  0.850020  0.053283  0.411609  1
  S  S34  1  0.149980  0.946717  0.588391  1
  S  S35  1  0.649980  0.446717  0.911609  1
