# generated using pymatgen
data_Ba3SrHfSe6
_symmetry_space_group_name_H-M   'P 1'
_cell_length_a   8.87085994
_cell_length_b   8.87086146
_cell_length_c   8.87086144
_cell_angle_alpha   91.00003142
_cell_angle_beta   91.00003242
_cell_angle_gamma   91.00004217
_symmetry_Int_Tables_number   1
_chemical_formula_structural   Ba3SrHfSe6
_chemical_formula_sum   'Ba6 Sr2 Hf2 Se12'
_cell_volume   697.74459153
_cell_formula_units_Z   2
loop_
 _symmetry_equiv_pos_site_id
 _symmetry_equiv_pos_as_xyz
  1  'x, y, z'
loop_
 _atom_site_type_symbol
 _atom_site_label
 _atom_site_symmetry_multiplicity
 _atom_site_fract_x
 _atom_site_fract_y
 _atom_site_fract_z
 _atom_site_occupancy
  Ba  Ba0  1  0.873509  0.626491  0.250000  1
  Ba  Ba1  1  0.250000  0.873509  0.626491  1
  Ba  Ba2  1  0.626491  0.250000  0.873509  1
  Ba  Ba3  1  0.750000  0.126491  0.373509  1
  Ba  Ba4  1  0.373509  0.750000  0.126491  1
  Ba  Ba5  1  0.126491  0.373509  0.750000  1
  Sr  Sr6  1  0.250000  0.250000  0.250000  1
  Sr  Sr7  1  0.750000  0.750000  0.750000  1
  Hf  Hf8  1  0.500000  0.500000  0.500000  1
  Hf  Hf9  1  0.000000  0.000000  0.000000  1
  Se  Se10  1  0.209003  0.553384  0.420972  1
  Se  Se11  1  0.420972  0.209003  0.553384  1
  Se  Se12  1  0.553384  0.420972  0.209003  1
  Se  Se13  1  0.920972  0.053384  0.709003  1
  Se  Se14  1  0.709003  0.920972  0.053384  1
  Se  Se15  1  0.053384  0.709003  0.920972  1
  Se  Se16  1  0.790997  0.446616  0.579028  1
  Se  Se17  1  0.579028  0.790997  0.446616  1
  Se  Se18  1  0.446616  0.579028  0.790997  1
  Se  Se19  1  0.079028  0.946616  0.290997  1
  Se  Se20  1  0.290997  0.079028  0.946616  1
  Se  Se21  1  0.946616  0.290997  0.079028  1
