# generated using pymatgen
data_La2Ho5ErS12
_symmetry_space_group_name_H-M   'P 1'
_cell_length_a   3.99513600
_cell_length_b   11.06982039
_cell_length_c   11.32076000
_cell_angle_alpha   71.19031321
_cell_angle_beta   90.00000000
_cell_angle_gamma   90.00000000
_symmetry_Int_Tables_number   1
_chemical_formula_structural   La2Ho5ErS12
_chemical_formula_sum   'La2 Ho5 Er1 S12'
_cell_volume   473.92740521
_cell_formula_units_Z   1
loop_
 _symmetry_equiv_pos_site_id
 _symmetry_equiv_pos_as_xyz
  1  'x, y, z'
loop_
 _atom_site_type_symbol
 _atom_site_label
 _atom_site_symmetry_multiplicity
 _atom_site_fract_x
 _atom_site_fract_y
 _atom_site_fract_z
 _atom_site_occupancy
  La  La0  1  0.750000  0.550401  0.804558  1
  La  La1  1  0.250000  0.449358  0.195625  1
  Ho  Ho2  1  0.750000  0.178888  0.998975  1
  Ho  Ho3  1  0.250000  0.821203  0.000483  1
  Ho  Ho4  1  0.750000  0.945067  0.666232  1
  Ho  Ho5  1  0.250000  0.055622  0.333783  1
  Ho  Ho6  1  0.750000  0.660745  0.412152  1
  Er  Er7  1  0.250000  0.339254  0.587965  1
  S  S8  1  0.750000  0.978748  0.888613  1
  S  S9  1  0.250000  0.021357  0.111466  1
  S  S10  1  0.750000  0.301854  0.748169  1
  S  S11  1  0.250000  0.698055  0.250960  1
  S  S12  1  0.750000  0.892968  0.443414  1
  S  S13  1  0.250000  0.107955  0.556860  1
  S  S14  1  0.750000  0.417295  0.408461  1
  S  S15  1  0.250000  0.581358  0.592652  1
  S  S16  1  0.750000  0.231052  0.230288  1
  S  S17  1  0.250000  0.769118  0.769407  1
  S  S18  1  0.750000  0.620730  0.036744  1
  S  S19  1  0.250000  0.378974  0.963194  1
