# generated using pymatgen
data_Y4Tm6Ir3Ru
_symmetry_space_group_name_H-M   'P 1'
_cell_length_a   6.38648145
_cell_length_b   7.23458244
_cell_length_c   8.43255617
_cell_angle_alpha   97.06603742
_cell_angle_beta   111.86330893
_cell_angle_gamma   90.05484404
_symmetry_Int_Tables_number   1
_chemical_formula_structural   Y4Tm6Ir3Ru
_chemical_formula_sum   'Y4 Tm6 Ir3 Ru1'
_cell_volume   358.38165866
_cell_formula_units_Z   1
loop_
 _symmetry_equiv_pos_site_id
 _symmetry_equiv_pos_as_xyz
  1  'x, y, z'
loop_
 _atom_site_type_symbol
 _atom_site_label
 _atom_site_symmetry_multiplicity
 _atom_site_fract_x
 _atom_site_fract_y
 _atom_site_fract_z
 _atom_site_occupancy
  Y  Y0  1  0.788037  0.080652  0.810690  1
  Y  Y1  1  0.975348  0.419495  0.188522  1
  Y  Y2  1  0.212142  0.919331  0.186771  1
  Y  Y3  1  0.025287  0.582956  0.810666  1
  Tm  Tm4  1  0.203810  0.183480  0.563453  1
  Tm  Tm5  1  0.642254  0.315487  0.438178  1
  Tm  Tm6  1  0.795525  0.814609  0.438146  1
  Tm  Tm7  1  0.356331  0.685002  0.562648  1
  Tm  Tm8  1  0.425051  0.249045  0.999340  1
  Tm  Tm9  1  0.574774  0.749591  0.000190  1
  Ir  Ir10  1  0.595950  0.424768  0.776718  1
  Ir  Ir11  1  0.817410  0.075785  0.222658  1
  Ir  Ir12  1  0.405551  0.574708  0.223131  1
  Ru  Ru13  1  0.182531  0.925090  0.778889  1
