# generated using pymatgen
data_Pr2Mg(PRh2)6
_symmetry_space_group_name_H-M   'P 1'
_cell_length_a   9.80088400
_cell_length_b   9.80088455
_cell_length_c   3.90403300
_cell_angle_alpha   90.00000000
_cell_angle_beta   90.00000000
_cell_angle_gamma   120.00001166
_symmetry_Int_Tables_number   1
_chemical_formula_structural   Pr2Mg(PRh2)6
_chemical_formula_sum   'Pr2 Mg1 P6 Rh12'
_cell_volume   324.76901120
_cell_formula_units_Z   1
loop_
 _symmetry_equiv_pos_site_id
 _symmetry_equiv_pos_as_xyz
  1  'x, y, z'
loop_
 _atom_site_type_symbol
 _atom_site_label
 _atom_site_symmetry_multiplicity
 _atom_site_fract_x
 _atom_site_fract_y
 _atom_site_fract_z
 _atom_site_occupancy
  Pr  Pr0  1  0.333333  0.666667  0.753544  1
  Pr  Pr1  1  0.666667  0.333333  0.246456  1
  Mg  Mg2  1  0.000000  0.000000  0.500000  1
  P  P3  1  0.887866  0.601309  0.746793  1
  P  P4  1  0.398691  0.286557  0.746793  1
  P  P5  1  0.713443  0.112134  0.746793  1
  P  P6  1  0.112134  0.398691  0.253207  1
  P  P7  1  0.601309  0.713443  0.253207  1
  P  P8  1  0.286557  0.887866  0.253207  1
  Rh  Rh9  1  0.613119  0.550476  0.748680  1
  Rh  Rh10  1  0.449524  0.062644  0.748680  1
  Rh  Rh11  1  0.937356  0.386881  0.748680  1
  Rh  Rh12  1  0.386881  0.449524  0.251320  1
  Rh  Rh13  1  0.550476  0.937356  0.251320  1
  Rh  Rh14  1  0.062644  0.613119  0.251320  1
  Rh  Rh15  1  0.127841  0.840734  0.754211  1
  Rh  Rh16  1  0.159266  0.287107  0.754211  1
  Rh  Rh17  1  0.712893  0.872159  0.754211  1
  Rh  Rh18  1  0.872159  0.159266  0.245789  1
  Rh  Rh19  1  0.840734  0.712893  0.245789  1
  Rh  Rh20  1  0.287107  0.127841  0.245789  1
