# generated using pymatgen
data_Hf6GaSi2P
_symmetry_space_group_name_H-M   'P 1'
_cell_length_a   7.07838562
_cell_length_b   7.07838478
_cell_length_c   3.62506300
_cell_angle_alpha   90.00000000
_cell_angle_beta   90.00000000
_cell_angle_gamma   89.53461644
_symmetry_Int_Tables_number   1
_chemical_formula_structural   Hf6GaSi2P
_chemical_formula_sum   'Hf6 Ga1 Si2 P1'
_cell_volume   181.62248692
_cell_formula_units_Z   1
loop_
 _symmetry_equiv_pos_site_id
 _symmetry_equiv_pos_as_xyz
  1  'x, y, z'
loop_
 _atom_site_type_symbol
 _atom_site_label
 _atom_site_symmetry_multiplicity
 _atom_site_fract_x
 _atom_site_fract_y
 _atom_site_fract_z
 _atom_site_occupancy
  Hf  Hf0  1  0.831661  0.679085  0.500000  1
  Hf  Hf1  1  0.325625  0.825625  0.500000  1
  Hf  Hf2  1  0.179085  0.331661  0.500000  1
  Hf  Hf3  1  0.667614  0.167614  0.500000  1
  Hf  Hf4  1  0.495628  0.501978  0.000000  1
  Hf  Hf5  1  0.001978  0.995628  0.000000  1
  Ga  Ga6  1  0.871945  0.371945  0.000000  1
  Si  Si7  1  0.624334  0.875546  0.000000  1
  Si  Si8  1  0.375546  0.124334  0.000000  1
  P  P9  1  0.126584  0.626584  0.000000  1
