# generated using pymatgen
data_DyLu2(CuSi)4
_symmetry_space_group_name_H-M   'P 1'
_cell_length_a   4.09653090
_cell_length_b   6.54266086
_cell_length_c   7.76940646
_cell_angle_alpha   114.90107100
_cell_angle_beta   105.28569210
_cell_angle_gamma   90.00000152
_symmetry_Int_Tables_number   1
_chemical_formula_structural   DyLu2(CuSi)4
_chemical_formula_sum   'Dy1 Lu2 Cu4 Si4'
_cell_volume   180.72460550
_cell_formula_units_Z   1
loop_
 _symmetry_equiv_pos_site_id
 _symmetry_equiv_pos_as_xyz
  1  'x, y, z'
loop_
 _atom_site_type_symbol
 _atom_site_label
 _atom_site_symmetry_multiplicity
 _atom_site_fract_x
 _atom_site_fract_y
 _atom_site_fract_z
 _atom_site_occupancy
  Dy  Dy0  1  0.000000  0.500000  0.000000  1
  Lu  Lu1  1  0.872364  0.872364  0.744729  1
  Lu  Lu2  1  0.127636  0.127636  0.255271  1
  Cu  Cu3  1  0.670514  0.861468  0.341028  1
  Cu  Cu4  1  0.670514  0.479560  0.341028  1
  Cu  Cu5  1  0.329486  0.520440  0.658972  1
  Cu  Cu6  1  0.329486  0.138532  0.658972  1
  Si  Si7  1  0.782583  0.282583  0.565168  1
  Si  Si8  1  0.217417  0.717417  0.434832  1
  Si  Si9  1  0.500000  0.184074  0.000000  1
  Si  Si10  1  0.500000  0.815926  0.000000  1
