# generated using pymatgen
data_Nb9SO25
_symmetry_space_group_name_H-M   'P 1'
_cell_length_a   3.87521301
_cell_length_b   11.44964611
_cell_length_c   11.44964585
_cell_angle_alpha   91.64107806
_cell_angle_beta   80.25703090
_cell_angle_gamma   99.74296755
_symmetry_Int_Tables_number   1
_chemical_formula_structural   Nb9SO25
_chemical_formula_sum   'Nb9 S1 O25'
_cell_volume   493.46990486
_cell_formula_units_Z   1
loop_
 _symmetry_equiv_pos_site_id
 _symmetry_equiv_pos_as_xyz
  1  'x, y, z'
loop_
 _atom_site_type_symbol
 _atom_site_label
 _atom_site_symmetry_multiplicity
 _atom_site_fract_x
 _atom_site_fract_y
 _atom_site_fract_z
 _atom_site_occupancy
  Nb  Nb0  1  0.000000  0.000000  0.000000  1
  Nb  Nb1  1  0.786809  0.677000  0.117490  1
  Nb  Nb2  1  0.124226  0.440901  0.204413  1
  Nb  Nb3  1  0.890191  0.117490  0.323000  1
  Nb  Nb4  1  0.671363  0.795586  0.440901  1
  Nb  Nb5  1  0.316678  0.204413  0.559099  1
  Nb  Nb6  1  0.095702  0.882510  0.677000  1
  Nb  Nb7  1  0.887735  0.559099  0.795587  1
  Nb  Nb8  1  0.227299  0.323000  0.882510  1
  S  S9  1  0.249999  0.500000  0.500000  1
  O  O10  1  0.500001  0.000000  0.000000  1
  O  O11  1  0.188617  0.392560  0.043749  1
  O  O12  1  0.886633  0.830423  0.063081  1
  O  O13  1  0.255689  0.634018  0.139622  1
  O  O14  1  0.943788  0.063081  0.169577  1
  O  O15  1  0.656030  0.489319  0.201856  1
  O  O16  1  0.008292  0.290532  0.266812  1
  O  O17  1  0.724897  0.733188  0.290531  1
  O  O18  1  0.378330  0.139622  0.365982  1
  O  O19  1  0.096823  0.511984  0.390695  1
  O  O20  1  0.767632  0.956250  0.392561  1
  O  O21  1  0.415162  0.390695  0.488016  1
  O  O22  1  0.142112  0.798144  0.489319  1
  O  O23  1  0.833288  0.201855  0.510680  1
  O  O24  1  0.512483  0.609304  0.511983  1
  O  O25  1  0.203942  0.043750  0.607439  1
  O  O26  1  0.975533  0.488016  0.609304  1
  O  O27  1  0.604689  0.860378  0.634018  1
  O  O28  1  0.282240  0.266812  0.709469  1
  O  O29  1  0.984571  0.709468  0.733188  1
  O  O30  1  0.368568  0.510680  0.798144  1
  O  O31  1  0.050287  0.936918  0.830422  1
  O  O32  1  0.761292  0.365981  0.860377  1
  O  O33  1  0.119291  0.169577  0.936918  1
  O  O34  1  0.839807  0.607439  0.956250  1
