# generated using pymatgen
data_Ba7Ho2Mn3Cr2O20
_symmetry_space_group_name_H-M   'P 1'
_cell_length_a   5.90799963
_cell_length_b   5.90799878
_cell_length_c   17.63790191
_cell_angle_alpha   80.35866051
_cell_angle_beta   99.64134085
_cell_angle_gamma   120.00000574
_symmetry_Int_Tables_number   1
_chemical_formula_structural   Ba7Ho2Mn3Cr2O20
_chemical_formula_sum   'Ba7 Ho2 Mn3 Cr2 O20'
_cell_volume   523.09604693
_cell_formula_units_Z   1
loop_
 _symmetry_equiv_pos_site_id
 _symmetry_equiv_pos_as_xyz
  1  'x, y, z'
loop_
 _atom_site_type_symbol
 _atom_site_label
 _atom_site_symmetry_multiplicity
 _atom_site_fract_x
 _atom_site_fract_y
 _atom_site_fract_z
 _atom_site_occupancy
  Ba  Ba0  1  0.000000  0.000000  0.000000  1
  Ba  Ba1  1  0.385040  0.614962  0.155119  1
  Ba  Ba2  1  0.771355  0.228644  0.314067  1
  Ba  Ba3  1  0.145479  0.854521  0.436439  1
  Ba  Ba4  1  0.854520  0.145479  0.563561  1
  Ba  Ba5  1  0.228644  0.771356  0.685933  1
  Ba  Ba6  1  0.614961  0.385041  0.844881  1
  Ho  Ho7  1  0.073303  0.926697  0.219909  1
  Ho  Ho8  1  0.926696  0.073303  0.780091  1
  Mn  Mn9  1  0.450379  0.549623  0.351137  1
  Mn  Mn10  1  0.500000  0.500001  0.500000  1
  Mn  Mn11  1  0.549622  0.450380  0.648863  1
  Cr  Cr12  1  0.698094  0.301904  0.094284  1
  Cr  Cr13  1  0.301905  0.698096  0.905716  1
  O  O14  1  0.335254  0.664748  0.005759  1
  O  O15  1  0.875517  0.124008  0.135139  1
  O  O16  1  0.383631  0.124483  0.135139  1
  O  O17  1  0.875992  0.616369  0.135139  1
  O  O18  1  0.273936  0.256253  0.291981  1
  O  O19  1  0.743748  0.725704  0.291981  1
  O  O20  1  0.274297  0.726065  0.291981  1
  O  O21  1  0.621999  0.377704  0.428722  1
  O  O22  1  0.184426  0.378000  0.428722  1
  O  O23  1  0.622295  0.815571  0.428722  1
  O  O24  1  0.377704  0.184427  0.571277  1
  O  O25  1  0.815573  0.621999  0.571277  1
  O  O26  1  0.377999  0.622296  0.571277  1
  O  O27  1  0.725704  0.273936  0.708019  1
  O  O28  1  0.256251  0.274296  0.708019  1
  O  O29  1  0.726065  0.743748  0.708019  1
  O  O30  1  0.124008  0.383631  0.864862  1
  O  O31  1  0.616370  0.875517  0.864862  1
  O  O32  1  0.124482  0.875992  0.864862  1
  O  O33  1  0.664747  0.335254  0.994241  1
