# generated using pymatgen
data_Ba3ScMn2O9
_symmetry_space_group_name_H-M   'P 1'
_cell_length_a   5.81011200
_cell_length_b   5.81121657
_cell_length_c   14.17621100
_cell_angle_alpha   90.00000000
_cell_angle_beta   90.00000000
_cell_angle_gamma   60.00628746
_symmetry_Int_Tables_number   1
_chemical_formula_structural   Ba3ScMn2O9
_chemical_formula_sum   'Ba6 Sc2 Mn4 O18'
_cell_volume   414.54327825
_cell_formula_units_Z   2
loop_
 _symmetry_equiv_pos_site_id
 _symmetry_equiv_pos_as_xyz
  1  'x, y, z'
loop_
 _atom_site_type_symbol
 _atom_site_label
 _atom_site_symmetry_multiplicity
 _atom_site_fract_x
 _atom_site_fract_y
 _atom_site_fract_z
 _atom_site_occupancy
  Ba  Ba0  1  0.334046  0.331908  0.097310  1
  Ba  Ba1  1  0.999941  0.000117  0.255767  1
  Ba  Ba2  1  0.332602  0.334797  0.414213  1
  Ba  Ba3  1  0.665954  0.668091  0.597311  1
  Ba  Ba4  1  0.000059  0.999882  0.755768  1
  Ba  Ba5  1  0.667399  0.665203  0.914213  1
  Sc  Sc6  1  0.000777  0.998448  0.005718  1
  Sc  Sc7  1  0.999224  0.001552  0.505718  1
  Mn  Mn8  1  0.667059  0.665883  0.163331  1
  Mn  Mn9  1  0.666235  0.667529  0.348174  1
  Mn  Mn10  1  0.332941  0.334118  0.663330  1
  Mn  Mn11  1  0.333765  0.332470  0.848174  1
  O  O12  1  0.347122  0.824949  0.090416  1
  O  O13  1  0.827930  0.824949  0.090416  1
  O  O14  1  0.827986  0.344027  0.090898  1
  O  O15  1  0.521554  0.956892  0.255335  1
  O  O16  1  0.521400  0.521567  0.255932  1
  O  O17  1  0.957034  0.521567  0.255932  1
  O  O18  1  0.345242  0.828561  0.420816  1
  O  O19  1  0.826197  0.828561  0.420816  1
  O  O20  1  0.826130  0.347741  0.421027  1
  O  O21  1  0.172071  0.175050  0.590416  1
  O  O22  1  0.652878  0.175050  0.590416  1
  O  O23  1  0.172014  0.655973  0.590898  1
  O  O24  1  0.478447  0.043108  0.755336  1
  O  O25  1  0.042965  0.478435  0.755930  1
  O  O26  1  0.478599  0.478435  0.755930  1
  O  O27  1  0.173803  0.171438  0.920816  1
  O  O28  1  0.654758  0.171438  0.920816  1
  O  O29  1  0.173870  0.652259  0.921028  1
