# generated using pymatgen
data_Dy3ThAl17SiRh6
_symmetry_space_group_name_H-M   'P 1'
_cell_length_a   7.57904591
_cell_length_b   7.57200478
_cell_length_c   9.46665836
_cell_angle_alpha   90.02651743
_cell_angle_beta   89.92032434
_cell_angle_gamma   119.51056471
_symmetry_Int_Tables_number   1
_chemical_formula_structural   Dy3ThAl17SiRh6
_chemical_formula_sum   'Dy3 Th1 Al17 Si1 Rh6'
_cell_volume   472.79529601
_cell_formula_units_Z   1
loop_
 _symmetry_equiv_pos_site_id
 _symmetry_equiv_pos_as_xyz
  1  'x, y, z'
loop_
 _atom_site_type_symbol
 _atom_site_label
 _atom_site_symmetry_multiplicity
 _atom_site_fract_x
 _atom_site_fract_y
 _atom_site_fract_z
 _atom_site_occupancy
  Dy  Dy0  1  0.004408  0.328477  0.254048  1
  Dy  Dy1  1  0.676504  0.999761  0.747426  1
  Dy  Dy2  1  0.328528  0.005433  0.250476  1
  Th  Th3  1  0.994665  0.665823  0.747325  1
  Al  Al4  1  0.131450  0.133326  0.749495  1
  Al  Al5  1  0.871596  0.874966  0.249452  1
  Al  Al6  1  0.999248  0.668322  0.416865  1
  Al  Al7  1  0.999697  0.664571  0.081190  1
  Al  Al8  1  0.339296  0.003943  0.927822  1
  Al  Al9  1  0.001711  0.331118  0.932579  1
  Al  Al10  1  0.664199  0.000610  0.076238  1
  Al  Al11  1  0.661244  0.997214  0.422028  1
  Al  Al12  1  0.339237  0.004235  0.572499  1
  Al  Al13  1  0.332579  0.332182  0.055140  1
  Al  Al14  1  0.663979  0.667338  0.954916  1
  Al  Al15  1  0.662952  0.666497  0.545758  1
  Al  Al16  1  0.334084  0.332687  0.445638  1
  Al  Al17  1  0.345651  0.549019  0.750389  1
  Al  Al18  1  0.658639  0.448202  0.250227  1
  Al  Al19  1  0.543060  0.337227  0.749723  1
  Al  Al20  1  0.448168  0.659347  0.249728  1
  Si  Si21  1  0.001102  0.330489  0.571355  1
  Rh  Rh22  1  0.680984  0.329742  0.501622  1
  Rh  Rh23  1  0.318648  0.663679  0.500847  1
  Rh  Rh24  1  0.326250  0.671123  0.999171  1
  Rh  Rh25  1  0.673370  0.329252  0.998770  1
  Rh  Rh26  1  0.998750  0.006086  0.500609  1
  Rh  Rh27  1  0.000000  0.999326  0.998665  1
