# generated using pymatgen
data_YbAlSbO5
_symmetry_space_group_name_H-M   'P 1'
_cell_length_a   9.01879500
_cell_length_b   6.65897707
_cell_length_c   7.62270959
_cell_angle_alpha   61.12003408
_cell_angle_beta   90.00000000
_cell_angle_gamma   90.00000000
_symmetry_Int_Tables_number   1
_chemical_formula_structural   YbAlSbO5
_chemical_formula_sum   'Yb4 Al4 Sb4 O20'
_cell_volume   400.85541728
_cell_formula_units_Z   4
loop_
 _symmetry_equiv_pos_site_id
 _symmetry_equiv_pos_as_xyz
  1  'x, y, z'
loop_
 _atom_site_type_symbol
 _atom_site_label
 _atom_site_symmetry_multiplicity
 _atom_site_fract_x
 _atom_site_fract_y
 _atom_site_fract_z
 _atom_site_occupancy
  Yb  Yb0  1  0.661748  0.701778  0.291784  1
  Yb  Yb1  1  0.838252  0.701778  0.791784  1
  Yb  Yb2  1  0.338252  0.298222  0.708216  1
  Yb  Yb3  1  0.161748  0.298222  0.208216  1
  Al  Al4  1  0.186097  0.761084  0.748017  1
  Al  Al5  1  0.686097  0.238916  0.751983  1
  Al  Al6  1  0.313903  0.761084  0.248017  1
  Al  Al7  1  0.813903  0.238916  0.251983  1
  Sb  Sb8  1  0.500000  0.000000  0.500000  1
  Sb  Sb9  1  0.500000  0.500000  0.000000  1
  Sb  Sb10  1  0.000000  0.500000  0.500000  1
  Sb  Sb11  1  0.000000  0.000000  0.000000  1
  O  O12  1  0.801911  0.997143  0.881139  1
  O  O13  1  0.563391  0.244789  0.565460  1
  O  O14  1  0.913882  0.758214  0.254559  1
  O  O15  1  0.436609  0.755211  0.434540  1
  O  O16  1  0.698089  0.997143  0.381139  1
  O  O17  1  0.203608  0.510450  0.386831  1
  O  O18  1  0.413882  0.241786  0.245441  1
  O  O19  1  0.703608  0.489550  0.113169  1
  O  O20  1  0.796392  0.489550  0.613169  1
  O  O21  1  0.553246  0.281763  0.901239  1
  O  O22  1  0.946754  0.281763  0.401239  1
  O  O23  1  0.063391  0.755211  0.934540  1
  O  O24  1  0.936609  0.244789  0.065460  1
  O  O25  1  0.586118  0.758214  0.754559  1
  O  O26  1  0.053246  0.718237  0.598761  1
  O  O27  1  0.446754  0.718237  0.098761  1
  O  O28  1  0.296392  0.510450  0.886831  1
  O  O29  1  0.301911  0.002857  0.618861  1
  O  O30  1  0.086118  0.241786  0.745441  1
  O  O31  1  0.198089  0.002857  0.118861  1
