# generated using pymatgen
data_Er4Cd2CuNi3
_symmetry_space_group_name_H-M   'P 1'
_cell_length_a   7.40459215
_cell_length_b   7.40459215
_cell_length_c   3.62340200
_cell_angle_alpha   90.00000000
_cell_angle_beta   90.00000000
_cell_angle_gamma   90.43417299
_symmetry_Int_Tables_number   1
_chemical_formula_structural   Er4Cd2CuNi3
_chemical_formula_sum   'Er4 Cd2 Cu1 Ni3'
_cell_volume   198.65812625
_cell_formula_units_Z   1
loop_
 _symmetry_equiv_pos_site_id
 _symmetry_equiv_pos_as_xyz
  1  'x, y, z'
loop_
 _atom_site_type_symbol
 _atom_site_label
 _atom_site_symmetry_multiplicity
 _atom_site_fract_x
 _atom_site_fract_y
 _atom_site_fract_z
 _atom_site_occupancy
  Er  Er0  1  0.686151  0.167720  0.500000  1
  Er  Er1  1  0.332280  0.813849  0.500000  1
  Er  Er2  1  0.159896  0.340104  0.500000  1
  Er  Er3  1  0.825721  0.674279  0.500000  1
  Cd  Cd4  1  0.006780  0.998084  0.000000  1
  Cd  Cd5  1  0.501916  0.493220  0.000000  1
  Cu  Cu6  1  0.378531  0.121469  0.000000  1
  Ni  Ni7  1  0.117412  0.626905  0.000000  1
  Ni  Ni8  1  0.873095  0.382588  0.000000  1
  Ni  Ni9  1  0.618217  0.881783  0.000000  1
