# generated using pymatgen
data_Dy3TmZnPt3
_symmetry_space_group_name_H-M   'P 1'
_cell_length_a   4.54264700
_cell_length_b   5.55672431
_cell_length_c   7.09716654
_cell_angle_alpha   90.49173333
_cell_angle_beta   90.00000000
_cell_angle_gamma   90.00000000
_symmetry_Int_Tables_number   1
_chemical_formula_structural   Dy3TmZnPt3
_chemical_formula_sum   'Dy3 Tm1 Zn1 Pt3'
_cell_volume   179.14176234
_cell_formula_units_Z   1
loop_
 _symmetry_equiv_pos_site_id
 _symmetry_equiv_pos_as_xyz
  1  'x, y, z'
loop_
 _atom_site_type_symbol
 _atom_site_label
 _atom_site_symmetry_multiplicity
 _atom_site_fract_x
 _atom_site_fract_y
 _atom_site_fract_z
 _atom_site_occupancy
  Dy  Dy0  1  0.250000  0.641375  0.187618  1
  Dy  Dy1  1  0.750000  0.369168  0.807297  1
  Dy  Dy2  1  0.250000  0.849760  0.677416  1
  Tm  Tm3  1  0.750000  0.139276  0.329327  1
  Zn  Zn4  1  0.250000  0.136897  0.033685  1
  Pt  Pt5  1  0.750000  0.875164  0.971773  1
  Pt  Pt6  1  0.750000  0.655509  0.452845  1
  Pt  Pt7  1  0.250000  0.332851  0.540040  1
