# generated using pymatgen
data_Ti12Al5Ga3(PtC)4
_symmetry_space_group_name_H-M   'P 1'
_cell_length_a   8.22943368
_cell_length_b   8.22747164
_cell_length_c   8.22943327
_cell_angle_alpha   59.97041554
_cell_angle_beta   59.97417086
_cell_angle_gamma   59.97041473
_symmetry_Int_Tables_number   1
_chemical_formula_structural   Ti12Al5Ga3(PtC)4
_chemical_formula_sum   'Ti12 Al5 Ga3 Pt4 C4'
_cell_volume   393.74237035
_cell_formula_units_Z   1
loop_
 _symmetry_equiv_pos_site_id
 _symmetry_equiv_pos_as_xyz
  1  'x, y, z'
loop_
 _atom_site_type_symbol
 _atom_site_label
 _atom_site_symmetry_multiplicity
 _atom_site_fract_x
 _atom_site_fract_y
 _atom_site_fract_z
 _atom_site_occupancy
  Ti  Ti0  1  0.935032  0.934774  0.565663  1
  Ti  Ti1  1  0.685070  0.314407  0.314673  1
  Ti  Ti2  1  0.315070  0.684821  0.685138  1
  Ti  Ti3  1  0.685138  0.684821  0.315070  1
  Ti  Ti4  1  0.686127  0.313769  0.686127  1
  Ti  Ti5  1  0.315817  0.683661  0.315817  1
  Ti  Ti6  1  0.565547  0.934406  0.565547  1
  Ti  Ti7  1  0.565663  0.934774  0.935032  1
  Ti  Ti8  1  0.935704  0.564155  0.564641  1
  Ti  Ti9  1  0.936187  0.564178  0.936187  1
  Ti  Ti10  1  0.314673  0.314407  0.685070  1
  Ti  Ti11  1  0.564641  0.564155  0.935704  1
  Al  Al12  1  0.335481  0.335870  0.335481  1
  Al  Al13  1  0.256833  0.914748  0.914077  1
  Al  Al14  1  0.914128  0.914524  0.914128  1
  Al  Al15  1  0.914077  0.914748  0.256833  1
  Al  Al16  1  0.335371  0.993604  0.335371  1
  Ga  Ga17  1  0.911399  0.265720  0.911399  1
  Ga  Ga18  1  0.338705  0.338733  0.984036  1
  Ga  Ga19  1  0.984036  0.338733  0.338705  1
  Pt  Pt20  1  0.125042  0.627994  0.125042  1
  Pt  Pt21  1  0.128872  0.121513  0.624484  1
  Pt  Pt22  1  0.624484  0.121513  0.128872  1
  Pt  Pt23  1  0.127125  0.119654  0.127125  1
  C  C24  1  0.624804  0.125533  0.624804  1
  C  C25  1  0.625369  0.624947  0.124613  1
  C  C26  1  0.124613  0.624947  0.625369  1
  C  C27  1  0.624992  0.624893  0.624992  1
