# generated using pymatgen
data_Sm6CoAs12Rh17
_symmetry_space_group_name_H-M   'P 1'
_cell_length_a   4.00875000
_cell_length_b   11.57732000
_cell_length_c   13.37449500
_cell_angle_alpha   90.00000000
_cell_angle_beta   90.00000000
_cell_angle_gamma   90.00000000
_symmetry_Int_Tables_number   1
_chemical_formula_structural   Sm6CoAs12Rh17
_chemical_formula_sum   'Sm6 Co1 As12 Rh17'
_cell_volume   620.71809089
_cell_formula_units_Z   1
loop_
 _symmetry_equiv_pos_site_id
 _symmetry_equiv_pos_as_xyz
  1  'x, y, z'
loop_
 _atom_site_type_symbol
 _atom_site_label
 _atom_site_symmetry_multiplicity
 _atom_site_fract_x
 _atom_site_fract_y
 _atom_site_fract_z
 _atom_site_occupancy
  Sm  Sm0  1  0.000000  0.500000  0.520497  1
  Sm  Sm1  1  0.500000  0.000000  0.477590  1
  Sm  Sm2  1  0.500000  0.816132  0.203778  1
  Sm  Sm3  1  0.500000  0.183868  0.203778  1
  Sm  Sm4  1  0.000000  0.690056  0.796965  1
  Sm  Sm5  1  0.000000  0.309944  0.796965  1
  Co  Co6  1  0.500000  0.000000  0.022817  1
  As  As7  1  0.500000  0.500000  0.878609  1
  As  As8  1  0.000000  0.000000  0.119862  1
  As  As9  1  0.500000  0.500000  0.349130  1
  As  As10  1  0.000000  0.000000  0.647719  1
  As  As11  1  0.500000  0.315279  0.618235  1
  As  As12  1  0.500000  0.684721  0.618235  1
  As  As13  1  0.000000  0.184776  0.382059  1
  As  As14  1  0.000000  0.815224  0.382059  1
  As  As15  1  0.500000  0.857470  0.894911  1
  As  As16  1  0.500000  0.142530  0.894911  1
  As  As17  1  0.000000  0.652681  0.108101  1
  As  As18  1  0.000000  0.347319  0.108101  1
  Rh  Rh19  1  0.500000  0.500000  0.165479  1
  Rh  Rh20  1  0.000000  0.000000  0.829868  1
  Rh  Rh21  1  0.500000  0.500000  0.701516  1
  Rh  Rh22  1  0.000000  0.000000  0.298558  1
  Rh  Rh23  1  0.000000  0.500000  0.980501  1
  Rh  Rh24  1  0.500000  0.331394  0.993810  1
  Rh  Rh25  1  0.500000  0.668606  0.993810  1
  Rh  Rh26  1  0.000000  0.161321  0.005069  1
  Rh  Rh27  1  0.000000  0.838679  0.005069  1
  Rh  Rh28  1  0.500000  0.295050  0.431396  1
  Rh  Rh29  1  0.500000  0.704950  0.431396  1
  Rh  Rh30  1  0.000000  0.204379  0.569395  1
  Rh  Rh31  1  0.000000  0.795621  0.569395  1
  Rh  Rh32  1  0.500000  0.876018  0.708916  1
  Rh  Rh33  1  0.500000  0.123982  0.708916  1
  Rh  Rh34  1  0.000000  0.625358  0.291292  1
  Rh  Rh35  1  0.000000  0.374642  0.291292  1
