# generated using pymatgen
data_Dy15Th(NiHg)4
_symmetry_space_group_name_H-M   'P 1'
_cell_length_a   9.52422468
_cell_length_b   9.52422536
_cell_length_c   9.52422459
_cell_angle_alpha   60.20917366
_cell_angle_beta   60.20918179
_cell_angle_gamma   60.20916940
_symmetry_Int_Tables_number   1
_chemical_formula_structural   Dy15Th(NiHg)4
_chemical_formula_sum   'Dy15 Th1 Ni4 Hg4'
_cell_volume   613.79873063
_cell_formula_units_Z   1
loop_
 _symmetry_equiv_pos_site_id
 _symmetry_equiv_pos_as_xyz
  1  'x, y, z'
loop_
 _atom_site_type_symbol
 _atom_site_label
 _atom_site_symmetry_multiplicity
 _atom_site_fract_x
 _atom_site_fract_y
 _atom_site_fract_z
 _atom_site_occupancy
  Dy  Dy0  1  0.599963  0.599963  0.196611  1
  Dy  Dy1  1  0.599963  0.196611  0.599963  1
  Dy  Dy2  1  0.196611  0.599963  0.599963  1
  Dy  Dy3  1  0.062409  0.439715  0.439715  1
  Dy  Dy4  1  0.440770  0.061536  0.061536  1
  Dy  Dy5  1  0.439715  0.062409  0.439715  1
  Dy  Dy6  1  0.061536  0.440770  0.061536  1
  Dy  Dy7  1  0.439715  0.439715  0.062409  1
  Dy  Dy8  1  0.061536  0.061536  0.440770  1
  Dy  Dy9  1  0.188356  0.814167  0.814167  1
  Dy  Dy10  1  0.812793  0.186596  0.186596  1
  Dy  Dy11  1  0.814167  0.188356  0.814167  1
  Dy  Dy12  1  0.186596  0.812793  0.186596  1
  Dy  Dy13  1  0.814167  0.814167  0.188356  1
  Dy  Dy14  1  0.186596  0.186596  0.812793  1
  Th  Th15  1  0.595128  0.595128  0.595128  1
  Ni  Ni16  1  0.392977  0.392977  0.392977  1
  Ni  Ni17  1  0.392589  0.392589  0.821118  1
  Ni  Ni18  1  0.392589  0.821118  0.392589  1
  Ni  Ni19  1  0.821118  0.392589  0.392589  1
  Hg  Hg20  1  0.834979  0.834979  0.834979  1
  Hg  Hg21  1  0.836564  0.836564  0.492598  1
  Hg  Hg22  1  0.836564  0.492598  0.836564  1
  Hg  Hg23  1  0.492598  0.836564  0.836564  1
