# generated using pymatgen
data_Ni11B4PdO20
_symmetry_space_group_name_H-M   'P 1'
_cell_length_a   3.03713100
_cell_length_b   9.23485300
_cell_length_c   12.33839838
_cell_angle_alpha   89.61198613
_cell_angle_beta   90.00000000
_cell_angle_gamma   90.00000000
_symmetry_Int_Tables_number   1
_chemical_formula_structural   Ni11B4PdO20
_chemical_formula_sum   'Ni11 B4 Pd1 O20'
_cell_volume   346.05277878
_cell_formula_units_Z   1
loop_
 _symmetry_equiv_pos_site_id
 _symmetry_equiv_pos_as_xyz
  1  'x, y, z'
loop_
 _atom_site_type_symbol
 _atom_site_label
 _atom_site_symmetry_multiplicity
 _atom_site_fract_x
 _atom_site_fract_y
 _atom_site_fract_z
 _atom_site_occupancy
  Ni  Ni0  1  0.500000  0.990552  0.502749  1
  Ni  Ni1  1  0.500000  0.501391  0.999326  1
  Ni  Ni2  1  0.000000  0.760483  0.617256  1
  Ni  Ni3  1  0.000000  0.259754  0.886120  1
  Ni  Ni4  1  0.000000  0.740098  0.111454  1
  Ni  Ni5  1  0.000000  0.998501  0.998364  1
  Ni  Ni6  1  0.000000  0.510379  0.505120  1
  Ni  Ni7  1  0.500000  0.994570  0.215304  1
  Ni  Ni8  1  0.500000  0.999414  0.781250  1
  Ni  Ni9  1  0.500000  0.503082  0.721671  1
  Ni  Ni10  1  0.500000  0.509271  0.279190  1
  B  B11  1  0.000000  0.270512  0.139069  1
  B  B12  1  0.000000  0.724553  0.860892  1
  B  B13  1  0.000000  0.228232  0.638869  1
  B  B14  1  0.000000  0.776293  0.360574  1
  Pd  Pd15  1  0.000000  0.242659  0.386962  1
  O  O16  1  0.000000  0.351031  0.046020  1
  O  O17  1  0.000000  0.648333  0.957538  1
  O  O18  1  0.000000  0.148462  0.539658  1
  O  O19  1  0.000000  0.850867  0.457708  1
  O  O20  1  0.500000  0.104168  0.357545  1
  O  O21  1  0.500000  0.891963  0.645099  1
  O  O22  1  0.500000  0.390568  0.857559  1
  O  O23  1  0.500000  0.609324  0.141457  1
  O  O24  1  0.000000  0.348055  0.238647  1
  O  O25  1  0.000000  0.648841  0.763950  1
  O  O26  1  0.000000  0.148113  0.732560  1
  O  O27  1  0.000000  0.851019  0.263222  1
  O  O28  1  0.500000  0.386184  0.419200  1
  O  O29  1  0.500000  0.614523  0.579987  1
  O  O30  1  0.500000  0.114969  0.920717  1
  O  O31  1  0.500000  0.885422  0.075152  1
  O  O32  1  0.000000  0.121785  0.142946  1
  O  O33  1  0.000000  0.875403  0.858240  1
  O  O34  1  0.000000  0.376473  0.638308  1
  O  O35  1  0.000000  0.624752  0.360315  1
