# generated using pymatgen
data_Li4Al7ZnPd4
_symmetry_space_group_name_H-M   'P 1'
_cell_length_a   6.02250400
_cell_length_b   4.32625000
_cell_length_c   8.67533700
_cell_angle_alpha   90.00000000
_cell_angle_beta   90.00063387
_cell_angle_gamma   90.00000000
_symmetry_Int_Tables_number   1
_chemical_formula_structural   Li4Al7ZnPd4
_chemical_formula_sum   'Li4 Al7 Zn1 Pd4'
_cell_volume   226.03467302
_cell_formula_units_Z   1
loop_
 _symmetry_equiv_pos_site_id
 _symmetry_equiv_pos_as_xyz
  1  'x, y, z'
loop_
 _atom_site_type_symbol
 _atom_site_label
 _atom_site_symmetry_multiplicity
 _atom_site_fract_x
 _atom_site_fract_y
 _atom_site_fract_z
 _atom_site_occupancy
  Li  Li0  1  0.257713  0.250001  0.124835  1
  Li  Li1  1  0.745967  0.750000  0.370540  1
  Li  Li2  1  0.250001  0.250001  0.624825  1
  Li  Li3  1  0.746028  0.750000  0.879743  1
  Al  Al4  1  0.004783  0.750000  0.125140  1
  Al  Al5  1  0.501041  0.250001  0.373535  1
  Al  Al6  1  0.999478  0.250001  0.374479  1
  Al  Al7  1  0.996300  0.750000  0.625108  1
  Al  Al8  1  0.500702  0.750000  0.625133  1
  Al  Al9  1  0.999542  0.250001  0.875305  1
  Al  Al10  1  0.501068  0.250001  0.876253  1
  Zn  Zn11  1  0.496352  0.750000  0.125111  1
  Pd  Pd12  1  0.760271  0.250001  0.124911  1
  Pd  Pd13  1  0.246220  0.750000  0.380548  1
  Pd  Pd14  1  0.748441  0.250001  0.624905  1
  Pd  Pd15  1  0.246194  0.750000  0.869632  1
