# generated using pymatgen
data_AgBr37
_symmetry_space_group_name_H-M   'P 1'
_cell_length_a   12.40202611
_cell_length_b   16.14595016
_cell_length_c   13.89935297
_cell_angle_alpha   103.46358643
_cell_angle_beta   60.50140472
_cell_angle_gamma   77.56677677
_symmetry_Int_Tables_number   1
_chemical_formula_structural   AgBr37
_chemical_formula_sum   'Ag1 Br37'
_cell_volume   2169.51872103
_cell_formula_units_Z   1
loop_
 _symmetry_equiv_pos_site_id
 _symmetry_equiv_pos_as_xyz
  1  'x, y, z'
loop_
 _atom_site_type_symbol
 _atom_site_label
 _atom_site_symmetry_multiplicity
 _atom_site_fract_x
 _atom_site_fract_y
 _atom_site_fract_z
 _atom_site_occupancy
  Ag  Ag0  1  0.500000  0.000000  0.000000  1
  Br  Br1  1  0.830620  0.280052  0.106676  1
  Br  Br2  1  0.169380  0.719948  0.893324  1
  Br  Br3  1  0.694402  0.090861  0.390324  1
  Br  Br4  1  0.305598  0.909139  0.609676  1
  Br  Br5  1  0.068023  0.374836  0.213709  1
  Br  Br6  1  0.931977  0.625164  0.786291  1
  Br  Br7  1  0.802947  0.531924  0.211804  1
  Br  Br8  1  0.197053  0.468076  0.788196  1
  Br  Br9  1  0.649533  0.332021  0.545845  1
  Br  Br10  1  0.350467  0.667979  0.454155  1
  Br  Br11  1  0.960728  0.169965  0.463039  1
  Br  Br12  1  0.039272  0.830035  0.536961  1
  Br  Br13  1  0.930923  0.023557  0.330283  1
  Br  Br14  1  0.069077  0.976443  0.669717  1
  Br  Br15  1  0.963384  0.301769  0.594313  1
  Br  Br16  1  0.036616  0.698231  0.405687  1
  Br  Br17  1  0.608927  0.340270  0.124571  1
  Br  Br18  1  0.391073  0.659730  0.875429  1
  Br  Br19  1  0.059467  0.515875  0.339869  1
  Br  Br20  1  0.940533  0.484125  0.660131  1
  Br  Br21  1  0.000000  0.500000  0.000000  1
  Br  Br22  1  0.468052  0.969133  0.187013  1
  Br  Br23  1  0.531948  0.030867  0.812987  1
  Br  Br24  1  0.218942  0.066269  0.323266  1
  Br  Br25  1  0.781058  0.933731  0.676734  1
  Br  Br26  1  0.449590  0.150278  0.443293  1
  Br  Br27  1  0.550410  0.849722  0.556707  1
  Br  Br28  1  0.053657  0.218226  0.077574  1
  Br  Br29  1  0.946343  0.781774  0.922426  1
  Br  Br30  1  0.684713  0.696310  0.375544  1
  Br  Br31  1  0.315287  0.303690  0.624456  1
  Br  Br32  1  0.530686  0.156015  0.075709  1
  Br  Br33  1  0.469314  0.843985  0.924291  1
  Br  Br34  1  0.304228  0.260701  0.141157  1
  Br  Br35  1  0.695772  0.739299  0.858843  1
  Br  Br36  1  0.540775  0.489579  0.689228  1
  Br  Br37  1  0.459225  0.510421  0.310772  1
