# generated using pymatgen
data_Sr4BeSi6Ag
_symmetry_space_group_name_H-M   'P 1'
_cell_length_a   8.53745745
_cell_length_b   8.23835536
_cell_length_c   6.24770500
_cell_angle_alpha   70.70447299
_cell_angle_beta   65.61065919
_cell_angle_gamma   43.68488787
_symmetry_Int_Tables_number   1
_chemical_formula_structural   Sr4BeSi6Ag
_chemical_formula_sum   'Sr4 Be1 Si6 Ag1'
_cell_volume   276.07140987
_cell_formula_units_Z   1
loop_
 _symmetry_equiv_pos_site_id
 _symmetry_equiv_pos_as_xyz
  1  'x, y, z'
loop_
 _atom_site_type_symbol
 _atom_site_label
 _atom_site_symmetry_multiplicity
 _atom_site_fract_x
 _atom_site_fract_y
 _atom_site_fract_z
 _atom_site_occupancy
  Sr  Sr0  1  0.245706  0.754905  0.245095  1
  Sr  Sr1  1  0.249739  0.249739  0.250261  1
  Sr  Sr2  1  0.749739  0.749739  0.750260  1
  Sr  Sr3  1  0.754906  0.245704  0.754295  1
  Be  Be4  1  0.666063  0.666061  0.333938  1
  Si  Si5  1  0.831174  0.831173  0.168827  1
  Si  Si6  1  0.828999  0.340538  0.171002  1
  Si  Si7  1  0.672827  0.164197  0.327174  1
  Si  Si8  1  0.340540  0.828997  0.659461  1
  Si  Si9  1  0.164198  0.672826  0.835803  1
  Si  Si10  1  0.162500  0.162499  0.837501  1
  Ag  Ag11  1  0.333615  0.333614  0.666386  1
