# generated using pymatgen
data_Dy3YAl17Co6Si
_symmetry_space_group_name_H-M   'P 1'
_cell_length_a   7.38048401
_cell_length_b   7.38055705
_cell_length_c   9.26725900
_cell_angle_alpha   90.00000000
_cell_angle_beta   90.00000000
_cell_angle_gamma   119.25333161
_symmetry_Int_Tables_number   1
_chemical_formula_structural   Dy3YAl17Co6Si
_chemical_formula_sum   'Dy3 Y1 Al17 Co6 Si1'
_cell_volume   440.42766441
_cell_formula_units_Z   1
loop_
 _symmetry_equiv_pos_site_id
 _symmetry_equiv_pos_as_xyz
  1  'x, y, z'
loop_
 _atom_site_type_symbol
 _atom_site_label
 _atom_site_symmetry_multiplicity
 _atom_site_fract_x
 _atom_site_fract_y
 _atom_site_fract_z
 _atom_site_occupancy
  Dy  Dy0  1  0.992699  0.677469  0.250000  1
  Dy  Dy1  1  0.005854  0.328534  0.750000  1
  Dy  Dy2  1  0.677457  0.992650  0.250000  1
  Y  Y3  1  0.328463  0.005850  0.750000  1
  Al  Al4  1  0.876247  0.876396  0.750000  1
  Al  Al5  1  0.331470  0.331556  0.545568  1
  Al  Al6  1  0.665216  0.665221  0.041136  1
  Al  Al7  1  0.331470  0.331556  0.954432  1
  Al  Al8  1  0.665216  0.665221  0.458864  1
  Al  Al9  1  0.336263  0.554277  0.250000  1
  Al  Al10  1  0.661490  0.446203  0.750000  1
  Al  Al11  1  0.554281  0.336288  0.250000  1
  Al  Al12  1  0.446053  0.661138  0.750000  1
  Al  Al13  1  0.998978  0.337175  0.073599  1
  Al  Al14  1  0.001877  0.665075  0.571041  1
  Al  Al15  1  0.337188  0.998965  0.426283  1
  Al  Al16  1  0.665279  0.002004  0.928968  1
  Al  Al17  1  0.001877  0.665075  0.928959  1
  Al  Al18  1  0.998978  0.337175  0.426401  1
  Al  Al19  1  0.665279  0.002004  0.571032  1
  Al  Al20  1  0.337188  0.998965  0.073717  1
  Co  Co21  1  0.000765  0.000818  0.008612  1
  Co  Co22  1  0.000765  0.000818  0.491388  1
  Co  Co23  1  0.669513  0.327767  0.000735  1
  Co  Co24  1  0.327708  0.669413  0.499267  1
  Co  Co25  1  0.327708  0.669413  0.000733  1
  Co  Co26  1  0.669513  0.327767  0.499265  1
  Si  Si27  1  0.125203  0.125206  0.250000  1
