# generated using pymatgen
data_Zr2Sc2Si6Ir7
_symmetry_space_group_name_H-M   'P 1'
_cell_length_a   6.99033265
_cell_length_b   7.01667524
_cell_length_c   6.99033311
_cell_angle_alpha   109.47661055
_cell_angle_beta   109.30781138
_cell_angle_gamma   109.47660383
_symmetry_Int_Tables_number   1
_chemical_formula_structural   Zr2Sc2Si6Ir7
_chemical_formula_sum   'Zr2 Sc2 Si6 Ir7'
_cell_volume   264.43544277
_cell_formula_units_Z   1
loop_
 _symmetry_equiv_pos_site_id
 _symmetry_equiv_pos_as_xyz
  1  'x, y, z'
loop_
 _atom_site_type_symbol
 _atom_site_label
 _atom_site_symmetry_multiplicity
 _atom_site_fract_x
 _atom_site_fract_y
 _atom_site_fract_z
 _atom_site_occupancy
  Zr  Zr0  1  0.000000  0.000000  0.500000  1
  Zr  Zr1  1  0.500000  0.000000  0.000000  1
  Sc  Sc2  1  0.000000  0.500000  0.000000  1
  Sc  Sc3  1  0.500000  0.500000  0.500000  1
  Si  Si4  1  0.681326  0.677334  0.996008  1
  Si  Si5  1  0.318811  0.000000  0.318811  1
  Si  Si6  1  0.003992  0.322666  0.318674  1
  Si  Si7  1  0.318674  0.322666  0.003992  1
  Si  Si8  1  0.681189  0.000000  0.681189  1
  Si  Si9  1  0.996008  0.677334  0.681326  1
  Ir  Ir10  1  0.750053  0.249857  0.499804  1
  Ir  Ir11  1  0.750000  0.500000  0.250000  1
  Ir  Ir12  1  0.499804  0.249857  0.750053  1
  Ir  Ir13  1  0.250000  0.500000  0.750000  1
  Ir  Ir14  1  0.249947  0.750143  0.500196  1
  Ir  Ir15  1  0.500196  0.750143  0.249947  1
  Ir  Ir16  1  0.000000  0.000000  0.000000  1
