# generated using pymatgen
data_Ho4Sn2As4Rh7
_symmetry_space_group_name_H-M   'P 1'
_cell_length_a   7.39582540
_cell_length_b   7.35826332
_cell_length_c   7.35826174
_cell_angle_alpha   108.99822929
_cell_angle_beta   109.60403038
_cell_angle_gamma   109.60403000
_symmetry_Int_Tables_number   1
_chemical_formula_structural   Ho4Sn2As4Rh7
_chemical_formula_sum   'Ho4 Sn2 As4 Rh7'
_cell_volume   309.03644533
_cell_formula_units_Z   1
loop_
 _symmetry_equiv_pos_site_id
 _symmetry_equiv_pos_as_xyz
  1  'x, y, z'
loop_
 _atom_site_type_symbol
 _atom_site_label
 _atom_site_symmetry_multiplicity
 _atom_site_fract_x
 _atom_site_fract_y
 _atom_site_fract_z
 _atom_site_occupancy
  Ho  Ho0  1  0.464164  0.459326  0.459326  1
  Ho  Ho1  1  0.009119  0.504560  0.004560  1
  Ho  Ho2  1  0.464164  0.004838  0.004838  1
  Ho  Ho3  1  0.009119  0.004560  0.504560  1
  Sn  Sn4  1  0.690679  0.990275  0.700404  1
  Sn  Sn5  1  0.690679  0.700404  0.990275  1
  As  As6  1  0.330627  0.336513  0.994114  1
  As  As7  1  0.988808  0.672544  0.672544  1
  As  As8  1  0.988808  0.316264  0.316264  1
  As  As9  1  0.330627  0.994114  0.336513  1
  Rh  Rh10  1  0.500777  0.750388  0.250388  1
  Rh  Rh11  1  0.749917  0.249852  0.500065  1
  Rh  Rh12  1  0.241674  0.742206  0.499467  1
  Rh  Rh13  1  0.241674  0.499467  0.742206  1
  Rh  Rh14  1  0.048471  0.024235  0.024235  1
  Rh  Rh15  1  0.500777  0.250388  0.750388  1
  Rh  Rh16  1  0.749917  0.500065  0.249852  1
