# generated using pymatgen
data_Hf2In(Co3B2)3
_symmetry_space_group_name_H-M   'P 1'
_cell_length_a   5.69995567
_cell_length_b   5.69995473
_cell_length_c   5.69995408
_cell_angle_alpha   95.18329659
_cell_angle_beta   95.18331031
_cell_angle_gamma   95.18330095
_symmetry_Int_Tables_number   1
_chemical_formula_structural   Hf2In(Co3B2)3
_chemical_formula_sum   'Hf2 In1 Co9 B6'
_cell_volume   182.76905011
_cell_formula_units_Z   1
loop_
 _symmetry_equiv_pos_site_id
 _symmetry_equiv_pos_as_xyz
  1  'x, y, z'
loop_
 _atom_site_type_symbol
 _atom_site_label
 _atom_site_symmetry_multiplicity
 _atom_site_fract_x
 _atom_site_fract_y
 _atom_site_fract_z
 _atom_site_occupancy
  Hf  Hf0  1  0.673446  0.673446  0.673446  1
  Hf  Hf1  1  0.326554  0.326554  0.326554  1
  In  In2  1  0.000000  0.000000  0.000000  1
  Co  Co3  1  0.500000  0.000000  0.000000  1
  Co  Co4  1  0.000000  0.500000  0.000000  1
  Co  Co5  1  0.000000  0.000000  0.500000  1
  Co  Co6  1  0.698891  0.201671  0.698891  1
  Co  Co7  1  0.698891  0.698891  0.201671  1
  Co  Co8  1  0.201671  0.698891  0.698891  1
  Co  Co9  1  0.301109  0.798329  0.301109  1
  Co  Co10  1  0.301109  0.301109  0.798329  1
  Co  Co11  1  0.798329  0.301109  0.301109  1
  B  B12  1  0.383793  0.000000  0.616207  1
  B  B13  1  0.616207  0.383793  0.000000  1
  B  B14  1  0.000000  0.616207  0.383793  1
  B  B15  1  0.616207  0.000000  0.383793  1
  B  B16  1  0.383793  0.616207  0.000000  1
  B  B17  1  0.000000  0.383793  0.616207  1
