# generated using pymatgen
data_Zn2Cu(SbPt)2
_symmetry_space_group_name_H-M   'P 1'
_cell_length_a   4.38116800
_cell_length_b   4.38116769
_cell_length_c   15.70134800
_cell_angle_alpha   90.00000000
_cell_angle_beta   90.00000000
_cell_angle_gamma   119.99998728
_symmetry_Int_Tables_number   1
_chemical_formula_structural   Zn2Cu(SbPt)2
_chemical_formula_sum   'Zn4 Cu2 Sb4 Pt4'
_cell_volume   261.00414793
_cell_formula_units_Z   2
loop_
 _symmetry_equiv_pos_site_id
 _symmetry_equiv_pos_as_xyz
  1  'x, y, z'
loop_
 _atom_site_type_symbol
 _atom_site_label
 _atom_site_symmetry_multiplicity
 _atom_site_fract_x
 _atom_site_fract_y
 _atom_site_fract_z
 _atom_site_occupancy
  Zn  Zn0  1  0.000000  0.000000  0.673722  1
  Zn  Zn1  1  0.000000  0.000000  0.326278  1
  Zn  Zn2  1  0.333333  0.666667  0.767665  1
  Zn  Zn3  1  0.666667  0.333333  0.232335  1
  Cu  Cu4  1  0.000000  0.000000  0.169324  1
  Cu  Cu5  1  0.000000  0.000000  0.830676  1
  Sb  Sb6  1  0.333333  0.666667  0.079767  1
  Sb  Sb7  1  0.666667  0.333333  0.920233  1
  Sb  Sb8  1  0.666667  0.333333  0.574736  1
  Sb  Sb9  1  0.333333  0.666667  0.425264  1
  Pt  Pt10  1  0.000000  0.000000  0.000000  1
  Pt  Pt11  1  0.000000  0.000000  0.500000  1
  Pt  Pt12  1  0.333333  0.666667  0.253598  1
  Pt  Pt13  1  0.666667  0.333333  0.746402  1
