# generated using pymatgen
data_NdEuH5
_symmetry_space_group_name_H-M   'P 1'
_cell_length_a   6.73347264
_cell_length_b   6.73347240
_cell_length_c   6.73347248
_cell_angle_alpha   130.58338447
_cell_angle_beta   130.58338648
_cell_angle_gamma   72.47583269
_symmetry_Int_Tables_number   1
_chemical_formula_structural   NdEuH5
_chemical_formula_sum   'Nd2 Eu2 H10'
_cell_volume   172.09529773
_cell_formula_units_Z   2
loop_
 _symmetry_equiv_pos_site_id
 _symmetry_equiv_pos_as_xyz
  1  'x, y, z'
loop_
 _atom_site_type_symbol
 _atom_site_label
 _atom_site_symmetry_multiplicity
 _atom_site_fract_x
 _atom_site_fract_y
 _atom_site_fract_z
 _atom_site_occupancy
  Nd  Nd0  1  0.014655  0.514655  0.500000  1
  Nd  Nd1  1  0.264655  0.264655  0.000000  1
  Eu  Eu2  1  0.489352  0.989352  0.500000  1
  Eu  Eu3  1  0.739352  0.739352  0.000000  1
  H  H4  1  0.366663  0.346693  0.463053  1
  H  H5  1  0.883641  0.903610  0.536947  1
  H  H6  1  0.653610  0.133641  0.036947  1
  H  H7  1  0.096693  0.616663  0.963053  1
  H  H8  1  0.366663  0.903610  0.019969  1
  H  H9  1  0.883641  0.346693  0.980031  1
  H  H10  1  0.653610  0.616663  0.519969  1
  H  H11  1  0.096693  0.133641  0.480031  1
  H  H12  1  0.245385  0.745385  0.500000  1
  H  H13  1  0.495385  0.495385  0.000000  1
