# generated using pymatgen
data_Tb4TcB12Ru
_symmetry_space_group_name_H-M   'P 1'
_cell_length_a   3.69598400
_cell_length_b   9.18413895
_cell_length_c   11.57738188
_cell_angle_alpha   89.84976910
_cell_angle_beta   90.00000000
_cell_angle_gamma   90.00000000
_symmetry_Int_Tables_number   1
_chemical_formula_structural   Tb4TcB12Ru
_chemical_formula_sum   'Tb8 Tc2 B24 Ru2'
_cell_volume   392.98628492
_cell_formula_units_Z   2
loop_
 _symmetry_equiv_pos_site_id
 _symmetry_equiv_pos_as_xyz
  1  'x, y, z'
loop_
 _atom_site_type_symbol
 _atom_site_label
 _atom_site_symmetry_multiplicity
 _atom_site_fract_x
 _atom_site_fract_y
 _atom_site_fract_z
 _atom_site_occupancy
  Tb  Tb0  1  0.000000  0.325413  0.415410  1
  Tb  Tb1  1  0.000000  0.674587  0.584590  1
  Tb  Tb2  1  0.000000  0.821796  0.087408  1
  Tb  Tb3  1  0.000000  0.178204  0.912592  1
  Tb  Tb4  1  0.000000  0.942115  0.370194  1
  Tb  Tb5  1  0.000000  0.057885  0.629806  1
  Tb  Tb6  1  0.000000  0.442940  0.130262  1
  Tb  Tb7  1  0.000000  0.557060  0.869738  1
  Tc  Tc8  1  0.000000  0.638493  0.320323  1
  Tc  Tc9  1  0.000000  0.361507  0.679677  1
  B  B10  1  0.500000  0.553479  0.432833  1
  B  B11  1  0.500000  0.446521  0.567167  1
  B  B12  1  0.500000  0.054064  0.067232  1
  B  B13  1  0.500000  0.945936  0.932768  1
  B  B14  1  0.500000  0.748103  0.418782  1
  B  B15  1  0.500000  0.251897  0.581218  1
  B  B16  1  0.500000  0.248033  0.081304  1
  B  B17  1  0.500000  0.751967  0.918696  1
  B  B18  1  0.500000  0.790880  0.265493  1
  B  B19  1  0.500000  0.209120  0.734507  1
  B  B20  1  0.500000  0.289989  0.233959  1
  B  B21  1  0.500000  0.710011  0.766041  1
  B  B22  1  0.500000  0.631534  0.185616  1
  B  B23  1  0.500000  0.368466  0.814384  1
  B  B24  1  0.500000  0.131124  0.313520  1
  B  B25  1  0.500000  0.868876  0.686480  1
  B  B26  1  0.500000  0.983903  0.211589  1
  B  B27  1  0.500000  0.016097  0.788411  1
  B  B28  1  0.500000  0.483662  0.287943  1
  B  B29  1  0.500000  0.516338  0.712057  1
  B  B30  1  0.500000  0.604107  0.028724  1
  B  B31  1  0.500000  0.395893  0.971276  1
  B  B32  1  0.500000  0.103880  0.470989  1
  B  B33  1  0.500000  0.896120  0.529011  1
  Ru  Ru34  1  0.000000  0.137645  0.178220  1
  Ru  Ru35  1  0.000000  0.862355  0.821780  1
