# generated using pymatgen
data_La12Nd2RuRh5
_symmetry_space_group_name_H-M   'P 1'
_cell_length_a   10.17698700
_cell_length_b   10.16528701
_cell_length_c   6.56919033
_cell_angle_alpha   89.87899363
_cell_angle_beta   90.00000000
_cell_angle_gamma   120.03809100
_symmetry_Int_Tables_number   1
_chemical_formula_structural   La12Nd2RuRh5
_chemical_formula_sum   'La12 Nd2 Ru1 Rh5'
_cell_volume   588.31947626
_cell_formula_units_Z   1
loop_
 _symmetry_equiv_pos_site_id
 _symmetry_equiv_pos_as_xyz
  1  'x, y, z'
loop_
 _atom_site_type_symbol
 _atom_site_label
 _atom_site_symmetry_multiplicity
 _atom_site_fract_x
 _atom_site_fract_y
 _atom_site_fract_z
 _atom_site_occupancy
  La  La0  1  0.874451  0.748902  0.790929  1
  La  La1  1  0.249040  0.128451  0.789952  1
  La  La2  1  0.879411  0.128451  0.789952  1
  La  La3  1  0.124679  0.249358  0.284509  1
  La  La4  1  0.748051  0.873328  0.291691  1
  La  La5  1  0.125277  0.873328  0.291691  1
  La  La6  1  0.462229  0.924460  0.595818  1
  La  La7  1  0.080198  0.536583  0.597619  1
  La  La8  1  0.456383  0.536583  0.597619  1
  La  La9  1  0.539258  0.078516  0.092677  1
  La  La10  1  0.923831  0.459636  0.095684  1
  La  La11  1  0.535806  0.459636  0.095684  1
  Nd  Nd12  1  0.666390  0.332778  0.562221  1
  Nd  Nd13  1  0.333825  0.667653  0.059517  1
  Ru  Ru14  1  0.186487  0.372974  0.833574  1
  Rh  Rh15  1  0.628884  0.815410  0.828323  1
  Rh  Rh16  1  0.186527  0.815410  0.828323  1
  Rh  Rh17  1  0.813413  0.626827  0.327635  1
  Rh  Rh18  1  0.374533  0.185858  0.330816  1
  Rh  Rh19  1  0.811324  0.185858  0.330816  1
