# generated using pymatgen
data_Ca6Mo2HN6
_symmetry_space_group_name_H-M   'P 1'
_cell_length_a   6.19143644
_cell_length_b   6.19143532
_cell_length_c   6.19143669
_cell_angle_alpha   95.80826613
_cell_angle_beta   95.80826163
_cell_angle_gamma   95.80826590
_symmetry_Int_Tables_number   1
_chemical_formula_structural   Ca6Mo2HN6
_chemical_formula_sum   'Ca6 Mo2 H1 N6'
_cell_volume   233.41727857
_cell_formula_units_Z   1
loop_
 _symmetry_equiv_pos_site_id
 _symmetry_equiv_pos_as_xyz
  1  'x, y, z'
loop_
 _atom_site_type_symbol
 _atom_site_label
 _atom_site_symmetry_multiplicity
 _atom_site_fract_x
 _atom_site_fract_y
 _atom_site_fract_z
 _atom_site_occupancy
  Ca  Ca0  1  0.630462  0.118364  0.791757  1
  Ca  Ca1  1  0.118364  0.791757  0.630462  1
  Ca  Ca2  1  0.791757  0.630462  0.118364  1
  Ca  Ca3  1  0.369538  0.881636  0.208243  1
  Ca  Ca4  1  0.881636  0.208243  0.369538  1
  Ca  Ca5  1  0.208243  0.369538  0.881636  1
  Mo  Mo6  1  0.629946  0.629946  0.629946  1
  Mo  Mo7  1  0.370054  0.370054  0.370054  1
  H  H8  1  0.000000  0.000000  0.000000  1
  N  N9  1  0.737251  0.862832  0.471215  1
  N  N10  1  0.862832  0.471215  0.737251  1
  N  N11  1  0.471215  0.737251  0.862832  1
  N  N12  1  0.262749  0.137168  0.528785  1
  N  N13  1  0.137168  0.528785  0.262749  1
  N  N14  1  0.528785  0.262749  0.137168  1
