# generated using pymatgen
data_Ba5Ga6F2
_symmetry_space_group_name_H-M   'P 1'
_cell_length_a   7.85710200
_cell_length_b   7.85710119
_cell_length_c   14.71641900
_cell_angle_alpha   90.00000000
_cell_angle_beta   90.00000000
_cell_angle_gamma   120.00000340
_symmetry_Int_Tables_number   1
_chemical_formula_structural   Ba5Ga6F2
_chemical_formula_sum   'Ba10 Ga12 F4'
_cell_volume   786.78758585
_cell_formula_units_Z   2
loop_
 _symmetry_equiv_pos_site_id
 _symmetry_equiv_pos_as_xyz
  1  'x, y, z'
loop_
 _atom_site_type_symbol
 _atom_site_label
 _atom_site_symmetry_multiplicity
 _atom_site_fract_x
 _atom_site_fract_y
 _atom_site_fract_z
 _atom_site_occupancy
  Ba  Ba0  1  0.685320  0.018584  0.763455  1
  Ba  Ba1  1  0.981416  0.666736  0.763455  1
  Ba  Ba2  1  0.333264  0.314680  0.763455  1
  Ba  Ba3  1  0.981416  0.314680  0.263455  1
  Ba  Ba4  1  0.333264  0.018584  0.263455  1
  Ba  Ba5  1  0.685320  0.666736  0.263455  1
  Ba  Ba6  1  0.666667  0.333333  0.532064  1
  Ba  Ba7  1  0.666667  0.333333  0.032064  1
  Ba  Ba8  1  0.000000  0.000000  0.495428  1
  Ba  Ba9  1  0.000000  0.000000  0.995428  1
  Ga  Ga10  1  0.144109  0.455423  0.589446  1
  Ga  Ga11  1  0.544577  0.688686  0.589446  1
  Ga  Ga12  1  0.311314  0.855891  0.589446  1
  Ga  Ga13  1  0.544577  0.855891  0.089446  1
  Ga  Ga14  1  0.311314  0.455423  0.089446  1
  Ga  Ga15  1  0.144109  0.688686  0.089446  1
  Ga  Ga16  1  0.121796  0.477452  0.936642  1
  Ga  Ga17  1  0.522548  0.644344  0.936642  1
  Ga  Ga18  1  0.355656  0.878204  0.936642  1
  Ga  Ga19  1  0.522548  0.878204  0.436642  1
  Ga  Ga20  1  0.355656  0.477452  0.436642  1
  Ga  Ga21  1  0.121796  0.644344  0.436642  1
  F  F22  1  0.000000  0.000000  0.811580  1
  F  F23  1  0.000000  0.000000  0.311580  1
  F  F24  1  0.666667  0.333333  0.716136  1
  F  F25  1  0.666667  0.333333  0.216136  1
