# generated using pymatgen
data_LaDy5FeBr10
_symmetry_space_group_name_H-M   'P 1'
_cell_length_a   7.41883817
_cell_length_b   9.37346954
_cell_length_c   9.07735182
_cell_angle_alpha   108.44003496
_cell_angle_beta   104.08222889
_cell_angle_gamma   97.13993391
_symmetry_Int_Tables_number   1
_chemical_formula_structural   LaDy5FeBr10
_chemical_formula_sum   'La1 Dy5 Fe1 Br10'
_cell_volume   566.77043635
_cell_formula_units_Z   1
loop_
 _symmetry_equiv_pos_site_id
 _symmetry_equiv_pos_as_xyz
  1  'x, y, z'
loop_
 _atom_site_type_symbol
 _atom_site_label
 _atom_site_symmetry_multiplicity
 _atom_site_fract_x
 _atom_site_fract_y
 _atom_site_fract_z
 _atom_site_occupancy
  La  La0  1  0.968548  0.085201  0.274741  1
  Dy  Dy1  1  0.358721  0.180004  0.130294  1
  Dy  Dy2  1  0.033854  0.916535  0.731216  1
  Dy  Dy3  1  0.121306  0.752584  0.048530  1
  Dy  Dy4  1  0.640212  0.820330  0.867177  1
  Dy  Dy5  1  0.872993  0.245886  0.951965  1
  Fe  Fe6  1  0.995156  0.005894  0.019000  1
  Br  Br7  1  0.447450  0.077464  0.815906  1
  Br  Br8  1  0.749870  0.542899  0.910457  1
  Br  Br9  1  0.245114  0.453648  0.078246  1
  Br  Br10  1  0.916915  0.166362  0.634539  1
  Br  Br11  1  0.663415  0.730970  0.552842  1
  Br  Br12  1  0.535469  0.912673  0.173318  1
  Br  Br13  1  0.096571  0.817353  0.370906  1
  Br  Br14  1  0.772373  0.355112  0.244293  1
  Br  Br15  1  0.210812  0.657293  0.744644  1
  Br  Br16  1  0.371220  0.279792  0.451927  1
