# generated using pymatgen
data_ThSi2RuRh
_symmetry_space_group_name_H-M   'P 1'
_cell_length_a   5.81354841
_cell_length_b   5.81354910
_cell_length_c   5.81354909
_cell_angle_alpha   137.97237715
_cell_angle_beta   137.97238077
_cell_angle_gamma   60.94530934
_symmetry_Int_Tables_number   1
_chemical_formula_structural   ThSi2RuRh
_chemical_formula_sum   'Th1 Si2 Ru1 Rh1'
_cell_volume   87.10236113
_cell_formula_units_Z   1
loop_
 _symmetry_equiv_pos_site_id
 _symmetry_equiv_pos_as_xyz
  1  'x, y, z'
loop_
 _atom_site_type_symbol
 _atom_site_label
 _atom_site_symmetry_multiplicity
 _atom_site_fract_x
 _atom_site_fract_y
 _atom_site_fract_z
 _atom_site_occupancy
  Th  Th0  1  0.000000  0.000000  0.000000  1
  Si  Si1  1  0.626542  0.626542  0.000000  1
  Si  Si2  1  0.373458  0.373458  0.000000  1
  Ru  Ru3  1  0.750000  0.250000  0.500000  1
  Rh  Rh4  1  0.250000  0.750000  0.500000  1
