# generated using pymatgen
data_LiNd(Al3Pd)3
_symmetry_space_group_name_H-M   'P 1'
_cell_length_a   7.63396715
_cell_length_b   7.63245399
_cell_length_c   9.46329600
_cell_angle_alpha   90.00000000
_cell_angle_beta   90.00000000
_cell_angle_gamma   119.82416859
_symmetry_Int_Tables_number   1
_chemical_formula_structural   LiNd(Al3Pd)3
_chemical_formula_sum   'Li2 Nd2 Al18 Pd6'
_cell_volume   478.35938033
_cell_formula_units_Z   2
loop_
 _symmetry_equiv_pos_site_id
 _symmetry_equiv_pos_as_xyz
  1  'x, y, z'
loop_
 _atom_site_type_symbol
 _atom_site_label
 _atom_site_symmetry_multiplicity
 _atom_site_fract_x
 _atom_site_fract_y
 _atom_site_fract_z
 _atom_site_occupancy
  Li  Li0  1  0.005759  0.324766  0.750000  1
  Li  Li1  1  0.324744  0.003839  0.750000  1
  Nd  Nd2  1  0.998694  0.668546  0.250000  1
  Nd  Nd3  1  0.668429  0.998894  0.250000  1
  Al  Al4  1  0.132139  0.132080  0.250000  1
  Al  Al5  1  0.875531  0.875374  0.750000  1
  Al  Al6  1  0.004808  0.334468  0.058755  1
  Al  Al7  1  0.010441  0.664990  0.906915  1
  Al  Al8  1  0.010441  0.664990  0.593085  1
  Al  Al9  1  0.333494  0.004405  0.441209  1
  Al  Al10  1  0.004808  0.334468  0.441245  1
  Al  Al11  1  0.665099  0.010905  0.593409  1
  Al  Al12  1  0.665099  0.010905  0.906591  1
  Al  Al13  1  0.333494  0.004405  0.058791  1
  Al  Al14  1  0.324987  0.324900  0.577839  1
  Al  Al15  1  0.664373  0.664223  0.462054  1
  Al  Al16  1  0.664373  0.664223  0.037946  1
  Al  Al17  1  0.324987  0.324900  0.922161  1
  Al  Al18  1  0.337540  0.539487  0.250000  1
  Al  Al19  1  0.660251  0.444811  0.750000  1
  Al  Al20  1  0.539590  0.338334  0.250000  1
  Al  Al21  1  0.445591  0.660176  0.750000  1
  Pd  Pd22  1  0.673005  0.332189  0.000335  1
  Pd  Pd23  1  0.332447  0.673264  0.000047  1
  Pd  Pd24  1  0.332447  0.673264  0.499953  1
  Pd  Pd25  1  0.673005  0.332189  0.499665  1
  Pd  Pd26  1  0.997211  0.997506  0.998818  1
  Pd  Pd27  1  0.997211  0.997506  0.501182  1
