# generated using pymatgen
data_Sm4Dy4Re(B8Ru)3
_symmetry_space_group_name_H-M   'P 1'
_cell_length_a   3.70586100
_cell_length_b   9.20809183
_cell_length_c   11.61813313
_cell_angle_alpha   90.12190389
_cell_angle_beta   90.00000000
_cell_angle_gamma   90.00000000
_symmetry_Int_Tables_number   1
_chemical_formula_structural   Sm4Dy4Re(B8Ru)3
_chemical_formula_sum   'Sm4 Dy4 Re1 B24 Ru3'
_cell_volume   396.45521322
_cell_formula_units_Z   1
loop_
 _symmetry_equiv_pos_site_id
 _symmetry_equiv_pos_as_xyz
  1  'x, y, z'
loop_
 _atom_site_type_symbol
 _atom_site_label
 _atom_site_symmetry_multiplicity
 _atom_site_fract_x
 _atom_site_fract_y
 _atom_site_fract_z
 _atom_site_occupancy
  Sm  Sm0  1  0.000000  0.323775  0.414815  1
  Sm  Sm1  1  0.000000  0.679034  0.587757  1
  Sm  Sm2  1  0.000000  0.823092  0.084027  1
  Sm  Sm3  1  0.000000  0.176018  0.913288  1
  Dy  Dy4  1  0.000000  0.943221  0.370671  1
  Dy  Dy5  1  0.000000  0.056308  0.628007  1
  Dy  Dy6  1  0.000000  0.442630  0.128943  1
  Dy  Dy7  1  0.000000  0.555989  0.872224  1
  Re  Re8  1  0.000000  0.861521  0.820349  1
  B  B9  1  0.500000  0.555180  0.431817  1
  B  B10  1  0.500000  0.445146  0.568643  1
  B  B11  1  0.500000  0.054779  0.068795  1
  B  B12  1  0.500000  0.946006  0.931720  1
  B  B13  1  0.500000  0.748663  0.418266  1
  B  B14  1  0.500000  0.251733  0.581452  1
  B  B15  1  0.500000  0.248440  0.082017  1
  B  B16  1  0.500000  0.751176  0.918108  1
  B  B17  1  0.500000  0.789597  0.266698  1
  B  B18  1  0.500000  0.209746  0.732411  1
  B  B19  1  0.500000  0.290167  0.233385  1
  B  B20  1  0.500000  0.708877  0.766725  1
  B  B21  1  0.500000  0.630538  0.185762  1
  B  B22  1  0.500000  0.368680  0.813912  1
  B  B23  1  0.500000  0.131392  0.314485  1
  B  B24  1  0.500000  0.869034  0.685879  1
  B  B25  1  0.500000  0.985206  0.213079  1
  B  B26  1  0.500000  0.016185  0.786680  1
  B  B27  1  0.500000  0.484990  0.287484  1
  B  B28  1  0.500000  0.515155  0.713326  1
  B  B29  1  0.500000  0.603856  0.029599  1
  B  B30  1  0.500000  0.394057  0.971418  1
  B  B31  1  0.500000  0.105720  0.470242  1
  B  B32  1  0.500000  0.895150  0.528220  1
  Ru  Ru33  1  0.000000  0.638654  0.320226  1
  Ru  Ru34  1  0.000000  0.361528  0.679388  1
  Ru  Ru35  1  0.000000  0.138757  0.180181  1
