# generated using pymatgen
data_CaEuBN2F
_symmetry_space_group_name_H-M   'P 1'
_cell_length_a   3.77998600
_cell_length_b   9.24130700
_cell_length_c   10.40520900
_cell_angle_alpha   90.00000000
_cell_angle_beta   90.00000000
_cell_angle_gamma   90.00000000
_symmetry_Int_Tables_number   1
_chemical_formula_structural   CaEuBN2F
_chemical_formula_sum   'Ca4 Eu4 B4 N8 F4'
_cell_volume   363.47487610
_cell_formula_units_Z   4
loop_
 _symmetry_equiv_pos_site_id
 _symmetry_equiv_pos_as_xyz
  1  'x, y, z'
loop_
 _atom_site_type_symbol
 _atom_site_label
 _atom_site_symmetry_multiplicity
 _atom_site_fract_x
 _atom_site_fract_y
 _atom_site_fract_z
 _atom_site_occupancy
  Ca  Ca0  1  0.250000  0.673324  0.030052  1
  Ca  Ca1  1  0.750000  0.826676  0.530052  1
  Ca  Ca2  1  0.250000  0.173324  0.469948  1
  Ca  Ca3  1  0.750000  0.326676  0.969948  1
  Eu  Eu4  1  0.250000  0.525371  0.658431  1
  Eu  Eu5  1  0.750000  0.474629  0.341569  1
  Eu  Eu6  1  0.250000  0.025371  0.841569  1
  Eu  Eu7  1  0.750000  0.974629  0.158431  1
  B  B8  1  0.250000  0.736943  0.329658  1
  B  B9  1  0.750000  0.263057  0.670342  1
  B  B10  1  0.250000  0.236943  0.170342  1
  B  B11  1  0.750000  0.763057  0.829658  1
  N  N12  1  0.250000  0.664166  0.443249  1
  N  N13  1  0.750000  0.335834  0.556751  1
  N  N14  1  0.250000  0.164166  0.056751  1
  N  N15  1  0.750000  0.188307  0.780671  1
  N  N16  1  0.250000  0.311693  0.280671  1
  N  N17  1  0.750000  0.688307  0.719329  1
  N  N18  1  0.250000  0.811693  0.219329  1
  N  N19  1  0.750000  0.835834  0.943249  1
  F  F20  1  0.750000  0.535757  0.100105  1
  F  F21  1  0.750000  0.035757  0.399895  1
  F  F22  1  0.250000  0.464243  0.899895  1
  F  F23  1  0.250000  0.964243  0.600105  1
