# generated using pymatgen
data_Er8Be4Si11Au
_symmetry_space_group_name_H-M   'P 1'
_cell_length_a   7.87369851
_cell_length_b   7.87370022
_cell_length_c   7.96884402
_cell_angle_alpha   89.99259048
_cell_angle_beta   90.00740994
_cell_angle_gamma   119.79588545
_symmetry_Int_Tables_number   1
_chemical_formula_structural   Er8Be4Si11Au
_chemical_formula_sum   'Er8 Be4 Si11 Au1'
_cell_volume   428.71945783
_cell_formula_units_Z   1
loop_
 _symmetry_equiv_pos_site_id
 _symmetry_equiv_pos_as_xyz
  1  'x, y, z'
loop_
 _atom_site_type_symbol
 _atom_site_label
 _atom_site_symmetry_multiplicity
 _atom_site_fract_x
 _atom_site_fract_y
 _atom_site_fract_z
 _atom_site_occupancy
  Er  Er0  1  0.997505  0.495522  0.247635  1
  Er  Er1  1  0.500938  0.499062  0.250127  1
  Er  Er2  1  0.503633  0.000933  0.752394  1
  Er  Er3  1  0.999067  0.496367  0.752394  1
  Er  Er4  1  0.500229  0.499771  0.749948  1
  Er  Er5  1  0.504478  0.002495  0.247635  1
  Er  Er6  1  0.997817  0.002183  0.753847  1
  Er  Er7  1  0.997752  0.002248  0.246171  1
  Be  Be8  1  0.333812  0.666188  0.002562  1
  Be  Be9  1  0.666515  0.333485  0.997494  1
  Be  Be10  1  0.664933  0.335067  0.502344  1
  Be  Be11  1  0.335747  0.664253  0.497246  1
  Si  Si12  1  0.175642  0.347172  0.499865  1
  Si  Si13  1  0.652828  0.824358  0.499865  1
  Si  Si14  1  0.345720  0.172573  0.999914  1
  Si  Si15  1  0.823335  0.653585  0.500286  1
  Si  Si16  1  0.827211  0.172789  0.999809  1
  Si  Si17  1  0.827427  0.654280  0.999914  1
  Si  Si18  1  0.173314  0.345365  0.000162  1
  Si  Si19  1  0.654635  0.826686  0.000162  1
  Si  Si20  1  0.346415  0.176665  0.500286  1
  Si  Si21  1  0.827931  0.172069  0.500265  1
  Si  Si22  1  0.172497  0.827503  0.000110  1
  Au  Au23  1  0.170619  0.829381  0.499569  1
