# generated using pymatgen
data_Rb8DyEr5BeBr20
_symmetry_space_group_name_H-M   'P 1'
_cell_length_a   12.27756992
_cell_length_b   12.28481158
_cell_length_c   12.28481213
_cell_angle_alpha   59.96100734
_cell_angle_beta   60.01950432
_cell_angle_gamma   60.01949822
_symmetry_Int_Tables_number   1
_chemical_formula_structural   Rb8DyEr5BeBr20
_chemical_formula_sum   'Rb8 Dy1 Er5 Be1 Br20'
_cell_volume   1310.18966157
_cell_formula_units_Z   1
loop_
 _symmetry_equiv_pos_site_id
 _symmetry_equiv_pos_as_xyz
  1  'x, y, z'
loop_
 _atom_site_type_symbol
 _atom_site_label
 _atom_site_symmetry_multiplicity
 _atom_site_fract_x
 _atom_site_fract_y
 _atom_site_fract_z
 _atom_site_occupancy
  Rb  Rb0  1  0.358929  0.358938  0.358938  1
  Rb  Rb1  1  0.641085  0.641081  0.641081  1
  Rb  Rb2  1  0.358919  0.358915  0.923246  1
  Rb  Rb3  1  0.358919  0.923246  0.358915  1
  Rb  Rb4  1  0.641062  0.641071  0.076805  1
  Rb  Rb5  1  0.641062  0.076805  0.641071  1
  Rb  Rb6  1  0.923195  0.358938  0.358938  1
  Rb  Rb7  1  0.076754  0.641081  0.641081  1
  Dy  Dy8  1  0.845391  0.154609  0.154609  1
  Er  Er9  1  0.154579  0.845421  0.845421  1
  Er  Er10  1  0.154534  0.845466  0.154238  1
  Er  Er11  1  0.845762  0.154238  0.845466  1
  Er  Er12  1  0.154534  0.154238  0.845466  1
  Er  Er13  1  0.845762  0.845466  0.154238  1
  Be  Be14  1  0.000273  0.999727  0.999727  1
  Br  Br15  1  0.329873  0.999964  0.999964  1
  Br  Br16  1  0.670200  0.999964  0.999964  1
  Br  Br17  1  0.000036  0.329800  0.670127  1
  Br  Br18  1  0.000036  0.670127  0.329800  1
  Br  Br19  1  0.001217  0.330790  0.998783  1
  Br  Br20  1  0.669210  0.998783  0.330790  1
  Br  Br21  1  0.000014  0.670197  0.999986  1
  Br  Br22  1  0.329803  0.999986  0.670197  1
  Br  Br23  1  0.001217  0.998783  0.330790  1
  Br  Br24  1  0.000014  0.999986  0.670197  1
  Br  Br25  1  0.669210  0.330790  0.998783  1
  Br  Br26  1  0.329803  0.670197  0.999986  1
  Br  Br27  1  0.679064  0.320936  0.320936  1
  Br  Br28  1  0.319495  0.680505  0.680505  1
  Br  Br29  1  0.319535  0.680465  0.319493  1
  Br  Br30  1  0.680507  0.319493  0.680465  1
  Br  Br31  1  0.319535  0.319493  0.680465  1
  Br  Br32  1  0.680507  0.680465  0.319493  1
  Br  Br33  1  0.249981  0.250019  0.250019  1
  Br  Br34  1  0.749981  0.750019  0.750019  1
