# generated using pymatgen
data_Y2Sc2Al17GaRh6
_symmetry_space_group_name_H-M   'P 1'
_cell_length_a   7.50394221
_cell_length_b   7.50393370
_cell_length_c   9.40844400
_cell_angle_alpha   90.00000000
_cell_angle_beta   90.00000000
_cell_angle_gamma   119.45829010
_symmetry_Int_Tables_number   1
_chemical_formula_structural   Y2Sc2Al17GaRh6
_chemical_formula_sum   'Y2 Sc2 Al17 Ga1 Rh6'
_cell_volume   461.28758805
_cell_formula_units_Z   1
loop_
 _symmetry_equiv_pos_site_id
 _symmetry_equiv_pos_as_xyz
  1  'x, y, z'
loop_
 _atom_site_type_symbol
 _atom_site_label
 _atom_site_symmetry_multiplicity
 _atom_site_fract_x
 _atom_site_fract_y
 _atom_site_fract_z
 _atom_site_occupancy
  Y  Y0  1  0.993012  0.674081  0.250000  1
  Y  Y1  1  0.674083  0.993013  0.250000  1
  Sc  Sc2  1  0.003665  0.327159  0.750000  1
  Sc  Sc3  1  0.327162  0.003670  0.750000  1
  Al  Al4  1  0.878481  0.878481  0.750000  1
  Al  Al5  1  0.002464  0.335895  0.068404  1
  Al  Al6  1  0.003103  0.664259  0.917300  1
  Al  Al7  1  0.003103  0.664259  0.582700  1
  Al  Al8  1  0.335895  0.002463  0.431595  1
  Al  Al9  1  0.002464  0.335895  0.431596  1
  Al  Al10  1  0.664258  0.003102  0.582700  1
  Al  Al11  1  0.664258  0.003102  0.917300  1
  Al  Al12  1  0.335895  0.002463  0.068405  1
  Al  Al13  1  0.329597  0.329598  0.564160  1
  Al  Al14  1  0.665146  0.665146  0.456889  1
  Al  Al15  1  0.665146  0.665146  0.043111  1
  Al  Al16  1  0.329597  0.329598  0.935840  1
  Al  Al17  1  0.337886  0.548634  0.250000  1
  Al  Al18  1  0.659891  0.442051  0.750000  1
  Al  Al19  1  0.548633  0.337885  0.250000  1
  Al  Al20  1  0.442049  0.659891  0.750000  1
  Ga  Ga21  1  0.134380  0.134380  0.250000  1
  Rh  Rh22  1  0.671993  0.327621  0.998613  1
  Rh  Rh23  1  0.327625  0.671996  0.998615  1
  Rh  Rh24  1  0.327625  0.671996  0.501385  1
  Rh  Rh25  1  0.671993  0.327621  0.501387  1
  Rh  Rh26  1  0.000297  0.000297  0.995939  1
  Rh  Rh27  1  0.000297  0.000297  0.504061  1
