# generated using pymatgen
data_BaCd2Te3(ClO4)2
_symmetry_space_group_name_H-M   'P 1'
_cell_length_a   9.67315500
_cell_length_b   7.17831400
_cell_length_c   19.82240664
_cell_angle_alpha   71.36467970
_cell_angle_beta   90.00000000
_cell_angle_gamma   90.00000000
_symmetry_Int_Tables_number   1
_chemical_formula_structural   BaCd2Te3(ClO4)2
_chemical_formula_sum   'Ba4 Cd8 Te12 Cl8 O32'
_cell_volume   1304.24451234
_cell_formula_units_Z   4
loop_
 _symmetry_equiv_pos_site_id
 _symmetry_equiv_pos_as_xyz
  1  'x, y, z'
loop_
 _atom_site_type_symbol
 _atom_site_label
 _atom_site_symmetry_multiplicity
 _atom_site_fract_x
 _atom_site_fract_y
 _atom_site_fract_z
 _atom_site_occupancy
  Ba  Ba0  1  0.602101  0.515621  0.229114  1
  Ba  Ba1  1  0.897899  0.515621  0.729114  1
  Ba  Ba2  1  0.102101  0.484379  0.270886  1
  Ba  Ba3  1  0.397899  0.484379  0.770886  1
  Cd  Cd4  1  0.450752  0.799298  0.333145  1
  Cd  Cd5  1  0.759139  0.057422  0.337576  1
  Cd  Cd6  1  0.950752  0.200702  0.166855  1
  Cd  Cd7  1  0.740861  0.057422  0.837576  1
  Cd  Cd8  1  0.259139  0.942578  0.162424  1
  Cd  Cd9  1  0.049248  0.799298  0.833145  1
  Cd  Cd10  1  0.240861  0.942578  0.662424  1
  Cd  Cd11  1  0.549248  0.200702  0.666855  1
  Te  Te12  1  0.904845  0.794634  0.104788  1
  Te  Te13  1  0.595155  0.794634  0.604788  1
  Te  Te14  1  0.095155  0.205366  0.895212  1
  Te  Te15  1  0.606349  0.093413  0.140540  1
  Te  Te16  1  0.106349  0.906587  0.359460  1
  Te  Te17  1  0.393651  0.906587  0.859460  1
  Te  Te18  1  0.303342  0.457299  0.104999  1
  Te  Te19  1  0.404845  0.205366  0.395212  1
  Te  Te20  1  0.696658  0.542701  0.895001  1
  Te  Te21  1  0.196658  0.457299  0.604999  1
  Te  Te22  1  0.803342  0.542701  0.395001  1
  Te  Te23  1  0.893651  0.093413  0.640540  1
  Cl  Cl24  1  0.117284  0.751627  0.965538  1
  Cl  Cl25  1  0.882716  0.248373  0.034462  1
  Cl  Cl26  1  0.382716  0.751627  0.465538  1
  Cl  Cl27  1  0.332631  0.137194  0.032590  1
  Cl  Cl28  1  0.667369  0.862806  0.967410  1
  Cl  Cl29  1  0.617284  0.248373  0.534462  1
  Cl  Cl30  1  0.832631  0.862806  0.467410  1
  Cl  Cl31  1  0.167369  0.137194  0.532590  1
  O  O32  1  0.702126  0.382734  0.834912  1
  O  O33  1  0.413049  0.471959  0.336750  1
  O  O34  1  0.221487  0.832108  0.294396  1
  O  O35  1  0.022102  0.340752  0.644067  1
  O  O36  1  0.297874  0.617266  0.165088  1
  O  O37  1  0.735817  0.840788  0.149274  1
  O  O38  1  0.235817  0.159212  0.350726  1
  O  O39  1  0.313216  0.257929  0.664454  1
  O  O40  1  0.278513  0.832108  0.794396  1
  O  O41  1  0.986366  0.090608  0.295148  1
  O  O42  1  0.913049  0.528041  0.163250  1
  O  O43  1  0.764183  0.840788  0.649274  1
  O  O44  1  0.797874  0.382734  0.334912  1
  O  O45  1  0.264183  0.159212  0.850726  1
  O  O46  1  0.513634  0.090608  0.795148  1
  O  O47  1  0.186784  0.257929  0.164454  1
  O  O48  1  0.524284  0.113531  0.335441  1
  O  O49  1  0.813216  0.742071  0.835546  1
  O  O50  1  0.202126  0.617266  0.665088  1
  O  O51  1  0.522102  0.659248  0.855933  1
  O  O52  1  0.086951  0.471959  0.836750  1
  O  O53  1  0.477898  0.340752  0.144067  1
  O  O54  1  0.975716  0.113531  0.835441  1
  O  O55  1  0.013634  0.909392  0.704852  1
  O  O56  1  0.977898  0.659248  0.355933  1
  O  O57  1  0.721487  0.167892  0.205604  1
  O  O58  1  0.024284  0.886469  0.164559  1
  O  O59  1  0.686784  0.742071  0.335546  1
  O  O60  1  0.475716  0.886469  0.664559  1
  O  O61  1  0.778513  0.167892  0.705604  1
  O  O62  1  0.486366  0.909392  0.204852  1
  O  O63  1  0.586951  0.528041  0.663250  1
