# generated using pymatgen
data_Nd3MnFeCo7P6
_symmetry_space_group_name_H-M   'P 1'
_cell_length_a   3.75681500
_cell_length_b   10.69533100
_cell_length_c   12.31094500
_cell_angle_alpha   90.00000000
_cell_angle_beta   90.00000000
_cell_angle_gamma   90.00000000
_symmetry_Int_Tables_number   1
_chemical_formula_structural   Nd3MnFeCo7P6
_chemical_formula_sum   'Nd6 Mn2 Fe2 Co14 P12'
_cell_volume   494.65844741
_cell_formula_units_Z   2
loop_
 _symmetry_equiv_pos_site_id
 _symmetry_equiv_pos_as_xyz
  1  'x, y, z'
loop_
 _atom_site_type_symbol
 _atom_site_label
 _atom_site_symmetry_multiplicity
 _atom_site_fract_x
 _atom_site_fract_y
 _atom_site_fract_z
 _atom_site_occupancy
  Nd  Nd0  1  0.000000  0.500000  0.522382  1
  Nd  Nd1  1  0.500000  0.000000  0.477618  1
  Nd  Nd2  1  0.500000  0.819588  0.204556  1
  Nd  Nd3  1  0.500000  0.180412  0.204556  1
  Nd  Nd4  1  0.000000  0.680412  0.795444  1
  Nd  Nd5  1  0.000000  0.319588  0.795444  1
  Mn  Mn6  1  0.500000  0.500000  0.154415  1
  Mn  Mn7  1  0.000000  0.000000  0.845585  1
  Fe  Fe8  1  0.000000  0.500000  0.989982  1
  Fe  Fe9  1  0.500000  0.000000  0.010018  1
  Co  Co10  1  0.500000  0.500000  0.702442  1
  Co  Co11  1  0.000000  0.000000  0.297558  1
  Co  Co12  1  0.500000  0.332653  0.996329  1
  Co  Co13  1  0.500000  0.667347  0.996329  1
  Co  Co14  1  0.000000  0.167347  0.003671  1
  Co  Co15  1  0.000000  0.832653  0.003671  1
  Co  Co16  1  0.500000  0.296441  0.429692  1
  Co  Co17  1  0.500000  0.703559  0.429692  1
  Co  Co18  1  0.000000  0.203559  0.570308  1
  Co  Co19  1  0.000000  0.796441  0.570308  1
  Co  Co20  1  0.500000  0.881331  0.711142  1
  Co  Co21  1  0.500000  0.118669  0.711142  1
  Co  Co22  1  0.000000  0.618669  0.288858  1
  Co  Co23  1  0.000000  0.381331  0.288858  1
  P  P24  1  0.500000  0.500000  0.888290  1
  P  P25  1  0.000000  0.000000  0.111710  1
  P  P26  1  0.500000  0.500000  0.340395  1
  P  P27  1  0.000000  0.000000  0.659605  1
  P  P28  1  0.500000  0.306906  0.614504  1
  P  P29  1  0.500000  0.693094  0.614504  1
  P  P30  1  0.000000  0.193094  0.385496  1
  P  P31  1  0.000000  0.806906  0.385496  1
  P  P32  1  0.500000  0.847326  0.896172  1
  P  P33  1  0.500000  0.152674  0.896172  1
  P  P34  1  0.000000  0.652674  0.103828  1
  P  P35  1  0.000000  0.347326  0.103828  1
