# generated using pymatgen
data_Nd20Si15Hg
_symmetry_space_group_name_H-M   'P 1'
_cell_length_a   7.92491098
_cell_length_b   7.91483800
_cell_length_c   15.20385172
_cell_angle_alpha   89.96059990
_cell_angle_beta   89.67266517
_cell_angle_gamma   90.04191776
_symmetry_Int_Tables_number   1
_chemical_formula_structural   Nd20Si15Hg
_chemical_formula_sum   'Nd20 Si15 Hg1'
_cell_volume   953.63622580
_cell_formula_units_Z   1
loop_
 _symmetry_equiv_pos_site_id
 _symmetry_equiv_pos_as_xyz
  1  'x, y, z'
loop_
 _atom_site_type_symbol
 _atom_site_label
 _atom_site_symmetry_multiplicity
 _atom_site_fract_x
 _atom_site_fract_y
 _atom_site_fract_z
 _atom_site_occupancy
  Nd  Nd0  1  0.698872  0.687673  0.998155  1
  Nd  Nd1  1  0.007081  0.368607  0.050490  1
  Nd  Nd2  1  0.013187  0.875746  0.123817  1
  Nd  Nd3  1  0.490429  0.360875  0.128950  1
  Nd  Nd4  1  0.497825  0.882803  0.203186  1
  Nd  Nd5  1  0.808142  0.189646  0.251867  1
  Nd  Nd6  1  0.125304  0.512302  0.301767  1
  Nd  Nd7  1  0.627872  0.519081  0.374571  1
  Nd  Nd8  1  0.127316  0.983212  0.377450  1
  Nd  Nd9  1  0.622296  0.989229  0.449307  1
  Nd  Nd10  1  0.307548  0.309140  0.500572  1
  Nd  Nd11  1  0.989415  0.622620  0.552249  1
  Nd  Nd12  1  0.981099  0.129804  0.623654  1
  Nd  Nd13  1  0.517375  0.627482  0.625761  1
  Nd  Nd14  1  0.510260  0.125072  0.697366  1
  Nd  Nd15  1  0.192837  0.808318  0.749736  1
  Nd  Nd16  1  0.874130  0.487199  0.799060  1
  Nd  Nd17  1  0.370663  0.481587  0.870438  1
  Nd  Nd18  1  0.870285  0.020435  0.873338  1
  Nd  Nd19  1  0.380449  0.021164  0.946747  1
  Si  Si20  1  0.713820  0.076927  0.058921  1
  Si  Si21  1  0.789851  0.578325  0.191062  1
  Si  Si22  1  0.193047  0.169606  0.202635  1
  Si  Si23  1  0.836182  0.803425  0.300336  1
  Si  Si24  1  0.420598  0.213236  0.311577  1
  Si  Si25  1  0.921509  0.287236  0.440021  1
  Si  Si26  1  0.331451  0.695552  0.450539  1
  Si  Si27  1  0.693965  0.332383  0.548272  1
  Si  Si28  1  0.286974  0.922359  0.559659  1
  Si  Si29  1  0.212401  0.422788  0.689232  1
  Si  Si30  1  0.802734  0.833932  0.700240  1
  Si  Si31  1  0.167916  0.194321  0.797749  1
  Si  Si32  1  0.575986  0.789046  0.809338  1
  Si  Si33  1  0.065830  0.709762  0.934231  1
  Si  Si34  1  0.666138  0.305141  0.950642  1
  Hg  Hg35  1  0.309221  0.663971  0.057066  1
