# generated using pymatgen
data_Eu4TaMn3O14
_symmetry_space_group_name_H-M   'P 1'
_cell_length_a   7.24072680
_cell_length_b   7.28623302
_cell_length_c   7.24072600
_cell_angle_alpha   60.20638013
_cell_angle_beta   59.99999450
_cell_angle_gamma   60.20637934
_symmetry_Int_Tables_number   1
_chemical_formula_structural   Eu4TaMn3O14
_chemical_formula_sum   'Eu4 Ta1 Mn3 O14'
_cell_volume   270.95679439
_cell_formula_units_Z   1
loop_
 _symmetry_equiv_pos_site_id
 _symmetry_equiv_pos_as_xyz
  1  'x, y, z'
loop_
 _atom_site_type_symbol
 _atom_site_label
 _atom_site_symmetry_multiplicity
 _atom_site_fract_x
 _atom_site_fract_y
 _atom_site_fract_z
 _atom_site_occupancy
  Eu  Eu0  1  0.125000  0.625000  0.125000  1
  Eu  Eu1  1  0.125000  0.125000  0.625000  1
  Eu  Eu2  1  0.625000  0.125000  0.125000  1
  Eu  Eu3  1  0.125000  0.125000  0.125000  1
  Ta  Ta4  1  0.625000  0.125000  0.625000  1
  Mn  Mn5  1  0.625000  0.625000  0.625000  1
  Mn  Mn6  1  0.125000  0.625000  0.625000  1
  Mn  Mn7  1  0.625000  0.625000  0.125000  1
  O  O8  1  0.299352  0.698559  0.702735  1
  O  O9  1  0.550541  0.945757  0.953162  1
  O  O10  1  0.702735  0.698559  0.299352  1
  O  O11  1  0.296838  0.304243  0.699459  1
  O  O12  1  0.999958  0.000126  0.999958  1
  O  O13  1  0.299352  0.698559  0.299352  1
  O  O14  1  0.699459  0.304243  0.699459  1
  O  O15  1  0.950648  0.551441  0.950648  1
  O  O16  1  0.547265  0.551441  0.950648  1
  O  O17  1  0.953162  0.945757  0.550541  1
  O  O18  1  0.250042  0.249874  0.250042  1
  O  O19  1  0.550541  0.945757  0.550541  1
  O  O20  1  0.699459  0.304243  0.296838  1
  O  O21  1  0.950648  0.551441  0.547265  1
