# generated using pymatgen
data_Dy5Er3P12(Ir5Rh3)2
_symmetry_space_group_name_H-M   'P 1'
_cell_length_a   12.99079700
_cell_length_b   12.99079793
_cell_length_c   3.97861500
_cell_angle_alpha   90.00000000
_cell_angle_beta   90.00000000
_cell_angle_gamma   120.00000018
_symmetry_Int_Tables_number   1
_chemical_formula_structural   Dy5Er3P12(Ir5Rh3)2
_chemical_formula_sum   'Dy5 Er3 P12 Ir10 Rh6'
_cell_volume   581.47918124
_cell_formula_units_Z   1
loop_
 _symmetry_equiv_pos_site_id
 _symmetry_equiv_pos_as_xyz
  1  'x, y, z'
loop_
 _atom_site_type_symbol
 _atom_site_label
 _atom_site_symmetry_multiplicity
 _atom_site_fract_x
 _atom_site_fract_y
 _atom_site_fract_z
 _atom_site_occupancy
  Dy  Dy0  1  0.333333  0.666667  0.500000  1
  Dy  Dy1  1  0.666667  0.333333  0.500000  1
  Dy  Dy2  1  0.000000  0.814111  0.000000  1
  Dy  Dy3  1  0.185889  0.185889  0.000000  1
  Dy  Dy4  1  0.814111  0.000000  0.000000  1
  Er  Er5  1  0.000000  0.446248  0.500000  1
  Er  Er6  1  0.553752  0.553752  0.500000  1
  Er  Er7  1  0.446248  0.000000  0.500000  1
  P  P8  1  0.000000  0.652857  0.500000  1
  P  P9  1  0.347143  0.347143  0.500000  1
  P  P10  1  0.652857  0.000000  0.500000  1
  P  P11  1  0.517524  0.690335  0.000000  1
  P  P12  1  0.309665  0.827189  0.000000  1
  P  P13  1  0.172811  0.482476  0.000000  1
  P  P14  1  0.482476  0.172811  0.000000  1
  P  P15  1  0.690335  0.517524  0.000000  1
  P  P16  1  0.827189  0.309665  0.000000  1
  P  P17  1  0.000000  0.176277  0.500000  1
  P  P18  1  0.823723  0.823723  0.500000  1
  P  P19  1  0.176277  0.000000  0.500000  1
  Ir  Ir20  1  0.000000  0.274218  0.000000  1
  Ir  Ir21  1  0.725782  0.725782  0.000000  1
  Ir  Ir22  1  0.274218  0.000000  0.000000  1
  Ir  Ir23  1  0.629174  0.807850  0.500000  1
  Ir  Ir24  1  0.192150  0.821325  0.500000  1
  Ir  Ir25  1  0.178675  0.370826  0.500000  1
  Ir  Ir26  1  0.370826  0.178675  0.500000  1
  Ir  Ir27  1  0.807850  0.629174  0.500000  1
  Ir  Ir28  1  0.821325  0.192150  0.500000  1
  Ir  Ir29  1  0.000000  0.000000  0.500000  1
  Rh  Rh30  1  0.511922  0.868142  0.000000  1
  Rh  Rh31  1  0.131858  0.643781  0.000000  1
  Rh  Rh32  1  0.356219  0.488078  0.000000  1
  Rh  Rh33  1  0.488078  0.356219  0.000000  1
  Rh  Rh34  1  0.868142  0.511922  0.000000  1
  Rh  Rh35  1  0.643781  0.131858  0.000000  1
