# generated using pymatgen
data_Rb14Fe7NiSe16
_symmetry_space_group_name_H-M   'P 1'
_cell_length_a   10.41146939
_cell_length_b   10.44206432
_cell_length_c   16.84206785
_cell_angle_alpha   65.33085053
_cell_angle_beta   64.96237481
_cell_angle_gamma   48.40578721
_symmetry_Int_Tables_number   1
_chemical_formula_structural   Rb14Fe7NiSe16
_chemical_formula_sum   'Rb14 Fe7 Ni1 Se16'
_cell_volume   1215.27176375
_cell_formula_units_Z   1
loop_
 _symmetry_equiv_pos_site_id
 _symmetry_equiv_pos_as_xyz
  1  'x, y, z'
loop_
 _atom_site_type_symbol
 _atom_site_label
 _atom_site_symmetry_multiplicity
 _atom_site_fract_x
 _atom_site_fract_y
 _atom_site_fract_z
 _atom_site_occupancy
  Rb  Rb0  1  0.236038  0.767638  0.747336  1
  Rb  Rb1  1  0.767596  0.231816  0.250359  1
  Rb  Rb2  1  0.241228  0.746671  0.991015  1
  Rb  Rb3  1  0.255360  0.757591  0.508953  1
  Rb  Rb4  1  0.758216  0.252334  0.010968  1
  Rb  Rb5  1  0.745773  0.245215  0.490130  1
  Rb  Rb6  1  0.997667  0.522030  0.609938  1
  Rb  Rb7  1  0.481116  0.996195  0.889492  1
  Rb  Rb8  1  0.995747  0.481760  0.388471  1
  Rb  Rb9  1  0.519663  0.001839  0.112238  1
  Rb  Rb10  1  0.009952  0.507679  0.862306  1
  Rb  Rb11  1  0.493236  0.990260  0.636102  1
  Rb  Rb12  1  0.988034  0.492469  0.139583  1
  Rb  Rb13  1  0.508368  0.007810  0.363072  1
  Fe  Fe14  1  0.569229  0.316518  0.835706  1
  Fe  Fe15  1  0.318356  0.571894  0.332013  1
  Fe  Fe16  1  0.429651  0.680560  0.167406  1
  Fe  Fe17  1  0.898577  0.209726  0.778748  1
  Fe  Fe18  1  0.788424  0.099966  0.724132  1
  Fe  Fe19  1  0.105139  0.786302  0.223275  1
  Fe  Fe20  1  0.213745  0.894388  0.276997  1
  Ni  Ni21  1  0.678543  0.436275  0.663406  1
  Se  Se22  1  0.652263  0.509909  0.788582  1
  Se  Se23  1  0.492314  0.349825  0.707648  1
  Se  Se24  1  0.348853  0.485926  0.207739  1
  Se  Se25  1  0.515169  0.651058  0.291213  1
  Se  Se26  1  0.973213  0.193082  0.624095  1
  Se  Se27  1  0.814687  0.015840  0.878266  1
  Se  Se28  1  0.017547  0.814381  0.377388  1
  Se  Se29  1  0.187520  0.980220  0.123045  1
  Se  Se30  1  0.671847  0.608418  0.045966  1
  Se  Se31  1  0.390519  0.331302  0.452555  1
  Se  Se32  1  0.325322  0.390734  0.955858  1
  Se  Se33  1  0.605619  0.679424  0.544229  1
  Se  Se34  1  0.870639  0.860349  0.683538  1
  Se  Se35  1  0.138518  0.128321  0.818961  1
  Se  Se36  1  0.130792  0.134709  0.317442  1
  Se  Se37  1  0.865518  0.869566  0.181830  1
