# generated using pymatgen
data_SmYMn2(CuO5)2
_symmetry_space_group_name_H-M   'P 1'
_cell_length_a   5.66285100
_cell_length_b   7.61324699
_cell_length_c   8.52278856
_cell_angle_alpha   90.25040705
_cell_angle_beta   90.00000000
_cell_angle_gamma   90.00000000
_symmetry_Int_Tables_number   1
_chemical_formula_structural   SmYMn2(CuO5)2
_chemical_formula_sum   'Sm2 Y2 Mn4 Cu4 O20'
_cell_volume   367.43677509
_cell_formula_units_Z   2
loop_
 _symmetry_equiv_pos_site_id
 _symmetry_equiv_pos_as_xyz
  1  'x, y, z'
loop_
 _atom_site_type_symbol
 _atom_site_label
 _atom_site_symmetry_multiplicity
 _atom_site_fract_x
 _atom_site_fract_y
 _atom_site_fract_z
 _atom_site_occupancy
  Sm  Sm0  1  0.500000  0.350022  0.325015  1
  Sm  Sm1  1  0.500000  0.649978  0.674985  1
  Y  Y2  1  0.500000  0.150009  0.825713  1
  Y  Y3  1  0.500000  0.849991  0.174287  1
  Mn  Mn4  1  0.239985  0.000000  0.500000  1
  Mn  Mn5  1  0.760015  0.000000  0.500000  1
  Mn  Mn6  1  0.760568  0.500000  0.000000  1
  Mn  Mn7  1  0.239432  0.500000  0.000000  1
  Cu  Cu8  1  0.000000  0.067607  0.150149  1
  Cu  Cu9  1  0.000000  0.932393  0.849851  1
  Cu  Cu10  1  0.000000  0.427621  0.650642  1
  Cu  Cu11  1  0.000000  0.572379  0.349358  1
  O  O12  1  0.227303  0.000000  0.000000  1
  O  O13  1  0.772697  0.000000  0.000000  1
  O  O14  1  0.776591  0.500000  0.500000  1
  O  O15  1  0.223409  0.500000  0.500000  1
  O  O16  1  0.000000  0.348982  0.062758  1
  O  O17  1  0.000000  0.651018  0.937242  1
  O  O18  1  0.000000  0.153539  0.556845  1
  O  O19  1  0.000000  0.846461  0.443155  1
  O  O20  1  0.256862  0.088246  0.285935  1
  O  O21  1  0.743138  0.911754  0.714065  1
  O  O22  1  0.256862  0.911754  0.714065  1
  O  O23  1  0.744440  0.402575  0.787901  1
  O  O24  1  0.743138  0.088246  0.285935  1
  O  O25  1  0.255560  0.597425  0.212099  1
  O  O26  1  0.744440  0.597425  0.212099  1
  O  O27  1  0.255560  0.402575  0.787901  1
  O  O28  1  0.500000  0.336999  0.048428  1
  O  O29  1  0.500000  0.663001  0.951572  1
  O  O30  1  0.500000  0.162305  0.552296  1
  O  O31  1  0.500000  0.837695  0.447704  1
