# generated using pymatgen
data_TbTm7Re2(RuC4)2
_symmetry_space_group_name_H-M   'P 1'
_cell_length_a   5.03804100
_cell_length_b   6.48055970
_cell_length_c   9.71854328
_cell_angle_alpha   90.13917969
_cell_angle_beta   90.00000000
_cell_angle_gamma   90.00000000
_symmetry_Int_Tables_number   1
_chemical_formula_structural   TbTm7Re2(RuC4)2
_chemical_formula_sum   'Tb1 Tm7 Re2 Ru2 C8'
_cell_volume   317.30294680
_cell_formula_units_Z   1
loop_
 _symmetry_equiv_pos_site_id
 _symmetry_equiv_pos_as_xyz
  1  'x, y, z'
loop_
 _atom_site_type_symbol
 _atom_site_label
 _atom_site_symmetry_multiplicity
 _atom_site_fract_x
 _atom_site_fract_y
 _atom_site_fract_z
 _atom_site_occupancy
  Tb  Tb0  1  0.250000  0.529752  0.214722  1
  Tm  Tm1  1  0.750000  0.827555  0.055329  1
  Tm  Tm2  1  0.250000  0.672746  0.555567  1
  Tm  Tm3  1  0.750000  0.320782  0.442877  1
  Tm  Tm4  1  0.250000  0.179130  0.941736  1
  Tm  Tm5  1  0.750000  0.467232  0.783619  1
  Tm  Tm6  1  0.250000  0.032481  0.283898  1
  Tm  Tm7  1  0.750000  0.969092  0.716530  1
  Re  Re8  1  0.750000  0.781701  0.367945  1
  Re  Re9  1  0.250000  0.719111  0.867077  1
  Ru  Ru10  1  0.750000  0.280609  0.131566  1
  Ru  Ru11  1  0.250000  0.217944  0.632271  1
  C  C12  1  0.750000  0.172990  0.945352  1
  C  C13  1  0.250000  0.829967  0.053493  1
  C  C14  1  0.750000  0.674432  0.555301  1
  C  C15  1  0.250000  0.325130  0.446641  1
  C  C16  1  0.750000  0.046793  0.260564  1
  C  C17  1  0.250000  0.452875  0.760371  1
  C  C18  1  0.750000  0.548594  0.243181  1
  C  C19  1  0.250000  0.951083  0.741963  1
