# generated using pymatgen
data_La12DyHoRh6
_symmetry_space_group_name_H-M   'P 1'
_cell_length_a   10.23905200
_cell_length_b   10.23905324
_cell_length_c   6.43531900
_cell_angle_alpha   90.00000000
_cell_angle_beta   90.00000000
_cell_angle_gamma   120.00000245
_symmetry_Int_Tables_number   1
_chemical_formula_structural   La12DyHoRh6
_chemical_formula_sum   'La12 Dy1 Ho1 Rh6'
_cell_volume   584.27896428
_cell_formula_units_Z   1
loop_
 _symmetry_equiv_pos_site_id
 _symmetry_equiv_pos_as_xyz
  1  'x, y, z'
loop_
 _atom_site_type_symbol
 _atom_site_label
 _atom_site_symmetry_multiplicity
 _atom_site_fract_x
 _atom_site_fract_y
 _atom_site_fract_z
 _atom_site_occupancy
  La  La0  1  0.873429  0.746859  0.764590  1
  La  La1  1  0.253141  0.126571  0.764590  1
  La  La2  1  0.873429  0.126571  0.764590  1
  La  La3  1  0.126612  0.253224  0.264720  1
  La  La4  1  0.746776  0.873388  0.264720  1
  La  La5  1  0.126612  0.873388  0.264720  1
  La  La6  1  0.457411  0.914823  0.594629  1
  La  La7  1  0.085177  0.542589  0.594629  1
  La  La8  1  0.457411  0.542589  0.594629  1
  La  La9  1  0.542640  0.085277  0.094911  1
  La  La10  1  0.914723  0.457360  0.094911  1
  La  La11  1  0.542640  0.457360  0.094911  1
  Dy  Dy12  1  0.333333  0.666667  0.067657  1
  Ho  Ho13  1  0.666667  0.333333  0.567478  1
  Rh  Rh14  1  0.190573  0.381147  0.853754  1
  Rh  Rh15  1  0.618853  0.809427  0.853754  1
  Rh  Rh16  1  0.190573  0.809427  0.853754  1
  Rh  Rh17  1  0.809286  0.618574  0.354033  1
  Rh  Rh18  1  0.381426  0.190714  0.354033  1
  Rh  Rh19  1  0.809286  0.190714  0.354033  1
