# generated using pymatgen
data_Pr2PS
_symmetry_space_group_name_H-M   'P 1'
_cell_length_a   7.23018575
_cell_length_b   7.23018538
_cell_length_c   7.23018510
_cell_angle_alpha   33.40277788
_cell_angle_beta   33.40278015
_cell_angle_gamma   33.40277724
_symmetry_Int_Tables_number   1
_chemical_formula_structural   Pr2PS
_chemical_formula_sum   'Pr2 P1 S1'
_cell_volume   102.00682600
_cell_formula_units_Z   1
loop_
 _symmetry_equiv_pos_site_id
 _symmetry_equiv_pos_as_xyz
  1  'x, y, z'
loop_
 _atom_site_type_symbol
 _atom_site_label
 _atom_site_symmetry_multiplicity
 _atom_site_fract_x
 _atom_site_fract_y
 _atom_site_fract_z
 _atom_site_occupancy
  Pr  Pr0  1  0.252858  0.252858  0.252858  1
  Pr  Pr1  1  0.747142  0.747142  0.747142  1
  P  P2  1  0.000000  0.000000  0.000000  1
  S  S3  1  0.500000  0.500000  0.500000  1
