# generated using pymatgen
data_CeNdDy(InPt)3
_symmetry_space_group_name_H-M   'P 1'
_cell_length_a   7.66604619
_cell_length_b   7.69069217
_cell_length_c   4.00309800
_cell_angle_alpha   90.00000000
_cell_angle_beta   90.00000000
_cell_angle_gamma   119.81711255
_symmetry_Int_Tables_number   1
_chemical_formula_structural   CeNdDy(InPt)3
_chemical_formula_sum   'Ce1 Nd1 Dy1 In3 Pt3'
_cell_volume   204.76754654
_cell_formula_units_Z   1
loop_
 _symmetry_equiv_pos_site_id
 _symmetry_equiv_pos_as_xyz
  1  'x, y, z'
loop_
 _atom_site_type_symbol
 _atom_site_label
 _atom_site_symmetry_multiplicity
 _atom_site_fract_x
 _atom_site_fract_y
 _atom_site_fract_z
 _atom_site_occupancy
  Ce  Ce0  1  0.409955  0.410010  0.500000  1
  Nd  Nd1  1  0.590952  0.998444  0.500000  1
  Dy  Dy2  1  0.998449  0.592224  0.500000  1
  In  In3  1  0.749913  0.747232  0.000000  1
  In  In4  1  0.997246  0.256829  0.000000  1
  In  In5  1  0.253512  0.995160  0.000000  1
  Pt  Pt6  1  0.329888  0.657323  0.000000  1
  Pt  Pt7  1  0.664817  0.341013  0.000000  1
  Pt  Pt8  1  0.005269  0.001764  0.500000  1
