# generated using pymatgen
data_Th2PdRhPb
_symmetry_space_group_name_H-M   'P 1'
_cell_length_a   3.78672500
_cell_length_b   8.01505925
_cell_length_c   8.01505914
_cell_angle_alpha   90.27877191
_cell_angle_beta   90.00000000
_cell_angle_gamma   90.00000000
_symmetry_Int_Tables_number   1
_chemical_formula_structural   Th2PdRhPb
_chemical_formula_sum   'Th4 Pd2 Rh2 Pb2'
_cell_volume   243.26077989
_cell_formula_units_Z   2
loop_
 _symmetry_equiv_pos_site_id
 _symmetry_equiv_pos_as_xyz
  1  'x, y, z'
loop_
 _atom_site_type_symbol
 _atom_site_label
 _atom_site_symmetry_multiplicity
 _atom_site_fract_x
 _atom_site_fract_y
 _atom_site_fract_z
 _atom_site_occupancy
  Th  Th0  1  0.500000  0.179269  0.679269  1
  Th  Th1  1  0.500000  0.820731  0.320731  1
  Th  Th2  1  0.500000  0.333611  0.166389  1
  Th  Th3  1  0.500000  0.666389  0.833611  1
  Pd  Pd4  1  0.000000  0.874052  0.625948  1
  Pd  Pd5  1  0.000000  0.125948  0.374052  1
  Rh  Rh6  1  0.000000  0.629928  0.129928  1
  Rh  Rh7  1  0.000000  0.370072  0.870072  1
  Pb  Pb8  1  0.000000  0.000000  0.000000  1
  Pb  Pb9  1  0.000000  0.500000  0.500000  1
