# generated using pymatgen
data_Er2Tm17LuSn16
_symmetry_space_group_name_H-M   'P 1'
_cell_length_a   7.96515756
_cell_length_b   8.07298604
_cell_length_c   15.28804200
_cell_angle_alpha   89.94899935
_cell_angle_beta   90.02142885
_cell_angle_gamma   90.08946540
_symmetry_Int_Tables_number   1
_chemical_formula_structural   Er2Tm17LuSn16
_chemical_formula_sum   'Er2 Tm17 Lu1 Sn16'
_cell_volume   983.05928098
_cell_formula_units_Z   1
loop_
 _symmetry_equiv_pos_site_id
 _symmetry_equiv_pos_as_xyz
  1  'x, y, z'
loop_
 _atom_site_type_symbol
 _atom_site_label
 _atom_site_symmetry_multiplicity
 _atom_site_fract_x
 _atom_site_fract_y
 _atom_site_fract_z
 _atom_site_occupancy
  Er  Er0  1  0.521371  0.321219  0.595970  1
  Er  Er1  1  0.021653  0.178847  0.903890  1
  Tm  Tm2  1  0.368274  0.837730  0.877304  1
  Tm  Tm3  1  0.868433  0.662268  0.622656  1
  Tm  Tm4  1  0.631932  0.161726  0.376695  1
  Tm  Tm5  1  0.131734  0.338143  0.123060  1
  Tm  Tm6  1  0.631701  0.161848  0.123182  1
  Tm  Tm7  1  0.131796  0.337967  0.376982  1
  Tm  Tm8  1  0.368652  0.837965  0.622731  1
  Tm  Tm9  1  0.869075  0.661970  0.877303  1
  Tm  Tm10  1  0.522884  0.321337  0.903101  1
  Tm  Tm11  1  0.023119  0.178826  0.596922  1
  Tm  Tm12  1  0.477826  0.679167  0.403285  1
  Tm  Tm13  1  0.977691  0.820915  0.097034  1
  Tm  Tm14  1  0.477681  0.678927  0.096673  1
  Tm  Tm15  1  0.977621  0.821101  0.403083  1
  Tm  Tm16  1  0.698966  0.995971  0.749971  1
  Tm  Tm17  1  0.801198  0.495938  0.249941  1
  Tm  Tm18  1  0.301111  0.004028  0.249981  1
  Lu  Lu19  1  0.198970  0.504459  0.750315  1
  Sn  Sn20  1  0.292183  0.037397  0.041940  1
  Sn  Sn21  1  0.792415  0.462896  0.457891  1
  Sn  Sn22  1  0.708057  0.963226  0.540913  1
  Sn  Sn23  1  0.208096  0.536241  0.958731  1
  Sn  Sn24  1  0.707408  0.961506  0.959172  1
  Sn  Sn25  1  0.207295  0.538016  0.541202  1
  Sn  Sn26  1  0.291815  0.037986  0.458296  1
  Sn  Sn27  1  0.791852  0.462145  0.041904  1
  Sn  Sn28  1  0.564692  0.618306  0.750027  1
  Sn  Sn29  1  0.065402  0.881386  0.749914  1
  Sn  Sn30  1  0.434989  0.381513  0.249922  1
  Sn  Sn31  1  0.934958  0.118544  0.250044  1
  Sn  Sn32  1  0.332720  0.150639  0.750127  1
  Sn  Sn33  1  0.833188  0.350327  0.749785  1
  Sn  Sn34  1  0.666510  0.849450  0.249969  1
  Sn  Sn35  1  0.166733  0.650070  0.250084  1
