# generated using pymatgen
data_Zr6TiCo22
_symmetry_space_group_name_H-M   'P 1'
_cell_length_a   8.16915009
_cell_length_b   8.16818116
_cell_length_c   8.16915000
_cell_angle_alpha   119.99933923
_cell_angle_beta   90.00854266
_cell_angle_gamma   119.99933954
_symmetry_Int_Tables_number   1
_chemical_formula_structural   Zr6TiCo22
_chemical_formula_sum   'Zr6 Ti1 Co22'
_cell_volume   385.42545754
_cell_formula_units_Z   1
loop_
 _symmetry_equiv_pos_site_id
 _symmetry_equiv_pos_as_xyz
  1  'x, y, z'
loop_
 _atom_site_type_symbol
 _atom_site_label
 _atom_site_symmetry_multiplicity
 _atom_site_fract_x
 _atom_site_fract_y
 _atom_site_fract_z
 _atom_site_occupancy
  Zr  Zr0  1  0.287792  0.999952  0.287792  1
  Zr  Zr1  1  0.712313  0.000203  0.287818  1
  Zr  Zr2  1  0.287559  0.575429  0.287559  1
  Zr  Zr3  1  0.287818  0.000203  0.712313  1
  Zr  Zr4  1  0.712275  0.424373  0.712275  1
  Zr  Zr5  1  0.712488  0.000444  0.712488  1
  Ti  Ti6  1  0.999993  0.999824  0.999993  1
  Co  Co7  1  0.499984  0.000013  0.999991  1
  Co  Co8  1  0.999971  0.500031  0.999971  1
  Co  Co9  1  0.500046  0.500021  0.999998  1
  Co  Co10  1  0.674805  0.349449  0.024104  1
  Co  Co11  1  0.877330  0.754600  0.122596  1
  Co  Co12  1  0.367924  0.245265  0.122537  1
  Co  Co13  1  0.877399  0.245344  0.122617  1
  Co  Co14  1  0.674737  0.349325  0.325258  1
  Co  Co15  1  0.674741  0.650537  0.325198  1
  Co  Co16  1  0.975822  0.650451  0.325150  1
  Co  Co17  1  0.122537  0.245265  0.367924  1
  Co  Co18  1  0.999991  0.000013  0.499984  1
  Co  Co19  1  0.999998  0.500021  0.500046  1
  Co  Co20  1  0.500013  0.500018  0.500013  1
  Co  Co21  1  0.877449  0.754759  0.632095  1
  Co  Co22  1  0.024104  0.349449  0.674805  1
  Co  Co23  1  0.325258  0.349325  0.674737  1
  Co  Co24  1  0.325198  0.650537  0.674741  1
  Co  Co25  1  0.122617  0.245344  0.877399  1
  Co  Co26  1  0.122596  0.754600  0.877330  1
  Co  Co27  1  0.632095  0.754759  0.877449  1
  Co  Co28  1  0.325150  0.650451  0.975822  1
