# generated using pymatgen
data_K4SiTe4
_symmetry_space_group_name_H-M   'P 1'
_cell_length_a   8.74636400
_cell_length_b   10.85916700
_cell_length_c   15.81538100
_cell_angle_alpha   90.00000000
_cell_angle_beta   90.00000000
_cell_angle_gamma   90.00000000
_symmetry_Int_Tables_number   1
_chemical_formula_structural   K4SiTe4
_chemical_formula_sum   'K16 Si4 Te16'
_cell_volume   1502.11685175
_cell_formula_units_Z   4
loop_
 _symmetry_equiv_pos_site_id
 _symmetry_equiv_pos_as_xyz
  1  'x, y, z'
loop_
 _atom_site_type_symbol
 _atom_site_label
 _atom_site_symmetry_multiplicity
 _atom_site_fract_x
 _atom_site_fract_y
 _atom_site_fract_z
 _atom_site_occupancy
  K  K0  1  0.000000  0.000000  0.000000  1
  K  K1  1  0.500000  0.000000  0.500000  1
  K  K2  1  0.000000  0.500000  0.000000  1
  K  K3  1  0.500000  0.500000  0.500000  1
  K  K4  1  0.991796  0.750000  0.416762  1
  K  K5  1  0.491796  0.250000  0.083238  1
  K  K6  1  0.008204  0.250000  0.583238  1
  K  K7  1  0.508204  0.750000  0.916762  1
  K  K8  1  0.837971  0.041268  0.269001  1
  K  K9  1  0.337971  0.958732  0.230999  1
  K  K10  1  0.162029  0.541268  0.730999  1
  K  K11  1  0.662029  0.458732  0.769001  1
  K  K12  1  0.162029  0.958732  0.730999  1
  K  K13  1  0.662029  0.041268  0.769001  1
  K  K14  1  0.837971  0.458732  0.269001  1
  K  K15  1  0.337971  0.541268  0.230999  1
  Si  Si16  1  0.767903  0.750000  0.665288  1
  Si  Si17  1  0.232097  0.250000  0.334712  1
  Si  Si18  1  0.732097  0.750000  0.165288  1
  Si  Si19  1  0.267903  0.250000  0.834712  1
  Te  Te20  1  0.975388  0.250000  0.829018  1
  Te  Te21  1  0.524612  0.250000  0.329018  1
  Te  Te22  1  0.475388  0.750000  0.670982  1
  Te  Te23  1  0.024612  0.750000  0.170982  1
  Te  Te24  1  0.640414  0.561878  0.084493  1
  Te  Te25  1  0.140414  0.438122  0.415507  1
  Te  Te26  1  0.359586  0.061878  0.915507  1
  Te  Te27  1  0.859586  0.938122  0.584493  1
  Te  Te28  1  0.359586  0.438122  0.915507  1
  Te  Te29  1  0.859586  0.561878  0.584493  1
  Te  Te30  1  0.640414  0.938122  0.084493  1
  Te  Te31  1  0.140414  0.061878  0.415507  1
  Te  Te32  1  0.624791  0.750000  0.316188  1
  Te  Te33  1  0.124791  0.250000  0.183812  1
  Te  Te34  1  0.375209  0.250000  0.683812  1
  Te  Te35  1  0.875209  0.750000  0.816188  1
