# generated using pymatgen
data_AgBiRuPtO7
_symmetry_space_group_name_H-M   'P 1'
_cell_length_a   7.15177264
_cell_length_b   7.29791634
_cell_length_c   7.29791759
_cell_angle_alpha   61.20755853
_cell_angle_beta   60.66025361
_cell_angle_gamma   60.66024827
_symmetry_Int_Tables_number   1
_chemical_formula_structural   AgBiRuPtO7
_chemical_formula_sum   'Ag2 Bi2 Ru2 Pt2 O14'
_cell_volume   274.43880302
_cell_formula_units_Z   2
loop_
 _symmetry_equiv_pos_site_id
 _symmetry_equiv_pos_as_xyz
  1  'x, y, z'
loop_
 _atom_site_type_symbol
 _atom_site_label
 _atom_site_symmetry_multiplicity
 _atom_site_fract_x
 _atom_site_fract_y
 _atom_site_fract_z
 _atom_site_occupancy
  Ag  Ag0  1  0.625000  0.125000  0.125000  1
  Ag  Ag1  1  0.125000  0.125000  0.125000  1
  Bi  Bi2  1  0.125000  0.125000  0.625000  1
  Bi  Bi3  1  0.125000  0.625000  0.125000  1
  Ru  Ru4  1  0.625000  0.625000  0.125000  1
  Ru  Ru5  1  0.625000  0.125000  0.625000  1
  Pt  Pt6  1  0.125000  0.625000  0.625000  1
  Pt  Pt7  1  0.625000  0.625000  0.625000  1
  O  O8  1  0.258284  0.241716  0.241716  1
  O  O9  1  0.991716  0.008284  0.008284  1
  O  O10  1  0.544011  0.957044  0.543647  1
  O  O11  1  0.294702  0.706353  0.292956  1
  O  O12  1  0.544011  0.543647  0.957044  1
  O  O13  1  0.962693  0.537307  0.537307  1
  O  O14  1  0.577333  0.922667  0.922667  1
  O  O15  1  0.955298  0.957044  0.543647  1
  O  O16  1  0.955298  0.543647  0.957044  1
  O  O17  1  0.672667  0.327333  0.327333  1
  O  O18  1  0.287307  0.712693  0.712693  1
  O  O19  1  0.705989  0.292956  0.706353  1
  O  O20  1  0.294702  0.292956  0.706353  1
  O  O21  1  0.705989  0.706353  0.292956  1
