# generated using pymatgen
data_MgSc4Ga(B2Rh5)2
_symmetry_space_group_name_H-M   'P 1'
_cell_length_a   9.39840400
_cell_length_b   9.39840400
_cell_length_c   3.08230600
_cell_angle_alpha   90.00000000
_cell_angle_beta   90.00000000
_cell_angle_gamma   90.00000000
_symmetry_Int_Tables_number   1
_chemical_formula_structural   MgSc4Ga(B2Rh5)2
_chemical_formula_sum   'Mg1 Sc4 Ga1 B4 Rh10'
_cell_volume   272.26008204
_cell_formula_units_Z   1
loop_
 _symmetry_equiv_pos_site_id
 _symmetry_equiv_pos_as_xyz
  1  'x, y, z'
loop_
 _atom_site_type_symbol
 _atom_site_label
 _atom_site_symmetry_multiplicity
 _atom_site_fract_x
 _atom_site_fract_y
 _atom_site_fract_z
 _atom_site_occupancy
  Mg  Mg0  1  0.500000  0.500000  0.000000  1
  Sc  Sc1  1  0.674960  0.175356  0.000000  1
  Sc  Sc2  1  0.325040  0.824644  0.000000  1
  Sc  Sc3  1  0.175356  0.325040  0.000000  1
  Sc  Sc4  1  0.824644  0.674960  0.000000  1
  Ga  Ga5  1  0.000000  0.000000  0.000000  1
  B  B6  1  0.124785  0.624309  0.000000  1
  B  B7  1  0.875215  0.375691  0.000000  1
  B  B8  1  0.624309  0.875215  0.000000  1
  B  B9  1  0.375691  0.124785  0.000000  1
  Rh  Rh10  1  0.500000  0.000000  0.500000  1
  Rh  Rh11  1  0.000000  0.500000  0.500000  1
  Rh  Rh12  1  0.216115  0.068898  0.500000  1
  Rh  Rh13  1  0.783885  0.931102  0.500000  1
  Rh  Rh14  1  0.068898  0.783885  0.500000  1
  Rh  Rh15  1  0.720904  0.426731  0.500000  1
  Rh  Rh16  1  0.931102  0.216115  0.500000  1
  Rh  Rh17  1  0.279096  0.573269  0.500000  1
  Rh  Rh18  1  0.573269  0.720904  0.500000  1
  Rh  Rh19  1  0.426731  0.279096  0.500000  1
