# generated using pymatgen
data_DyPa3(Co3Si5)2
_symmetry_space_group_name_H-M   'P 1'
_cell_length_a   5.62586856
_cell_length_b   7.85071358
_cell_length_c   7.88416397
_cell_angle_alpha   75.36546063
_cell_angle_beta   69.09725060
_cell_angle_gamma   69.00398978
_symmetry_Int_Tables_number   1
_chemical_formula_structural   DyPa3(Co3Si5)2
_chemical_formula_sum   'Dy1 Pa3 Co6 Si10'
_cell_volume   300.57866807
_cell_formula_units_Z   1
loop_
 _symmetry_equiv_pos_site_id
 _symmetry_equiv_pos_as_xyz
  1  'x, y, z'
loop_
 _atom_site_type_symbol
 _atom_site_label
 _atom_site_symmetry_multiplicity
 _atom_site_fract_x
 _atom_site_fract_y
 _atom_site_fract_z
 _atom_site_occupancy
  Dy  Dy0  1  0.631916  0.601424  0.134744  1
  Pa  Pa1  1  0.867807  0.866165  0.398223  1
  Pa  Pa2  1  0.133684  0.131882  0.600749  1
  Pa  Pa3  1  0.365963  0.400970  0.867104  1
  Co  Co4  1  0.246118  0.002289  0.999473  1
  Co  Co5  1  0.752119  0.002289  0.999473  1
  Co  Co6  1  0.640022  0.241681  0.478274  1
  Co  Co7  1  0.359526  0.757358  0.523590  1
  Co  Co8  1  0.137380  0.476764  0.248474  1
  Co  Co9  1  0.864363  0.520956  0.750320  1
  Si  Si10  1  0.252376  0.499766  0.499026  1
  Si  Si11  1  0.748832  0.499766  0.499026  1
  Si  Si12  1  0.019419  0.232263  0.231209  1
  Si  Si13  1  0.482500  0.768130  0.770245  1
  Si  Si14  1  0.979124  0.768130  0.770245  1
  Si  Si15  1  0.517109  0.232263  0.231209  1
  Si  Si16  1  0.603963  0.046549  0.745527  1
  Si  Si17  1  0.397319  0.951645  0.253717  1
  Si  Si18  1  0.105532  0.741647  0.047291  1
  Si  Si19  1  0.894928  0.258064  0.952079  1
