# generated using pymatgen
data_Yb2NpO6
_symmetry_space_group_name_H-M   'P 1'
_cell_length_a   5.44529100
_cell_length_b   7.83939435
_cell_length_c   11.85449622
_cell_angle_alpha   73.19277536
_cell_angle_beta   90.00000000
_cell_angle_gamma   90.00000000
_symmetry_Int_Tables_number   1
_chemical_formula_structural   Yb2NpO6
_chemical_formula_sum   'Yb8 Np4 O24'
_cell_volume   484.42558787
_cell_formula_units_Z   4
loop_
 _symmetry_equiv_pos_site_id
 _symmetry_equiv_pos_as_xyz
  1  'x, y, z'
loop_
 _atom_site_type_symbol
 _atom_site_label
 _atom_site_symmetry_multiplicity
 _atom_site_fract_x
 _atom_site_fract_y
 _atom_site_fract_z
 _atom_site_occupancy
  Yb  Yb0  1  0.187981  0.195815  0.418464  1
  Yb  Yb1  1  0.187981  0.804185  0.081536  1
  Yb  Yb2  1  0.812019  0.804185  0.581536  1
  Yb  Yb3  1  0.812019  0.195815  0.918464  1
  Yb  Yb4  1  0.680807  0.500000  0.250000  1
  Yb  Yb5  1  0.319193  0.500000  0.750000  1
  Yb  Yb6  1  0.739036  0.000000  0.250000  1
  Yb  Yb7  1  0.260964  0.000000  0.750000  1
  Np  Np8  1  0.249286  0.277408  0.113256  1
  Np  Np9  1  0.249286  0.722592  0.386744  1
  Np  Np10  1  0.750714  0.722592  0.886744  1
  Np  Np11  1  0.750714  0.277408  0.613256  1
  O  O12  1  0.452381  0.210993  0.264135  1
  O  O13  1  0.452381  0.789007  0.235865  1
  O  O14  1  0.547619  0.789007  0.735865  1
  O  O15  1  0.547619  0.210993  0.764135  1
  O  O16  1  0.037702  0.066431  0.104179  1
  O  O17  1  0.037702  0.933569  0.395821  1
  O  O18  1  0.962298  0.933569  0.895821  1
  O  O19  1  0.962298  0.066431  0.604179  1
  O  O20  1  0.983187  0.295916  0.226741  1
  O  O21  1  0.983187  0.704084  0.273259  1
  O  O22  1  0.016813  0.704084  0.773259  1
  O  O23  1  0.016813  0.295916  0.726741  1
  O  O24  1  0.856603  0.367063  0.446390  1
  O  O25  1  0.856603  0.632937  0.053610  1
  O  O26  1  0.143397  0.632937  0.553610  1
  O  O27  1  0.143397  0.367063  0.946390  1
  O  O28  1  0.634156  0.517043  0.609686  1
  O  O29  1  0.634156  0.482957  0.890314  1
  O  O30  1  0.365844  0.482957  0.390314  1
  O  O31  1  0.365844  0.517043  0.109686  1
  O  O32  1  0.481979  0.146372  0.563008  1
  O  O33  1  0.481979  0.853628  0.936992  1
  O  O34  1  0.518021  0.853628  0.436992  1
  O  O35  1  0.518021  0.146372  0.063008  1
