# generated using pymatgen
data_Tm2Ta3Ni9P7
_symmetry_space_group_name_H-M   'P 1'
_cell_length_a   3.69500000
_cell_length_b   9.30772585
_cell_length_c   9.30772700
_cell_angle_alpha   120.00000052
_cell_angle_beta   90.00000000
_cell_angle_gamma   90.00000000
_symmetry_Int_Tables_number   1
_chemical_formula_structural   Tm2Ta3Ni9P7
_chemical_formula_sum   'Tm2 Ta3 Ni9 P7'
_cell_volume   277.22493622
_cell_formula_units_Z   1
loop_
 _symmetry_equiv_pos_site_id
 _symmetry_equiv_pos_as_xyz
  1  'x, y, z'
loop_
 _atom_site_type_symbol
 _atom_site_label
 _atom_site_symmetry_multiplicity
 _atom_site_fract_x
 _atom_site_fract_y
 _atom_site_fract_z
 _atom_site_occupancy
  Tm  Tm0  1  0.000000  0.666667  0.333333  1
  Tm  Tm1  1  0.500000  0.333333  0.666667  1
  Ta  Ta2  1  0.500000  0.774154  0.894374  1
  Ta  Ta3  1  0.500000  0.120221  0.225846  1
  Ta  Ta4  1  0.500000  0.105626  0.879779  1
  Ni  Ni5  1  0.000000  0.565425  0.934503  1
  Ni  Ni6  1  0.000000  0.369077  0.434575  1
  Ni  Ni7  1  0.000000  0.065497  0.630923  1
  Ni  Ni8  1  0.500000  0.940299  0.385016  1
  Ni  Ni9  1  0.500000  0.444717  0.059701  1
  Ni  Ni10  1  0.500000  0.614984  0.555283  1
  Ni  Ni11  1  0.000000  0.870817  0.156044  1
  Ni  Ni12  1  0.000000  0.285227  0.129183  1
  Ni  Ni13  1  0.000000  0.843956  0.714773  1
  P  P14  1  0.500000  0.708786  0.121192  1
  P  P15  1  0.500000  0.412406  0.291214  1
  P  P16  1  0.500000  0.878808  0.587594  1
  P  P17  1  0.000000  0.000000  0.000000  1
  P  P18  1  0.000000  0.583135  0.696298  1
  P  P19  1  0.000000  0.113163  0.416865  1
  P  P20  1  0.000000  0.303702  0.886837  1
