# generated using pymatgen
data_Ho3Al9Fe4Si3
_symmetry_space_group_name_H-M   'P 1'
_cell_length_a   8.48807200
_cell_length_b   8.47317901
_cell_length_c   9.30218400
_cell_angle_alpha   90.00000000
_cell_angle_beta   90.00000000
_cell_angle_gamma   120.05816005
_symmetry_Int_Tables_number   1
_chemical_formula_structural   Ho3Al9Fe4Si3
_chemical_formula_sum   'Ho6 Al18 Fe8 Si6'
_cell_volume   579.05014316
_cell_formula_units_Z   2
loop_
 _symmetry_equiv_pos_site_id
 _symmetry_equiv_pos_as_xyz
  1  'x, y, z'
loop_
 _atom_site_type_symbol
 _atom_site_label
 _atom_site_symmetry_multiplicity
 _atom_site_fract_x
 _atom_site_fract_y
 _atom_site_fract_z
 _atom_site_occupancy
  Ho  Ho0  1  0.193645  0.387289  0.250000  1
  Ho  Ho1  1  0.806355  0.612711  0.750000  1
  Ho  Ho2  1  0.608953  0.807437  0.250000  1
  Ho  Ho3  1  0.391047  0.192563  0.750000  1
  Ho  Ho4  1  0.198484  0.807437  0.250000  1
  Ho  Ho5  1  0.801516  0.192563  0.750000  1
  Al  Al6  1  0.163789  0.327576  0.574564  1
  Al  Al7  1  0.836211  0.672424  0.425436  1
  Al  Al8  1  0.671619  0.835149  0.573246  1
  Al  Al9  1  0.836211  0.672424  0.074564  1
  Al  Al10  1  0.328381  0.164851  0.426754  1
  Al  Al11  1  0.163789  0.327576  0.925436  1
  Al  Al12  1  0.163531  0.835149  0.573246  1
  Al  Al13  1  0.328381  0.164851  0.073246  1
  Al  Al14  1  0.836469  0.164851  0.426754  1
  Al  Al15  1  0.671619  0.835149  0.926754  1
  Al  Al16  1  0.836469  0.164851  0.073246  1
  Al  Al17  1  0.163531  0.835149  0.926754  1
  Al  Al18  1  0.876258  0.435487  0.250000  1
  Al  Al19  1  0.123742  0.564513  0.750000  1
  Al  Al20  1  0.559228  0.435487  0.250000  1
  Al  Al21  1  0.440772  0.564513  0.750000  1
  Al  Al22  1  0.999445  0.998892  0.250000  1
  Al  Al23  1  0.000555  0.001108  0.750000  1
  Fe  Fe24  1  0.500000  0.000000  0.000000  1
  Fe  Fe25  1  0.000000  0.500000  0.000000  1
  Fe  Fe26  1  0.500000  0.000000  0.500000  1
  Fe  Fe27  1  0.500000  0.500000  0.000000  1
  Fe  Fe28  1  0.000000  0.500000  0.500000  1
  Fe  Fe29  1  0.500000  0.500000  0.500000  1
  Fe  Fe30  1  0.000000  0.000000  0.000000  1
  Fe  Fe31  1  0.000000  0.000000  0.500000  1
  Si  Si32  1  0.331504  0.663008  0.031248  1
  Si  Si33  1  0.668496  0.336992  0.968752  1
  Si  Si34  1  0.668496  0.336992  0.531248  1
  Si  Si35  1  0.331504  0.663008  0.468752  1
  Si  Si36  1  0.561079  0.122160  0.250000  1
  Si  Si37  1  0.438921  0.877840  0.750000  1
