# generated using pymatgen
data_NdSmY4Ta2O14
_symmetry_space_group_name_H-M   'P 1'
_cell_length_a   6.51101856
_cell_length_b   6.51101818
_cell_length_c   7.61137408
_cell_angle_alpha   89.98669478
_cell_angle_beta   90.01330146
_cell_angle_gamma   109.50888176
_symmetry_Int_Tables_number   1
_chemical_formula_structural   NdSmY4Ta2O14
_chemical_formula_sum   'Nd1 Sm1 Y4 Ta2 O14'
_cell_volume   304.14704161
_cell_formula_units_Z   1
loop_
 _symmetry_equiv_pos_site_id
 _symmetry_equiv_pos_as_xyz
  1  'x, y, z'
loop_
 _atom_site_type_symbol
 _atom_site_label
 _atom_site_symmetry_multiplicity
 _atom_site_fract_x
 _atom_site_fract_y
 _atom_site_fract_z
 _atom_site_occupancy
  Nd  Nd0  1  0.500000  0.500000  0.500000  1
  Sm  Sm1  1  0.500000  0.500000  0.000000  1
  Y  Y2  1  0.533302  0.000548  0.750703  1
  Y  Y3  1  0.000548  0.533302  0.249297  1
  Y  Y4  1  0.466698  0.999452  0.249297  1
  Y  Y5  1  0.999452  0.466698  0.750703  1
  Ta  Ta6  1  0.000000  0.000000  0.500000  1
  Ta  Ta7  1  0.000000  0.000000  0.000000  1
  O  O8  1  0.679778  0.930449  0.468289  1
  O  O9  1  0.930449  0.679778  0.531711  1
  O  O10  1  0.679736  0.929413  0.031606  1
  O  O11  1  0.929413  0.679736  0.968394  1
  O  O12  1  0.320222  0.069551  0.531711  1
  O  O13  1  0.069551  0.320222  0.468289  1
  O  O14  1  0.320264  0.070587  0.968394  1
  O  O15  1  0.070587  0.320264  0.031606  1
  O  O16  1  0.936667  0.063333  0.749928  1
  O  O17  1  0.063333  0.936667  0.250072  1
  O  O18  1  0.365743  0.634256  0.752776  1
  O  O19  1  0.634256  0.365743  0.247224  1
  O  O20  1  0.641130  0.358870  0.752265  1
  O  O21  1  0.358870  0.641130  0.247735  1
