# generated using pymatgen
data_Y3Sn3RuRhAu
_symmetry_space_group_name_H-M   'P 1'
_cell_length_a   7.69227000
_cell_length_b   7.69227066
_cell_length_c   3.84897900
_cell_angle_alpha   90.00000000
_cell_angle_beta   90.00000000
_cell_angle_gamma   119.99999714
_symmetry_Int_Tables_number   1
_chemical_formula_structural   Y3Sn3RuRhAu
_chemical_formula_sum   'Y3 Sn3 Ru1 Rh1 Au1'
_cell_volume   197.23558048
_cell_formula_units_Z   1
loop_
 _symmetry_equiv_pos_site_id
 _symmetry_equiv_pos_as_xyz
  1  'x, y, z'
loop_
 _atom_site_type_symbol
 _atom_site_label
 _atom_site_symmetry_multiplicity
 _atom_site_fract_x
 _atom_site_fract_y
 _atom_site_fract_z
 _atom_site_occupancy
  Y  Y0  1  0.409099  0.016619  0.500000  1
  Y  Y1  1  0.983381  0.392480  0.500000  1
  Y  Y2  1  0.607520  0.590901  0.500000  1
  Sn  Sn3  1  0.742206  0.002828  0.000000  1
  Sn  Sn4  1  0.997172  0.739378  0.000000  1
  Sn  Sn5  1  0.260622  0.257794  0.000000  1
  Ru  Ru6  1  0.000000  0.000000  0.500000  1
  Rh  Rh7  1  0.666667  0.333333  0.000000  1
  Au  Au8  1  0.333333  0.666667  0.000000  1
