# generated using pymatgen
data_LaDyFe2(TeO6)2
_symmetry_space_group_name_H-M   'P 1'
_cell_length_a   5.24041200
_cell_length_b   5.24037607
_cell_length_c   10.10300000
_cell_angle_alpha   89.99969129
_cell_angle_beta   90.00023655
_cell_angle_gamma   120.00028001
_symmetry_Int_Tables_number   1
_chemical_formula_structural   LaDyFe2(TeO6)2
_chemical_formula_sum   'La1 Dy1 Fe2 Te2 O12'
_cell_volume   240.27448045
_cell_formula_units_Z   1
loop_
 _symmetry_equiv_pos_site_id
 _symmetry_equiv_pos_as_xyz
  1  'x, y, z'
loop_
 _atom_site_type_symbol
 _atom_site_label
 _atom_site_symmetry_multiplicity
 _atom_site_fract_x
 _atom_site_fract_y
 _atom_site_fract_z
 _atom_site_occupancy
  La  La0  1  0.000000  0.000000  0.500000  1
  Dy  Dy1  1  0.000000  0.000000  0.000000  1
  Fe  Fe2  1  0.333333  0.666664  0.243700  1
  Fe  Fe3  1  0.666667  0.333336  0.756300  1
  Te  Te4  1  0.666668  0.333333  0.243302  1
  Te  Te5  1  0.333332  0.666667  0.756698  1
  O  O6  1  0.651689  0.637144  0.136529  1
  O  O7  1  0.362856  0.014545  0.136530  1
  O  O8  1  0.985457  0.348311  0.136531  1
  O  O9  1  0.988340  0.619165  0.353567  1
  O  O10  1  0.380840  0.369176  0.353569  1
  O  O11  1  0.630827  0.011657  0.353566  1
  O  O12  1  0.011660  0.380835  0.646433  1
  O  O13  1  0.369173  0.988343  0.646434  1
  O  O14  1  0.619160  0.630824  0.646432  1
  O  O15  1  0.637146  0.985455  0.863469  1
  O  O16  1  0.348313  0.362856  0.863471  1
  O  O17  1  0.014545  0.651689  0.863469  1
