# generated using pymatgen
data_DyTm18MgIr12
_symmetry_space_group_name_H-M   'P 1'
_cell_length_a   10.72387220
_cell_length_b   10.72374417
_cell_length_c   6.26508214
_cell_angle_alpha   89.98390100
_cell_angle_beta   90.01803524
_cell_angle_gamma   90.01240738
_symmetry_Int_Tables_number   1
_chemical_formula_structural   DyTm18MgIr12
_chemical_formula_sum   'Dy1 Tm18 Mg1 Ir12'
_cell_volume   720.48475297
_cell_formula_units_Z   1
loop_
 _symmetry_equiv_pos_site_id
 _symmetry_equiv_pos_as_xyz
  1  'x, y, z'
loop_
 _atom_site_type_symbol
 _atom_site_label
 _atom_site_symmetry_multiplicity
 _atom_site_fract_x
 _atom_site_fract_y
 _atom_site_fract_z
 _atom_site_occupancy
  Dy  Dy0  1  0.283521  0.084739  0.377298  1
  Tm  Tm1  1  0.291092  0.912099  0.879176  1
  Tm  Tm2  1  0.709012  0.087667  0.879162  1
  Tm  Tm3  1  0.715705  0.915554  0.377951  1
  Tm  Tm4  1  0.588343  0.792010  0.877492  1
  Tm  Tm5  1  0.587445  0.207985  0.376275  1
  Tm  Tm6  1  0.413104  0.791817  0.376287  1
  Tm  Tm7  1  0.411931  0.208007  0.877489  1
  Tm  Tm8  1  0.207836  0.413009  0.623835  1
  Tm  Tm9  1  0.207867  0.588242  0.122460  1
  Tm  Tm10  1  0.792093  0.411700  0.122456  1
  Tm  Tm11  1  0.792129  0.587108  0.623706  1
  Tm  Tm12  1  0.912349  0.708983  0.120874  1
  Tm  Tm13  1  0.915564  0.284408  0.621953  1
  Tm  Tm14  1  0.084398  0.715604  0.622110  1
  Tm  Tm15  1  0.087336  0.291304  0.120557  1
  Tm  Tm16  1  0.999892  0.999971  0.999846  1
  Tm  Tm17  1  0.500021  0.500021  0.999927  1
  Tm  Tm18  1  0.500094  0.500051  0.500144  1
  Mg  Mg19  1  0.999663  0.999882  0.500152  1
  Ir  Ir20  1  0.845997  0.154833  0.246892  1
  Ir  Ir21  1  0.845110  0.845938  0.753178  1
  Ir  Ir22  1  0.154481  0.154243  0.754615  1
  Ir  Ir23  1  0.153730  0.844498  0.246459  1
  Ir  Ir24  1  0.654135  0.346252  0.748811  1
  Ir  Ir25  1  0.653740  0.654171  0.251192  1
  Ir  Ir26  1  0.346414  0.346588  0.250847  1
  Ir  Ir27  1  0.345850  0.653765  0.748778  1
  Ir  Ir28  1  0.500543  0.999727  0.123916  1
  Ir  Ir29  1  0.500606  0.999753  0.621473  1
  Ir  Ir30  1  0.999976  0.500015  0.875473  1
  Ir  Ir31  1  0.000022  0.500057  0.379215  1
