# generated using pymatgen
data_Ho8Nb12Si15P
_symmetry_space_group_name_H-M   'P 1'
_cell_length_a   7.03715147
_cell_length_b   7.04782978
_cell_length_c   13.03941425
_cell_angle_alpha   89.94161375
_cell_angle_beta   90.02760382
_cell_angle_gamma   90.00463816
_symmetry_Int_Tables_number   1
_chemical_formula_structural   Ho8Nb12Si15P
_chemical_formula_sum   'Ho8 Nb12 Si15 P1'
_cell_volume   646.71079574
_cell_formula_units_Z   1
loop_
 _symmetry_equiv_pos_site_id
 _symmetry_equiv_pos_as_xyz
  1  'x, y, z'
loop_
 _atom_site_type_symbol
 _atom_site_label
 _atom_site_symmetry_multiplicity
 _atom_site_fract_x
 _atom_site_fract_y
 _atom_site_fract_z
 _atom_site_occupancy
  Ho  Ho0  1  0.339912  0.002048  0.469060  1
  Ho  Ho1  1  0.495241  0.844689  0.717901  1
  Ho  Ho2  1  0.500512  0.158853  0.218490  1
  Ho  Ho3  1  0.840713  0.498048  0.281956  1
  Ho  Ho4  1  0.159433  0.497519  0.780471  1
  Ho  Ho5  1  0.660260  0.997892  0.968469  1
  Ho  Ho6  1  0.002832  0.340276  0.533219  1
  Ho  Ho7  1  0.998908  0.659424  0.031328  1
  Nb  Nb8  1  0.327725  0.328215  0.999381  1
  Nb  Nb9  1  0.171813  0.828251  0.249980  1
  Nb  Nb10  1  0.829705  0.172264  0.749582  1
  Nb  Nb11  1  0.671873  0.671198  0.500219  1
  Nb  Nb12  1  0.153770  0.009025  0.871615  1
  Nb  Nb13  1  0.491997  0.652434  0.124196  1
  Nb  Nb14  1  0.503532  0.344126  0.624891  1
  Nb  Nb15  1  0.653218  0.495399  0.875562  1
  Nb  Nb16  1  0.347043  0.506104  0.376034  1
  Nb  Nb17  1  0.847541  0.993830  0.374611  1
  Nb  Nb18  1  0.007353  0.152007  0.125604  1
  Nb  Nb19  1  0.996782  0.849258  0.626680  1
  Si  Si20  1  0.364824  0.704568  0.932277  1
  Si  Si21  1  0.634044  0.295131  0.433489  1
  Si  Si22  1  0.704205  0.366158  0.067099  1
  Si  Si23  1  0.296903  0.634182  0.566902  1
  Si  Si24  1  0.795727  0.865567  0.183294  1
  Si  Si25  1  0.134391  0.204023  0.317384  1
  Si  Si26  1  0.865931  0.795019  0.816655  1
  Si  Si27  1  0.294536  0.954778  0.062792  1
  Si  Si28  1  0.545294  0.794113  0.313588  1
  Si  Si29  1  0.459938  0.206426  0.816002  1
  Si  Si30  1  0.792297  0.546772  0.686017  1
  Si  Si31  1  0.205113  0.454108  0.186498  1
  Si  Si32  1  0.706088  0.044747  0.563435  1
  Si  Si33  1  0.954285  0.294661  0.936740  1
  Si  Si34  1  0.044830  0.704903  0.436571  1
  P  P35  1  0.201437  0.133982  0.682006  1
