# generated using pymatgen
data_Lu12ZnInFe3
_symmetry_space_group_name_H-M   'P 1'
_cell_length_a   8.12521702
_cell_length_b   8.12521829
_cell_length_c   8.12521788
_cell_angle_alpha   107.26736772
_cell_angle_beta   109.44319644
_cell_angle_gamma   111.73392077
_symmetry_Int_Tables_number   1
_chemical_formula_structural   Lu12ZnInFe3
_chemical_formula_sum   'Lu12 Zn1 In1 Fe3'
_cell_volume   412.30856785
_cell_formula_units_Z   1
loop_
 _symmetry_equiv_pos_site_id
 _symmetry_equiv_pos_as_xyz
  1  'x, y, z'
loop_
 _atom_site_type_symbol
 _atom_site_label
 _atom_site_symmetry_multiplicity
 _atom_site_fract_x
 _atom_site_fract_y
 _atom_site_fract_z
 _atom_site_occupancy
  Lu  Lu0  1  0.308861  0.308228  0.617089  1
  Lu  Lu1  1  0.691139  0.691772  0.382911  1
  Lu  Lu2  1  0.691139  0.308228  0.999367  1
  Lu  Lu3  1  0.308861  0.691772  0.000633  1
  Lu  Lu4  1  0.188488  0.417940  0.229452  1
  Lu  Lu5  1  0.811512  0.582060  0.770548  1
  Lu  Lu6  1  0.188488  0.959034  0.770548  1
  Lu  Lu7  1  0.941963  0.188999  0.752965  1
  Lu  Lu8  1  0.811512  0.040966  0.229452  1
  Lu  Lu9  1  0.058037  0.811001  0.247035  1
  Lu  Lu10  1  0.436034  0.188999  0.247035  1
  Lu  Lu11  1  0.563966  0.811001  0.752965  1
  Zn  Zn12  1  0.500000  0.000000  0.500000  1
  In  In13  1  0.000000  0.500000  0.500000  1
  Fe  Fe14  1  0.382110  0.382110  0.000000  1
  Fe  Fe15  1  0.617890  0.617890  0.000000  1
  Fe  Fe16  1  0.000000  0.000000  0.000000  1
