# generated using pymatgen
data_TbY9(Pb3S)2
_symmetry_space_group_name_H-M   'P 1'
_cell_length_a   9.15772703
_cell_length_b   9.15772758
_cell_length_c   6.74557700
_cell_angle_alpha   90.00000000
_cell_angle_beta   90.00000000
_cell_angle_gamma   120.00907455
_symmetry_Int_Tables_number   1
_chemical_formula_structural   TbY9(Pb3S)2
_chemical_formula_sum   'Tb1 Y9 Pb6 S2'
_cell_volume   489.87517376
_cell_formula_units_Z   1
loop_
 _symmetry_equiv_pos_site_id
 _symmetry_equiv_pos_as_xyz
  1  'x, y, z'
loop_
 _atom_site_type_symbol
 _atom_site_label
 _atom_site_symmetry_multiplicity
 _atom_site_fract_x
 _atom_site_fract_y
 _atom_site_fract_z
 _atom_site_occupancy
  Tb  Tb0  1  0.756713  0.756713  0.750000  1
  Y  Y1  1  0.243306  0.000035  0.750000  1
  Y  Y2  1  0.000035  0.243306  0.750000  1
  Y  Y3  1  0.243258  0.243258  0.250000  1
  Y  Y4  1  0.756693  0.999987  0.250000  1
  Y  Y5  1  0.999987  0.756693  0.250000  1
  Y  Y6  1  0.666656  0.333311  0.000021  1
  Y  Y7  1  0.333311  0.666656  0.000021  1
  Y  Y8  1  0.333311  0.666656  0.499979  1
  Y  Y9  1  0.666656  0.333311  0.499979  1
  Pb  Pb10  1  0.397305  0.397305  0.750000  1
  Pb  Pb11  1  0.602593  0.000059  0.750000  1
  Pb  Pb12  1  0.000059  0.602593  0.750000  1
  Pb  Pb13  1  0.602687  0.602687  0.250000  1
  Pb  Pb14  1  0.397363  0.999983  0.250000  1
  Pb  Pb15  1  0.999983  0.397363  0.250000  1
  S  S16  1  0.000042  0.000042  0.000038  1
  S  S17  1  0.000042  0.000042  0.499962  1
