# generated using pymatgen
data_MnB4Ir4Pd3
_symmetry_space_group_name_H-M   'P 1'
_cell_length_a   6.82869541
_cell_length_b   6.14174434
_cell_length_c   5.55422571
_cell_angle_alpha   70.34312930
_cell_angle_beta   57.60133019
_cell_angle_gamma   50.60709493
_symmetry_Int_Tables_number   1
_chemical_formula_structural   MnB4Ir4Pd3
_chemical_formula_sum   'Mn1 B4 Ir4 Pd3'
_cell_volume   151.99793518
_cell_formula_units_Z   1
loop_
 _symmetry_equiv_pos_site_id
 _symmetry_equiv_pos_as_xyz
  1  'x, y, z'
loop_
 _atom_site_type_symbol
 _atom_site_label
 _atom_site_symmetry_multiplicity
 _atom_site_fract_x
 _atom_site_fract_y
 _atom_site_fract_z
 _atom_site_occupancy
  Mn  Mn0  1  0.936928  0.788406  0.394653  1
  B  B1  1  0.054166  0.985587  0.572797  1
  B  B2  1  0.678515  0.842022  0.189683  1
  B  B3  1  0.415281  0.561638  0.963643  1
  B  B4  1  0.270292  0.196443  0.849985  1
  Ir  Ir5  1  0.100916  0.635749  0.876704  1
  Ir  Ir6  1  0.374541  0.849558  0.148825  1
  Ir  Ir7  1  0.614829  0.146210  0.852661  1
  Ir  Ir8  1  0.397465  0.871577  0.627873  1
  Pd  Pd9  1  0.461639  0.309585  0.367635  1
  Pd  Pd10  1  0.863856  0.366277  0.314012  1
  Pd  Pd11  1  0.886774  0.391747  0.786329  1
