# generated using pymatgen
data_TbDyAl20(ReRh)2
_symmetry_space_group_name_H-M   'P 1'
_cell_length_a   6.88902888
_cell_length_b   6.88902960
_cell_length_c   9.17134154
_cell_angle_alpha   90.86194504
_cell_angle_beta   90.86193580
_cell_angle_gamma   96.65082135
_symmetry_Int_Tables_number   1
_chemical_formula_structural   TbDyAl20(ReRh)2
_chemical_formula_sum   'Tb1 Dy1 Al20 Re2 Rh2'
_cell_volume   432.22038608
_cell_formula_units_Z   1
loop_
 _symmetry_equiv_pos_site_id
 _symmetry_equiv_pos_as_xyz
  1  'x, y, z'
loop_
 _atom_site_type_symbol
 _atom_site_label
 _atom_site_symmetry_multiplicity
 _atom_site_fract_x
 _atom_site_fract_y
 _atom_site_fract_z
 _atom_site_occupancy
  Tb  Tb0  1  0.872086  0.127914  0.750000  1
  Dy  Dy1  1  0.129111  0.870889  0.250000  1
  Al  Al2  1  0.620363  0.376735  0.547798  1
  Al  Al3  1  0.379438  0.623913  0.450091  1
  Al  Al4  1  0.376087  0.620562  0.049909  1
  Al  Al5  1  0.623265  0.379637  0.952202  1
  Al  Al6  1  0.223645  0.224303  0.500933  1
  Al  Al7  1  0.776087  0.775477  0.498230  1
  Al  Al8  1  0.775697  0.776355  0.999067  1
  Al  Al9  1  0.224523  0.223913  0.001770  1
  Al  Al10  1  0.845906  0.157558  0.101193  1
  Al  Al11  1  0.154423  0.841710  0.899916  1
  Al  Al12  1  0.158290  0.845577  0.600084  1
  Al  Al13  1  0.842442  0.154094  0.398807  1
  Al  Al14  1  0.857609  0.589954  0.749573  1
  Al  Al15  1  0.142609  0.411521  0.250765  1
  Al  Al16  1  0.410046  0.142391  0.750427  1
  Al  Al17  1  0.588479  0.857391  0.249235  1
  Al  Al18  1  0.220028  0.479677  0.755571  1
  Al  Al19  1  0.780175  0.520155  0.244594  1
  Al  Al20  1  0.520323  0.779972  0.744429  1
  Al  Al21  1  0.479845  0.219825  0.255406  1
  Re  Re22  1  0.999736  0.500064  0.999692  1
  Re  Re23  1  0.499936  0.000264  0.500308  1
  Rh  Rh24  1  0.999874  0.500025  0.500239  1
  Rh  Rh25  1  0.499975  0.000126  0.999761  1
