# generated using pymatgen
data_La3Tb(Mo2O7)2
_symmetry_space_group_name_H-M   'P 1'
_cell_length_a   7.50104892
_cell_length_b   7.58020204
_cell_length_c   7.58020200
_cell_angle_alpha   60.00000015
_cell_angle_beta   59.65031555
_cell_angle_gamma   59.65031306
_symmetry_Int_Tables_number   1
_chemical_formula_structural   La3Tb(Mo2O7)2
_chemical_formula_sum   'La3 Tb1 Mo4 O14'
_cell_volume   303.14664233
_cell_formula_units_Z   1
loop_
 _symmetry_equiv_pos_site_id
 _symmetry_equiv_pos_as_xyz
  1  'x, y, z'
loop_
 _atom_site_type_symbol
 _atom_site_label
 _atom_site_symmetry_multiplicity
 _atom_site_fract_x
 _atom_site_fract_y
 _atom_site_fract_z
 _atom_site_occupancy
  La  La0  1  0.125000  0.125000  0.125000  1
  La  La1  1  0.125000  0.125000  0.625000  1
  La  La2  1  0.125000  0.625000  0.125000  1
  Tb  Tb3  1  0.625000  0.125000  0.125000  1
  Mo  Mo4  1  0.625000  0.625000  0.625000  1
  Mo  Mo5  1  0.125000  0.625000  0.625000  1
  Mo  Mo6  1  0.625000  0.625000  0.125000  1
  Mo  Mo7  1  0.625000  0.125000  0.625000  1
  O  O8  1  0.987321  0.004226  0.004226  1
  O  O9  1  0.262679  0.245774  0.245774  1
  O  O10  1  0.295910  0.279900  0.712095  1
  O  O11  1  0.558924  0.532858  0.954109  1
  O  O12  1  0.691076  0.295891  0.717142  1
  O  O13  1  0.691076  0.295891  0.295891  1
  O  O14  1  0.295910  0.712095  0.712095  1
  O  O15  1  0.295910  0.712095  0.279900  1
  O  O16  1  0.691076  0.717142  0.295891  1
  O  O17  1  0.954090  0.537905  0.537905  1
  O  O18  1  0.558924  0.954109  0.954109  1
  O  O19  1  0.954090  0.970100  0.537905  1
  O  O20  1  0.954090  0.537905  0.970100  1
  O  O21  1  0.558924  0.954109  0.532858  1
