# generated using pymatgen
data_CeTh(ScTc4)2
_symmetry_space_group_name_H-M   'P 1'
_cell_length_a   5.24816200
_cell_length_b   5.24816147
_cell_length_c   9.11089800
_cell_angle_alpha   90.00000000
_cell_angle_beta   90.00000000
_cell_angle_gamma   120.00000336
_symmetry_Int_Tables_number   1
_chemical_formula_structural   CeTh(ScTc4)2
_chemical_formula_sum   'Ce1 Th1 Sc2 Tc8'
_cell_volume   217.32326554
_cell_formula_units_Z   1
loop_
 _symmetry_equiv_pos_site_id
 _symmetry_equiv_pos_as_xyz
  1  'x, y, z'
loop_
 _atom_site_type_symbol
 _atom_site_label
 _atom_site_symmetry_multiplicity
 _atom_site_fract_x
 _atom_site_fract_y
 _atom_site_fract_z
 _atom_site_occupancy
  Ce  Ce0  1  0.666667  0.333333  0.939747  1
  Th  Th1  1  0.333333  0.666667  0.059131  1
  Sc  Sc2  1  0.333333  0.666667  0.438715  1
  Sc  Sc3  1  0.666667  0.333333  0.562882  1
  Tc  Tc4  1  0.000000  0.000000  0.500434  1
  Tc  Tc5  1  0.000000  0.000000  0.998516  1
  Tc  Tc6  1  0.828824  0.171176  0.264148  1
  Tc  Tc7  1  0.828824  0.657646  0.264148  1
  Tc  Tc8  1  0.342354  0.171176  0.264148  1
  Tc  Tc9  1  0.171096  0.828904  0.736043  1
  Tc  Tc10  1  0.171096  0.342194  0.736043  1
  Tc  Tc11  1  0.657806  0.828904  0.736043  1
