# generated using pymatgen
data_Dy2ErGa6Ni8Ir
_symmetry_space_group_name_H-M   'P 1'
_cell_length_a   4.10386200
_cell_length_b   8.86873590
_cell_length_c   8.86873704
_cell_angle_alpha   58.36854050
_cell_angle_beta   90.00000000
_cell_angle_gamma   90.00000000
_symmetry_Int_Tables_number   1
_chemical_formula_structural   Dy2ErGa6Ni8Ir
_chemical_formula_sum   'Dy2 Er1 Ga6 Ni8 Ir1'
_cell_volume   274.83360769
_cell_formula_units_Z   1
loop_
 _symmetry_equiv_pos_site_id
 _symmetry_equiv_pos_as_xyz
  1  'x, y, z'
loop_
 _atom_site_type_symbol
 _atom_site_label
 _atom_site_symmetry_multiplicity
 _atom_site_fract_x
 _atom_site_fract_y
 _atom_site_fract_z
 _atom_site_occupancy
  Dy  Dy0  1  0.500000  0.334373  0.334010  1
  Dy  Dy1  1  0.500000  0.665990  0.665627  1
  Er  Er2  1  0.000000  0.985056  0.014944  1
  Ga  Ga3  1  0.000000  0.525360  0.474640  1
  Ga  Ga4  1  0.000000  0.480176  0.988727  1
  Ga  Ga5  1  0.000000  0.011273  0.519824  1
  Ga  Ga6  1  0.500000  0.266078  0.733922  1
  Ga  Ga7  1  0.500000  0.725311  0.993823  1
  Ga  Ga8  1  0.500000  0.006177  0.274689  1
  Ni  Ni9  1  0.000000  0.175957  0.197188  1
  Ni  Ni10  1  0.000000  0.199598  0.632840  1
  Ni  Ni11  1  0.000000  0.610851  0.166287  1
  Ni  Ni12  1  0.000000  0.802812  0.824043  1
  Ni  Ni13  1  0.000000  0.367160  0.800402  1
  Ni  Ni14  1  0.000000  0.833713  0.389149  1
  Ni  Ni15  1  0.500000  0.292700  0.995705  1
  Ni  Ni16  1  0.500000  0.004295  0.707300  1
  Ir  Ir17  1  0.500000  0.713018  0.286982  1
