# generated using pymatgen
data_Nd15YCd4Ni3Ru
_symmetry_space_group_name_H-M   'P 1'
_cell_length_a   9.84003373
_cell_length_b   9.80739908
_cell_length_c   9.78669331
_cell_angle_alpha   59.92998378
_cell_angle_beta   60.35100608
_cell_angle_gamma   60.10964298
_symmetry_Int_Tables_number   1
_chemical_formula_structural   Nd15YCd4Ni3Ru
_chemical_formula_sum   'Nd15 Y1 Cd4 Ni3 Ru1'
_cell_volume   669.79026512
_cell_formula_units_Z   1
loop_
 _symmetry_equiv_pos_site_id
 _symmetry_equiv_pos_as_xyz
  1  'x, y, z'
loop_
 _atom_site_type_symbol
 _atom_site_label
 _atom_site_symmetry_multiplicity
 _atom_site_fract_x
 _atom_site_fract_y
 _atom_site_fract_z
 _atom_site_occupancy
  Nd  Nd0  1  0.438568  0.435795  0.061618  1
  Nd  Nd1  1  0.062719  0.059887  0.439900  1
  Nd  Nd2  1  0.438568  0.064020  0.061618  1
  Nd  Nd3  1  0.845968  0.851478  0.847751  1
  Nd  Nd4  1  0.690872  0.308587  0.312659  1
  Nd  Nd5  1  0.062719  0.437495  0.439900  1
  Nd  Nd6  1  0.312724  0.688366  0.688744  1
  Nd  Nd7  1  0.312724  0.310168  0.688744  1
  Nd  Nd8  1  0.847934  0.849011  0.454045  1
  Nd  Nd9  1  0.690872  0.687880  0.312659  1
  Nd  Nd10  1  0.451986  0.849168  0.849679  1
  Nd  Nd11  1  0.063644  0.439161  0.058036  1
  Nd  Nd12  1  0.845968  0.454804  0.847751  1
  Nd  Nd13  1  0.437621  0.062727  0.436926  1
  Nd  Nd14  1  0.310497  0.689338  0.310827  1
  Y  Y15  1  0.691247  0.309634  0.689485  1
  Cd  Cd16  1  0.080363  0.760312  0.080028  1
  Cd  Cd17  1  0.078872  0.080719  0.759691  1
  Cd  Cd18  1  0.759528  0.080956  0.078562  1
  Cd  Cd19  1  0.080363  0.079298  0.080028  1
  Ni  Ni20  1  0.641064  0.074160  0.643007  1
  Ni  Ni21  1  0.641064  0.641768  0.643007  1
  Ni  Ni22  1  0.640544  0.643438  0.072579  1
  Ru  Ru23  1  0.073574  0.641833  0.642759  1
