# generated using pymatgen
data_Pr2Nd6Cd2PdRu
_symmetry_space_group_name_H-M   'P 1'
_cell_length_a   9.98014984
_cell_length_b   9.98043216
_cell_length_c   10.04569600
_cell_angle_alpha   59.78158690
_cell_angle_beta   59.78436401
_cell_angle_gamma   59.81679035
_symmetry_Int_Tables_number   1
_chemical_formula_structural   Pr2Nd6Cd2PdRu
_chemical_formula_sum   'Pr4 Nd12 Cd4 Pd2 Ru2'
_cell_volume   704.23568376
_cell_formula_units_Z   2
loop_
 _symmetry_equiv_pos_site_id
 _symmetry_equiv_pos_as_xyz
  1  'x, y, z'
loop_
 _atom_site_type_symbol
 _atom_site_label
 _atom_site_symmetry_multiplicity
 _atom_site_fract_x
 _atom_site_fract_y
 _atom_site_fract_z
 _atom_site_occupancy
  Pr  Pr0  1  0.559003  0.936747  0.565505  1
  Pr  Pr1  1  0.936747  0.559003  0.938745  1
  Pr  Pr2  1  0.562704  0.562704  0.937296  1
  Pr  Pr3  1  0.937955  0.937955  0.562045  1
  Nd  Nd4  1  0.347444  0.347664  0.356456  1
  Nd  Nd5  1  0.347664  0.347444  0.948436  1
  Nd  Nd6  1  0.343805  0.955362  0.350297  1
  Nd  Nd7  1  0.955362  0.343805  0.350536  1
  Nd  Nd8  1  0.816486  0.189737  0.190399  1
  Nd  Nd9  1  0.189737  0.816486  0.803377  1
  Nd  Nd10  1  0.189825  0.816397  0.190479  1
  Nd  Nd11  1  0.816397  0.189825  0.803299  1
  Nd  Nd12  1  0.189080  0.189080  0.810920  1
  Nd  Nd13  1  0.806837  0.806837  0.193163  1
  Nd  Nd14  1  0.937006  0.558745  0.565290  1
  Nd  Nd15  1  0.558745  0.937006  0.938958  1
  Cd  Cd16  1  0.579884  0.579655  0.579680  1
  Cd  Cd17  1  0.579655  0.579884  0.260779  1
  Cd  Cd18  1  0.580502  0.259275  0.580211  1
  Cd  Cd19  1  0.259275  0.580502  0.580010  1
  Pd  Pd20  1  0.146078  0.572864  0.140649  1
  Pd  Pd21  1  0.572864  0.146078  0.140409  1
  Ru  Ru22  1  0.143625  0.143315  0.137872  1
  Ru  Ru23  1  0.143315  0.143625  0.575188  1
