# generated using pymatgen
data_Dy15Tm5(Bi2Ir)4
_symmetry_space_group_name_H-M   'P 1'
_cell_length_a   7.97369631
_cell_length_b   9.01456527
_cell_length_c   12.50533630
_cell_angle_alpha   89.92855113
_cell_angle_beta   90.07778742
_cell_angle_gamma   90.03918789
_symmetry_Int_Tables_number   1
_chemical_formula_structural   Dy15Tm5(Bi2Ir)4
_chemical_formula_sum   'Dy15 Tm5 Bi8 Ir4'
_cell_volume   898.87440710
_cell_formula_units_Z   1
loop_
 _symmetry_equiv_pos_site_id
 _symmetry_equiv_pos_as_xyz
  1  'x, y, z'
loop_
 _atom_site_type_symbol
 _atom_site_label
 _atom_site_symmetry_multiplicity
 _atom_site_fract_x
 _atom_site_fract_y
 _atom_site_fract_z
 _atom_site_occupancy
  Dy  Dy0  1  0.841072  0.750407  0.793274  1
  Dy  Dy1  1  0.159080  0.249670  0.206863  1
  Dy  Dy2  1  0.341155  0.249640  0.706513  1
  Dy  Dy3  1  0.658538  0.750234  0.293348  1
  Dy  Dy4  1  0.376603  0.750240  0.692593  1
  Dy  Dy5  1  0.622627  0.249588  0.307399  1
  Dy  Dy6  1  0.876835  0.249441  0.807155  1
  Dy  Dy7  1  0.123246  0.750574  0.192896  1
  Dy  Dy8  1  0.946101  0.750479  0.501401  1
  Dy  Dy9  1  0.054825  0.249617  0.498476  1
  Dy  Dy10  1  0.445946  0.249175  0.998585  1
  Dy  Dy11  1  0.553987  0.750763  0.001415  1
  Dy  Dy12  1  0.676083  0.458258  0.565725  1
  Dy  Dy13  1  0.823461  0.458060  0.065959  1
  Dy  Dy14  1  0.176531  0.541903  0.934041  1
  Tm  Tm15  1  0.673569  0.041686  0.565335  1
  Tm  Tm16  1  0.326394  0.958022  0.434522  1
  Tm  Tm17  1  0.173615  0.958036  0.934579  1
  Tm  Tm18  1  0.325951  0.541887  0.434465  1
  Tm  Tm19  1  0.826293  0.041923  0.065471  1
  Bi  Bi20  1  0.569101  0.490952  0.827434  1
  Bi  Bi21  1  0.430686  0.509164  0.172829  1
  Bi  Bi22  1  0.068804  0.509151  0.672610  1
  Bi  Bi23  1  0.431691  0.990984  0.172578  1
  Bi  Bi24  1  0.931716  0.491091  0.327674  1
  Bi  Bi25  1  0.568206  0.008963  0.827329  1
  Bi  Bi26  1  0.931671  0.008966  0.327427  1
  Bi  Bi27  1  0.068170  0.990994  0.672555  1
  Ir  Ir28  1  0.568991  0.750815  0.508511  1
  Ir  Ir29  1  0.429100  0.249334  0.490987  1
  Ir  Ir30  1  0.070224  0.248517  0.991139  1
  Ir  Ir31  1  0.929728  0.751465  0.008913  1
