# generated using pymatgen
data_CrPb4W3O13
_symmetry_space_group_name_H-M   'P 1'
_cell_length_a   7.44542138
_cell_length_b   7.44542071
_cell_length_c   7.44542003
_cell_angle_alpha   61.21166813
_cell_angle_beta   61.21166755
_cell_angle_gamma   61.21167482
_symmetry_Int_Tables_number   1
_chemical_formula_structural   CrPb4W3O13
_chemical_formula_sum   'Cr1 Pb4 W3 O13'
_cell_volume   299.79908175
_cell_formula_units_Z   1
loop_
 _symmetry_equiv_pos_site_id
 _symmetry_equiv_pos_as_xyz
  1  'x, y, z'
loop_
 _atom_site_type_symbol
 _atom_site_label
 _atom_site_symmetry_multiplicity
 _atom_site_fract_x
 _atom_site_fract_y
 _atom_site_fract_z
 _atom_site_occupancy
  Cr  Cr0  1  0.500029  0.500029  0.500029  1
  Pb  Pb1  1  0.996852  0.996852  0.996852  1
  Pb  Pb2  1  0.501602  0.998822  0.998822  1
  Pb  Pb3  1  0.998822  0.998822  0.501602  1
  Pb  Pb4  1  0.998822  0.501602  0.998822  1
  W  W5  1  0.000992  0.499750  0.499750  1
  W  W6  1  0.499750  0.499750  0.000992  1
  W  W7  1  0.499750  0.000992  0.499750  1
  O  O8  1  0.822789  0.431507  0.431507  1
  O  O9  1  0.424396  0.825005  0.825005  1
  O  O10  1  0.431507  0.431507  0.822789  1
  O  O11  1  0.825005  0.825005  0.424396  1
  O  O12  1  0.825005  0.424396  0.825005  1
  O  O13  1  0.431507  0.822789  0.431507  1
  O  O14  1  0.180421  0.566016  0.566016  1
  O  O15  1  0.573500  0.178064  0.178064  1
  O  O16  1  0.566016  0.566016  0.180421  1
  O  O17  1  0.178064  0.178064  0.573500  1
  O  O18  1  0.178064  0.573500  0.178064  1
  O  O19  1  0.566016  0.180421  0.566016  1
  O  O20  1  0.126096  0.126096  0.126096  1
