# generated using pymatgen
data_Eu2DyHfO6
_symmetry_space_group_name_H-M   'P 1'
_cell_length_a   5.76617641
_cell_length_b   5.96528000
_cell_length_c   10.08775171
_cell_angle_alpha   90.00000000
_cell_angle_beta   124.75391375
_cell_angle_gamma   90.00000000
_symmetry_Int_Tables_number   1
_chemical_formula_structural   Eu2DyHfO6
_chemical_formula_sum   'Eu4 Dy2 Hf2 O12'
_cell_volume   285.08725557
_cell_formula_units_Z   2
loop_
 _symmetry_equiv_pos_site_id
 _symmetry_equiv_pos_as_xyz
  1  'x, y, z'
loop_
 _atom_site_type_symbol
 _atom_site_label
 _atom_site_symmetry_multiplicity
 _atom_site_fract_x
 _atom_site_fract_y
 _atom_site_fract_z
 _atom_site_occupancy
  Eu  Eu0  1  0.238605  0.449409  0.752090  1
  Eu  Eu1  1  0.238605  0.050591  0.252090  1
  Eu  Eu2  1  0.761395  0.550591  0.247910  1
  Eu  Eu3  1  0.761395  0.949409  0.747910  1
  Dy  Dy4  1  0.500000  0.500000  0.500000  1
  Dy  Dy5  1  0.500000  0.000000  0.000000  1
  Hf  Hf6  1  0.000000  0.500000  0.000000  1
  Hf  Hf7  1  0.000000  0.000000  0.500000  1
  O  O8  1  0.354892  0.048303  0.738952  1
  O  O9  1  0.354892  0.451697  0.238952  1
  O  O10  1  0.645108  0.951697  0.261048  1
  O  O11  1  0.645108  0.548303  0.761048  1
  O  O12  1  0.763928  0.187972  0.557924  1
  O  O13  1  0.763928  0.312028  0.057924  1
  O  O14  1  0.236072  0.812028  0.442076  1
  O  O15  1  0.236072  0.687972  0.942076  1
  O  O16  1  0.119805  0.208387  0.934995  1
  O  O17  1  0.119805  0.291613  0.434995  1
  O  O18  1  0.880195  0.791613  0.065005  1
  O  O19  1  0.880195  0.708387  0.565005  1
