# generated using pymatgen
data_Ti5Fe11B4
_symmetry_space_group_name_H-M   'P 1'
_cell_length_a   8.60864200
_cell_length_b   8.60864200
_cell_length_c   2.88609100
_cell_angle_alpha   90.00000000
_cell_angle_beta   90.00000000
_cell_angle_gamma   90.00000000
_symmetry_Int_Tables_number   1
_chemical_formula_structural   Ti5Fe11B4
_chemical_formula_sum   'Ti5 Fe11 B4'
_cell_volume   213.88450140
_cell_formula_units_Z   1
loop_
 _symmetry_equiv_pos_site_id
 _symmetry_equiv_pos_as_xyz
  1  'x, y, z'
loop_
 _atom_site_type_symbol
 _atom_site_label
 _atom_site_symmetry_multiplicity
 _atom_site_fract_x
 _atom_site_fract_y
 _atom_site_fract_z
 _atom_site_occupancy
  Ti  Ti0  1  0.500000  0.500000  0.000000  1
  Ti  Ti1  1  0.825478  0.325364  0.000000  1
  Ti  Ti2  1  0.325364  0.174522  0.000000  1
  Ti  Ti3  1  0.674636  0.825478  0.000000  1
  Ti  Ti4  1  0.174522  0.674636  0.000000  1
  Fe  Fe5  1  0.000000  0.000000  0.000000  1
  Fe  Fe6  1  0.500000  0.000000  0.500000  1
  Fe  Fe7  1  0.000000  0.500000  0.500000  1
  Fe  Fe8  1  0.066739  0.213479  0.500000  1
  Fe  Fe9  1  0.213479  0.933261  0.500000  1
  Fe  Fe10  1  0.786521  0.066739  0.500000  1
  Fe  Fe11  1  0.933261  0.786521  0.500000  1
  Fe  Fe12  1  0.427791  0.719754  0.500000  1
  Fe  Fe13  1  0.572209  0.280246  0.500000  1
  Fe  Fe14  1  0.719754  0.572209  0.500000  1
  Fe  Fe15  1  0.280246  0.427791  0.500000  1
  B  B16  1  0.623088  0.122414  0.000000  1
  B  B17  1  0.122414  0.376912  0.000000  1
  B  B18  1  0.877586  0.623088  0.000000  1
  B  B19  1  0.376912  0.877586  0.000000  1
