# generated using pymatgen
data_Ce3(H6Os)2
_symmetry_space_group_name_H-M   'P 1'
_cell_length_a   4.84158500
_cell_length_b   4.84158373
_cell_length_c   8.52872600
_cell_angle_alpha   90.00000000
_cell_angle_beta   90.00000000
_cell_angle_gamma   119.99998820
_symmetry_Int_Tables_number   1
_chemical_formula_structural   Ce3(H6Os)2
_chemical_formula_sum   'Ce3 H12 Os2'
_cell_volume   173.13698598
_cell_formula_units_Z   1
loop_
 _symmetry_equiv_pos_site_id
 _symmetry_equiv_pos_as_xyz
  1  'x, y, z'
loop_
 _atom_site_type_symbol
 _atom_site_label
 _atom_site_symmetry_multiplicity
 _atom_site_fract_x
 _atom_site_fract_y
 _atom_site_fract_z
 _atom_site_occupancy
  Ce  Ce0  1  0.000000  0.000000  0.000000  1
  Ce  Ce1  1  0.666667  0.333333  0.366755  1
  Ce  Ce2  1  0.333333  0.666667  0.633245  1
  H  H3  1  0.168187  0.831813  0.361388  1
  H  H4  1  0.663627  0.831813  0.361388  1
  H  H5  1  0.168187  0.336373  0.361388  1
  H  H6  1  0.831813  0.168187  0.638612  1
  H  H7  1  0.336373  0.168187  0.638612  1
  H  H8  1  0.831813  0.663627  0.638612  1
  H  H9  1  0.500535  0.001071  0.879139  1
  H  H10  1  0.500535  0.499465  0.879139  1
  H  H11  1  0.998929  0.499465  0.879139  1
  H  H12  1  0.499465  0.998929  0.120861  1
  H  H13  1  0.499465  0.500535  0.120861  1
  H  H14  1  0.001071  0.500535  0.120861  1
  Os  Os15  1  0.666667  0.333333  0.761486  1
  Os  Os16  1  0.333333  0.666667  0.238514  1
