# generated using pymatgen
data_Y3ZrSn2Ir3
_symmetry_space_group_name_H-M   'P 1'
_cell_length_a   7.27903600
_cell_length_b   7.38506031
_cell_length_c   4.21397800
_cell_angle_alpha   90.00000000
_cell_angle_beta   90.00000000
_cell_angle_gamma   119.52619545
_symmetry_Int_Tables_number   1
_chemical_formula_structural   Y3ZrSn2Ir3
_chemical_formula_sum   'Y3 Zr1 Sn2 Ir3'
_cell_volume   197.10813765
_cell_formula_units_Z   1
loop_
 _symmetry_equiv_pos_site_id
 _symmetry_equiv_pos_as_xyz
  1  'x, y, z'
loop_
 _atom_site_type_symbol
 _atom_site_label
 _atom_site_symmetry_multiplicity
 _atom_site_fract_x
 _atom_site_fract_y
 _atom_site_fract_z
 _atom_site_occupancy
  Y  Y0  1  0.603122  0.000000  0.000000  1
  Y  Y1  1  0.993734  0.582239  0.000000  1
  Y  Y2  1  0.411495  0.417761  0.000000  1
  Zr  Zr3  1  0.249577  0.000000  0.500000  1
  Sn  Sn4  1  0.001409  0.254019  0.500000  1
  Sn  Sn5  1  0.747390  0.745981  0.500000  1
  Ir  Ir6  1  0.327393  0.676185  0.500000  1
  Ir  Ir7  1  0.651209  0.323815  0.500000  1
  Ir  Ir8  1  0.014671  0.000000  0.000000  1
