# generated using pymatgen
data_Sm4Ga24Pd8Au
_symmetry_space_group_name_H-M   'P 1'
_cell_length_a   7.58625871
_cell_length_b   7.63733371
_cell_length_c   13.47040507
_cell_angle_alpha   84.94946188
_cell_angle_beta   100.36531067
_cell_angle_gamma   119.67791412
_symmetry_Int_Tables_number   1
_chemical_formula_structural   Sm4Ga24Pd8Au
_chemical_formula_sum   'Sm4 Ga24 Pd8 Au1'
_cell_volume   667.01387858
_cell_formula_units_Z   1
loop_
 _symmetry_equiv_pos_site_id
 _symmetry_equiv_pos_as_xyz
  1  'x, y, z'
loop_
 _atom_site_type_symbol
 _atom_site_label
 _atom_site_symmetry_multiplicity
 _atom_site_fract_x
 _atom_site_fract_y
 _atom_site_fract_z
 _atom_site_occupancy
  Sm  Sm0  1  0.437814  0.829186  0.810896  1
  Sm  Sm1  1  0.562338  0.168700  0.189881  1
  Sm  Sm2  1  0.769766  0.503333  0.810825  1
  Sm  Sm3  1  0.228421  0.496539  0.189108  1
  Ga  Ga4  1  0.479737  0.165649  0.941753  1
  Ga  Ga5  1  0.521482  0.833772  0.059584  1
  Ga  Ga6  1  0.013960  0.157142  0.557333  1
  Ga  Ga7  1  0.977511  0.835078  0.439210  1
  Ga  Ga8  1  0.353935  0.841455  0.555057  1
  Ga  Ga9  1  0.644829  0.167456  0.441837  1
  Ga  Ga10  1  0.615416  0.835216  0.326883  1
  Ga  Ga11  1  0.385941  0.159600  0.675426  1
  Ga  Ga12  1  0.054334  0.495663  0.675211  1
  Ga  Ga13  1  0.940401  0.504469  0.327003  1
  Ga  Ga14  1  0.738197  0.845303  0.674132  1
  Ga  Ga15  1  0.270171  0.161787  0.327915  1
  Ga  Ga16  1  0.145408  0.500183  0.942565  1
  Ga  Ga17  1  0.854328  0.500593  0.058642  1
  Ga  Ga18  1  0.815474  0.833105  0.949043  1
  Ga  Ga19  1  0.185177  0.166887  0.052245  1
  Ga  Ga20  1  0.309336  0.499218  0.437358  1
  Ga  Ga21  1  0.696953  0.501305  0.555788  1
  Ga  Ga22  1  0.101704  0.836677  0.182990  1
  Ga  Ga23  1  0.897355  0.163876  0.817402  1
  Ga  Ga24  1  0.304647  0.364163  0.819835  1
  Ga  Ga25  1  0.693396  0.632485  0.184230  1
  Ga  Ga26  1  0.103160  0.959693  0.816434  1
  Ga  Ga27  1  0.897928  0.039453  0.184026  1
  Pd  Pd28  1  0.614369  0.497400  0.362343  1
  Pd  Pd29  1  0.170917  0.830266  0.999142  1
  Pd  Pd30  1  0.829225  0.169984  0.000623  1
  Pd  Pd31  1  0.290280  0.832283  0.361613  1
  Pd  Pd32  1  0.709598  0.167384  0.637533  1
  Pd  Pd33  1  0.048606  0.828444  0.636485  1
  Pd  Pd34  1  0.951597  0.171923  0.362816  1
  Pd  Pd35  1  0.500440  0.500239  0.000635  1
  Au  Au36  1  0.385851  0.504091  0.636198  1
