# generated using pymatgen
data_YNb3(Co4P3)2
_symmetry_space_group_name_H-M   'P 1'
_cell_length_a   12.02470600
_cell_length_b   12.02470611
_cell_length_c   3.66131700
_cell_angle_alpha   90.00000000
_cell_angle_beta   90.00000000
_cell_angle_gamma   119.99999969
_symmetry_Int_Tables_number   1
_chemical_formula_structural   YNb3(Co4P3)2
_chemical_formula_sum   'Y2 Nb6 Co16 P12'
_cell_volume   458.47631297
_cell_formula_units_Z   2
loop_
 _symmetry_equiv_pos_site_id
 _symmetry_equiv_pos_as_xyz
  1  'x, y, z'
loop_
 _atom_site_type_symbol
 _atom_site_label
 _atom_site_symmetry_multiplicity
 _atom_site_fract_x
 _atom_site_fract_y
 _atom_site_fract_z
 _atom_site_occupancy
  Y  Y0  1  0.333333  0.666667  0.000000  1
  Y  Y1  1  0.666667  0.333333  0.000000  1
  Nb  Nb2  1  0.821134  0.000000  0.500000  1
  Nb  Nb3  1  0.000000  0.821134  0.500000  1
  Nb  Nb4  1  0.178866  0.178866  0.500000  1
  Nb  Nb5  1  0.444863  0.000000  0.000000  1
  Nb  Nb6  1  0.000000  0.444863  0.000000  1
  Nb  Nb7  1  0.555137  0.555137  0.000000  1
  Co  Co8  1  0.271800  0.000000  0.500000  1
  Co  Co9  1  0.000000  0.271800  0.500000  1
  Co  Co10  1  0.728200  0.728200  0.500000  1
  Co  Co11  1  0.634660  0.810914  0.000000  1
  Co  Co12  1  0.189086  0.823747  0.000000  1
  Co  Co13  1  0.176253  0.365340  0.000000  1
  Co  Co14  1  0.365340  0.176253  0.000000  1
  Co  Co15  1  0.810914  0.634660  0.000000  1
  Co  Co16  1  0.823747  0.189086  0.000000  1
  Co  Co17  1  0.521628  0.875104  0.500000  1
  Co  Co18  1  0.124896  0.646524  0.500000  1
  Co  Co19  1  0.353476  0.478372  0.500000  1
  Co  Co20  1  0.478372  0.353476  0.500000  1
  Co  Co21  1  0.875104  0.521628  0.500000  1
  Co  Co22  1  0.646524  0.124896  0.500000  1
  Co  Co23  1  0.000000  0.000000  0.000000  1
  P  P24  1  0.172659  0.000000  0.000000  1
  P  P25  1  0.000000  0.172659  0.000000  1
  P  P26  1  0.827341  0.827341  0.000000  1
  P  P27  1  0.524108  0.691195  0.500000  1
  P  P28  1  0.308805  0.832913  0.500000  1
  P  P29  1  0.167087  0.475892  0.500000  1
  P  P30  1  0.475892  0.167087  0.500000  1
  P  P31  1  0.691195  0.524108  0.500000  1
  P  P32  1  0.832913  0.308805  0.500000  1
  P  P33  1  0.648126  0.000000  0.000000  1
  P  P34  1  0.000000  0.648126  0.000000  1
  P  P35  1  0.351874  0.351874  0.000000  1
