# generated using pymatgen
data_Ho4MoRu7
_symmetry_space_group_name_H-M   'P 1'
_cell_length_a   5.45894892
_cell_length_b   5.18973140
_cell_length_c   9.01371800
_cell_angle_alpha   90.00000000
_cell_angle_beta   90.00000000
_cell_angle_gamma   121.84019409
_symmetry_Int_Tables_number   1
_chemical_formula_structural   Ho4MoRu7
_chemical_formula_sum   'Ho4 Mo1 Ru7'
_cell_volume   216.93664782
_cell_formula_units_Z   1
loop_
 _symmetry_equiv_pos_site_id
 _symmetry_equiv_pos_as_xyz
  1  'x, y, z'
loop_
 _atom_site_type_symbol
 _atom_site_label
 _atom_site_symmetry_multiplicity
 _atom_site_fract_x
 _atom_site_fract_y
 _atom_site_fract_z
 _atom_site_occupancy
  Ho  Ho0  1  0.672649  0.345337  0.563317  1
  Ho  Ho1  1  0.334399  0.668891  0.431903  1
  Ho  Ho2  1  0.334399  0.668891  0.068097  1
  Ho  Ho3  1  0.672649  0.345337  0.936683  1
  Mo  Mo4  1  0.160047  0.320524  0.750000  1
  Ru  Ru5  1  0.009277  0.018858  0.498302  1
  Ru  Ru6  1  0.009277  0.018858  0.001698  1
  Ru  Ru7  1  0.171302  0.821082  0.750000  1
  Ru  Ru8  1  0.650123  0.821251  0.750000  1
  Ru  Ru9  1  0.822832  0.645631  0.250000  1
  Ru  Ru10  1  0.830190  0.162394  0.250000  1
  Ru  Ru11  1  0.332855  0.162947  0.250000  1
