# generated using pymatgen
data_Th6Zn3Ni3Sn8
_symmetry_space_group_name_H-M   'P 1'
_cell_length_a   8.49273343
_cell_length_b   8.49073565
_cell_length_c   8.49073475
_cell_angle_alpha   109.26053288
_cell_angle_beta   110.01952396
_cell_angle_gamma   109.12546649
_symmetry_Int_Tables_number   1
_chemical_formula_structural   Th6Zn3Ni3Sn8
_chemical_formula_sum   'Th6 Zn3 Ni3 Sn8'
_cell_volume   471.34262114
_cell_formula_units_Z   1
loop_
 _symmetry_equiv_pos_site_id
 _symmetry_equiv_pos_as_xyz
  1  'x, y, z'
loop_
 _atom_site_type_symbol
 _atom_site_label
 _atom_site_symmetry_multiplicity
 _atom_site_fract_x
 _atom_site_fract_y
 _atom_site_fract_z
 _atom_site_occupancy
  Th  Th0  1  0.864770  0.239396  0.119335  1
  Th  Th1  1  0.635230  0.754565  0.374626  1
  Th  Th2  1  0.250000  0.132633  0.882633  1
  Th  Th3  1  0.750000  0.366564  0.616564  1
  Th  Th4  1  0.110077  0.874756  0.245742  1
  Th  Th5  1  0.389923  0.635665  0.764678  1
  Zn  Zn6  1  0.374816  0.250665  0.625959  1
  Zn  Zn7  1  0.125184  0.751143  0.875849  1
  Zn  Zn8  1  0.250000  0.625349  0.375349  1
  Ni  Ni9  1  0.750000  0.872999  0.122999  1
  Ni  Ni10  1  0.623006  0.372984  0.248313  1
  Ni  Ni11  1  0.876994  0.125307  0.749978  1
  Sn  Sn12  1  0.667799  0.502008  0.006336  1
  Sn  Sn13  1  0.507231  0.001683  0.666061  1
  Sn  Sn14  1  0.992769  0.658830  0.494452  1
  Sn  Sn15  1  0.832201  0.838537  0.834209  1
  Sn  Sn16  1  0.505162  0.004468  0.168406  1
  Sn  Sn17  1  0.158835  0.493101  0.994938  1
  Sn  Sn18  1  0.994838  0.163244  0.499305  1
  Sn  Sn19  1  0.341165  0.336103  0.334266  1
