# generated using pymatgen
data_NdYErP4Pd7
_symmetry_space_group_name_H-M   'P 1'
_cell_length_a   7.94411033
_cell_length_b   7.94411038
_cell_length_c   9.48967023
_cell_angle_alpha   55.93067112
_cell_angle_beta   55.93067165
_cell_angle_gamma   29.29897860
_symmetry_Int_Tables_number   1
_chemical_formula_structural   NdYErP4Pd7
_chemical_formula_sum   'Nd1 Y1 Er1 P4 Pd7'
_cell_volume   238.94679569
_cell_formula_units_Z   1
loop_
 _symmetry_equiv_pos_site_id
 _symmetry_equiv_pos_as_xyz
  1  'x, y, z'
loop_
 _atom_site_type_symbol
 _atom_site_label
 _atom_site_symmetry_multiplicity
 _atom_site_fract_x
 _atom_site_fract_y
 _atom_site_fract_z
 _atom_site_occupancy
  Nd  Nd0  1  0.499928  0.499928  0.500075  1
  Y  Y1  1  0.820443  0.820443  0.176303  1
  Er  Er2  1  0.179100  0.179100  0.824622  1
  P  P3  1  0.393313  0.393313  0.317048  1
  P  P4  1  0.607221  0.607221  0.683350  1
  P  P5  1  0.837191  0.837191  0.758937  1
  P  P6  1  0.162015  0.162015  0.241748  1
  Pd  Pd7  1  0.669600  0.669600  0.072976  1
  Pd  Pd8  1  0.009951  0.009951  0.212139  1
  Pd  Pd9  1  0.990500  0.990500  0.787182  1
  Pd  Pd10  1  0.501168  0.501168  0.998968  1
  Pd  Pd11  1  0.194822  0.194822  0.470182  1
  Pd  Pd12  1  0.804706  0.804706  0.531672  1
  Pd  Pd13  1  0.330043  0.330043  0.924797  1
