# generated using pymatgen
data_YbFe3P12Ir
_symmetry_space_group_name_H-M   'P 1'
_cell_length_a   6.81621775
_cell_length_b   6.81621734
_cell_length_c   6.78290300
_cell_angle_alpha   109.37224690
_cell_angle_beta   109.37224568
_cell_angle_gamma   109.57001101
_symmetry_Int_Tables_number   1
_chemical_formula_structural   YbFe3P12Ir
_chemical_formula_sum   'Yb1 Fe3 P12 Ir1'
_cell_volume   242.89000110
_cell_formula_units_Z   1
loop_
 _symmetry_equiv_pos_site_id
 _symmetry_equiv_pos_as_xyz
  1  'x, y, z'
loop_
 _atom_site_type_symbol
 _atom_site_label
 _atom_site_symmetry_multiplicity
 _atom_site_fract_x
 _atom_site_fract_y
 _atom_site_fract_z
 _atom_site_occupancy
  Yb  Yb0  1  0.000000  0.000000  0.000000  1
  Fe  Fe1  1  0.500000  0.000000  0.000000  1
  Fe  Fe2  1  0.500000  0.500000  0.500000  1
  Fe  Fe3  1  0.000000  0.500000  0.000000  1
  P  P4  1  0.156002  0.787837  0.654671  1
  P  P5  1  0.148886  0.499856  0.350067  1
  P  P6  1  0.851114  0.500144  0.649933  1
  P  P7  1  0.368164  0.156002  0.501331  1
  P  P8  1  0.787837  0.631836  0.133167  1
  P  P9  1  0.843998  0.212163  0.345329  1
  P  P10  1  0.649030  0.148886  0.798819  1
  P  P11  1  0.500144  0.649030  0.850211  1
  P  P12  1  0.631836  0.843998  0.498669  1
  P  P13  1  0.499856  0.350970  0.149789  1
  P  P14  1  0.350970  0.851114  0.201181  1
  P  P15  1  0.212163  0.368164  0.866833  1
  Ir  Ir16  1  0.000000  0.000000  0.500000  1
