# generated using pymatgen
data_Sr2Os(S2O7)4
_symmetry_space_group_name_H-M   'P 1'
_cell_length_a   13.24635700
_cell_length_b   7.09495065
_cell_length_c   13.59632100
_cell_angle_alpha   65.86382484
_cell_angle_beta   90.00000000
_cell_angle_gamma   90.00000000
_symmetry_Int_Tables_number   1
_chemical_formula_structural   Sr2Os(S2O7)4
_chemical_formula_sum   'Sr4 Os2 S16 O56'
_cell_volume   1166.10155675
_cell_formula_units_Z   2
loop_
 _symmetry_equiv_pos_site_id
 _symmetry_equiv_pos_as_xyz
  1  'x, y, z'
loop_
 _atom_site_type_symbol
 _atom_site_label
 _atom_site_symmetry_multiplicity
 _atom_site_fract_x
 _atom_site_fract_y
 _atom_site_fract_z
 _atom_site_occupancy
  Sr  Sr0  1  0.865560  0.141983  0.159431  1
  Sr  Sr1  1  0.634440  0.141983  0.659431  1
  Sr  Sr2  1  0.134440  0.858017  0.840569  1
  Sr  Sr3  1  0.365560  0.858017  0.340569  1
  Os  Os4  1  0.500000  0.500000  0.000000  1
  Os  Os5  1  0.000000  0.500000  0.500000  1
  S  S6  1  0.653560  0.212542  0.940073  1
  S  S7  1  0.846440  0.212542  0.440073  1
  S  S8  1  0.346440  0.787458  0.059927  1
  S  S9  1  0.153560  0.787458  0.559927  1
  S  S10  1  0.971805  0.685282  0.102664  1
  S  S11  1  0.528195  0.685282  0.602664  1
  S  S12  1  0.028195  0.314718  0.897336  1
  S  S13  1  0.471805  0.314718  0.397336  1
  S  S14  1  0.725448  0.620204  0.909592  1
  S  S15  1  0.774552  0.620204  0.409592  1
  S  S16  1  0.274552  0.379796  0.090408  1
  S  S17  1  0.225448  0.379796  0.590408  1
  S  S18  1  0.586588  0.230885  0.235105  1
  S  S19  1  0.913412  0.230885  0.735105  1
  S  S20  1  0.413412  0.769115  0.764895  1
  S  S21  1  0.086588  0.769115  0.264895  1
  O  O22  1  0.624191  0.130891  0.863942  1
  O  O23  1  0.875809  0.130891  0.363942  1
  O  O24  1  0.375809  0.869109  0.136058  1
  O  O25  1  0.124191  0.869109  0.636058  1
  O  O26  1  0.585495  0.276578  0.338908  1
  O  O27  1  0.914505  0.276578  0.838908  1
  O  O28  1  0.414505  0.723422  0.661092  1
  O  O29  1  0.085495  0.723422  0.161092  1
  O  O30  1  0.535132  0.039997  0.253707  1
  O  O31  1  0.964868  0.039997  0.753707  1
  O  O32  1  0.464868  0.960003  0.746293  1
  O  O33  1  0.035132  0.960003  0.246293  1
  O  O34  1  0.562337  0.237670  0.002927  1
  O  O35  1  0.937663  0.237670  0.502927  1
  O  O36  1  0.437663  0.762330  0.997073  1
  O  O37  1  0.062337  0.762330  0.497073  1
  O  O38  1  0.897583  0.808530  0.127889  1
  O  O39  1  0.602417  0.808530  0.627889  1
  O  O40  1  0.102417  0.191470  0.872111  1
  O  O41  1  0.397583  0.191470  0.372111  1
  O  O42  1  0.686751  0.451096  0.861820  1
  O  O43  1  0.813249  0.451096  0.361820  1
  O  O44  1  0.313249  0.548904  0.138180  1
  O  O45  1  0.186751  0.548904  0.638180  1
  O  O46  1  0.525237  0.415687  0.156780  1
  O  O47  1  0.974763  0.415687  0.656780  1
  O  O48  1  0.474763  0.584313  0.843220  1
  O  O49  1  0.025237  0.584313  0.343220  1
  O  O50  1  0.734577  0.113514  0.013509  1
  O  O51  1  0.765423  0.113514  0.513509  1
  O  O52  1  0.265423  0.886486  0.986491  1
  O  O53  1  0.234577  0.886486  0.486491  1
  O  O54  1  0.633431  0.649307  0.969695  1
  O  O55  1  0.866569  0.649307  0.469695  1
  O  O56  1  0.366569  0.350693  0.030305  1
  O  O57  1  0.133431  0.350693  0.530305  1
  O  O58  1  0.742896  0.801859  0.813068  1
  O  O59  1  0.757104  0.801859  0.313068  1
  O  O60  1  0.257104  0.198141  0.186932  1
  O  O61  1  0.242896  0.198141  0.686932  1
  O  O62  1  0.807377  0.528938  0.982700  1
  O  O63  1  0.692623  0.528938  0.482700  1
  O  O64  1  0.192623  0.471062  0.017300  1
  O  O65  1  0.307377  0.471062  0.517300  1
  O  O66  1  0.958040  0.464473  0.156983  1
  O  O67  1  0.541960  0.464473  0.656983  1
  O  O68  1  0.041960  0.535527  0.843017  1
  O  O69  1  0.458040  0.535527  0.343017  1
  O  O70  1  0.005200  0.763572  0.992186  1
  O  O71  1  0.494800  0.763572  0.492186  1
  O  O72  1  0.994800  0.236428  0.007814  1
  O  O73  1  0.505200  0.236428  0.507814  1
  O  O74  1  0.691159  0.246194  0.203472  1
  O  O75  1  0.808841  0.246194  0.703472  1
  O  O76  1  0.308841  0.753806  0.796528  1
  O  O77  1  0.191159  0.753806  0.296528  1
