# generated using pymatgen
data_Ho5Er11In6CoNi
_symmetry_space_group_name_H-M   'P 1'
_cell_length_a   10.33844354
_cell_length_b   10.33860519
_cell_length_c   6.92797100
_cell_angle_alpha   89.99976234
_cell_angle_beta   89.99412415
_cell_angle_gamma   120.03303477
_symmetry_Int_Tables_number   1
_chemical_formula_structural   Ho5Er11In6CoNi
_chemical_formula_sum   'Ho5 Er11 In6 Co1 Ni1'
_cell_volume   641.07543641
_cell_formula_units_Z   1
loop_
 _symmetry_equiv_pos_site_id
 _symmetry_equiv_pos_as_xyz
  1  'x, y, z'
loop_
 _atom_site_type_symbol
 _atom_site_label
 _atom_site_symmetry_multiplicity
 _atom_site_fract_x
 _atom_site_fract_y
 _atom_site_fract_z
 _atom_site_occupancy
  Ho  Ho0  1  0.533184  0.066562  0.793579  1
  Ho  Ho1  1  0.933445  0.466788  0.793495  1
  Ho  Ho2  1  0.533107  0.466797  0.793931  1
  Ho  Ho3  1  0.465121  0.929988  0.291512  1
  Ho  Ho4  1  0.070038  0.534956  0.291430  1
  Er  Er5  1  0.464991  0.535102  0.291767  1
  Er  Er6  1  0.822587  0.645423  0.498555  1
  Er  Er7  1  0.354581  0.177444  0.498511  1
  Er  Er8  1  0.822901  0.177186  0.498688  1
  Er  Er9  1  0.178536  0.356834  0.999639  1
  Er  Er10  1  0.643144  0.821444  0.999615  1
  Er  Er11  1  0.178285  0.821743  0.999386  1
  Er  Er12  1  0.666558  0.333483  0.180454  1
  Er  Er13  1  0.333420  0.666491  0.682798  1
  Er  Er14  1  0.999949  0.999946  0.778129  1
  Er  Er15  1  0.999933  0.000051  0.279586  1
  In  In16  1  0.837242  0.674439  0.038254  1
  In  In17  1  0.325468  0.162725  0.038178  1
  In  In18  1  0.837200  0.162814  0.038074  1
  In  In19  1  0.162694  0.325106  0.538419  1
  In  In20  1  0.674996  0.837328  0.538357  1
  In  In21  1  0.162443  0.837516  0.538569  1
  Co  Co22  1  0.333539  0.666515  0.067893  1
  Ni  Ni23  1  0.666638  0.333319  0.567088  1
