# generated using pymatgen
data_ErTm3Pt4F28
_symmetry_space_group_name_H-M   'P 1'
_cell_length_a   5.48741806
_cell_length_b   8.80995612
_cell_length_c   11.90699115
_cell_angle_alpha   62.46586800
_cell_angle_beta   89.98283838
_cell_angle_gamma   89.99243128
_symmetry_Int_Tables_number   1
_chemical_formula_structural   ErTm3Pt4F28
_chemical_formula_sum   'Er1 Tm3 Pt4 F28'
_cell_volume   510.43206904
_cell_formula_units_Z   1
loop_
 _symmetry_equiv_pos_site_id
 _symmetry_equiv_pos_as_xyz
  1  'x, y, z'
loop_
 _atom_site_type_symbol
 _atom_site_label
 _atom_site_symmetry_multiplicity
 _atom_site_fract_x
 _atom_site_fract_y
 _atom_site_fract_z
 _atom_site_occupancy
  Er  Er0  1  0.261383  0.815835  0.263566  1
  Tm  Tm1  1  0.738515  0.184121  0.736605  1
  Tm  Tm2  1  0.761471  0.184937  0.236474  1
  Tm  Tm3  1  0.238568  0.815949  0.763417  1
  Pt  Pt4  1  0.759247  0.727098  0.042109  1
  Pt  Pt5  1  0.240531  0.273125  0.957173  1
  Pt  Pt6  1  0.259387  0.272266  0.457644  1
  Pt  Pt7  1  0.740772  0.727074  0.543069  1
  F  F8  1  0.938605  0.704600  0.414109  1
  F  F9  1  0.060469  0.294854  0.586370  1
  F  F10  1  0.439279  0.295165  0.086133  1
  F  F11  1  0.560409  0.704944  0.913264  1
  F  F12  1  0.464454  0.726283  0.135961  1
  F  F13  1  0.535589  0.273261  0.863317  1
  F  F14  1  0.964476  0.273160  0.363576  1
  F  F15  1  0.035946  0.726874  0.636742  1
  F  F16  1  0.951643  0.742229  0.176113  1
  F  F17  1  0.046744  0.257336  0.823541  1
  F  F18  1  0.453100  0.257076  0.323730  1
  F  F19  1  0.546924  0.742837  0.676668  1
  F  F20  1  0.770501  0.476122  0.141952  1
  F  F21  1  0.229422  0.524191  0.857794  1
  F  F22  1  0.270554  0.522970  0.358140  1
  F  F23  1  0.729563  0.475937  0.642315  1
  F  F24  1  0.938245  0.280174  0.044378  1
  F  F25  1  0.062053  0.720096  0.955279  1
  F  F26  1  0.438626  0.719405  0.456517  1
  F  F27  1  0.561710  0.279767  0.544633  1
  F  F28  1  0.740398  0.978150  0.448488  1
  F  F29  1  0.259497  0.021227  0.551944  1
  F  F30  1  0.240465  0.022251  0.051039  1
  F  F31  1  0.759454  0.978195  0.948104  1
  F  F32  1  0.589116  0.970321  0.231569  1
  F  F33  1  0.413252  0.030496  0.768115  1
  F  F34  1  0.086468  0.032067  0.268277  1
  F  F35  1  0.913164  0.969606  0.731875  1
