# generated using pymatgen
data_DyMnBr
_symmetry_space_group_name_H-M   'P 1'
_cell_length_a   3.81340300
_cell_length_b   3.81340336
_cell_length_c   11.93929200
_cell_angle_alpha   90.00000000
_cell_angle_beta   90.00000000
_cell_angle_gamma   120.00000555
_symmetry_Int_Tables_number   1
_chemical_formula_structural   DyMnBr
_chemical_formula_sum   'Dy2 Mn2 Br2'
_cell_volume   150.36080082
_cell_formula_units_Z   2
loop_
 _symmetry_equiv_pos_site_id
 _symmetry_equiv_pos_as_xyz
  1  'x, y, z'
loop_
 _atom_site_type_symbol
 _atom_site_label
 _atom_site_symmetry_multiplicity
 _atom_site_fract_x
 _atom_site_fract_y
 _atom_site_fract_z
 _atom_site_occupancy
  Dy  Dy0  1  0.000000  0.000000  0.175455  1
  Dy  Dy1  1  0.000000  0.000000  0.824545  1
  Mn  Mn2  1  0.666668  0.333335  0.006390  1
  Mn  Mn3  1  0.333333  0.666666  0.993610  1
  Br  Br4  1  0.333333  0.666666  0.337754  1
  Br  Br5  1  0.666668  0.333335  0.662246  1
