# generated using pymatgen
data_Sc8Re2B24IrRu
_symmetry_space_group_name_H-M   'P 1'
_cell_length_a   3.51121500
_cell_length_b   8.88688826
_cell_length_c   11.21397674
_cell_angle_alpha   90.15401271
_cell_angle_beta   90.00000000
_cell_angle_gamma   90.00000000
_symmetry_Int_Tables_number   1
_chemical_formula_structural   Sc8Re2B24IrRu
_chemical_formula_sum   'Sc8 Re2 B24 Ir1 Ru1'
_cell_volume   349.91714685
_cell_formula_units_Z   1
loop_
 _symmetry_equiv_pos_site_id
 _symmetry_equiv_pos_as_xyz
  1  'x, y, z'
loop_
 _atom_site_type_symbol
 _atom_site_label
 _atom_site_symmetry_multiplicity
 _atom_site_fract_x
 _atom_site_fract_y
 _atom_site_fract_z
 _atom_site_occupancy
  Sc  Sc0  1  0.500000  0.311753  0.412932  1
  Sc  Sc1  1  0.500000  0.684959  0.592332  1
  Sc  Sc2  1  0.500000  0.178091  0.915109  1
  Sc  Sc3  1  0.500000  0.824852  0.080419  1
  Sc  Sc4  1  0.500000  0.441825  0.125921  1
  Sc  Sc5  1  0.500000  0.556199  0.872400  1
  Sc  Sc6  1  0.500000  0.055771  0.627771  1
  Sc  Sc7  1  0.500000  0.946002  0.372958  1
  Re  Re8  1  0.500000  0.138533  0.180590  1
  Re  Re9  1  0.500000  0.861247  0.819536  1
  B  B10  1  0.000000  0.100966  0.472554  1
  B  B11  1  0.000000  0.898365  0.527738  1
  B  B12  1  0.000000  0.399174  0.971929  1
  B  B13  1  0.000000  0.601187  0.027928  1
  B  B14  1  0.000000  0.129385  0.318046  1
  B  B15  1  0.000000  0.870619  0.682401  1
  B  B16  1  0.000000  0.370561  0.817093  1
  B  B17  1  0.000000  0.629746  0.181524  1
  B  B18  1  0.000000  0.052468  0.065167  1
  B  B19  1  0.000000  0.947474  0.934583  1
  B  B20  1  0.000000  0.446669  0.564734  1
  B  B21  1  0.000000  0.553391  0.435897  1
  B  B22  1  0.000000  0.479178  0.287486  1
  B  B23  1  0.000000  0.520500  0.712125  1
  B  B24  1  0.000000  0.021918  0.786952  1
  B  B25  1  0.000000  0.978314  0.212979  1
  B  B26  1  0.000000  0.251801  0.078440  1
  B  B27  1  0.000000  0.748006  0.921368  1
  B  B28  1  0.000000  0.247924  0.578658  1
  B  B29  1  0.000000  0.752384  0.422542  1
  B  B30  1  0.000000  0.294672  0.236339  1
  B  B31  1  0.000000  0.705234  0.764126  1
  B  B32  1  0.000000  0.207173  0.735175  1
  B  B33  1  0.000000  0.793468  0.264653  1
  Ir  Ir34  1  0.500000  0.638087  0.320743  1
  Ru  Ru35  1  0.500000  0.362104  0.678852  1
