# generated using pymatgen
data_SmTa5NbCl18
_symmetry_space_group_name_H-M   'P 1'
_cell_length_a   10.18865957
_cell_length_b   10.18595570
_cell_length_c   10.18590884
_cell_angle_alpha   55.95491020
_cell_angle_beta   55.96789590
_cell_angle_gamma   55.95488416
_symmetry_Int_Tables_number   1
_chemical_formula_structural   SmTa5NbCl18
_chemical_formula_sum   'Sm1 Ta5 Nb1 Cl18'
_cell_volume   677.49974370
_cell_formula_units_Z   1
loop_
 _symmetry_equiv_pos_site_id
 _symmetry_equiv_pos_as_xyz
  1  'x, y, z'
loop_
 _atom_site_type_symbol
 _atom_site_label
 _atom_site_symmetry_multiplicity
 _atom_site_fract_x
 _atom_site_fract_y
 _atom_site_fract_z
 _atom_site_occupancy
  Sm  Sm0  1  0.999952  0.999684  0.000086  1
  Ta  Ta1  1  0.409795  0.302599  0.647947  1
  Ta  Ta2  1  0.351677  0.590892  0.697859  1
  Ta  Ta3  1  0.698125  0.351695  0.590554  1
  Ta  Ta4  1  0.302147  0.648715  0.409116  1
  Ta  Ta5  1  0.648595  0.409522  0.301808  1
  Nb  Nb6  1  0.590938  0.698914  0.350905  1
  Cl  Cl7  1  0.568390  0.162462  0.441852  1
  Cl  Cl8  1  0.224373  0.371395  0.906797  1
  Cl  Cl9  1  0.906668  0.224112  0.371530  1
  Cl  Cl10  1  0.368339  0.907801  0.224063  1
  Cl  Cl11  1  0.776842  0.626689  0.091455  1
  Cl  Cl12  1  0.093224  0.775612  0.628679  1
  Cl  Cl13  1  0.699712  0.957572  0.162019  1
  Cl  Cl14  1  0.953834  0.163882  0.698860  1
  Cl  Cl15  1  0.164306  0.697963  0.954372  1
  Cl  Cl16  1  0.301255  0.047000  0.835160  1
  Cl  Cl17  1  0.046060  0.834852  0.301636  1
  Cl  Cl18  1  0.835688  0.300934  0.046402  1
  Cl  Cl19  1  0.558036  0.431586  0.837561  1
  Cl  Cl20  1  0.162625  0.441989  0.568225  1
  Cl  Cl21  1  0.441890  0.568186  0.162571  1
  Cl  Cl22  1  0.429474  0.837632  0.561119  1
  Cl  Cl23  1  0.839330  0.555249  0.433540  1
  Cl  Cl24  1  0.628724  0.093066  0.775879  1
