# generated using pymatgen
data_Ta6Mn3Al8Ir
_symmetry_space_group_name_H-M   'P 1'
_cell_length_a   8.72414004
_cell_length_b   8.77608393
_cell_length_c   8.14830900
_cell_angle_alpha   90.00000000
_cell_angle_beta   90.00000000
_cell_angle_gamma   120.58634005
_symmetry_Int_Tables_number   1
_chemical_formula_structural   Ta6Mn3Al8Ir
_chemical_formula_sum   'Ta12 Mn6 Al16 Ir2'
_cell_volume   537.06284968
_cell_formula_units_Z   2
loop_
 _symmetry_equiv_pos_site_id
 _symmetry_equiv_pos_as_xyz
  1  'x, y, z'
loop_
 _atom_site_type_symbol
 _atom_site_label
 _atom_site_symmetry_multiplicity
 _atom_site_fract_x
 _atom_site_fract_y
 _atom_site_fract_z
 _atom_site_occupancy
  Ta  Ta0  1  0.338071  0.004767  0.064065  1
  Ta  Ta1  1  0.661929  0.995233  0.935935  1
  Ta  Ta2  1  0.999239  0.334458  0.062715  1
  Ta  Ta3  1  0.661929  0.995233  0.564065  1
  Ta  Ta4  1  0.999239  0.334458  0.437285  1
  Ta  Ta5  1  0.000761  0.665542  0.937285  1
  Ta  Ta6  1  0.338071  0.004767  0.435935  1
  Ta  Ta7  1  0.000761  0.665542  0.562715  1
  Ta  Ta8  1  0.662270  0.667117  0.064825  1
  Ta  Ta9  1  0.337730  0.332883  0.935175  1
  Ta  Ta10  1  0.337730  0.332883  0.564825  1
  Ta  Ta11  1  0.662270  0.667117  0.435175  1
  Mn  Mn12  1  0.174872  0.502755  0.750000  1
  Mn  Mn13  1  0.825128  0.497245  0.250000  1
  Mn  Mn14  1  0.489384  0.657316  0.750000  1
  Mn  Mn15  1  0.499189  0.166093  0.750000  1
  Mn  Mn16  1  0.510616  0.342684  0.250000  1
  Mn  Mn17  1  0.500811  0.833907  0.250000  1
  Al  Al18  1  0.339390  0.842638  0.750000  1
  Al  Al19  1  0.656210  0.503757  0.750000  1
  Al  Al20  1  0.660610  0.157362  0.250000  1
  Al  Al21  1  0.343790  0.496243  0.250000  1
  Al  Al22  1  0.842346  0.336809  0.750000  1
  Al  Al23  1  0.157654  0.663191  0.250000  1
  Al  Al24  1  0.338269  0.668884  0.500511  1
  Al  Al25  1  0.661731  0.331116  0.499489  1
  Al  Al26  1  0.661731  0.331116  0.000511  1
  Al  Al27  1  0.338269  0.668884  0.999489  1
  Al  Al28  1  0.175484  0.003999  0.750000  1
  Al  Al29  1  0.824516  0.996001  0.250000  1
  Al  Al30  1  0.010480  0.179831  0.750000  1
  Al  Al31  1  0.989520  0.820169  0.250000  1
  Al  Al32  1  0.818780  0.831291  0.750000  1
  Al  Al33  1  0.181220  0.168709  0.250000  1
  Ir  Ir34  1  0.000000  0.000000  0.500000  1
  Ir  Ir35  1  0.000000  0.000000  0.000000  1
