# generated using pymatgen
data_LiYbTlSn
_symmetry_space_group_name_H-M   'P 1'
_cell_length_a   5.16187175
_cell_length_b   5.16187210
_cell_length_c   5.16187200
_cell_angle_alpha   60.00000067
_cell_angle_beta   59.99999843
_cell_angle_gamma   60.00000119
_symmetry_Int_Tables_number   1
_chemical_formula_structural   LiYbTlSn
_chemical_formula_sum   'Li1 Yb1 Tl1 Sn1'
_cell_volume   97.25382348
_cell_formula_units_Z   1
loop_
 _symmetry_equiv_pos_site_id
 _symmetry_equiv_pos_as_xyz
  1  'x, y, z'
loop_
 _atom_site_type_symbol
 _atom_site_label
 _atom_site_symmetry_multiplicity
 _atom_site_fract_x
 _atom_site_fract_y
 _atom_site_fract_z
 _atom_site_occupancy
  Li  Li0  1  0.750001  0.750001  0.750001  1
  Yb  Yb1  1  0.250000  0.250000  0.250000  1
  Tl  Tl2  1  0.499999  0.499999  0.499999  1
  Sn  Sn3  1  0.000000  0.000000  0.000000  1
