# generated using pymatgen
data_Y3Er17(In3Ru)2
_symmetry_space_group_name_H-M   'P 1'
_cell_length_a   9.65818300
_cell_length_b   9.65818153
_cell_length_c   9.68868500
_cell_angle_alpha   90.00000000
_cell_angle_beta   90.00000000
_cell_angle_gamma   119.99999476
_symmetry_Int_Tables_number   1
_chemical_formula_structural   Y3Er17(In3Ru)2
_chemical_formula_sum   'Y3 Er17 In6 Ru2'
_cell_volume   782.68369169
_cell_formula_units_Z   1
loop_
 _symmetry_equiv_pos_site_id
 _symmetry_equiv_pos_as_xyz
  1  'x, y, z'
loop_
 _atom_site_type_symbol
 _atom_site_label
 _atom_site_symmetry_multiplicity
 _atom_site_fract_x
 _atom_site_fract_y
 _atom_site_fract_z
 _atom_site_occupancy
  Y  Y0  1  0.460781  0.539219  0.750000  1
  Y  Y1  1  0.460781  0.921562  0.750000  1
  Y  Y2  1  0.078438  0.539219  0.750000  1
  Er  Er3  1  0.000000  0.000000  0.499849  1
  Er  Er4  1  0.000000  0.000000  0.000151  1
  Er  Er5  1  0.209724  0.790276  0.438349  1
  Er  Er6  1  0.209724  0.419450  0.438349  1
  Er  Er7  1  0.580550  0.790276  0.438349  1
  Er  Er8  1  0.790052  0.209948  0.560890  1
  Er  Er9  1  0.790052  0.580103  0.560890  1
  Er  Er10  1  0.419897  0.209948  0.560890  1
  Er  Er11  1  0.790052  0.209948  0.939110  1
  Er  Er12  1  0.790052  0.580103  0.939110  1
  Er  Er13  1  0.419897  0.209948  0.939110  1
  Er  Er14  1  0.209724  0.790276  0.061651  1
  Er  Er15  1  0.209724  0.419450  0.061651  1
  Er  Er16  1  0.580550  0.790276  0.061651  1
  Er  Er17  1  0.539419  0.460581  0.250000  1
  Er  Er18  1  0.539419  0.078839  0.250000  1
  Er  Er19  1  0.921161  0.460581  0.250000  1
  In  In20  1  0.884162  0.115838  0.250000  1
  In  In21  1  0.884162  0.768325  0.250000  1
  In  In22  1  0.231675  0.115838  0.250000  1
  In  In23  1  0.115356  0.884644  0.750000  1
  In  In24  1  0.115356  0.230710  0.750000  1
  In  In25  1  0.769290  0.884644  0.750000  1
  Ru  Ru26  1  0.333333  0.666667  0.250000  1
  Ru  Ru27  1  0.666667  0.333333  0.750000  1
