# generated using pymatgen
data_Rb4CrAsCl12
_symmetry_space_group_name_H-M   'P 1'
_cell_length_a   10.46987068
_cell_length_b   10.50452372
_cell_length_c   12.69382900
_cell_angle_alpha   114.43710171
_cell_angle_beta   114.34737097
_cell_angle_gamma   90.00129564
_symmetry_Int_Tables_number   1
_chemical_formula_structural   Rb4CrAsCl12
_chemical_formula_sum   'Rb8 Cr2 As2 Cl24'
_cell_volume   1133.22221137
_cell_formula_units_Z   2
loop_
 _symmetry_equiv_pos_site_id
 _symmetry_equiv_pos_as_xyz
  1  'x, y, z'
loop_
 _atom_site_type_symbol
 _atom_site_label
 _atom_site_symmetry_multiplicity
 _atom_site_fract_x
 _atom_site_fract_y
 _atom_site_fract_z
 _atom_site_occupancy
  Rb  Rb0  1  0.218237  0.000042  0.000031  1
  Rb  Rb1  1  0.781763  0.999958  0.999969  1
  Rb  Rb2  1  0.218316  0.500025  0.000052  1
  Rb  Rb3  1  0.781684  0.499975  0.999948  1
  Rb  Rb4  1  0.999971  0.282115  0.499948  1
  Rb  Rb5  1  0.000029  0.717884  0.500050  1
  Rb  Rb6  1  0.499988  0.282285  0.499990  1
  Rb  Rb7  1  0.500012  0.717714  0.500008  1
  Cr  Cr8  1  0.125275  0.374334  0.249619  1
  Cr  Cr9  1  0.874725  0.625666  0.750382  1
  As  As10  1  0.625022  0.874976  0.250006  1
  As  As11  1  0.374978  0.125024  0.749995  1
  Cl  Cl12  1  0.010348  0.260467  0.021062  1
  Cl  Cl13  1  0.512059  0.761987  0.024301  1
  Cl  Cl14  1  0.348233  0.373722  0.247277  1
  Cl  Cl15  1  0.898676  0.373634  0.247214  1
  Cl  Cl16  1  0.624439  0.097071  0.248818  1
  Cl  Cl17  1  0.624240  0.651598  0.248544  1
  Cl  Cl18  1  0.402304  0.875555  0.251237  1
  Cl  Cl19  1  0.848962  0.875708  0.251342  1
  Cl  Cl20  1  0.126218  0.152395  0.252694  1
  Cl  Cl21  1  0.126366  0.600660  0.252900  1
  Cl  Cl22  1  0.737939  0.987993  0.475713  1
  Cl  Cl23  1  0.239495  0.489691  0.479031  1
  Cl  Cl24  1  0.760505  0.510309  0.520969  1
  Cl  Cl25  1  0.262062  0.012008  0.524287  1
  Cl  Cl26  1  0.873634  0.399340  0.747099  1
  Cl  Cl27  1  0.873782  0.847604  0.747305  1
  Cl  Cl28  1  0.151038  0.124292  0.748659  1
  Cl  Cl29  1  0.597696  0.124445  0.748764  1
  Cl  Cl30  1  0.375760  0.348401  0.751455  1
  Cl  Cl31  1  0.375561  0.902929  0.751181  1
  Cl  Cl32  1  0.101325  0.626366  0.752786  1
  Cl  Cl33  1  0.651767  0.626278  0.752723  1
  Cl  Cl34  1  0.487941  0.238013  0.975698  1
  Cl  Cl35  1  0.989652  0.739533  0.978938  1
