# generated using pymatgen
data_Nd3(ZnNi3)2
_symmetry_space_group_name_H-M   'P 1'
_cell_length_a   7.86456290
_cell_length_b   7.86456290
_cell_length_c   7.86456300
_cell_angle_alpha   109.47122088
_cell_angle_beta   109.47122089
_cell_angle_gamma   109.47121673
_symmetry_Int_Tables_number   1
_chemical_formula_structural   Nd3(ZnNi3)2
_chemical_formula_sum   'Nd6 Zn4 Ni12'
_cell_volume   374.45695717
_cell_formula_units_Z   2
loop_
 _symmetry_equiv_pos_site_id
 _symmetry_equiv_pos_as_xyz
  1  'x, y, z'
loop_
 _atom_site_type_symbol
 _atom_site_label
 _atom_site_symmetry_multiplicity
 _atom_site_fract_x
 _atom_site_fract_y
 _atom_site_fract_z
 _atom_site_occupancy
  Nd  Nd0  1  0.704853  0.704853  0.000000  1
  Nd  Nd1  1  0.295147  0.000000  0.295147  1
  Nd  Nd2  1  0.000000  0.295147  0.295147  1
  Nd  Nd3  1  0.295147  0.295147  0.000000  1
  Nd  Nd4  1  0.704853  0.000000  0.704853  1
  Nd  Nd5  1  0.000000  0.704853  0.704853  1
  Zn  Zn6  1  0.000000  0.000000  0.500000  1
  Zn  Zn7  1  0.000000  0.500000  0.000000  1
  Zn  Zn8  1  0.500000  0.000000  0.000000  1
  Zn  Zn9  1  0.500000  0.500000  0.500000  1
  Ni  Ni10  1  0.337958  0.337958  0.675916  1
  Ni  Ni11  1  0.662042  0.000000  0.337958  1
  Ni  Ni12  1  0.000000  0.662042  0.337958  1
  Ni  Ni13  1  0.662042  0.337958  0.000000  1
  Ni  Ni14  1  0.337958  0.675916  0.337958  1
  Ni  Ni15  1  0.000000  0.337958  0.662042  1
  Ni  Ni16  1  0.337958  0.662042  0.000000  1
  Ni  Ni17  1  0.337958  0.000000  0.662042  1
  Ni  Ni18  1  0.675916  0.337958  0.337958  1
  Ni  Ni19  1  0.662042  0.662042  0.324084  1
  Ni  Ni20  1  0.662042  0.324084  0.662042  1
  Ni  Ni21  1  0.324084  0.662042  0.662042  1
