# generated using pymatgen
data_Ho4Lu4V(B8Rh)3
_symmetry_space_group_name_H-M   'P 1'
_cell_length_a   3.60042600
_cell_length_b   9.09685399
_cell_length_c   11.46776306
_cell_angle_alpha   90.21459543
_cell_angle_beta   90.00000000
_cell_angle_gamma   90.00000000
_symmetry_Int_Tables_number   1
_chemical_formula_structural   Ho4Lu4V(B8Rh)3
_chemical_formula_sum   'Ho4 Lu4 V1 B24 Rh3'
_cell_volume   375.59584425
_cell_formula_units_Z   1
loop_
 _symmetry_equiv_pos_site_id
 _symmetry_equiv_pos_as_xyz
  1  'x, y, z'
loop_
 _atom_site_type_symbol
 _atom_site_label
 _atom_site_symmetry_multiplicity
 _atom_site_fract_x
 _atom_site_fract_y
 _atom_site_fract_z
 _atom_site_occupancy
  Ho  Ho0  1  0.500000  0.318765  0.410982  1
  Ho  Ho1  1  0.500000  0.677511  0.584804  1
  Ho  Ho2  1  0.500000  0.178199  0.917582  1
  Ho  Ho3  1  0.500000  0.824631  0.087252  1
  Lu  Lu4  1  0.500000  0.443249  0.126164  1
  Lu  Lu5  1  0.500000  0.556541  0.872514  1
  Lu  Lu6  1  0.500000  0.055455  0.628284  1
  Lu  Lu7  1  0.500000  0.946923  0.372483  1
  V  V8  1  0.500000  0.139428  0.179610  1
  B  B9  1  0.000000  0.105158  0.472768  1
  B  B10  1  0.000000  0.894603  0.529222  1
  B  B11  1  0.000000  0.397061  0.970404  1
  B  B12  1  0.000000  0.605271  0.028050  1
  B  B13  1  0.000000  0.131883  0.316306  1
  B  B14  1  0.000000  0.867441  0.683144  1
  B  B15  1  0.000000  0.368089  0.817146  1
  B  B16  1  0.000000  0.632333  0.183602  1
  B  B17  1  0.000000  0.052486  0.066081  1
  B  B18  1  0.000000  0.946659  0.933562  1
  B  B19  1  0.000000  0.445512  0.565769  1
  B  B20  1  0.000000  0.553524  0.433449  1
  B  B21  1  0.000000  0.482494  0.286892  1
  B  B22  1  0.000000  0.517343  0.712557  1
  B  B23  1  0.000000  0.017206  0.786918  1
  B  B24  1  0.000000  0.981779  0.213615  1
  B  B25  1  0.000000  0.250820  0.080218  1
  B  B26  1  0.000000  0.749817  0.919610  1
  B  B27  1  0.000000  0.248877  0.579583  1
  B  B28  1  0.000000  0.750933  0.419963  1
  B  B29  1  0.000000  0.294916  0.235602  1
  B  B30  1  0.000000  0.705189  0.764098  1
  B  B31  1  0.000000  0.206601  0.736080  1
  B  B32  1  0.000000  0.793788  0.265488  1
  Rh  Rh33  1  0.500000  0.859586  0.819669  1
  Rh  Rh34  1  0.500000  0.360017  0.679986  1
  Rh  Rh35  1  0.500000  0.639910  0.320541  1
