# generated using pymatgen
data_Yb4Co11(P4Ru3)3
_symmetry_space_group_name_H-M   'P 1'
_cell_length_a   3.77247500
_cell_length_b   10.69409055
_cell_length_c   11.89235000
_cell_angle_alpha   90.01830192
_cell_angle_beta   90.00000000
_cell_angle_gamma   90.00000000
_symmetry_Int_Tables_number   1
_chemical_formula_structural   Yb4Co11(P4Ru3)3
_chemical_formula_sum   'Yb4 Co11 P12 Ru9'
_cell_volume   479.77530197
_cell_formula_units_Z   1
loop_
 _symmetry_equiv_pos_site_id
 _symmetry_equiv_pos_as_xyz
  1  'x, y, z'
loop_
 _atom_site_type_symbol
 _atom_site_label
 _atom_site_symmetry_multiplicity
 _atom_site_fract_x
 _atom_site_fract_y
 _atom_site_fract_z
 _atom_site_occupancy
  Yb  Yb0  1  0.250000  0.587309  0.706659  1
  Yb  Yb1  1  0.250000  0.912670  0.206641  1
  Yb  Yb2  1  0.750000  0.415519  0.294830  1
  Yb  Yb3  1  0.750000  0.086312  0.793125  1
  Co  Co4  1  0.750000  0.963382  0.567571  1
  Co  Co5  1  0.250000  0.274154  0.680566  1
  Co  Co6  1  0.750000  0.773930  0.819628  1
  Co  Co7  1  0.750000  0.726153  0.319193  1
  Co  Co8  1  0.250000  0.883454  0.698467  1
  Co  Co9  1  0.250000  0.616860  0.198682  1
  Co  Co10  1  0.750000  0.110285  0.304755  1
  Co  Co11  1  0.750000  0.385574  0.799609  1
  Co  Co12  1  0.250000  0.463851  0.932269  1
  Co  Co13  1  0.250000  0.036299  0.436558  1
  Co  Co14  1  0.750000  0.536980  0.065469  1
  P  P15  1  0.250000  0.425784  0.113188  1
  P  P16  1  0.250000  0.077300  0.616324  1
  P  P17  1  0.750000  0.577226  0.884608  1
  P  P18  1  0.750000  0.921657  0.386523  1
  P  P19  1  0.250000  0.272966  0.866410  1
  P  P20  1  0.250000  0.227429  0.374836  1
  P  P21  1  0.750000  0.726659  0.132460  1
  P  P22  1  0.750000  0.773618  0.633280  1
  P  P23  1  0.250000  0.603394  0.386933  1
  P  P24  1  0.250000  0.896005  0.885888  1
  P  P25  1  0.750000  0.399730  0.613255  1
  P  P26  1  0.750000  0.101812  0.110855  1
  Ru  Ru27  1  0.250000  0.703558  0.980741  1
  Ru  Ru28  1  0.250000  0.796675  0.480470  1
  Ru  Ru29  1  0.750000  0.294764  0.011718  1
  Ru  Ru30  1  0.750000  0.204978  0.519816  1
  Ru  Ru31  1  0.250000  0.405696  0.492514  1
  Ru  Ru32  1  0.250000  0.093479  0.984796  1
  Ru  Ru33  1  0.750000  0.598391  0.509927  1
  Ru  Ru34  1  0.750000  0.902391  0.009775  1
  Ru  Ru35  1  0.250000  0.223752  0.181662  1
