# generated using pymatgen
data_Dy9Y7Cd4(RuPt)2
_symmetry_space_group_name_H-M   'P 1'
_cell_length_a   9.66552000
_cell_length_b   9.66552152
_cell_length_c   9.69515100
_cell_angle_alpha   59.89854618
_cell_angle_beta   59.89854097
_cell_angle_gamma   59.96237629
_symmetry_Int_Tables_number   1
_chemical_formula_structural   Dy9Y7Cd4(RuPt)2
_chemical_formula_sum   'Dy9 Y7 Cd4 Ru2 Pt2'
_cell_volume   639.29180060
_cell_formula_units_Z   1
loop_
 _symmetry_equiv_pos_site_id
 _symmetry_equiv_pos_as_xyz
  1  'x, y, z'
loop_
 _atom_site_type_symbol
 _atom_site_label
 _atom_site_symmetry_multiplicity
 _atom_site_fract_x
 _atom_site_fract_y
 _atom_site_fract_z
 _atom_site_occupancy
  Dy  Dy0  1  0.348994  0.348994  0.352262  1
  Dy  Dy1  1  0.348994  0.348994  0.949750  1
  Dy  Dy2  1  0.345777  0.955533  0.349345  1
  Dy  Dy3  1  0.955533  0.345777  0.349345  1
  Dy  Dy4  1  0.814602  0.188130  0.190473  1
  Dy  Dy5  1  0.188130  0.814602  0.806796  1
  Dy  Dy6  1  0.188130  0.814602  0.190473  1
  Dy  Dy7  1  0.814602  0.188130  0.806796  1
  Dy  Dy8  1  0.188015  0.188015  0.811985  1
  Y  Y9  1  0.807822  0.807822  0.192178  1
  Y  Y10  1  0.937669  0.558732  0.566287  1
  Y  Y11  1  0.558732  0.937669  0.937312  1
  Y  Y12  1  0.558732  0.937669  0.566287  1
  Y  Y13  1  0.937669  0.558732  0.937312  1
  Y  Y14  1  0.562717  0.562717  0.937283  1
  Y  Y15  1  0.938351  0.938351  0.561649  1
  Cd  Cd16  1  0.580070  0.580070  0.581067  1
  Cd  Cd17  1  0.580070  0.580070  0.258792  1
  Cd  Cd18  1  0.581180  0.255225  0.581797  1
  Cd  Cd19  1  0.255225  0.581180  0.581797  1
  Ru  Ru20  1  0.144378  0.144378  0.136993  1
  Ru  Ru21  1  0.144378  0.144378  0.574252  1
  Pt  Pt22  1  0.146783  0.573445  0.139887  1
  Pt  Pt23  1  0.573445  0.146783  0.139887  1
