# generated using pymatgen
data_YbHoCo3Si5
_symmetry_space_group_name_H-M   'P 1'
_cell_length_a   7.87126998
_cell_length_b   7.87127027
_cell_length_c   5.42635475
_cell_angle_alpha   71.01655575
_cell_angle_beta   71.01655923
_cell_angle_gamma   93.94953987
_symmetry_Int_Tables_number   1
_chemical_formula_structural   YbHoCo3Si5
_chemical_formula_sum   'Yb2 Ho2 Co6 Si10'
_cell_volume   294.83145071
_cell_formula_units_Z   2
loop_
 _symmetry_equiv_pos_site_id
 _symmetry_equiv_pos_as_xyz
  1  'x, y, z'
loop_
 _atom_site_type_symbol
 _atom_site_label
 _atom_site_symmetry_multiplicity
 _atom_site_fract_x
 _atom_site_fract_y
 _atom_site_fract_z
 _atom_site_occupancy
  Yb  Yb0  1  0.868380  0.594616  0.265500  1
  Yb  Yb1  1  0.405384  0.131620  0.234500  1
  Ho  Ho2  1  0.131555  0.405707  0.736867  1
  Ho  Ho3  1  0.594293  0.868445  0.763133  1
  Co  Co4  1  0.996938  0.003062  0.750000  1
  Co  Co5  1  0.541460  0.262802  0.622535  1
  Co  Co6  1  0.262625  0.541906  0.126220  1
  Co  Co7  1  0.458094  0.737375  0.373780  1
  Co  Co8  1  0.003264  0.996736  0.250000  1
  Co  Co9  1  0.737198  0.458540  0.877465  1
  Si  Si10  1  0.773967  0.226033  0.250000  1
  Si  Si11  1  0.225898  0.774102  0.750000  1
  Si  Si12  1  0.509428  0.490572  0.250000  1
  Si  Si13  1  0.490764  0.509236  0.750000  1
  Si  Si14  1  0.212148  0.787852  0.250000  1
  Si  Si15  1  0.786578  0.213422  0.750000  1
  Si  Si16  1  0.738017  0.932802  0.164688  1
  Si  Si17  1  0.933538  0.736730  0.667065  1
  Si  Si18  1  0.263270  0.066462  0.832935  1
  Si  Si19  1  0.067198  0.261983  0.335312  1
