# generated using pymatgen
data_LiHf6Al15Ni7
_symmetry_space_group_name_H-M   'P 1'
_cell_length_a   8.52149863
_cell_length_b   8.52182033
_cell_length_c   8.51353751
_cell_angle_alpha   59.96554398
_cell_angle_beta   59.96576038
_cell_angle_gamma   60.00075288
_symmetry_Int_Tables_number   1
_chemical_formula_structural   LiHf6Al15Ni7
_chemical_formula_sum   'Li1 Hf6 Al15 Ni7'
_cell_volume   436.93839583
_cell_formula_units_Z   1
loop_
 _symmetry_equiv_pos_site_id
 _symmetry_equiv_pos_as_xyz
  1  'x, y, z'
loop_
 _atom_site_type_symbol
 _atom_site_label
 _atom_site_symmetry_multiplicity
 _atom_site_fract_x
 _atom_site_fract_y
 _atom_site_fract_z
 _atom_site_occupancy
  Li  Li0  1  0.881818  0.881799  0.354620  1
  Hf  Hf1  1  0.685980  0.685974  0.312616  1
  Hf  Hf2  1  0.315366  0.686047  0.312530  1
  Hf  Hf3  1  0.685986  0.315417  0.312607  1
  Hf  Hf4  1  0.312532  0.312529  0.687288  1
  Hf  Hf5  1  0.687706  0.312470  0.687351  1
  Hf  Hf6  1  0.312521  0.687676  0.687282  1
  Al  Al7  1  0.880924  0.356328  0.881850  1
  Al  Al8  1  0.356307  0.880940  0.881785  1
  Al  Al9  1  0.880982  0.880926  0.881792  1
  Al  Al10  1  0.118822  0.118792  0.643553  1
  Al  Al11  1  0.114345  0.646382  0.124900  1
  Al  Al12  1  0.646379  0.114342  0.124966  1
  Al  Al13  1  0.114303  0.114362  0.124951  1
  Al  Al14  1  0.665965  0.665998  0.002027  1
  Al  Al15  1  0.670298  0.999628  0.659796  1
  Al  Al16  1  0.999629  0.670297  0.659780  1
  Al  Al17  1  0.670301  0.670283  0.659800  1
  Al  Al18  1  0.333542  0.333521  0.999428  1
  Al  Al19  1  0.334704  0.997856  0.332707  1
  Al  Al20  1  0.997864  0.334701  0.332726  1
  Al  Al21  1  0.334707  0.334728  0.332694  1
  Ni  Ni22  1  0.002084  0.002070  0.993779  1
  Ni  Ni23  1  0.002171  0.002174  0.506126  1
  Ni  Ni24  1  0.489506  0.002185  0.506131  1
  Ni  Ni25  1  0.002180  0.489518  0.506124  1
  Ni  Ni26  1  0.501174  0.501159  0.996925  1
  Ni  Ni27  1  0.000730  0.501165  0.996932  1
  Ni  Ni28  1  0.501174  0.000733  0.996930  1
