# generated using pymatgen
data_K3TmRh2O9
_symmetry_space_group_name_H-M   'P 1'
_cell_length_a   5.94387400
_cell_length_b   5.94386371
_cell_length_c   14.49544600
_cell_angle_alpha   90.00000000
_cell_angle_beta   90.00000000
_cell_angle_gamma   120.00005726
_symmetry_Int_Tables_number   1
_chemical_formula_structural   K3TmRh2O9
_chemical_formula_sum   'K6 Tm2 Rh4 O18'
_cell_volume   443.50692033
_cell_formula_units_Z   2
loop_
 _symmetry_equiv_pos_site_id
 _symmetry_equiv_pos_as_xyz
  1  'x, y, z'
loop_
 _atom_site_type_symbol
 _atom_site_label
 _atom_site_symmetry_multiplicity
 _atom_site_fract_x
 _atom_site_fract_y
 _atom_site_fract_z
 _atom_site_occupancy
  K  K0  1  0.000049  0.000015  0.250000  1
  K  K1  1  0.999951  0.999985  0.750000  1
  K  K2  1  0.333445  0.666593  0.394584  1
  K  K3  1  0.666555  0.333407  0.605416  1
  K  K4  1  0.666555  0.333407  0.894584  1
  K  K5  1  0.333445  0.666593  0.105416  1
  Tm  Tm6  1  0.000000  0.000000  0.500000  1
  Tm  Tm7  1  0.000000  0.000000  0.000000  1
  Rh  Rh8  1  0.666628  0.333296  0.346928  1
  Rh  Rh9  1  0.333372  0.666704  0.653072  1
  Rh  Rh10  1  0.333372  0.666704  0.846928  1
  Rh  Rh11  1  0.666628  0.333296  0.153072  1
  O  O12  1  0.527135  0.472982  0.250000  1
  O  O13  1  0.527158  0.054244  0.250000  1
  O  O14  1  0.945970  0.473005  0.250000  1
  O  O15  1  0.472865  0.527018  0.750000  1
  O  O16  1  0.472842  0.945756  0.750000  1
  O  O17  1  0.054030  0.526995  0.750000  1
  O  O18  1  0.351875  0.175949  0.415386  1
  O  O19  1  0.824086  0.175961  0.415375  1
  O  O20  1  0.824120  0.648214  0.415393  1
  O  O21  1  0.648125  0.824051  0.584614  1
  O  O22  1  0.175914  0.824039  0.584625  1
  O  O23  1  0.175880  0.351786  0.584607  1
  O  O24  1  0.648125  0.824051  0.915386  1
  O  O25  1  0.175914  0.824039  0.915375  1
  O  O26  1  0.175880  0.351786  0.915393  1
  O  O27  1  0.351875  0.175949  0.084614  1
  O  O28  1  0.824086  0.175961  0.084625  1
  O  O29  1  0.824120  0.648214  0.084607  1
