# generated using pymatgen
data_Sr5MnWN7
_symmetry_space_group_name_H-M   'P 1'
_cell_length_a   6.45409408
_cell_length_b   9.14426265
_cell_length_c   9.20365573
_cell_angle_alpha   114.42366721
_cell_angle_beta   96.95062142
_cell_angle_gamma   89.56151738
_symmetry_Int_Tables_number   1
_chemical_formula_structural   Sr5MnWN7
_chemical_formula_sum   'Sr10 Mn2 W2 N14'
_cell_volume   490.39826630
_cell_formula_units_Z   2
loop_
 _symmetry_equiv_pos_site_id
 _symmetry_equiv_pos_as_xyz
  1  'x, y, z'
loop_
 _atom_site_type_symbol
 _atom_site_label
 _atom_site_symmetry_multiplicity
 _atom_site_fract_x
 _atom_site_fract_y
 _atom_site_fract_z
 _atom_site_occupancy
  Sr  Sr0  1  0.848301  0.585305  0.335825  1
  Sr  Sr1  1  0.268003  0.977682  0.559941  1
  Sr  Sr2  1  0.702486  0.410202  0.843596  1
  Sr  Sr3  1  0.297514  0.589798  0.156404  1
  Sr  Sr4  1  0.399880  0.787693  0.909368  1
  Sr  Sr5  1  0.600120  0.212307  0.090632  1
  Sr  Sr6  1  0.151699  0.414695  0.664175  1
  Sr  Sr7  1  0.891338  0.842932  0.756223  1
  Sr  Sr8  1  0.108662  0.157068  0.243777  1
  Sr  Sr9  1  0.731997  0.022318  0.440059  1
  Mn  Mn10  1  0.571289  0.362815  0.475641  1
  Mn  Mn11  1  0.428711  0.637185  0.524359  1
  W  W12  1  0.121601  0.216775  0.914742  1
  W  W13  1  0.878399  0.783225  0.085258  1
  N  N14  1  0.540673  0.547510  0.659079  1
  N  N15  1  0.459327  0.452490  0.340921  1
  N  N16  1  0.175916  0.693296  0.561486  1
  N  N17  1  0.824084  0.306704  0.438514  1
  N  N18  1  0.418615  0.204955  0.473464  1
  N  N19  1  0.581385  0.795045  0.526536  1
  N  N20  1  0.950066  0.133931  0.713388  1
  N  N21  1  0.049934  0.866069  0.286612  1
  N  N22  1  0.235782  0.050472  0.964151  1
  N  N23  1  0.764218  0.949528  0.035849  1
  N  N24  1  0.353367  0.333374  0.902299  1
  N  N25  1  0.968035  0.347748  0.082047  1
  N  N26  1  0.031965  0.652252  0.917953  1
  N  N27  1  0.646633  0.666626  0.097701  1
