# generated using pymatgen
data_YEr9(GaCo5)2
_symmetry_space_group_name_H-M   'P 1'
_cell_length_a   5.42587813
_cell_length_b   5.42587779
_cell_length_c   20.42886260
_cell_angle_alpha   90.05374922
_cell_angle_beta   89.94625007
_cell_angle_gamma   136.64476676
_symmetry_Int_Tables_number   1
_chemical_formula_structural   YEr9(GaCo5)2
_chemical_formula_sum   'Y1 Er9 Ga2 Co10'
_cell_volume   412.89246248
_cell_formula_units_Z   1
loop_
 _symmetry_equiv_pos_site_id
 _symmetry_equiv_pos_as_xyz
  1  'x, y, z'
loop_
 _atom_site_type_symbol
 _atom_site_label
 _atom_site_symmetry_multiplicity
 _atom_site_fract_x
 _atom_site_fract_y
 _atom_site_fract_z
 _atom_site_occupancy
  Y  Y0  1  0.292126  0.707874  0.434187  1
  Er  Er1  1  0.288742  0.711258  0.249524  1
  Er  Er2  1  0.291435  0.708565  0.065848  1
  Er  Er3  1  0.997950  0.002050  0.842965  1
  Er  Er4  1  0.711253  0.288747  0.750290  1
  Er  Er5  1  0.708333  0.291667  0.566450  1
  Er  Er6  1  0.002198  0.997802  0.342094  1
  Er  Er7  1  0.998302  0.001698  0.657491  1
  Er  Er8  1  0.708631  0.291369  0.934210  1
  Er  Er9  1  0.001798  0.998202  0.157073  1
  Ga  Ga10  1  0.000729  0.999271  0.500322  1
  Ga  Ga11  1  0.999987  0.000013  0.000035  1
  Co  Co12  1  0.294366  0.705634  0.654656  1
  Co  Co13  1  0.582187  0.417813  0.441332  1
  Co  Co14  1  0.414294  0.585706  0.750122  1
  Co  Co15  1  0.417475  0.582525  0.941410  1
  Co  Co16  1  0.584621  0.415379  0.249462  1
  Co  Co17  1  0.418757  0.581243  0.559643  1
  Co  Co18  1  0.704250  0.295750  0.344523  1
  Co  Co19  1  0.705950  0.294050  0.154294  1
  Co  Co20  1  0.582405  0.417595  0.058437  1
  Co  Co21  1  0.294212  0.705788  0.845632  1
