# generated using pymatgen
data_Tb2Gd3TmTa2O14
_symmetry_space_group_name_H-M   'P 1'
_cell_length_a   6.50894163
_cell_length_b   6.53415626
_cell_length_c   7.52296928
_cell_angle_alpha   89.95905119
_cell_angle_beta   89.98968497
_cell_angle_gamma   108.65039772
_symmetry_Int_Tables_number   1
_chemical_formula_structural   Tb2Gd3TmTa2O14
_chemical_formula_sum   'Tb2 Gd3 Tm1 Ta2 O14'
_cell_volume   303.15344799
_cell_formula_units_Z   1
loop_
 _symmetry_equiv_pos_site_id
 _symmetry_equiv_pos_as_xyz
  1  'x, y, z'
loop_
 _atom_site_type_symbol
 _atom_site_label
 _atom_site_symmetry_multiplicity
 _atom_site_fract_x
 _atom_site_fract_y
 _atom_site_fract_z
 _atom_site_occupancy
  Tb  Tb0  1  0.534514  0.999444  0.756801  1
  Tb  Tb1  1  0.999850  0.464803  0.742623  1
  Gd  Gd2  1  0.999378  0.533842  0.242983  1
  Gd  Gd3  1  0.468568  0.464271  0.999370  1
  Gd  Gd4  1  0.527439  0.530180  0.499051  1
  Tm  Tm5  1  0.465316  0.998890  0.257206  1
  Ta  Ta6  1  0.002228  0.002069  0.499064  1
  Ta  Ta7  1  0.996998  0.997356  0.000232  1
  O  O8  1  0.930999  0.063620  0.749766  1
  O  O9  1  0.637913  0.358639  0.749824  1
  O  O10  1  0.309412  0.047496  0.539073  1
  O  O11  1  0.943595  0.691721  0.956900  1
  O  O12  1  0.623636  0.361388  0.252246  1
  O  O13  1  0.917589  0.675339  0.527334  1
  O  O14  1  0.327196  0.076632  0.977412  1
  O  O15  1  0.083002  0.326915  0.022049  1
  O  O16  1  0.675600  0.925700  0.468548  1
  O  O17  1  0.370808  0.631425  0.750182  1
  O  O18  1  0.694543  0.956571  0.048386  1
  O  O19  1  0.060313  0.312045  0.462627  1
  O  O20  1  0.362397  0.645464  0.248395  1
  O  O21  1  0.068707  0.936189  0.249927  1
