# generated using pymatgen
data_Ca7Ho(OsC2)4
_symmetry_space_group_name_H-M   'P 1'
_cell_length_a   5.17287300
_cell_length_b   6.52880064
_cell_length_c   10.32082662
_cell_angle_alpha   90.25055161
_cell_angle_beta   90.00000000
_cell_angle_gamma   90.00000000
_symmetry_Int_Tables_number   1
_chemical_formula_structural   Ca7Ho(OsC2)4
_chemical_formula_sum   'Ca7 Ho1 Os4 C8'
_cell_volume   348.55839995
_cell_formula_units_Z   1
loop_
 _symmetry_equiv_pos_site_id
 _symmetry_equiv_pos_as_xyz
  1  'x, y, z'
loop_
 _atom_site_type_symbol
 _atom_site_label
 _atom_site_symmetry_multiplicity
 _atom_site_fract_x
 _atom_site_fract_y
 _atom_site_fract_z
 _atom_site_occupancy
  Ca  Ca0  1  0.750000  0.306042  0.450158  1
  Ca  Ca1  1  0.750000  0.807035  0.050625  1
  Ca  Ca2  1  0.250000  0.190652  0.948835  1
  Ca  Ca3  1  0.250000  0.535230  0.218646  1
  Ca  Ca4  1  0.750000  0.464732  0.781705  1
  Ca  Ca5  1  0.750000  0.966438  0.723985  1
  Ca  Ca6  1  0.250000  0.035481  0.277973  1
  Ho  Ho7  1  0.250000  0.681621  0.552576  1
  Os  Os8  1  0.250000  0.730470  0.849504  1
  Os  Os9  1  0.750000  0.267096  0.150484  1
  Os  Os10  1  0.750000  0.767647  0.352743  1
  Os  Os11  1  0.250000  0.230354  0.647695  1
  C  C12  1  0.250000  0.469358  0.755148  1
  C  C13  1  0.750000  0.531567  0.241273  1
  C  C14  1  0.750000  0.029623  0.260039  1
  C  C15  1  0.250000  0.962615  0.734278  1
  C  C16  1  0.250000  0.791697  0.024072  1
  C  C17  1  0.750000  0.210316  0.974651  1
  C  C18  1  0.750000  0.708191  0.529961  1
  C  C19  1  0.250000  0.313836  0.475649  1
