# generated using pymatgen
data_Sc12CoCu2Si12Ir
_symmetry_space_group_name_H-M   'P 1'
_cell_length_a   4.02684500
_cell_length_b   10.12771234
_cell_length_c   11.66282110
_cell_angle_alpha   89.76291711
_cell_angle_beta   90.00000000
_cell_angle_gamma   90.00000000
_symmetry_Int_Tables_number   1
_chemical_formula_structural   Sc12CoCu2Si12Ir
_chemical_formula_sum   'Sc12 Co1 Cu2 Si12 Ir1'
_cell_volume   475.63758622
_cell_formula_units_Z   1
loop_
 _symmetry_equiv_pos_site_id
 _symmetry_equiv_pos_as_xyz
  1  'x, y, z'
loop_
 _atom_site_type_symbol
 _atom_site_label
 _atom_site_symmetry_multiplicity
 _atom_site_fract_x
 _atom_site_fract_y
 _atom_site_fract_z
 _atom_site_occupancy
  Sc  Sc0  1  0.250000  0.877673  0.023843  1
  Sc  Sc1  1  0.250000  0.620586  0.523734  1
  Sc  Sc2  1  0.750000  0.123338  0.977118  1
  Sc  Sc3  1  0.750000  0.380211  0.472520  1
  Sc  Sc4  1  0.250000  0.918064  0.600083  1
  Sc  Sc5  1  0.250000  0.580728  0.098774  1
  Sc  Sc6  1  0.750000  0.079707  0.399944  1
  Sc  Sc7  1  0.750000  0.420965  0.902514  1
  Sc  Sc8  1  0.250000  0.660735  0.801857  1
  Sc  Sc9  1  0.250000  0.832334  0.301692  1
  Sc  Sc10  1  0.750000  0.346108  0.200184  1
  Sc  Sc11  1  0.750000  0.160786  0.699200  1
  Co  Co12  1  0.750000  0.610575  0.320110  1
  Cu  Cu13  1  0.250000  0.387178  0.676986  1
  Cu  Cu14  1  0.250000  0.113032  0.178976  1
  Si  Si15  1  0.250000  0.013341  0.824584  1
  Si  Si16  1  0.250000  0.496998  0.323237  1
  Si  Si17  1  0.750000  0.984043  0.177672  1
  Si  Si18  1  0.750000  0.511887  0.676654  1
  Si  Si19  1  0.250000  0.248874  0.844338  1
  Si  Si20  1  0.250000  0.255199  0.343134  1
  Si  Si21  1  0.750000  0.746226  0.162124  1
  Si  Si22  1  0.750000  0.746696  0.657384  1
  Si  Si23  1  0.250000  0.187341  0.541105  1
  Si  Si24  1  0.250000  0.312674  0.042702  1
  Si  Si25  1  0.750000  0.797455  0.453430  1
  Si  Si26  1  0.750000  0.697540  0.956636  1
  Ir  Ir27  1  0.750000  0.889706  0.819468  1
