# generated using pymatgen
data_DyEr6Sn23Os6
_symmetry_space_group_name_H-M   'P 1'
_cell_length_a   9.84454100
_cell_length_b   9.84454074
_cell_length_c   10.09177200
_cell_angle_alpha   90.00000000
_cell_angle_beta   90.00000000
_cell_angle_gamma   120.00000425
_symmetry_Int_Tables_number   1
_chemical_formula_structural   DyEr6Sn23Os6
_chemical_formula_sum   'Dy1 Er6 Sn23 Os6'
_cell_volume   847.01085391
_cell_formula_units_Z   1
loop_
 _symmetry_equiv_pos_site_id
 _symmetry_equiv_pos_as_xyz
  1  'x, y, z'
loop_
 _atom_site_type_symbol
 _atom_site_label
 _atom_site_symmetry_multiplicity
 _atom_site_fract_x
 _atom_site_fract_y
 _atom_site_fract_z
 _atom_site_occupancy
  Dy  Dy0  1  0.000000  0.000000  0.000000  1
  Er  Er1  1  0.486848  0.513152  0.301132  1
  Er  Er2  1  0.513152  0.486848  0.698868  1
  Er  Er3  1  0.486848  0.973696  0.301132  1
  Er  Er4  1  0.513152  0.026304  0.698868  1
  Er  Er5  1  0.026304  0.513152  0.301132  1
  Er  Er6  1  0.973696  0.486848  0.698868  1
  Sn  Sn7  1  0.118112  0.881888  0.277277  1
  Sn  Sn8  1  0.881888  0.118112  0.722723  1
  Sn  Sn9  1  0.118112  0.236223  0.277277  1
  Sn  Sn10  1  0.881888  0.763777  0.722723  1
  Sn  Sn11  1  0.763777  0.881888  0.277277  1
  Sn  Sn12  1  0.236223  0.118112  0.722723  1
  Sn  Sn13  1  0.779175  0.220825  0.464591  1
  Sn  Sn14  1  0.220825  0.779175  0.535409  1
  Sn  Sn15  1  0.779175  0.558350  0.464591  1
  Sn  Sn16  1  0.220825  0.441650  0.535409  1
  Sn  Sn17  1  0.441650  0.220825  0.464591  1
  Sn  Sn18  1  0.558350  0.779175  0.535409  1
  Sn  Sn19  1  0.349941  0.000000  0.000000  1
  Sn  Sn20  1  0.650059  0.000000  0.000000  1
  Sn  Sn21  1  0.000000  0.349941  0.000000  1
  Sn  Sn22  1  0.000000  0.650059  0.000000  1
  Sn  Sn23  1  0.650059  0.650059  0.000000  1
  Sn  Sn24  1  0.349941  0.349941  0.000000  1
  Sn  Sn25  1  0.333333  0.666667  0.133673  1
  Sn  Sn26  1  0.666667  0.333333  0.866327  1
  Sn  Sn27  1  0.333333  0.666667  0.828175  1
  Sn  Sn28  1  0.666667  0.333333  0.171825  1
  Sn  Sn29  1  0.000000  0.000000  0.500000  1
  Os  Os30  1  0.829340  0.170660  0.202532  1
  Os  Os31  1  0.170660  0.829340  0.797468  1
  Os  Os32  1  0.829340  0.658681  0.202532  1
  Os  Os33  1  0.170660  0.341319  0.797468  1
  Os  Os34  1  0.341319  0.170660  0.202532  1
  Os  Os35  1  0.658681  0.829340  0.797468  1
