# generated using pymatgen
data_Li7Ni6
_symmetry_space_group_name_H-M   'P 1'
_cell_length_a   4.74812823
_cell_length_b   4.74560155
_cell_length_c   9.03357639
_cell_angle_alpha   74.77176289
_cell_angle_beta   89.99264748
_cell_angle_gamma   119.98240996
_symmetry_Int_Tables_number   1
_chemical_formula_structural   Li7Ni6
_chemical_formula_sum   'Li7 Ni6'
_cell_volume   168.00542170
_cell_formula_units_Z   1
loop_
 _symmetry_equiv_pos_site_id
 _symmetry_equiv_pos_as_xyz
  1  'x, y, z'
loop_
 _atom_site_type_symbol
 _atom_site_label
 _atom_site_symmetry_multiplicity
 _atom_site_fract_x
 _atom_site_fract_y
 _atom_site_fract_z
 _atom_site_occupancy
  Li  Li0  1  0.000000  0.000000  0.000000  1
  Li  Li1  1  0.651124  0.302236  0.046653  1
  Li  Li2  1  0.551571  0.103191  0.345188  1
  Li  Li3  1  0.833995  0.667936  0.498124  1
  Li  Li4  1  0.166004  0.332064  0.501875  1
  Li  Li5  1  0.448433  0.896812  0.654812  1
  Li  Li6  1  0.348880  0.697767  0.953347  1
  Ni  Ni7  1  0.087756  0.176019  0.237895  1
  Ni  Ni8  1  0.584847  0.673668  0.237514  1
  Ni  Ni9  1  0.087756  0.673843  0.237895  1
  Ni  Ni10  1  0.912243  0.326157  0.762106  1
  Ni  Ni11  1  0.415152  0.326332  0.762487  1
  Ni  Ni12  1  0.912243  0.823981  0.762106  1
