# generated using pymatgen
data_Li4NdDy3Pt4
_symmetry_space_group_name_H-M   'P 1'
_cell_length_a   3.98121600
_cell_length_b   7.06886013
_cell_length_c   8.43275800
_cell_angle_alpha   90.11456959
_cell_angle_beta   90.00000000
_cell_angle_gamma   90.00000000
_symmetry_Int_Tables_number   1
_chemical_formula_structural   Li4NdDy3Pt4
_chemical_formula_sum   'Li4 Nd1 Dy3 Pt4'
_cell_volume   237.31975887
_cell_formula_units_Z   1
loop_
 _symmetry_equiv_pos_site_id
 _symmetry_equiv_pos_as_xyz
  1  'x, y, z'
loop_
 _atom_site_type_symbol
 _atom_site_label
 _atom_site_symmetry_multiplicity
 _atom_site_fract_x
 _atom_site_fract_y
 _atom_site_fract_z
 _atom_site_occupancy
  Li  Li0  1  0.250000  0.627949  0.556515  1
  Li  Li1  1  0.250000  0.124829  0.943150  1
  Li  Li2  1  0.750000  0.372734  0.440309  1
  Li  Li3  1  0.750000  0.875557  0.059483  1
  Nd  Nd4  1  0.750000  0.454516  0.817327  1
  Dy  Dy5  1  0.250000  0.044756  0.316468  1
  Dy  Dy6  1  0.250000  0.546557  0.185130  1
  Dy  Dy7  1  0.750000  0.952042  0.678866  1
  Pt  Pt8  1  0.250000  0.240086  0.617449  1
  Pt  Pt9  1  0.250000  0.755248  0.880133  1
  Pt  Pt10  1  0.750000  0.752815  0.376457  1
  Pt  Pt11  1  0.750000  0.252907  0.128712  1
