# generated using pymatgen
data_Be7V3SiW
_symmetry_space_group_name_H-M   'P 1'
_cell_length_a   4.41292200
_cell_length_b   4.41292152
_cell_length_c   7.27165300
_cell_angle_alpha   90.00000000
_cell_angle_beta   90.00000000
_cell_angle_gamma   120.00000362
_symmetry_Int_Tables_number   1
_chemical_formula_structural   Be7V3SiW
_chemical_formula_sum   'Be7 V3 Si1 W1'
_cell_volume   122.63550313
_cell_formula_units_Z   1
loop_
 _symmetry_equiv_pos_site_id
 _symmetry_equiv_pos_as_xyz
  1  'x, y, z'
loop_
 _atom_site_type_symbol
 _atom_site_label
 _atom_site_symmetry_multiplicity
 _atom_site_fract_x
 _atom_site_fract_y
 _atom_site_fract_z
 _atom_site_occupancy
  Be  Be0  1  0.000000  0.000000  0.999492  1
  Be  Be1  1  0.827713  0.172287  0.243683  1
  Be  Be2  1  0.827713  0.655426  0.243683  1
  Be  Be3  1  0.344574  0.172287  0.243683  1
  Be  Be4  1  0.172337  0.827663  0.756383  1
  Be  Be5  1  0.172337  0.344674  0.756383  1
  Be  Be6  1  0.655326  0.827663  0.756383  1
  V  V7  1  0.333333  0.666667  0.436167  1
  V  V8  1  0.666667  0.333333  0.563972  1
  V  V9  1  0.666667  0.333333  0.933498  1
  Si  Si10  1  0.000000  0.000000  0.502703  1
  W  W11  1  0.333333  0.666667  0.063970  1
