# generated using pymatgen
data_TbYCl3
_symmetry_space_group_name_H-M   'P 1'
_cell_length_a   8.16055295
_cell_length_b   8.16055323
_cell_length_c   10.39054219
_cell_angle_alpha   61.08743389
_cell_angle_beta   61.08743266
_cell_angle_gamma   27.40882772
_symmetry_Int_Tables_number   1
_chemical_formula_structural   TbYCl3
_chemical_formula_sum   'Tb2 Y2 Cl6'
_cell_volume   276.28899957
_cell_formula_units_Z   2
loop_
 _symmetry_equiv_pos_site_id
 _symmetry_equiv_pos_as_xyz
  1  'x, y, z'
loop_
 _atom_site_type_symbol
 _atom_site_label
 _atom_site_symmetry_multiplicity
 _atom_site_fract_x
 _atom_site_fract_y
 _atom_site_fract_z
 _atom_site_occupancy
  Tb  Tb0  1  0.862170  0.862170  0.290317  1
  Tb  Tb1  1  0.137830  0.137830  0.709683  1
  Y  Y2  1  0.584769  0.584769  0.048296  1
  Y  Y3  1  0.415231  0.415231  0.951704  1
  Cl  Cl4  1  0.042910  0.042910  0.261414  1
  Cl  Cl5  1  0.957090  0.957090  0.738586  1
  Cl  Cl6  1  0.223951  0.223951  0.882346  1
  Cl  Cl7  1  0.776049  0.776049  0.117654  1
  Cl  Cl8  1  0.661796  0.661796  0.493303  1
  Cl  Cl9  1  0.338204  0.338204  0.506697  1
