# generated using pymatgen
data_TbHo2Al12RuRh3
_symmetry_space_group_name_H-M   'P 1'
_cell_length_a   8.80112400
_cell_length_b   8.81686909
_cell_length_c   9.53879500
_cell_angle_alpha   90.00000000
_cell_angle_beta   90.00000000
_cell_angle_gamma   119.94093655
_symmetry_Int_Tables_number   1
_chemical_formula_structural   TbHo2Al12RuRh3
_chemical_formula_sum   'Tb2 Ho4 Al24 Ru2 Rh6'
_cell_volume   641.40870222
_cell_formula_units_Z   2
loop_
 _symmetry_equiv_pos_site_id
 _symmetry_equiv_pos_as_xyz
  1  'x, y, z'
loop_
 _atom_site_type_symbol
 _atom_site_label
 _atom_site_symmetry_multiplicity
 _atom_site_fract_x
 _atom_site_fract_y
 _atom_site_fract_z
 _atom_site_occupancy
  Tb  Tb0  1  0.191086  0.382173  0.250000  1
  Tb  Tb1  1  0.808914  0.617827  0.750000  1
  Ho  Ho2  1  0.616520  0.808552  0.250000  1
  Ho  Ho3  1  0.383480  0.191448  0.750000  1
  Ho  Ho4  1  0.192030  0.808552  0.250000  1
  Ho  Ho5  1  0.807970  0.191448  0.750000  1
  Al  Al6  1  0.333547  0.667095  0.030517  1
  Al  Al7  1  0.666453  0.332905  0.969483  1
  Al  Al8  1  0.666453  0.332905  0.530517  1
  Al  Al9  1  0.333547  0.667095  0.469483  1
  Al  Al10  1  0.163396  0.326793  0.576517  1
  Al  Al11  1  0.836604  0.673207  0.423483  1
  Al  Al12  1  0.673146  0.836683  0.576244  1
  Al  Al13  1  0.836604  0.673207  0.076517  1
  Al  Al14  1  0.326854  0.163317  0.423756  1
  Al  Al15  1  0.163396  0.326793  0.923483  1
  Al  Al16  1  0.163537  0.836683  0.576244  1
  Al  Al17  1  0.326854  0.163317  0.076244  1
  Al  Al18  1  0.836463  0.163317  0.423756  1
  Al  Al19  1  0.673146  0.836683  0.923756  1
  Al  Al20  1  0.836463  0.163317  0.076244  1
  Al  Al21  1  0.163537  0.836683  0.923756  1
  Al  Al22  1  0.561912  0.123826  0.250000  1
  Al  Al23  1  0.438088  0.876174  0.750000  1
  Al  Al24  1  0.875435  0.438052  0.250000  1
  Al  Al25  1  0.124565  0.561948  0.750000  1
  Al  Al26  1  0.562616  0.438052  0.250000  1
  Al  Al27  1  0.437384  0.561948  0.750000  1
  Al  Al28  1  0.999769  0.999538  0.250000  1
  Al  Al29  1  0.000231  0.000462  0.750000  1
  Ru  Ru30  1  0.000000  0.000000  0.000000  1
  Ru  Ru31  1  0.000000  0.000000  0.500000  1
  Rh  Rh32  1  0.500000  0.000000  0.000000  1
  Rh  Rh33  1  0.000000  0.500000  0.000000  1
  Rh  Rh34  1  0.500000  0.000000  0.500000  1
  Rh  Rh35  1  0.500000  0.500000  0.000000  1
  Rh  Rh36  1  0.000000  0.500000  0.500000  1
  Rh  Rh37  1  0.500000  0.500000  0.500000  1
