# generated using pymatgen
data_RbPrThSe6
_symmetry_space_group_name_H-M   'P 1'
_cell_length_a   11.90349313
_cell_length_b   11.90349321
_cell_length_c   11.90349281
_cell_angle_alpha   158.95005972
_cell_angle_beta   151.93517246
_cell_angle_gamma   35.34499384
_symmetry_Int_Tables_number   1
_chemical_formula_structural   RbPrThSe6
_chemical_formula_sum   'Rb1 Pr1 Th1 Se6'
_cell_volume   284.70871724
_cell_formula_units_Z   1
loop_
 _symmetry_equiv_pos_site_id
 _symmetry_equiv_pos_as_xyz
  1  'x, y, z'
loop_
 _atom_site_type_symbol
 _atom_site_label
 _atom_site_symmetry_multiplicity
 _atom_site_fract_x
 _atom_site_fract_y
 _atom_site_fract_z
 _atom_site_occupancy
  Rb  Rb0  1  0.996967  0.996967  0.000000  1
  Pr  Pr1  1  0.316259  0.816259  0.500000  1
  Th  Th2  1  0.686994  0.186994  0.500000  1
  Se  Se3  1  0.185439  0.395433  0.790006  1
  Se  Se4  1  0.221388  0.221388  0.000000  1
  Se  Se5  1  0.398817  0.607223  0.791594  1
  Se  Se6  1  0.605428  0.395433  0.209994  1
  Se  Se7  1  0.815629  0.607223  0.208406  1
  Se  Se8  1  0.773077  0.773077  0.000000  1
