# generated using pymatgen
data_Nd8Tm12Si15Ru
_symmetry_space_group_name_H-M   'P 1'
_cell_length_a   7.70484540
_cell_length_b   7.74764601
_cell_length_c   14.19447594
_cell_angle_alpha   89.67625611
_cell_angle_beta   89.94187017
_cell_angle_gamma   90.12173815
_symmetry_Int_Tables_number   1
_chemical_formula_structural   Nd8Tm12Si15Ru
_chemical_formula_sum   'Nd8 Tm12 Si15 Ru1'
_cell_volume   847.31504852
_cell_formula_units_Z   1
loop_
 _symmetry_equiv_pos_site_id
 _symmetry_equiv_pos_as_xyz
  1  'x, y, z'
loop_
 _atom_site_type_symbol
 _atom_site_label
 _atom_site_symmetry_multiplicity
 _atom_site_fract_x
 _atom_site_fract_y
 _atom_site_fract_z
 _atom_site_occupancy
  Nd  Nd0  1  0.636431  0.992702  0.461652  1
  Nd  Nd1  1  0.356741  0.006637  0.958967  1
  Nd  Nd2  1  0.994210  0.643858  0.539053  1
  Nd  Nd3  1  0.492069  0.857140  0.209474  1
  Nd  Nd4  1  0.505117  0.140902  0.706223  1
  Nd  Nd5  1  0.856223  0.491157  0.790632  1
  Nd  Nd6  1  0.143922  0.505455  0.289972  1
  Nd  Nd7  1  0.009181  0.355371  0.039891  1
  Tm  Tm8  1  0.491687  0.358848  0.122892  1
  Tm  Tm9  1  0.998399  0.137901  0.624850  1
  Tm  Tm10  1  0.859816  0.006510  0.874894  1
  Tm  Tm11  1  0.142536  0.988171  0.379378  1
  Tm  Tm12  1  0.503210  0.644493  0.620673  1
  Tm  Tm13  1  0.358726  0.493994  0.876912  1
  Tm  Tm14  1  0.639758  0.505492  0.375768  1
  Tm  Tm15  1  0.006779  0.862859  0.125929  1
  Tm  Tm16  1  0.317813  0.309198  0.502414  1
  Tm  Tm17  1  0.186262  0.825814  0.743638  1
  Tm  Tm18  1  0.820172  0.180429  0.251750  1
  Tm  Tm19  1  0.682948  0.682058  0.000830  1
  Si  Si20  1  0.709885  0.063030  0.062066  1
  Si  Si21  1  0.935660  0.293710  0.437651  1
  Si  Si22  1  0.437060  0.210695  0.310007  1
  Si  Si23  1  0.565777  0.789631  0.812344  1
  Si  Si24  1  0.210036  0.439918  0.690884  1
  Si  Si25  1  0.790069  0.563571  0.188239  1
  Si  Si26  1  0.060485  0.710554  0.938310  1
  Si  Si27  1  0.794472  0.848969  0.689716  1
  Si  Si28  1  0.205719  0.148857  0.187806  1
  Si  Si29  1  0.848066  0.793922  0.311247  1
  Si  Si30  1  0.351048  0.701474  0.436423  1
  Si  Si31  1  0.650892  0.296859  0.939536  1
  Si  Si32  1  0.708298  0.352543  0.561932  1
  Si  Si33  1  0.294761  0.650847  0.061761  1
  Si  Si34  1  0.147928  0.208982  0.814328  1
  Ru  Ru35  1  0.287843  0.937452  0.561957  1
