# generated using pymatgen
data_Y12Tm7LuBi12
_symmetry_space_group_name_H-M   'P 1'
_cell_length_a   8.23358722
_cell_length_b   9.48436801
_cell_length_c   12.05059931
_cell_angle_alpha   89.99842965
_cell_angle_beta   90.02600508
_cell_angle_gamma   90.00441111
_symmetry_Int_Tables_number   1
_chemical_formula_structural   Y12Tm7LuBi12
_chemical_formula_sum   'Y12 Tm7 Lu1 Bi12'
_cell_volume   941.03567337
_cell_formula_units_Z   1
loop_
 _symmetry_equiv_pos_site_id
 _symmetry_equiv_pos_as_xyz
  1  'x, y, z'
loop_
 _atom_site_type_symbol
 _atom_site_label
 _atom_site_symmetry_multiplicity
 _atom_site_fract_x
 _atom_site_fract_y
 _atom_site_fract_z
 _atom_site_occupancy
  Y  Y0  1  0.186480  0.749641  0.718871  1
  Y  Y1  1  0.686314  0.750350  0.781136  1
  Y  Y2  1  0.813674  0.249647  0.281108  1
  Y  Y3  1  0.313547  0.250352  0.218807  1
  Y  Y4  1  0.693784  0.562861  0.059695  1
  Y  Y5  1  0.193524  0.937223  0.440293  1
  Y  Y6  1  0.306372  0.062803  0.940311  1
  Y  Y7  1  0.806401  0.437217  0.559701  1
  Y  Y8  1  0.354019  0.750054  0.215615  1
  Y  Y9  1  0.854182  0.749937  0.284207  1
  Y  Y10  1  0.645754  0.250067  0.784318  1
  Y  Y11  1  0.145958  0.249924  0.715641  1
  Tm  Tm12  1  0.525357  0.749716  0.511091  1
  Tm  Tm13  1  0.974714  0.250285  0.011064  1
  Tm  Tm14  1  0.474463  0.249727  0.488978  1
  Tm  Tm15  1  0.306570  0.434195  0.940324  1
  Tm  Tm16  1  0.806575  0.065761  0.559689  1
  Tm  Tm17  1  0.693617  0.934166  0.059694  1
  Tm  Tm18  1  0.193329  0.565777  0.440308  1
  Lu  Lu19  1  0.025325  0.750266  0.989088  1
  Bi  Bi20  1  0.434304  0.003596  0.672463  1
  Bi  Bi21  1  0.934348  0.496596  0.827742  1
  Bi  Bi22  1  0.565777  0.503618  0.327545  1
  Bi  Bi23  1  0.065728  0.996249  0.172297  1
  Bi  Bi24  1  0.566541  0.996047  0.327677  1
  Bi  Bi25  1  0.066504  0.504081  0.172172  1
  Bi  Bi26  1  0.433556  0.496086  0.672343  1
  Bi  Bi27  1  0.933594  0.003737  0.827866  1
  Bi  Bi28  1  0.407163  0.748045  0.958023  1
  Bi  Bi29  1  0.907415  0.751980  0.541959  1
  Bi  Bi30  1  0.592534  0.248018  0.041990  1
  Bi  Bi31  1  0.092577  0.251978  0.457985  1
