# generated using pymatgen
data_Yb2NiSn4Ru
_symmetry_space_group_name_H-M   'P 1'
_cell_length_a   5.80685232
_cell_length_b   5.80685323
_cell_length_c   7.50917700
_cell_angle_alpha   90.00000000
_cell_angle_beta   90.00000000
_cell_angle_gamma   136.59003790
_symmetry_Int_Tables_number   1
_chemical_formula_structural   Yb2NiSn4Ru
_chemical_formula_sum   'Yb2 Ni1 Sn4 Ru1'
_cell_volume   174.00665683
_cell_formula_units_Z   1
loop_
 _symmetry_equiv_pos_site_id
 _symmetry_equiv_pos_as_xyz
  1  'x, y, z'
loop_
 _atom_site_type_symbol
 _atom_site_label
 _atom_site_symmetry_multiplicity
 _atom_site_fract_x
 _atom_site_fract_y
 _atom_site_fract_z
 _atom_site_occupancy
  Yb  Yb0  1  0.434749  0.565251  0.250000  1
  Yb  Yb1  1  0.567853  0.432147  0.750000  1
  Ni  Ni2  1  0.710920  0.289080  0.250000  1
  Sn  Sn3  1  0.855435  0.144565  0.542587  1
  Sn  Sn4  1  0.143663  0.856337  0.448360  1
  Sn  Sn5  1  0.855435  0.144565  0.957412  1
  Sn  Sn6  1  0.143663  0.856337  0.051640  1
  Ru  Ru7  1  0.288282  0.711718  0.750000  1
