# generated using pymatgen
data_Lu2Nb3B4Ru10W
_symmetry_space_group_name_H-M   'P 1'
_cell_length_a   9.53280038
_cell_length_b   9.51306327
_cell_length_c   3.06303000
_cell_angle_alpha   90.00000000
_cell_angle_beta   90.00000000
_cell_angle_gamma   90.29160138
_symmetry_Int_Tables_number   1
_chemical_formula_structural   Lu2Nb3B4Ru10W
_chemical_formula_sum   'Lu2 Nb3 B4 Ru10 W1'
_cell_volume   277.77074888
_cell_formula_units_Z   1
loop_
 _symmetry_equiv_pos_site_id
 _symmetry_equiv_pos_as_xyz
  1  'x, y, z'
loop_
 _atom_site_type_symbol
 _atom_site_label
 _atom_site_symmetry_multiplicity
 _atom_site_fract_x
 _atom_site_fract_y
 _atom_site_fract_z
 _atom_site_occupancy
  Lu  Lu0  1  0.824084  0.675762  0.000000  1
  Lu  Lu1  1  0.175916  0.324238  0.000000  1
  Nb  Nb2  1  0.323582  0.824540  0.000000  1
  Nb  Nb3  1  0.676418  0.175460  0.000000  1
  Nb  Nb4  1  0.000000  0.000000  0.000000  1
  B  B5  1  0.621799  0.880143  0.000000  1
  B  B6  1  0.378201  0.119857  0.000000  1
  B  B7  1  0.119957  0.621418  0.000000  1
  B  B8  1  0.880043  0.378582  0.000000  1
  Ru  Ru9  1  0.561497  0.719156  0.500000  1
  Ru  Ru10  1  0.438503  0.280844  0.500000  1
  Ru  Ru11  1  0.080201  0.783904  0.500000  1
  Ru  Ru12  1  0.919799  0.216096  0.500000  1
  Ru  Ru13  1  0.287266  0.576009  0.500000  1
  Ru  Ru14  1  0.712734  0.423991  0.500000  1
  Ru  Ru15  1  0.222252  0.063503  0.500000  1
  Ru  Ru16  1  0.777748  0.936497  0.500000  1
  Ru  Ru17  1  0.500000  0.000000  0.500000  1
  Ru  Ru18  1  0.000000  0.500000  0.500000  1
  W  W19  1  0.500000  0.500000  0.000000  1
