# generated using pymatgen
data_Y3HoPdPt3O14
_symmetry_space_group_name_H-M   'P 1'
_cell_length_a   7.26135111
_cell_length_b   7.26135124
_cell_length_c   7.26964042
_cell_angle_alpha   60.03772468
_cell_angle_beta   60.03772557
_cell_angle_gamma   60.00000534
_symmetry_Int_Tables_number   1
_chemical_formula_structural   Y3HoPdPt3O14
_chemical_formula_sum   'Y3 Ho1 Pd1 Pt3 O14'
_cell_volume   271.19409997
_cell_formula_units_Z   1
loop_
 _symmetry_equiv_pos_site_id
 _symmetry_equiv_pos_as_xyz
  1  'x, y, z'
loop_
 _atom_site_type_symbol
 _atom_site_label
 _atom_site_symmetry_multiplicity
 _atom_site_fract_x
 _atom_site_fract_y
 _atom_site_fract_z
 _atom_site_occupancy
  Y  Y0  1  0.625000  0.625000  0.625000  1
  Y  Y1  1  0.625000  0.125000  0.625000  1
  Y  Y2  1  0.125000  0.625000  0.625000  1
  Ho  Ho3  1  0.625000  0.625000  0.125000  1
  Pd  Pd4  1  0.125000  0.125000  0.625000  1
  Pt  Pt5  1  0.125000  0.125000  0.125000  1
  Pt  Pt6  1  0.625000  0.125000  0.125000  1
  Pt  Pt7  1  0.125000  0.625000  0.125000  1
  O  O8  1  0.034426  0.466833  0.464316  1
  O  O9  1  0.783632  0.783632  0.215397  1
  O  O10  1  0.783632  0.217339  0.215397  1
  O  O11  1  0.466833  0.034426  0.464316  1
  O  O12  1  0.749362  0.749362  0.751915  1
  O  O13  1  0.034426  0.034426  0.464316  1
  O  O14  1  0.032661  0.466368  0.034603  1
  O  O15  1  0.783167  0.215574  0.785684  1
  O  O16  1  0.217339  0.783632  0.215397  1
  O  O17  1  0.215574  0.215574  0.785684  1
  O  O18  1  0.500638  0.500638  0.498085  1
  O  O19  1  0.466368  0.032661  0.034603  1
  O  O20  1  0.466368  0.466368  0.034603  1
  O  O21  1  0.215574  0.783167  0.785684  1
