# generated using pymatgen
data_CsMn7AlO16
_symmetry_space_group_name_H-M   'P 1'
_cell_length_a   5.86925733
_cell_length_b   7.12428613
_cell_length_c   7.21979300
_cell_angle_alpha   88.41332117
_cell_angle_beta   78.23051447
_cell_angle_gamma   77.89760149
_symmetry_Int_Tables_number   1
_chemical_formula_structural   CsMn7AlO16
_chemical_formula_sum   'Cs1 Mn7 Al1 O16'
_cell_volume   288.93901251
_cell_formula_units_Z   1
loop_
 _symmetry_equiv_pos_site_id
 _symmetry_equiv_pos_as_xyz
  1  'x, y, z'
loop_
 _atom_site_type_symbol
 _atom_site_label
 _atom_site_symmetry_multiplicity
 _atom_site_fract_x
 _atom_site_fract_y
 _atom_site_fract_z
 _atom_site_occupancy
  Cs  Cs0  1  0.001873  0.998659  0.997766  1
  Mn  Mn1  1  0.082436  0.506381  0.182486  1
  Mn  Mn2  1  0.174478  0.815293  0.513239  1
  Mn  Mn3  1  0.669192  0.816768  0.515635  1
  Mn  Mn4  1  0.337597  0.186409  0.479142  1
  Mn  Mn5  1  0.837078  0.185544  0.482738  1
  Mn  Mn6  1  0.429022  0.489392  0.821424  1
  Mn  Mn7  1  0.924009  0.492692  0.821069  1
  Al  Al8  1  0.579904  0.511611  0.186326  1
  O  O9  1  0.832199  0.635015  0.056364  1
  O  O10  1  0.330240  0.634500  0.056183  1
  O  O11  1  0.983720  0.699221  0.382241  1
  O  O12  1  0.485383  0.698219  0.382576  1
  O  O13  1  0.856061  0.954039  0.636087  1
  O  O14  1  0.356228  0.955602  0.636306  1
  O  O15  1  0.345327  0.370960  0.287301  1
  O  O16  1  0.835774  0.368937  0.286874  1
  O  O17  1  0.167959  0.632870  0.715061  1
  O  O18  1  0.665256  0.634663  0.717906  1
  O  O19  1  0.153949  0.045324  0.359419  1
  O  O20  1  0.652654  0.044708  0.360112  1
  O  O21  1  0.025069  0.299075  0.617378  1
  O  O22  1  0.524735  0.299768  0.615867  1
  O  O23  1  0.179025  0.359795  0.945654  1
  O  O24  1  0.677934  0.364551  0.944846  1
