# generated using pymatgen
data_Tm3HfAl17SiRh6
_symmetry_space_group_name_H-M   'P 1'
_cell_length_a   7.50513430
_cell_length_b   7.49668403
_cell_length_c   9.32326600
_cell_angle_alpha   90.00000000
_cell_angle_beta   90.00000000
_cell_angle_gamma   119.58896905
_symmetry_Int_Tables_number   1
_chemical_formula_structural   Tm3HfAl17SiRh6
_chemical_formula_sum   'Tm3 Hf1 Al17 Si1 Rh6'
_cell_volume   456.15274366
_cell_formula_units_Z   1
loop_
 _symmetry_equiv_pos_site_id
 _symmetry_equiv_pos_as_xyz
  1  'x, y, z'
loop_
 _atom_site_type_symbol
 _atom_site_label
 _atom_site_symmetry_multiplicity
 _atom_site_fract_x
 _atom_site_fract_y
 _atom_site_fract_z
 _atom_site_occupancy
  Tm  Tm0  1  0.007239  0.323018  0.750000  1
  Tm  Tm1  1  0.671625  0.995578  0.250000  1
  Tm  Tm2  1  0.324349  0.007836  0.750000  1
  Hf  Hf3  1  0.995215  0.671591  0.250000  1
  Al  Al4  1  0.122853  0.120659  0.250000  1
  Al  Al5  1  0.999765  0.337780  0.079507  1
  Al  Al6  1  0.000290  0.663485  0.927177  1
  Al  Al7  1  0.000290  0.663485  0.572823  1
  Al  Al8  1  0.331989  0.997342  0.420337  1
  Al  Al9  1  0.999765  0.337780  0.420493  1
  Al  Al10  1  0.662994  0.999167  0.576695  1
  Al  Al11  1  0.662994  0.999167  0.923305  1
  Al  Al12  1  0.331989  0.997342  0.079663  1
  Al  Al13  1  0.335970  0.336003  0.550426  1
  Al  Al14  1  0.670449  0.667947  0.438725  1
  Al  Al15  1  0.670449  0.667947  0.061275  1
  Al  Al16  1  0.335970  0.336003  0.949574  1
  Al  Al17  1  0.334839  0.550693  0.250000  1
  Al  Al18  1  0.664695  0.451392  0.750000  1
  Al  Al19  1  0.555177  0.342041  0.250000  1
  Al  Al20  1  0.448563  0.662249  0.750000  1
  Si  Si21  1  0.868210  0.866985  0.750000  1
  Rh  Rh22  1  0.674037  0.329449  0.000574  1
  Rh  Rh23  1  0.329274  0.674086  0.001202  1
  Rh  Rh24  1  0.329274  0.674086  0.498798  1
  Rh  Rh25  1  0.674037  0.329449  0.499426  1
  Rh  Rh26  1  0.998851  0.998719  0.994671  1
  Rh  Rh27  1  0.998851  0.998719  0.505329  1
