# generated using pymatgen
data_Pr2Nd2IrPb2Au3
_symmetry_space_group_name_H-M   'P 1'
_cell_length_a   3.76011400
_cell_length_b   8.36031850
_cell_length_c   8.35688591
_cell_angle_alpha   89.76100203
_cell_angle_beta   90.00000000
_cell_angle_gamma   90.00000000
_symmetry_Int_Tables_number   1
_chemical_formula_structural   Pr2Nd2IrPb2Au3
_chemical_formula_sum   'Pr2 Nd2 Ir1 Pb2 Au3'
_cell_volume   262.70269629
_cell_formula_units_Z   1
loop_
 _symmetry_equiv_pos_site_id
 _symmetry_equiv_pos_as_xyz
  1  'x, y, z'
loop_
 _atom_site_type_symbol
 _atom_site_label
 _atom_site_symmetry_multiplicity
 _atom_site_fract_x
 _atom_site_fract_y
 _atom_site_fract_z
 _atom_site_occupancy
  Pr  Pr0  1  0.500000  0.167024  0.667950  1
  Pr  Pr1  1  0.500000  0.351411  0.176862  1
  Nd  Nd2  1  0.500000  0.812908  0.312977  1
  Nd  Nd3  1  0.500000  0.677372  0.851906  1
  Ir  Ir4  1  0.000000  0.623617  0.121305  1
  Pb  Pb5  1  0.000000  0.999840  0.004155  1
  Pb  Pb6  1  0.000000  0.504740  0.501263  1
  Au  Au7  1  0.000000  0.376111  0.873209  1
  Au  Au8  1  0.000000  0.868938  0.619843  1
  Au  Au9  1  0.000000  0.118039  0.370529  1
