# generated using pymatgen
data_Dy2ErZr3(SnIr)6
_symmetry_space_group_name_H-M   'P 1'
_cell_length_a   7.48113800
_cell_length_b   7.47810324
_cell_length_c   7.61889800
_cell_angle_alpha   90.00000000
_cell_angle_beta   90.00000000
_cell_angle_gamma   120.01162673
_symmetry_Int_Tables_number   1
_chemical_formula_structural   Dy2ErZr3(SnIr)6
_chemical_formula_sum   'Dy2 Er1 Zr3 Sn6 Ir6'
_cell_volume   369.08893055
_cell_formula_units_Z   1
loop_
 _symmetry_equiv_pos_site_id
 _symmetry_equiv_pos_as_xyz
  1  'x, y, z'
loop_
 _atom_site_type_symbol
 _atom_site_label
 _atom_site_symmetry_multiplicity
 _atom_site_fract_x
 _atom_site_fract_y
 _atom_site_fract_z
 _atom_site_occupancy
  Dy  Dy0  1  0.593001  0.593822  0.250000  1
  Dy  Dy1  1  0.000747  0.406973  0.250000  1
  Er  Er2  1  0.405887  0.999174  0.250000  1
  Zr  Zr3  1  0.607070  0.607864  0.750000  1
  Zr  Zr4  1  0.000807  0.392942  0.750000  1
  Zr  Zr5  1  0.392159  0.999201  0.750000  1
  Sn  Sn6  1  0.266088  0.265003  0.505417  1
  Sn  Sn7  1  0.266088  0.265003  0.994583  1
  Sn  Sn8  1  0.734652  0.000859  0.994796  1
  Sn  Sn9  1  0.999345  0.734127  0.505411  1
  Sn  Sn10  1  0.734652  0.000859  0.505204  1
  Sn  Sn11  1  0.999345  0.734127  0.994589  1
  Ir  Ir12  1  0.666391  0.332977  0.532986  1
  Ir  Ir13  1  0.666391  0.332977  0.967014  1
  Ir  Ir14  1  0.333418  0.667042  0.968718  1
  Ir  Ir15  1  0.333418  0.667042  0.531282  1
  Ir  Ir16  1  0.000027  0.000002  0.750000  1
  Ir  Ir17  1  0.000513  0.000004  0.250000  1
