# generated using pymatgen
data_Yb4Zn5Ni9
_symmetry_space_group_name_H-M   'P 1'
_cell_length_a   5.07768459
_cell_length_b   5.07768437
_cell_length_c   12.23964585
_cell_angle_alpha   78.02834704
_cell_angle_beta   78.02834967
_cell_angle_gamma   59.99998967
_symmetry_Int_Tables_number   1
_chemical_formula_structural   Yb4Zn5Ni9
_chemical_formula_sum   'Yb4 Zn5 Ni9'
_cell_volume   265.33947988
_cell_formula_units_Z   1
loop_
 _symmetry_equiv_pos_site_id
 _symmetry_equiv_pos_as_xyz
  1  'x, y, z'
loop_
 _atom_site_type_symbol
 _atom_site_label
 _atom_site_symmetry_multiplicity
 _atom_site_fract_x
 _atom_site_fract_y
 _atom_site_fract_z
 _atom_site_occupancy
  Yb  Yb0  1  0.951199  0.951199  0.146405  1
  Yb  Yb1  1  0.048801  0.048801  0.853595  1
  Yb  Yb2  1  0.854649  0.854649  0.436053  1
  Yb  Yb3  1  0.145351  0.145351  0.563947  1
  Zn  Zn4  1  0.500000  0.500000  0.500000  1
  Zn  Zn5  1  0.722515  0.722515  0.832455  1
  Zn  Zn6  1  0.277485  0.277485  0.167545  1
  Zn  Zn7  1  0.610555  0.610555  0.168336  1
  Zn  Zn8  1  0.389445  0.389445  0.831664  1
  Ni  Ni9  1  0.000000  0.500000  0.000000  1
  Ni  Ni10  1  0.500000  0.000000  0.000000  1
  Ni  Ni11  1  0.500000  0.500000  0.000000  1
  Ni  Ni12  1  0.386168  0.386168  0.334074  1
  Ni  Ni13  1  0.893591  0.386168  0.334074  1
  Ni  Ni14  1  0.386168  0.893591  0.334074  1
  Ni  Ni15  1  0.613832  0.613832  0.665926  1
  Ni  Ni16  1  0.106409  0.613832  0.665926  1
  Ni  Ni17  1  0.613832  0.106409  0.665926  1
