# generated using pymatgen
data_PrZn2CdAg3
_symmetry_space_group_name_H-M   'P 1'
_cell_length_a   5.39403300
_cell_length_b   9.01323800
_cell_length_c   11.37917600
_cell_angle_alpha   90.00000000
_cell_angle_beta   90.00000000
_cell_angle_gamma   90.00000000
_symmetry_Int_Tables_number   1
_chemical_formula_structural   PrZn2CdAg3
_chemical_formula_sum   'Pr4 Zn8 Cd4 Ag12'
_cell_volume   553.22940153
_cell_formula_units_Z   4
loop_
 _symmetry_equiv_pos_site_id
 _symmetry_equiv_pos_as_xyz
  1  'x, y, z'
loop_
 _atom_site_type_symbol
 _atom_site_label
 _atom_site_symmetry_multiplicity
 _atom_site_fract_x
 _atom_site_fract_y
 _atom_site_fract_z
 _atom_site_occupancy
  Pr  Pr0  1  0.754280  0.245023  0.063234  1
  Pr  Pr1  1  0.254280  0.754977  0.936766  1
  Pr  Pr2  1  0.745720  0.745023  0.436766  1
  Pr  Pr3  1  0.245720  0.254977  0.563234  1
  Zn  Zn4  1  0.754498  0.686979  0.753221  1
  Zn  Zn5  1  0.254498  0.313021  0.246779  1
  Zn  Zn6  1  0.745502  0.186979  0.746779  1
  Zn  Zn7  1  0.245502  0.813021  0.253221  1
  Zn  Zn8  1  0.495568  0.065746  0.311343  1
  Zn  Zn9  1  0.995568  0.934254  0.688657  1
  Zn  Zn10  1  0.004432  0.565746  0.188657  1
  Zn  Zn11  1  0.504432  0.434254  0.811343  1
  Cd  Cd12  1  0.754178  0.359317  0.356947  1
  Cd  Cd13  1  0.254178  0.640683  0.643053  1
  Cd  Cd14  1  0.745822  0.859317  0.143053  1
  Cd  Cd15  1  0.245822  0.140683  0.856947  1
  Ag  Ag16  1  0.763082  0.946725  0.908421  1
  Ag  Ag17  1  0.263082  0.053275  0.091579  1
  Ag  Ag18  1  0.736918  0.446725  0.591579  1
  Ag  Ag19  1  0.236918  0.553275  0.408421  1
  Ag  Ag20  1  0.754427  0.590418  0.981203  1
  Ag  Ag21  1  0.254427  0.409582  0.018797  1
  Ag  Ag22  1  0.745573  0.090418  0.518797  1
  Ag  Ag23  1  0.245573  0.909582  0.481203  1
  Ag  Ag24  1  0.487950  0.930033  0.697375  1
  Ag  Ag25  1  0.987950  0.069967  0.302625  1
  Ag  Ag26  1  0.012050  0.430033  0.802625  1
  Ag  Ag27  1  0.512050  0.569967  0.197375  1
