# generated using pymatgen
data_Pa2Se4O13
_symmetry_space_group_name_H-M   'P 1'
_cell_length_a   7.26454400
_cell_length_b   8.15845313
_cell_length_c   12.24221234
_cell_angle_alpha   70.93890084
_cell_angle_beta   90.00000000
_cell_angle_gamma   90.00000000
_symmetry_Int_Tables_number   1
_chemical_formula_structural   Pa2Se4O13
_chemical_formula_sum   'Pa4 Se8 O26'
_cell_volume   685.78252197
_cell_formula_units_Z   2
loop_
 _symmetry_equiv_pos_site_id
 _symmetry_equiv_pos_as_xyz
  1  'x, y, z'
loop_
 _atom_site_type_symbol
 _atom_site_label
 _atom_site_symmetry_multiplicity
 _atom_site_fract_x
 _atom_site_fract_y
 _atom_site_fract_z
 _atom_site_occupancy
  Pa  Pa0  1  0.499526  0.919778  0.396768  1
  Pa  Pa1  1  0.500474  0.419778  0.396768  1
  Pa  Pa2  1  0.998736  0.847491  0.048224  1
  Pa  Pa3  1  0.001264  0.347491  0.048224  1
  Se  Se4  1  0.504236  0.886560  0.714340  1
  Se  Se5  1  0.495764  0.386560  0.714340  1
  Se  Se6  1  0.080735  0.041845  0.719616  1
  Se  Se7  1  0.919265  0.541845  0.719616  1
  Se  Se8  1  0.057276  0.674713  0.385431  1
  Se  Se9  1  0.942724  0.174713  0.385431  1
  Se  Se10  1  0.556774  0.588713  0.059149  1
  Se  Se11  1  0.443226  0.088713  0.059149  1
  O  O12  1  0.079552  0.498016  0.637896  1
  O  O13  1  0.920448  0.998016  0.637896  1
  O  O14  1  0.563536  0.701544  0.812478  1
  O  O15  1  0.436464  0.201544  0.812478  1
  O  O16  1  0.248618  0.866376  0.723494  1
  O  O17  1  0.751382  0.366376  0.723494  1
  O  O18  1  0.574967  0.667642  0.399095  1
  O  O19  1  0.425033  0.167642  0.399095  1
  O  O20  1  0.519573  0.835173  0.584303  1
  O  O21  1  0.480427  0.335173  0.584303  1
  O  O22  1  0.206131  0.831333  0.401666  1
  O  O23  1  0.793869  0.331333  0.401666  1
  O  O24  1  0.988641  0.260362  0.238632  1
  O  O25  1  0.011359  0.760362  0.238632  1
  O  O26  1  0.294498  0.256898  0.054516  1
  O  O27  1  0.705502  0.756898  0.054516  1
  O  O28  1  0.293014  0.931692  0.044998  1
  O  O29  1  0.706986  0.431692  0.044998  1
  O  O30  1  0.002140  0.440779  0.861136  1
  O  O31  1  0.997860  0.940779  0.861136  1
  O  O32  1  0.927299  0.097262  0.050036  1
  O  O33  1  0.072701  0.597262  0.050036  1
  O  O34  1  0.482787  0.006730  0.207393  1
  O  O35  1  0.517213  0.506730  0.207393  1
  O  O36  1  0.208368  0.510791  0.384828  1
  O  O37  1  0.791632  0.010791  0.384828  1
