# generated using pymatgen
data_BaPu2O7
_symmetry_space_group_name_H-M   'P 1'
_cell_length_a   7.93465118
_cell_length_b   7.92324630
_cell_length_c   7.92774106
_cell_angle_alpha   126.94399176
_cell_angle_beta   127.03296813
_cell_angle_gamma   78.26309316
_symmetry_Int_Tables_number   1
_chemical_formula_structural   BaPu2O7
_chemical_formula_sum   'Ba2 Pu4 O14'
_cell_volume   308.00896358
_cell_formula_units_Z   2
loop_
 _symmetry_equiv_pos_site_id
 _symmetry_equiv_pos_as_xyz
  1  'x, y, z'
loop_
 _atom_site_type_symbol
 _atom_site_label
 _atom_site_symmetry_multiplicity
 _atom_site_fract_x
 _atom_site_fract_y
 _atom_site_fract_z
 _atom_site_occupancy
  Ba  Ba0  1  0.999854  0.999982  0.999861  1
  Ba  Ba1  1  0.750146  0.250018  0.500139  1
  Pu  Pu2  1  0.875000  0.625000  0.250000  1
  Pu  Pu3  1  0.375000  0.625000  0.250000  1
  Pu  Pu4  1  0.375000  0.125000  0.750000  1
  Pu  Pu5  1  0.375000  0.625000  0.750000  1
  O  O6  1  0.249901  0.749953  0.499952  1
  O  O7  1  0.500099  0.500047  0.000048  1
  O  O8  1  0.720022  0.720116  0.999911  1
  O  O9  1  0.470136  0.970065  0.499954  1
  O  O10  1  0.029978  0.529884  0.500089  1
  O  O11  1  0.279864  0.279935  0.000046  1
  O  O12  1  0.874995  0.361849  0.986847  1
  O  O13  1  0.111671  0.625008  0.986699  1
  O  O14  1  0.638256  0.125026  0.013262  1
  O  O15  1  0.374997  0.887972  0.012963  1
  O  O16  1  0.875005  0.888151  0.513153  1
  O  O17  1  0.638329  0.624992  0.513301  1
  O  O18  1  0.111744  0.124974  0.486738  1
  O  O19  1  0.375003  0.362028  0.487037  1
