# generated using pymatgen
data_Tm4Al4Ru3Pt
_symmetry_space_group_name_H-M   'P 1'
_cell_length_a   4.07451000
_cell_length_b   6.91636605
_cell_length_c   8.03482301
_cell_angle_alpha   90.18314063
_cell_angle_beta   90.00000000
_cell_angle_gamma   90.00000000
_symmetry_Int_Tables_number   1
_chemical_formula_structural   Tm4Al4Ru3Pt
_chemical_formula_sum   'Tm4 Al4 Ru3 Pt1'
_cell_volume   226.42660481
_cell_formula_units_Z   1
loop_
 _symmetry_equiv_pos_site_id
 _symmetry_equiv_pos_as_xyz
  1  'x, y, z'
loop_
 _atom_site_type_symbol
 _atom_site_label
 _atom_site_symmetry_multiplicity
 _atom_site_fract_x
 _atom_site_fract_y
 _atom_site_fract_z
 _atom_site_occupancy
  Tm  Tm0  1  0.250000  0.029231  0.673427  1
  Tm  Tm1  1  0.250000  0.539198  0.819657  1
  Tm  Tm2  1  0.750000  0.966879  0.322338  1
  Tm  Tm3  1  0.750000  0.468940  0.181399  1
  Al  Al4  1  0.250000  0.135921  0.063813  1
  Al  Al5  1  0.250000  0.637836  0.440814  1
  Al  Al6  1  0.750000  0.855647  0.941083  1
  Al  Al7  1  0.750000  0.363805  0.558045  1
  Ru  Ru8  1  0.250000  0.266890  0.376370  1
  Ru  Ru9  1  0.250000  0.766913  0.122385  1
  Ru  Ru10  1  0.750000  0.737245  0.623722  1
  Pt  Pt11  1  0.750000  0.231495  0.876948  1
