# generated using pymatgen
data_CaMnN8
_symmetry_space_group_name_H-M   'P 1'
_cell_length_a   6.36509581
_cell_length_b   5.54605558
_cell_length_c   6.06397351
_cell_angle_alpha   96.13063214
_cell_angle_beta   78.66503081
_cell_angle_gamma   74.48146541
_symmetry_Int_Tables_number   1
_chemical_formula_structural   CaMnN8
_chemical_formula_sum   'Ca1 Mn1 N8'
_cell_volume   199.33960063
_cell_formula_units_Z   1
loop_
 _symmetry_equiv_pos_site_id
 _symmetry_equiv_pos_as_xyz
  1  'x, y, z'
loop_
 _atom_site_type_symbol
 _atom_site_label
 _atom_site_symmetry_multiplicity
 _atom_site_fract_x
 _atom_site_fract_y
 _atom_site_fract_z
 _atom_site_occupancy
  Ca  Ca0  1  0.460874  0.181181  0.426464  1
  Mn  Mn1  1  0.784547  0.392126  0.092567  1
  N  N2  1  0.556335  0.564326  0.376636  1
  N  N3  1  0.637618  0.720194  0.302139  1
  N  N4  1  0.585873  0.133874  0.775693  1
  N  N5  1  0.112652  0.453573  0.700190  1
  N  N6  1  0.660663  0.216910  0.915429  1
  N  N7  1  0.978017  0.446703  0.854554  1
  N  N8  1  0.005255  0.189612  0.196788  1
  N  N9  1  0.162645  0.091135  0.258158  1
