# generated using pymatgen
data_Cs5Li(W2N5)2
_symmetry_space_group_name_H-M   'P 1'
_cell_length_a   10.82664178
_cell_length_b   10.82664063
_cell_length_c   10.82664100
_cell_angle_alpha   99.50089545
_cell_angle_beta   99.50089444
_cell_angle_gamma   132.05733538
_symmetry_Int_Tables_number   1
_chemical_formula_structural   Cs5Li(W2N5)2
_chemical_formula_sum   'Cs10 Li2 W8 N20'
_cell_volume   860.97360106
_cell_formula_units_Z   2
loop_
 _symmetry_equiv_pos_site_id
 _symmetry_equiv_pos_as_xyz
  1  'x, y, z'
loop_
 _atom_site_type_symbol
 _atom_site_label
 _atom_site_symmetry_multiplicity
 _atom_site_fract_x
 _atom_site_fract_y
 _atom_site_fract_z
 _atom_site_occupancy
  Cs  Cs0  1  0.351805  0.580320  0.567164  1
  Cs  Cs1  1  0.013157  0.784641  0.432836  1
  Cs  Cs2  1  0.034641  0.101805  0.271484  1
  Cs  Cs3  1  0.830320  0.763157  0.728516  1
  Cs  Cs4  1  0.705297  0.441871  0.063699  1
  Cs  Cs5  1  0.378172  0.641598  0.936301  1
  Cs  Cs6  1  0.891598  0.455297  0.763426  1
  Cs  Cs7  1  0.691871  0.128172  0.236574  1
  Cs  Cs8  1  0.479106  0.979106  0.500000  1
  Cs  Cs9  1  0.229106  0.229106  0.000000  1
  Li  Li10  1  0.740794  0.740794  0.000000  1
  Li  Li11  1  0.990794  0.490794  0.500000  1
  W  W12  1  0.381420  0.281834  0.699162  1
  W  W13  1  0.582673  0.682257  0.300838  1
  W  W14  1  0.932257  0.131420  0.599586  1
  W  W15  1  0.531834  0.332673  0.400414  1
  W  W16  1  0.782034  0.086160  0.898337  1
  W  W17  1  0.187823  0.883697  0.101663  1
  W  W18  1  0.133697  0.532034  0.195874  1
  W  W19  1  0.336160  0.937823  0.804126  1
  N  N20  1  0.543101  0.497051  0.834051  1
  N  N21  1  0.663002  0.709052  0.165949  1
  N  N22  1  0.959052  0.293101  0.546050  1
  N  N23  1  0.747051  0.413002  0.453950  1
  N  N24  1  0.077109  0.519665  0.342319  1
  N  N25  1  0.177345  0.734789  0.657681  1
  N  N26  1  0.984789  0.827109  0.057444  1
  N  N27  1  0.769665  0.927345  0.942556  1
  N  N28  1  0.453153  0.301252  0.549183  1
  N  N29  1  0.752069  0.903969  0.450817  1
  N  N30  1  0.153969  0.203153  0.651901  1
  N  N31  1  0.551252  0.502069  0.348099  1
  N  N32  1  0.950956  0.303640  0.054958  1
  N  N33  1  0.248683  0.895998  0.945042  1
  N  N34  1  0.145998  0.700956  0.147316  1
  N  N35  1  0.553640  0.998683  0.852684  1
  N  N36  1  0.857225  0.120781  0.748604  1
  N  N37  1  0.372178  0.108621  0.251396  1
  N  N38  1  0.358621  0.607225  0.236444  1
  N  N39  1  0.370781  0.122177  0.763556  1
