# generated using pymatgen
data_Sc2Mn2Ni10P7
_symmetry_space_group_name_H-M   'P 1'
_cell_length_a   9.01886898
_cell_length_b   9.02036516
_cell_length_c   3.58856700
_cell_angle_alpha   90.00000000
_cell_angle_beta   90.00000000
_cell_angle_gamma   119.88645394
_symmetry_Int_Tables_number   1
_chemical_formula_structural   Sc2Mn2Ni10P7
_chemical_formula_sum   'Sc2 Mn2 Ni10 P7'
_cell_volume   253.11836475
_cell_formula_units_Z   1
loop_
 _symmetry_equiv_pos_site_id
 _symmetry_equiv_pos_as_xyz
  1  'x, y, z'
loop_
 _atom_site_type_symbol
 _atom_site_label
 _atom_site_symmetry_multiplicity
 _atom_site_fract_x
 _atom_site_fract_y
 _atom_site_fract_z
 _atom_site_occupancy
  Sc  Sc0  1  0.332356  0.667772  0.000000  1
  Sc  Sc1  1  0.666454  0.332350  0.500000  1
  Mn  Mn2  1  0.875937  0.094797  0.500000  1
  Mn  Mn3  1  0.219483  0.124592  0.500000  1
  Ni  Ni4  1  0.626757  0.062392  0.000000  1
  Ni  Ni5  1  0.124711  0.283556  0.000000  1
  Ni  Ni6  1  0.437429  0.374677  0.000000  1
  Ni  Ni7  1  0.935572  0.562210  0.000000  1
  Ni  Ni8  1  0.721295  0.841030  0.000000  1
  Ni  Ni9  1  0.154822  0.877407  0.000000  1
  Ni  Ni10  1  0.053059  0.438267  0.500000  1
  Ni  Ni11  1  0.564602  0.615670  0.500000  1
  Ni  Ni12  1  0.902493  0.773516  0.500000  1
  Ni  Ni13  1  0.384286  0.947094  0.500000  1
  P  P14  1  0.000317  0.002278  0.000000  1
  P  P15  1  0.412029  0.118575  0.000000  1
  P  P16  1  0.881275  0.293429  0.000000  1
  P  P17  1  0.707176  0.587367  0.000000  1
  P  P18  1  0.292542  0.412905  0.500000  1
  P  P19  1  0.118657  0.709186  0.500000  1
  P  P20  1  0.588749  0.880934  0.500000  1
