# generated using pymatgen
data_Y4VReOs6
_symmetry_space_group_name_H-M   'P 1'
_cell_length_a   5.22853415
_cell_length_b   5.22853541
_cell_length_c   8.94224300
_cell_angle_alpha   90.00000000
_cell_angle_beta   90.00000000
_cell_angle_gamma   116.50696844
_symmetry_Int_Tables_number   1
_chemical_formula_structural   Y4VReOs6
_chemical_formula_sum   'Y4 V1 Re1 Os6'
_cell_volume   218.76171233
_cell_formula_units_Z   1
loop_
 _symmetry_equiv_pos_site_id
 _symmetry_equiv_pos_as_xyz
  1  'x, y, z'
loop_
 _atom_site_type_symbol
 _atom_site_label
 _atom_site_symmetry_multiplicity
 _atom_site_fract_x
 _atom_site_fract_y
 _atom_site_fract_z
 _atom_site_occupancy
  Y  Y0  1  0.330939  0.669061  0.435836  1
  Y  Y1  1  0.669278  0.330722  0.564528  1
  Y  Y2  1  0.669278  0.330722  0.935472  1
  Y  Y3  1  0.330939  0.669061  0.064164  1
  V  V4  1  0.835945  0.164055  0.250000  1
  Re  Re5  1  0.164523  0.835477  0.750000  1
  Os  Os6  1  0.000480  0.999520  0.498115  1
  Os  Os7  1  0.000480  0.999520  0.001885  1
  Os  Os8  1  0.824532  0.649759  0.250000  1
  Os  Os9  1  0.350241  0.175468  0.250000  1
  Os  Os10  1  0.171908  0.348542  0.750000  1
  Os  Os11  1  0.651458  0.828092  0.750000  1
