# generated using pymatgen
data_Tb2Sm6Hf11Si16W
_symmetry_space_group_name_H-M   'P 1'
_cell_length_a   7.30084415
_cell_length_b   7.30512270
_cell_length_c   13.41521804
_cell_angle_alpha   89.86095590
_cell_angle_beta   90.12456022
_cell_angle_gamma   90.09119632
_symmetry_Int_Tables_number   1
_chemical_formula_structural   Tb2Sm6Hf11Si16W
_chemical_formula_sum   'Tb2 Sm6 Hf11 Si16 W1'
_cell_volume   715.47667018
_cell_formula_units_Z   1
loop_
 _symmetry_equiv_pos_site_id
 _symmetry_equiv_pos_as_xyz
  1  'x, y, z'
loop_
 _atom_site_type_symbol
 _atom_site_label
 _atom_site_symmetry_multiplicity
 _atom_site_fract_x
 _atom_site_fract_y
 _atom_site_fract_z
 _atom_site_occupancy
  Tb  Tb0  1  0.343177  0.999231  0.787771  1
  Tb  Tb1  1  0.656613  0.003933  0.283339  1
  Sm  Sm2  1  0.997777  0.342402  0.212748  1
  Sm  Sm3  1  0.005307  0.657677  0.716850  1
  Sm  Sm4  1  0.157715  0.494290  0.465422  1
  Sm  Sm5  1  0.502834  0.844623  0.034117  1
  Sm  Sm6  1  0.844370  0.502843  0.965919  1
  Sm  Sm7  1  0.494284  0.157408  0.534426  1
  Hf  Hf8  1  0.825514  0.826053  0.499947  1
  Hf  Hf9  1  0.324388  0.674931  0.248742  1
  Hf  Hf10  1  0.674111  0.323614  0.751256  1
  Hf  Hf11  1  0.148075  0.996187  0.373049  1
  Hf  Hf12  1  0.853172  0.005704  0.877427  1
  Hf  Hf13  1  0.504557  0.649595  0.624589  1
  Hf  Hf14  1  0.347750  0.492105  0.877766  1
  Hf  Hf15  1  0.492526  0.347487  0.122235  1
  Hf  Hf16  1  0.649359  0.504939  0.375295  1
  Hf  Hf17  1  0.995972  0.147901  0.626987  1
  Hf  Hf18  1  0.006037  0.853247  0.122589  1
  Si  Si19  1  0.365277  0.295017  0.314788  1
  Si  Si20  1  0.634476  0.705400  0.816468  1
  Si  Si21  1  0.204658  0.864385  0.566147  1
  Si  Si22  1  0.137545  0.799426  0.933654  1
  Si  Si23  1  0.797505  0.136140  0.065992  1
  Si  Si24  1  0.863008  0.203274  0.433236  1
  Si  Si25  1  0.296460  0.362691  0.685611  1
  Si  Si26  1  0.703977  0.636973  0.183987  1
  Si  Si27  1  0.293622  0.051164  0.182709  1
  Si  Si28  1  0.704444  0.951543  0.686919  1
  Si  Si29  1  0.451084  0.794383  0.434465  1
  Si  Si30  1  0.205938  0.546899  0.063939  1
  Si  Si31  1  0.545666  0.204905  0.935649  1
  Si  Si32  1  0.793337  0.449946  0.564922  1
  Si  Si33  1  0.052595  0.291335  0.817741  1
  Si  Si34  1  0.950353  0.706654  0.313494  1
  W  W35  1  0.176518  0.175695  0.999804  1
