# generated using pymatgen
data_Nd8AlSi12Ir2Rh
_symmetry_space_group_name_H-M   'P 1'
_cell_length_a   8.25140600
_cell_length_b   8.25140582
_cell_length_c   8.50912400
_cell_angle_alpha   90.00000000
_cell_angle_beta   90.00000000
_cell_angle_gamma   120.00000074
_symmetry_Int_Tables_number   1
_chemical_formula_structural   Nd8AlSi12Ir2Rh
_chemical_formula_sum   'Nd8 Al1 Si12 Ir2 Rh1'
_cell_volume   501.73151888
_cell_formula_units_Z   1
loop_
 _symmetry_equiv_pos_site_id
 _symmetry_equiv_pos_as_xyz
  1  'x, y, z'
loop_
 _atom_site_type_symbol
 _atom_site_label
 _atom_site_symmetry_multiplicity
 _atom_site_fract_x
 _atom_site_fract_y
 _atom_site_fract_z
 _atom_site_occupancy
  Nd  Nd0  1  0.000000  0.000000  0.749009  1
  Nd  Nd1  1  0.000000  0.000000  0.251079  1
  Nd  Nd2  1  0.497108  0.502892  0.745682  1
  Nd  Nd3  1  0.497108  0.994218  0.745682  1
  Nd  Nd4  1  0.005782  0.502892  0.745682  1
  Nd  Nd5  1  0.499187  0.500813  0.254135  1
  Nd  Nd6  1  0.001628  0.500813  0.254135  1
  Nd  Nd7  1  0.499187  0.998372  0.254135  1
  Al  Al8  1  0.666667  0.333333  0.995285  1
  Si  Si9  1  0.838433  0.161567  0.999980  1
  Si  Si10  1  0.838433  0.676866  0.999980  1
  Si  Si11  1  0.323134  0.161567  0.999980  1
  Si  Si12  1  0.832538  0.167462  0.501213  1
  Si  Si13  1  0.832538  0.665075  0.501213  1
  Si  Si14  1  0.334925  0.167462  0.501213  1
  Si  Si15  1  0.166981  0.833019  0.498855  1
  Si  Si16  1  0.666039  0.833019  0.498855  1
  Si  Si17  1  0.166981  0.333961  0.498855  1
  Si  Si18  1  0.169355  0.830645  0.000591  1
  Si  Si19  1  0.661290  0.830645  0.000591  1
  Si  Si20  1  0.169355  0.338710  0.000591  1
  Ir  Ir21  1  0.666667  0.333333  0.502881  1
  Ir  Ir22  1  0.333333  0.666667  0.497753  1
  Rh  Rh23  1  0.333333  0.666667  0.002627  1
