# generated using pymatgen
data_Dy10Tl7Hg
_symmetry_space_group_name_H-M   'P 1'
_cell_length_a   9.29605000
_cell_length_b   9.29605084
_cell_length_c   6.69004400
_cell_angle_alpha   90.00000000
_cell_angle_beta   90.00000000
_cell_angle_gamma   119.99998990
_symmetry_Int_Tables_number   1
_chemical_formula_structural   Dy10Tl7Hg
_chemical_formula_sum   'Dy10 Tl7 Hg1'
_cell_volume   500.67578922
_cell_formula_units_Z   1
loop_
 _symmetry_equiv_pos_site_id
 _symmetry_equiv_pos_as_xyz
  1  'x, y, z'
loop_
 _atom_site_type_symbol
 _atom_site_label
 _atom_site_symmetry_multiplicity
 _atom_site_fract_x
 _atom_site_fract_y
 _atom_site_fract_z
 _atom_site_occupancy
  Dy  Dy0  1  0.333333  0.666667  0.500000  1
  Dy  Dy1  1  0.666667  0.333333  0.500000  1
  Dy  Dy2  1  0.666667  0.333333  0.000000  1
  Dy  Dy3  1  0.333333  0.666667  0.000000  1
  Dy  Dy4  1  0.288227  0.000000  0.749128  1
  Dy  Dy5  1  0.711773  0.000000  0.250872  1
  Dy  Dy6  1  0.000000  0.288227  0.749128  1
  Dy  Dy7  1  0.000000  0.711773  0.250872  1
  Dy  Dy8  1  0.711773  0.711773  0.749128  1
  Dy  Dy9  1  0.288227  0.288227  0.250872  1
  Tl  Tl10  1  0.000000  0.000000  0.000000  1
  Tl  Tl11  1  0.627353  0.000000  0.749748  1
  Tl  Tl12  1  0.372647  0.000000  0.250252  1
  Tl  Tl13  1  0.000000  0.627353  0.749748  1
  Tl  Tl14  1  0.000000  0.372647  0.250252  1
  Tl  Tl15  1  0.372647  0.372647  0.749748  1
  Tl  Tl16  1  0.627353  0.627353  0.250252  1
  Hg  Hg17  1  0.000000  0.000000  0.500000  1
