# generated using pymatgen
data_HfSc4In3Rh8
_symmetry_space_group_name_H-M   'P 1'
_cell_length_a   6.32250400
_cell_length_b   6.32255400
_cell_length_c   6.78276900
_cell_angle_alpha   90.00000000
_cell_angle_beta   89.99945844
_cell_angle_gamma   90.00000000
_symmetry_Int_Tables_number   1
_chemical_formula_structural   HfSc4In3Rh8
_chemical_formula_sum   'Hf1 Sc4 In3 Rh8'
_cell_volume   271.13693767
_cell_formula_units_Z   1
loop_
 _symmetry_equiv_pos_site_id
 _symmetry_equiv_pos_as_xyz
  1  'x, y, z'
loop_
 _atom_site_type_symbol
 _atom_site_label
 _atom_site_symmetry_multiplicity
 _atom_site_fract_x
 _atom_site_fract_y
 _atom_site_fract_z
 _atom_site_occupancy
  Hf  Hf0  1  0.250018  0.249999  0.000004  1
  Sc  Sc1  1  0.750028  0.249999  0.000011  1
  Sc  Sc2  1  0.249966  0.750000  0.000011  1
  Sc  Sc3  1  0.750011  0.249999  0.499992  1
  Sc  Sc4  1  0.249984  0.750000  0.500005  1
  In  In5  1  0.749982  0.750000  0.000045  1
  In  In6  1  0.749960  0.750000  0.499969  1
  In  In7  1  0.250034  0.249999  0.499965  1
  Rh  Rh8  1  0.499230  0.000769  0.243929  1
  Rh  Rh9  1  0.499230  0.499236  0.243929  1
  Rh  Rh10  1  0.000764  0.000749  0.243971  1
  Rh  Rh11  1  0.000764  0.499247  0.243971  1
  Rh  Rh12  1  0.000764  0.000754  0.756021  1
  Rh  Rh13  1  0.000764  0.499251  0.756021  1
  Rh  Rh14  1  0.499248  0.000765  0.756079  1
  Rh  Rh15  1  0.499248  0.499229  0.756079  1
