# generated using pymatgen
data_Hf12CoTc6Os5
_symmetry_space_group_name_H-M   'P 1'
_cell_length_a   4.59636200
_cell_length_b   6.48482500
_cell_length_c   13.81085900
_cell_angle_alpha   90.00000000
_cell_angle_beta   90.00022835
_cell_angle_gamma   90.00000000
_symmetry_Int_Tables_number   1
_chemical_formula_structural   Hf12CoTc6Os5
_chemical_formula_sum   'Hf12 Co1 Tc6 Os5'
_cell_volume   411.65479415
_cell_formula_units_Z   1
loop_
 _symmetry_equiv_pos_site_id
 _symmetry_equiv_pos_as_xyz
  1  'x, y, z'
loop_
 _atom_site_type_symbol
 _atom_site_label
 _atom_site_symmetry_multiplicity
 _atom_site_fract_x
 _atom_site_fract_y
 _atom_site_fract_z
 _atom_site_occupancy
  Hf  Hf0  1  0.500000  0.251093  0.000000  1
  Hf  Hf1  1  0.500000  0.748907  0.000000  1
  Hf  Hf2  1  0.000000  0.250184  0.166058  1
  Hf  Hf3  1  0.000000  0.749815  0.166058  1
  Hf  Hf4  1  0.500001  0.250103  0.332973  1
  Hf  Hf5  1  0.500001  0.749896  0.332973  1
  Hf  Hf6  1  0.000000  0.249823  0.500000  1
  Hf  Hf7  1  0.000000  0.750177  0.500000  1
  Hf  Hf8  1  0.499999  0.250103  0.667027  1
  Hf  Hf9  1  0.499999  0.749896  0.667027  1
  Hf  Hf10  1  0.000000  0.250184  0.833942  1
  Hf  Hf11  1  0.000000  0.749815  0.833942  1
  Co  Co12  1  0.000000  0.500000  0.000000  1
  Tc  Tc13  1  0.000000  0.000001  0.000000  1
  Tc  Tc14  1  0.499997  0.500000  0.164802  1
  Tc  Tc15  1  0.000002  0.000000  0.332444  1
  Tc  Tc16  1  0.500000  0.500000  0.500000  1
  Tc  Tc17  1  0.999998  0.000000  0.667556  1
  Tc  Tc18  1  0.500003  0.500000  0.835198  1
  Os  Os19  1  0.500001  0.000001  0.165701  1
  Os  Os20  1  0.000001  0.500001  0.332792  1
  Os  Os21  1  0.500000  0.000000  0.500000  1
  Os  Os22  1  0.999999  0.500001  0.667208  1
  Os  Os23  1  0.499999  0.000001  0.834299  1
