# generated using pymatgen
data_Dy7YRe2(B12Ru)2
_symmetry_space_group_name_H-M   'P 1'
_cell_length_a   3.67658300
_cell_length_b   9.16633405
_cell_length_c   11.55456904
_cell_angle_alpha   90.21105139
_cell_angle_beta   90.00000000
_cell_angle_gamma   90.00000000
_symmetry_Int_Tables_number   1
_chemical_formula_structural   Dy7YRe2(B12Ru)2
_chemical_formula_sum   'Dy7 Y1 Re2 B24 Ru2'
_cell_volume   389.39543936
_cell_formula_units_Z   1
loop_
 _symmetry_equiv_pos_site_id
 _symmetry_equiv_pos_as_xyz
  1  'x, y, z'
loop_
 _atom_site_type_symbol
 _atom_site_label
 _atom_site_symmetry_multiplicity
 _atom_site_fract_x
 _atom_site_fract_y
 _atom_site_fract_z
 _atom_site_occupancy
  Dy  Dy0  1  0.000000  0.678674  0.587602  1
  Dy  Dy1  1  0.000000  0.824934  0.084495  1
  Dy  Dy2  1  0.000000  0.175055  0.915484  1
  Dy  Dy3  1  0.000000  0.942516  0.370500  1
  Dy  Dy4  1  0.000000  0.057447  0.629543  1
  Dy  Dy5  1  0.000000  0.442883  0.129344  1
  Dy  Dy6  1  0.000000  0.557131  0.870690  1
  Y  Y7  1  0.000000  0.321173  0.412467  1
  Re  Re8  1  0.000000  0.138269  0.179644  1
  Re  Re9  1  0.000000  0.861536  0.820214  1
  B  B10  1  0.500000  0.554022  0.432925  1
  B  B11  1  0.500000  0.446320  0.567236  1
  B  B12  1  0.500000  0.053108  0.066954  1
  B  B13  1  0.500000  0.946840  0.932968  1
  B  B14  1  0.500000  0.748130  0.418852  1
  B  B15  1  0.500000  0.251925  0.581339  1
  B  B16  1  0.500000  0.248477  0.081043  1
  B  B17  1  0.500000  0.751534  0.918882  1
  B  B18  1  0.500000  0.790336  0.266010  1
  B  B19  1  0.500000  0.209691  0.734043  1
  B  B20  1  0.500000  0.291452  0.234507  1
  B  B21  1  0.500000  0.708495  0.765338  1
  B  B22  1  0.500000  0.631181  0.186167  1
  B  B23  1  0.500000  0.368917  0.813827  1
  B  B24  1  0.500000  0.131185  0.314628  1
  B  B25  1  0.500000  0.868636  0.685238  1
  B  B26  1  0.500000  0.982843  0.212313  1
  B  B27  1  0.500000  0.017043  0.787654  1
  B  B28  1  0.500000  0.483672  0.288111  1
  B  B29  1  0.500000  0.516535  0.711859  1
  B  B30  1  0.500000  0.603918  0.028921  1
  B  B31  1  0.500000  0.396125  0.971073  1
  B  B32  1  0.500000  0.104136  0.471268  1
  B  B33  1  0.500000  0.895708  0.528787  1
  Ru  Ru34  1  0.000000  0.637756  0.321530  1
  Ru  Ru35  1  0.000000  0.362396  0.678543  1
