# generated using pymatgen
data_Ca4CuSi6Hg
_symmetry_space_group_name_H-M   'P 1'
_cell_length_a   8.35485052
_cell_length_b   8.22441803
_cell_length_c   6.00878485
_cell_angle_alpha   69.91446424
_cell_angle_beta   67.59591812
_cell_angle_gamma   42.48960191
_symmetry_Int_Tables_number   1
_chemical_formula_structural   Ca4CuSi6Hg
_chemical_formula_sum   'Ca4 Cu1 Si6 Hg1'
_cell_volume   256.54670569
_cell_formula_units_Z   1
loop_
 _symmetry_equiv_pos_site_id
 _symmetry_equiv_pos_as_xyz
  1  'x, y, z'
loop_
 _atom_site_type_symbol
 _atom_site_label
 _atom_site_symmetry_multiplicity
 _atom_site_fract_x
 _atom_site_fract_y
 _atom_site_fract_z
 _atom_site_occupancy
  Ca  Ca0  1  0.747650  0.747650  0.752350  1
  Ca  Ca1  1  0.755560  0.248480  0.751520  1
  Ca  Ca2  1  0.247650  0.247650  0.252350  1
  Ca  Ca3  1  0.248480  0.755560  0.244440  1
  Cu  Cu4  1  0.666688  0.666688  0.333312  1
  Si  Si5  1  0.828089  0.342232  0.171911  1
  Si  Si6  1  0.683226  0.158748  0.316774  1
  Si  Si7  1  0.158748  0.683226  0.841252  1
  Si  Si8  1  0.342232  0.828089  0.657768  1
  Si  Si9  1  0.157446  0.157446  0.842554  1
  Si  Si10  1  0.830318  0.830318  0.169682  1
  Hg  Hg11  1  0.333914  0.333914  0.666086  1
