# generated using pymatgen
data_Pr2Nb3P7Rh9
_symmetry_space_group_name_H-M   'P 1'
_cell_length_a   3.96405700
_cell_length_b   9.71136181
_cell_length_c   9.70829481
_cell_angle_alpha   120.00721339
_cell_angle_beta   89.99872026
_cell_angle_gamma   89.99946113
_symmetry_Int_Tables_number   1
_chemical_formula_structural   Pr2Nb3P7Rh9
_chemical_formula_sum   'Pr2 Nb3 P7 Rh9'
_cell_volume   323.63988668
_cell_formula_units_Z   1
loop_
 _symmetry_equiv_pos_site_id
 _symmetry_equiv_pos_as_xyz
  1  'x, y, z'
loop_
 _atom_site_type_symbol
 _atom_site_label
 _atom_site_symmetry_multiplicity
 _atom_site_fract_x
 _atom_site_fract_y
 _atom_site_fract_z
 _atom_site_occupancy
  Pr  Pr0  1  0.261378  0.666644  0.333341  1
  Pr  Pr1  1  0.762006  0.333314  0.666662  1
  Nb  Nb2  1  0.762044  0.095297  0.875908  1
  Nb  Nb3  1  0.762039  0.124109  0.219360  1
  Nb  Nb4  1  0.762043  0.780573  0.904689  1
  P  P5  1  0.262133  0.999968  0.999998  1
  P  P6  1  0.761725  0.882493  0.594368  1
  P  P7  1  0.761702  0.405727  0.288170  1
  P  P8  1  0.761696  0.711830  0.117582  1
  P  P9  1  0.262231  0.113989  0.413172  1
  P  P10  1  0.262232  0.586832  0.700750  1
  P  P11  1  0.262232  0.299212  0.886034  1
  Rh  Rh12  1  0.261888  0.884730  0.160935  1
  Rh  Rh13  1  0.261892  0.839116  0.723888  1
  Rh  Rh14  1  0.261878  0.276144  0.115226  1
  Rh  Rh15  1  0.761841  0.611211  0.560403  1
  Rh  Rh16  1  0.761829  0.439636  0.050815  1
  Rh  Rh17  1  0.761832  0.949268  0.388818  1
  Rh  Rh18  1  0.261792  0.367957  0.435912  1
  Rh  Rh19  1  0.261789  0.564029  0.931973  1
  Rh  Rh20  1  0.261798  0.067924  0.631993  1
