# generated using pymatgen
data_TbDy3Y4Co17Si10Ir
_symmetry_space_group_name_H-M   'P 1'
_cell_length_a   5.23351995
_cell_length_b   5.23351956
_cell_length_c   21.99450501
_cell_angle_alpha   89.89105062
_cell_angle_beta   90.10894835
_cell_angle_gamma   120.28608721
_symmetry_Int_Tables_number   1
_chemical_formula_structural   TbDy3Y4Co17Si10Ir
_chemical_formula_sum   'Tb1 Dy3 Y4 Co17 Si10 Ir1'
_cell_volume   520.20233591
_cell_formula_units_Z   1
loop_
 _symmetry_equiv_pos_site_id
 _symmetry_equiv_pos_as_xyz
  1  'x, y, z'
loop_
 _atom_site_type_symbol
 _atom_site_label
 _atom_site_symmetry_multiplicity
 _atom_site_fract_x
 _atom_site_fract_y
 _atom_site_fract_z
 _atom_site_occupancy
  Tb  Tb0  1  0.333339  0.666661  0.971724  1
  Dy  Dy1  1  0.332927  0.667073  0.529928  1
  Dy  Dy2  1  0.665425  0.334575  0.474328  1
  Dy  Dy3  1  0.666728  0.333272  0.027442  1
  Y  Y4  1  0.333006  0.666994  0.675242  1
  Y  Y5  1  0.667488  0.332512  0.325859  1
  Y  Y6  1  0.666790  0.333210  0.173786  1
  Y  Y7  1  0.333444  0.666556  0.826086  1
  Co  Co8  1  0.166311  0.332404  0.087490  1
  Co  Co9  1  0.833501  0.667413  0.911759  1
  Co  Co10  1  0.667596  0.833689  0.087490  1
  Co  Co11  1  0.833024  0.667955  0.589406  1
  Co  Co12  1  0.332587  0.166499  0.911759  1
  Co  Co13  1  0.165190  0.331109  0.412417  1
  Co  Co14  1  0.165842  0.834158  0.087609  1
  Co  Co15  1  0.332045  0.166976  0.589406  1
  Co  Co16  1  0.834208  0.165792  0.911193  1
  Co  Co17  1  0.668891  0.834810  0.412417  1
  Co  Co18  1  0.832793  0.167207  0.589917  1
  Co  Co19  1  0.167899  0.334703  0.247802  1
  Co  Co20  1  0.832627  0.664895  0.750419  1
  Co  Co21  1  0.665297  0.832101  0.247802  1
  Co  Co22  1  0.335105  0.167373  0.750419  1
  Co  Co23  1  0.167659  0.832341  0.249707  1
  Co  Co24  1  0.832634  0.167366  0.750578  1
  Si  Si25  1  0.999830  0.000170  0.999528  1
  Si  Si26  1  0.996849  0.003151  0.502742  1
  Si  Si27  1  0.332067  0.667933  0.166912  1
  Si  Si28  1  0.666071  0.333929  0.832250  1
  Si  Si29  1  0.666211  0.333789  0.668937  1
  Si  Si30  1  0.343367  0.656633  0.329101  1
  Si  Si31  1  0.001335  0.998665  0.167977  1
  Si  Si32  1  0.000948  0.999052  0.831259  1
  Si  Si33  1  0.999888  0.000112  0.669787  1
  Si  Si34  1  0.992177  0.007823  0.328419  1
  Ir  Ir35  1  0.168901  0.831099  0.411100  1
