# generated using pymatgen
data_Na12Li8V3As12Ru
_symmetry_space_group_name_H-M   'P 1'
_cell_length_a   9.48743548
_cell_length_b   9.48743472
_cell_length_c   13.68951155
_cell_angle_alpha   90.07523750
_cell_angle_beta   90.07523679
_cell_angle_gamma   142.80964006
_symmetry_Int_Tables_number   1
_chemical_formula_structural   Na12Li8V3As12Ru
_chemical_formula_sum   'Na12 Li8 V3 As12 Ru1'
_cell_volume   744.82308677
_cell_formula_units_Z   1
loop_
 _symmetry_equiv_pos_site_id
 _symmetry_equiv_pos_as_xyz
  1  'x, y, z'
loop_
 _atom_site_type_symbol
 _atom_site_label
 _atom_site_symmetry_multiplicity
 _atom_site_fract_x
 _atom_site_fract_y
 _atom_site_fract_z
 _atom_site_occupancy
  Na  Na0  1  0.597706  0.936995  0.825677  1
  Na  Na1  1  0.273884  0.273606  0.322224  1
  Na  Na2  1  0.230311  0.228593  0.821343  1
  Na  Na3  1  0.726394  0.726116  0.677776  1
  Na  Na4  1  0.438777  0.104153  0.671925  1
  Na  Na5  1  0.895847  0.561223  0.328075  1
  Na  Na6  1  0.063005  0.402294  0.174323  1
  Na  Na7  1  0.409108  0.072106  0.173641  1
  Na  Na8  1  0.562994  0.897691  0.326306  1
  Na  Na9  1  0.102309  0.437006  0.673694  1
  Na  Na10  1  0.927894  0.590892  0.826359  1
  Na  Na11  1  0.771407  0.769689  0.178657  1
  Li  Li12  1  0.085265  0.914735  0.000000  1
  Li  Li13  1  0.582119  0.417881  0.500000  1
  Li  Li14  1  0.914617  0.085383  0.000000  1
  Li  Li15  1  0.752382  0.247618  0.000000  1
  Li  Li16  1  0.747816  0.252184  0.500000  1
  Li  Li17  1  0.248070  0.751930  0.000000  1
  Li  Li18  1  0.252547  0.747453  0.500000  1
  Li  Li19  1  0.417448  0.582552  0.500000  1
  V  V20  1  0.082608  0.917392  0.500000  1
  V  V21  1  0.417966  0.582034  0.000000  1
  V  V22  1  0.917379  0.082621  0.500000  1
  As  As23  1  0.062252  0.380839  0.395857  1
  As  As24  1  0.885357  0.562516  0.104806  1
  As  As25  1  0.437484  0.114643  0.895194  1
  As  As26  1  0.619161  0.937748  0.604143  1
  As  As27  1  0.938271  0.619751  0.603977  1
  As  As28  1  0.117404  0.438205  0.895095  1
  As  As29  1  0.561795  0.882596  0.104905  1
  As  As30  1  0.380249  0.061729  0.396023  1
  As  As31  1  0.227904  0.227979  0.600312  1
  As  As32  1  0.723791  0.726420  0.901164  1
  As  As33  1  0.273580  0.276209  0.098836  1
  As  As34  1  0.772021  0.772096  0.399688  1
  Ru  Ru35  1  0.582881  0.417119  0.000000  1
