# generated using pymatgen
data_Dy6Ho10Cd2Hg2Ir3Pt
_symmetry_space_group_name_H-M   'P 1'
_cell_length_a   9.61965302
_cell_length_b   9.61965203
_cell_length_c   9.61965300
_cell_angle_alpha   60.13405597
_cell_angle_beta   60.13405934
_cell_angle_gamma   60.13405812
_symmetry_Int_Tables_number   1
_chemical_formula_structural   Dy6Ho10Cd2Hg2Ir3Pt
_chemical_formula_sum   'Dy6 Ho10 Cd2 Hg2 Ir3 Pt1'
_cell_volume   631.36436514
_cell_formula_units_Z   1
loop_
 _symmetry_equiv_pos_site_id
 _symmetry_equiv_pos_as_xyz
  1  'x, y, z'
loop_
 _atom_site_type_symbol
 _atom_site_label
 _atom_site_symmetry_multiplicity
 _atom_site_fract_x
 _atom_site_fract_y
 _atom_site_fract_z
 _atom_site_occupancy
  Dy  Dy0  1  0.187835  0.812315  0.812532  1
  Dy  Dy1  1  0.812949  0.186875  0.189350  1
  Dy  Dy2  1  0.812315  0.187835  0.812532  1
  Dy  Dy3  1  0.186875  0.812949  0.189350  1
  Dy  Dy4  1  0.812116  0.812116  0.189290  1
  Dy  Dy5  1  0.187857  0.187857  0.813426  1
  Ho  Ho6  1  0.597829  0.597829  0.597499  1
  Ho  Ho7  1  0.602862  0.602862  0.198425  1
  Ho  Ho8  1  0.603406  0.197167  0.602920  1
  Ho  Ho9  1  0.197167  0.603406  0.602920  1
  Ho  Ho10  1  0.055881  0.440401  0.440702  1
  Ho  Ho11  1  0.437509  0.060405  0.060453  1
  Ho  Ho12  1  0.440401  0.055881  0.440702  1
  Ho  Ho13  1  0.060405  0.437509  0.060453  1
  Ho  Ho14  1  0.440068  0.440068  0.056385  1
  Ho  Ho15  1  0.059963  0.059963  0.438167  1
  Cd  Cd16  1  0.830401  0.506491  0.831025  1
  Cd  Cd17  1  0.506491  0.830401  0.831025  1
  Hg  Hg18  1  0.833215  0.833215  0.834855  1
  Hg  Hg19  1  0.833591  0.833591  0.496958  1
  Ir  Ir20  1  0.391746  0.391746  0.824403  1
  Ir  Ir21  1  0.391640  0.824541  0.391842  1
  Ir  Ir22  1  0.824541  0.391640  0.391842  1
  Pt  Pt23  1  0.392934  0.392934  0.392941  1
