# generated using pymatgen
data_TmZr(PPd)3
_symmetry_space_group_name_H-M   'P 1'
_cell_length_a   3.83500200
_cell_length_b   10.76035800
_cell_length_c   13.20628500
_cell_angle_alpha   90.00000000
_cell_angle_beta   90.00000000
_cell_angle_gamma   90.00000000
_symmetry_Int_Tables_number   1
_chemical_formula_structural   TmZr(PPd)3
_chemical_formula_sum   'Tm4 Zr4 P12 Pd12'
_cell_volume   544.97048352
_cell_formula_units_Z   4
loop_
 _symmetry_equiv_pos_site_id
 _symmetry_equiv_pos_as_xyz
  1  'x, y, z'
loop_
 _atom_site_type_symbol
 _atom_site_label
 _atom_site_symmetry_multiplicity
 _atom_site_fract_x
 _atom_site_fract_y
 _atom_site_fract_z
 _atom_site_occupancy
  Tm  Tm0  1  0.250000  0.077448  0.213650  1
  Tm  Tm1  1  0.750000  0.922552  0.786350  1
  Tm  Tm2  1  0.750000  0.577448  0.286350  1
  Tm  Tm3  1  0.250000  0.422552  0.713650  1
  Zr  Zr4  1  0.250000  0.160338  0.496995  1
  Zr  Zr5  1  0.750000  0.839662  0.503005  1
  Zr  Zr6  1  0.750000  0.660338  0.003005  1
  Zr  Zr7  1  0.250000  0.339662  0.996995  1
  P  P8  1  0.250000  0.946255  0.614701  1
  P  P9  1  0.750000  0.053745  0.385299  1
  P  P10  1  0.750000  0.446255  0.885299  1
  P  P11  1  0.250000  0.553745  0.114701  1
  P  P12  1  0.250000  0.394025  0.397667  1
  P  P13  1  0.750000  0.605975  0.602333  1
  P  P14  1  0.750000  0.894025  0.102333  1
  P  P15  1  0.250000  0.105975  0.897667  1
  P  P16  1  0.250000  0.766702  0.363004  1
  P  P17  1  0.750000  0.233298  0.636996  1
  P  P18  1  0.750000  0.266702  0.136996  1
  P  P19  1  0.250000  0.733298  0.863004  1
  Pd  Pd20  1  0.250000  0.734440  0.663082  1
  Pd  Pd21  1  0.750000  0.265560  0.336918  1
  Pd  Pd22  1  0.750000  0.234440  0.836918  1
  Pd  Pd23  1  0.250000  0.765560  0.163082  1
  Pd  Pd24  1  0.250000  0.372293  0.215931  1
  Pd  Pd25  1  0.750000  0.627707  0.784069  1
  Pd  Pd26  1  0.750000  0.872293  0.284069  1
  Pd  Pd27  1  0.250000  0.127707  0.715931  1
  Pd  Pd28  1  0.250000  0.595201  0.476697  1
  Pd  Pd29  1  0.750000  0.404799  0.523303  1
  Pd  Pd30  1  0.750000  0.095201  0.023303  1
  Pd  Pd31  1  0.250000  0.904799  0.976697  1
