# generated using pymatgen
data_Y5Tm15(Ag3Ru)2
_symmetry_space_group_name_H-M   'P 1'
_cell_length_a   9.40777811
_cell_length_b   9.41008931
_cell_length_c   9.53115900
_cell_angle_alpha   90.00257574
_cell_angle_beta   89.99829359
_cell_angle_gamma   120.00926789
_symmetry_Int_Tables_number   1
_chemical_formula_structural   Y5Tm15(Ag3Ru)2
_chemical_formula_sum   'Y5 Tm15 Ag6 Ru2'
_cell_volume   730.66211661
_cell_formula_units_Z   1
loop_
 _symmetry_equiv_pos_site_id
 _symmetry_equiv_pos_as_xyz
  1  'x, y, z'
loop_
 _atom_site_type_symbol
 _atom_site_label
 _atom_site_symmetry_multiplicity
 _atom_site_fract_x
 _atom_site_fract_y
 _atom_site_fract_z
 _atom_site_occupancy
  Y  Y0  1  0.540794  0.082586  0.250004  1
  Y  Y1  1  0.917419  0.459209  0.250007  1
  Y  Y2  1  0.458946  0.541039  0.749986  1
  Y  Y3  1  0.459209  0.918472  0.749997  1
  Y  Y4  1  0.081549  0.540795  0.749997  1
  Tm  Tm5  1  0.999986  0.000025  0.499853  1
  Tm  Tm6  1  0.999985  0.000024  0.000148  1
  Tm  Tm7  1  0.209114  0.790889  0.441221  1
  Tm  Tm8  1  0.209720  0.417901  0.440715  1
  Tm  Tm9  1  0.582134  0.790304  0.440712  1
  Tm  Tm10  1  0.791083  0.208912  0.558822  1
  Tm  Tm11  1  0.790290  0.581766  0.558210  1
  Tm  Tm12  1  0.418196  0.209694  0.558216  1
  Tm  Tm13  1  0.791088  0.208910  0.941164  1
  Tm  Tm14  1  0.790282  0.581749  0.941791  1
  Tm  Tm15  1  0.418219  0.209697  0.941782  1
  Tm  Tm16  1  0.209118  0.790898  0.058796  1
  Tm  Tm17  1  0.209727  0.417927  0.059285  1
  Tm  Tm18  1  0.582118  0.790299  0.059288  1
  Tm  Tm19  1  0.540120  0.459878  0.250003  1
  Ag  Ag20  1  0.884819  0.115144  0.250000  1
  Ag  Ag21  1  0.883061  0.768062  0.250001  1
  Ag  Ag22  1  0.231950  0.116926  0.250001  1
  Ag  Ag23  1  0.115174  0.884822  0.750000  1
  Ag  Ag24  1  0.114896  0.230064  0.749998  1
  Ag  Ag25  1  0.769937  0.885105  0.750002  1
  Ru  Ru26  1  0.334101  0.665896  0.249995  1
  Ru  Ru27  1  0.666965  0.333008  0.750007  1
