# generated using pymatgen
data_Sr8Er3Tm(GaO5)4
_symmetry_space_group_name_H-M   'P 1'
_cell_length_a   5.95265347
_cell_length_b   7.62463413
_cell_length_c   12.45430500
_cell_angle_alpha   91.53792689
_cell_angle_beta   90.02279259
_cell_angle_gamma   90.02148109
_symmetry_Int_Tables_number   1
_chemical_formula_structural   Sr8Er3Tm(GaO5)4
_chemical_formula_sum   'Sr8 Er3 Tm1 Ga4 O20'
_cell_volume   565.05740381
_cell_formula_units_Z   1
loop_
 _symmetry_equiv_pos_site_id
 _symmetry_equiv_pos_as_xyz
  1  'x, y, z'
loop_
 _atom_site_type_symbol
 _atom_site_label
 _atom_site_symmetry_multiplicity
 _atom_site_fract_x
 _atom_site_fract_y
 _atom_site_fract_z
 _atom_site_occupancy
  Sr  Sr0  1  0.770320  0.487250  0.331032  1
  Sr  Sr1  1  0.729425  0.987117  0.830891  1
  Sr  Sr2  1  0.229509  0.512614  0.668993  1
  Sr  Sr3  1  0.270694  0.012805  0.169156  1
  Sr  Sr4  1  0.769815  0.985245  0.368147  1
  Sr  Sr5  1  0.730103  0.485040  0.868048  1
  Sr  Sr6  1  0.229991  0.014856  0.631748  1
  Sr  Sr7  1  0.269955  0.515003  0.132145  1
  Er  Er8  1  0.756743  0.269552  0.621451  1
  Er  Er9  1  0.743080  0.769697  0.121154  1
  Er  Er10  1  0.243096  0.730357  0.378831  1
  Tm  Tm11  1  0.257368  0.230558  0.878560  1
  Ga  Ga12  1  0.719902  0.741627  0.579122  1
  Ga  Ga13  1  0.780588  0.241558  0.078898  1
  Ga  Ga14  1  0.280186  0.258478  0.420853  1
  Ga  Ga15  1  0.219853  0.758131  0.920597  1
  O  O16  1  0.786659  0.972038  0.627626  1
  O  O17  1  0.712922  0.471516  0.128076  1
  O  O18  1  0.213265  0.028200  0.372339  1
  O  O19  1  0.286715  0.527309  0.872130  1
  O  O20  1  0.717622  0.066287  0.176107  1
  O  O21  1  0.782100  0.565807  0.676012  1
  O  O22  1  0.282016  0.934612  0.823989  1
  O  O23  1  0.217749  0.434290  0.324090  1
  O  O24  1  0.537529  0.746951  0.274636  1
  O  O25  1  0.963254  0.246708  0.775204  1
  O  O26  1  0.461853  0.252906  0.725688  1
  O  O27  1  0.037376  0.753260  0.225468  1
  O  O28  1  0.593124  0.213765  0.959172  1
  O  O29  1  0.906444  0.713864  0.459633  1
  O  O30  1  0.406074  0.786303  0.040371  1
  O  O31  1  0.093320  0.286312  0.540399  1
  O  O32  1  0.090262  0.236200  0.043107  1
  O  O33  1  0.410911  0.735928  0.543412  1
  O  O34  1  0.910763  0.763898  0.956427  1
  O  O35  1  0.589416  0.263964  0.456490  1
