# generated using pymatgen
data_Y4ErZr3Rh4
_symmetry_space_group_name_H-M   'P 1'
_cell_length_a   4.62939900
_cell_length_b   7.11625237
_cell_length_c   8.39017150
_cell_angle_alpha   89.53941834
_cell_angle_beta   90.00000000
_cell_angle_gamma   90.00000000
_symmetry_Int_Tables_number   1
_chemical_formula_structural   Y4ErZr3Rh4
_chemical_formula_sum   'Y4 Er1 Zr3 Rh4'
_cell_volume   276.39664086
_cell_formula_units_Z   1
loop_
 _symmetry_equiv_pos_site_id
 _symmetry_equiv_pos_as_xyz
  1  'x, y, z'
loop_
 _atom_site_type_symbol
 _atom_site_label
 _atom_site_symmetry_multiplicity
 _atom_site_fract_x
 _atom_site_fract_y
 _atom_site_fract_z
 _atom_site_occupancy
  Y  Y0  1  0.750000  0.984066  0.318495  1
  Y  Y1  1  0.250000  0.009282  0.673636  1
  Y  Y2  1  0.250000  0.518830  0.830441  1
  Y  Y3  1  0.750000  0.482999  0.177644  1
  Er  Er4  1  0.750000  0.356804  0.580830  1
  Zr  Zr5  1  0.750000  0.854983  0.923263  1
  Zr  Zr6  1  0.250000  0.137722  0.074219  1
  Zr  Zr7  1  0.250000  0.645537  0.424696  1
  Rh  Rh8  1  0.750000  0.745203  0.588295  1
  Rh  Rh9  1  0.250000  0.268087  0.397122  1
  Rh  Rh10  1  0.250000  0.768951  0.089796  1
  Rh  Rh11  1  0.750000  0.227538  0.921562  1
