# generated using pymatgen
data_LiFeCo4As3
_symmetry_space_group_name_H-M   'P 1'
_cell_length_a   3.65257200
_cell_length_b   10.49964500
_cell_length_c   12.17812800
_cell_angle_alpha   90.00000000
_cell_angle_beta   90.00000000
_cell_angle_gamma   90.00000000
_symmetry_Int_Tables_number   1
_chemical_formula_structural   LiFeCo4As3
_chemical_formula_sum   'Li4 Fe4 Co16 As12'
_cell_volume   467.03984720
_cell_formula_units_Z   4
loop_
 _symmetry_equiv_pos_site_id
 _symmetry_equiv_pos_as_xyz
  1  'x, y, z'
loop_
 _atom_site_type_symbol
 _atom_site_label
 _atom_site_symmetry_multiplicity
 _atom_site_fract_x
 _atom_site_fract_y
 _atom_site_fract_z
 _atom_site_occupancy
  Li  Li0  1  0.250000  0.578097  0.703146  1
  Li  Li1  1  0.250000  0.921903  0.203146  1
  Li  Li2  1  0.750000  0.421903  0.296854  1
  Li  Li3  1  0.750000  0.078097  0.796854  1
  Fe  Fe4  1  0.250000  0.710302  0.987087  1
  Fe  Fe5  1  0.250000  0.789698  0.487087  1
  Fe  Fe6  1  0.750000  0.289698  0.012913  1
  Fe  Fe7  1  0.750000  0.210302  0.512913  1
  Co  Co8  1  0.250000  0.407810  0.488830  1
  Co  Co9  1  0.250000  0.092190  0.988830  1
  Co  Co10  1  0.750000  0.592190  0.511170  1
  Co  Co11  1  0.750000  0.907810  0.011170  1
  Co  Co12  1  0.250000  0.214855  0.176624  1
  Co  Co13  1  0.250000  0.285145  0.676624  1
  Co  Co14  1  0.750000  0.785145  0.823376  1
  Co  Co15  1  0.750000  0.714855  0.323376  1
  Co  Co16  1  0.250000  0.879967  0.696355  1
  Co  Co17  1  0.250000  0.620033  0.196355  1
  Co  Co18  1  0.750000  0.120033  0.303645  1
  Co  Co19  1  0.750000  0.379967  0.803645  1
  Co  Co20  1  0.250000  0.463210  0.934386  1
  Co  Co21  1  0.250000  0.036790  0.434386  1
  Co  Co22  1  0.750000  0.536790  0.065614  1
  Co  Co23  1  0.750000  0.963210  0.565614  1
  As  As24  1  0.250000  0.417941  0.120382  1
  As  As25  1  0.250000  0.082059  0.620382  1
  As  As26  1  0.750000  0.582059  0.879618  1
  As  As27  1  0.750000  0.917941  0.379618  1
  As  As28  1  0.250000  0.257926  0.865812  1
  As  As29  1  0.250000  0.242074  0.365812  1
  As  As30  1  0.750000  0.742074  0.134188  1
  As  As31  1  0.750000  0.757926  0.634188  1
  As  As32  1  0.250000  0.592380  0.385942  1
  As  As33  1  0.250000  0.907620  0.885942  1
  As  As34  1  0.750000  0.407620  0.614058  1
  As  As35  1  0.750000  0.092380  0.114058  1
