# generated using pymatgen
data_Tb2ZnP6Ir11Rh
_symmetry_space_group_name_H-M   'P 1'
_cell_length_a   3.94805948
_cell_length_b   9.65000856
_cell_length_c   9.71002616
_cell_angle_alpha   120.01430038
_cell_angle_beta   90.05185044
_cell_angle_gamma   90.04135014
_symmetry_Int_Tables_number   1
_chemical_formula_structural   Tb2ZnP6Ir11Rh
_chemical_formula_sum   'Tb2 Zn1 P6 Ir11 Rh1'
_cell_volume   320.33119976
_cell_formula_units_Z   1
loop_
 _symmetry_equiv_pos_site_id
 _symmetry_equiv_pos_as_xyz
  1  'x, y, z'
loop_
 _atom_site_type_symbol
 _atom_site_label
 _atom_site_symmetry_multiplicity
 _atom_site_fract_x
 _atom_site_fract_y
 _atom_site_fract_z
 _atom_site_occupancy
  Tb  Tb0  1  0.248093  0.667565  0.334213  1
  Tb  Tb1  1  0.752146  0.333019  0.666452  1
  Zn  Zn2  1  0.499970  0.000261  0.999559  1
  P  P3  1  0.747694  0.879095  0.595742  1
  P  P4  1  0.747540  0.403885  0.281951  1
  P  P5  1  0.746911  0.719504  0.121909  1
  P  P6  1  0.252708  0.120315  0.403804  1
  P  P7  1  0.251916  0.596782  0.718158  1
  P  P8  1  0.253348  0.279990  0.879154  1
  Ir  Ir9  1  0.755425  0.124378  0.838596  1
  Ir  Ir10  1  0.755250  0.159301  0.283283  1
  Ir  Ir11  1  0.755760  0.713681  0.874662  1
  Ir  Ir12  1  0.244774  0.875469  0.160016  1
  Ir  Ir13  1  0.244950  0.840180  0.716184  1
  Ir  Ir14  1  0.243434  0.287333  0.126826  1
  Ir  Ir15  1  0.749153  0.611901  0.542435  1
  Ir  Ir16  1  0.748947  0.457513  0.068374  1
  Ir  Ir17  1  0.749108  0.934148  0.388966  1
  Ir  Ir18  1  0.251032  0.387619  0.458221  1
  Ir  Ir19  1  0.250939  0.541653  0.930332  1
  Rh  Rh20  1  0.250902  0.066407  0.611164  1
