# generated using pymatgen
data_Nd8Zn8AgIr6Rh
_symmetry_space_group_name_H-M   'P 1'
_cell_length_a   4.05306600
_cell_length_b   7.33882585
_cell_length_c   16.74148305
_cell_angle_alpha   90.08363803
_cell_angle_beta   90.00000000
_cell_angle_gamma   90.00000000
_symmetry_Int_Tables_number   1
_chemical_formula_structural   Nd8Zn8AgIr6Rh
_chemical_formula_sum   'Nd8 Zn8 Ag1 Ir6 Rh1'
_cell_volume   497.97062258
_cell_formula_units_Z   1
loop_
 _symmetry_equiv_pos_site_id
 _symmetry_equiv_pos_as_xyz
  1  'x, y, z'
loop_
 _atom_site_type_symbol
 _atom_site_label
 _atom_site_symmetry_multiplicity
 _atom_site_fract_x
 _atom_site_fract_y
 _atom_site_fract_z
 _atom_site_occupancy
  Nd  Nd0  1  0.250000  0.168620  0.939529  1
  Nd  Nd1  1  0.250000  0.662493  0.571446  1
  Nd  Nd2  1  0.750000  0.324415  0.440517  1
  Nd  Nd3  1  0.750000  0.961042  0.274995  1
  Nd  Nd4  1  0.750000  0.831540  0.059971  1
  Nd  Nd5  1  0.750000  0.447074  0.212043  1
  Nd  Nd6  1  0.250000  0.053234  0.717774  1
  Nd  Nd7  1  0.250000  0.548915  0.787718  1
  Zn  Zn8  1  0.750000  0.009045  0.567722  1
  Zn  Zn9  1  0.250000  0.612295  0.339032  1
  Zn  Zn10  1  0.750000  0.378751  0.653829  1
  Zn  Zn11  1  0.250000  0.498069  0.059413  1
  Zn  Zn12  1  0.750000  0.500333  0.940419  1
  Zn  Zn13  1  0.250000  0.007863  0.439589  1
  Zn  Zn14  1  0.250000  0.120953  0.146305  1
  Zn  Zn15  1  0.750000  0.878326  0.849477  1
  Ag  Ag16  1  0.750000  0.756149  0.433200  1
  Ir  Ir17  1  0.250000  0.244023  0.315127  1
  Ir  Ir18  1  0.750000  0.252969  0.814411  1
  Ir  Ir19  1  0.750000  0.756231  0.686880  1
  Ir  Ir20  1  0.250000  0.244212  0.565319  1
  Ir  Ir21  1  0.250000  0.744801  0.186774  1
  Ir  Ir22  1  0.750000  0.255635  0.063478  1
  Rh  Rh23  1  0.250000  0.743012  0.935034  1
