# generated using pymatgen
data_TbEr2TiAl11Ru4
_symmetry_space_group_name_H-M   'P 1'
_cell_length_a   8.84568800
_cell_length_b   8.83927665
_cell_length_c   9.52930103
_cell_angle_alpha   89.99277025
_cell_angle_beta   90.00000000
_cell_angle_gamma   120.02398896
_symmetry_Int_Tables_number   1
_chemical_formula_structural   TbEr2TiAl11Ru4
_chemical_formula_sum   'Tb2 Er4 Ti2 Al22 Ru8'
_cell_volume   645.11179888
_cell_formula_units_Z   2
loop_
 _symmetry_equiv_pos_site_id
 _symmetry_equiv_pos_as_xyz
  1  'x, y, z'
loop_
 _atom_site_type_symbol
 _atom_site_label
 _atom_site_symmetry_multiplicity
 _atom_site_fract_x
 _atom_site_fract_y
 _atom_site_fract_z
 _atom_site_occupancy
  Tb  Tb0  1  0.194055  0.388112  0.250770  1
  Tb  Tb1  1  0.805945  0.611888  0.749230  1
  Er  Er2  1  0.611240  0.805685  0.250612  1
  Er  Er3  1  0.388760  0.194315  0.749388  1
  Er  Er4  1  0.194443  0.805685  0.250612  1
  Er  Er5  1  0.805557  0.194315  0.749388  1
  Ti  Ti6  1  0.333432  0.666864  0.997299  1
  Ti  Ti7  1  0.666568  0.333136  0.002701  1
  Al  Al8  1  0.666526  0.333051  0.517595  1
  Al  Al9  1  0.333474  0.666949  0.482405  1
  Al  Al10  1  0.161429  0.322859  0.577813  1
  Al  Al11  1  0.838571  0.677141  0.422187  1
  Al  Al12  1  0.677085  0.838768  0.577488  1
  Al  Al13  1  0.840809  0.681618  0.077862  1
  Al  Al14  1  0.322915  0.161232  0.422512  1
  Al  Al15  1  0.159191  0.318382  0.922138  1
  Al  Al16  1  0.161683  0.838768  0.577488  1
  Al  Al17  1  0.318483  0.159060  0.077517  1
  Al  Al18  1  0.838317  0.161232  0.422512  1
  Al  Al19  1  0.681517  0.840940  0.922483  1
  Al  Al20  1  0.840578  0.159060  0.077517  1
  Al  Al21  1  0.159422  0.840940  0.922483  1
  Al  Al22  1  0.560686  0.121373  0.252060  1
  Al  Al23  1  0.439314  0.878627  0.747940  1
  Al  Al24  1  0.878183  0.439338  0.252070  1
  Al  Al25  1  0.121817  0.560662  0.747930  1
  Al  Al26  1  0.561156  0.439338  0.252070  1
  Al  Al27  1  0.438844  0.560662  0.747930  1
  Al  Al28  1  0.999749  0.999499  0.250484  1
  Al  Al29  1  0.000251  0.000501  0.749516  1
  Ru  Ru30  1  0.500000  0.000000  0.000000  1
  Ru  Ru31  1  0.000000  0.500000  0.000000  1
  Ru  Ru32  1  0.500000  0.000000  0.500000  1
  Ru  Ru33  1  0.500000  0.500000  0.000000  1
  Ru  Ru34  1  0.000000  0.500000  0.500000  1
  Ru  Ru35  1  0.500000  0.500000  0.500000  1
  Ru  Ru36  1  0.000000  0.000000  0.000000  1
  Ru  Ru37  1  0.000000  0.000000  0.500000  1
