# generated using pymatgen
data_CePr2Nd3(CI5)2
_symmetry_space_group_name_H-M   'P 1'
_cell_length_a   7.98059299
_cell_length_b   9.77553312
_cell_length_c   9.86860714
_cell_angle_alpha   107.07658512
_cell_angle_beta   96.91815459
_cell_angle_gamma   104.50813806
_symmetry_Int_Tables_number   1
_chemical_formula_structural   CePr2Nd3(CI5)2
_chemical_formula_sum   'Ce1 Pr2 Nd3 C2 I10'
_cell_volume   696.65089495
_cell_formula_units_Z   1
loop_
 _symmetry_equiv_pos_site_id
 _symmetry_equiv_pos_as_xyz
  1  'x, y, z'
loop_
 _atom_site_type_symbol
 _atom_site_label
 _atom_site_symmetry_multiplicity
 _atom_site_fract_x
 _atom_site_fract_y
 _atom_site_fract_z
 _atom_site_occupancy
  Ce  Ce0  1  0.624610  0.864801  0.817456  1
  Pr  Pr1  1  0.108073  0.040788  0.776728  1
  Pr  Pr2  1  0.374613  0.134360  0.181201  1
  Nd  Nd3  1  0.892578  0.959239  0.222047  1
  Nd  Nd4  1  0.032406  0.736798  0.924657  1
  Nd  Nd5  1  0.968464  0.263265  0.075679  1
  C  C6  1  0.910327  0.969019  0.958214  1
  C  C7  1  0.084800  0.029011  0.040763  1
  I  I8  1  0.189075  0.732204  0.645376  1
  I  I9  1  0.087388  0.371018  0.822503  1
  I  I10  1  0.457176  0.808679  0.093360  1
  I  I11  1  0.252236  0.084447  0.461344  1
  I  I12  1  0.544794  0.193304  0.909140  1
  I  I13  1  0.813113  0.265985  0.354886  1
  I  I14  1  0.342369  0.457140  0.273789  1
  I  I15  1  0.913357  0.631663  0.179050  1
  I  I16  1  0.658500  0.543083  0.726877  1
  I  I17  1  0.746123  0.915196  0.536931  1
