# generated using pymatgen
data_Zr6Zn15SiAu8
_symmetry_space_group_name_H-M   'P 1'
_cell_length_a   8.94037933
_cell_length_b   8.94037910
_cell_length_c   8.94037900
_cell_angle_alpha   60.00000407
_cell_angle_beta   60.00000491
_cell_angle_gamma   59.99999816
_symmetry_Int_Tables_number   1
_chemical_formula_structural   Zr6Zn15SiAu8
_chemical_formula_sum   'Zr6 Zn15 Si1 Au8'
_cell_volume   505.30411580
_cell_formula_units_Z   1
loop_
 _symmetry_equiv_pos_site_id
 _symmetry_equiv_pos_as_xyz
  1  'x, y, z'
loop_
 _atom_site_type_symbol
 _atom_site_label
 _atom_site_symmetry_multiplicity
 _atom_site_fract_x
 _atom_site_fract_y
 _atom_site_fract_z
 _atom_site_occupancy
  Zr  Zr0  1  0.710499  0.289501  0.289501  1
  Zr  Zr1  1  0.289501  0.710499  0.710499  1
  Zr  Zr2  1  0.289501  0.710499  0.289501  1
  Zr  Zr3  1  0.710499  0.289501  0.710499  1
  Zr  Zr4  1  0.289501  0.289501  0.710499  1
  Zr  Zr5  1  0.710499  0.710499  0.289501  1
  Zn  Zn6  1  0.500000  0.000000  0.000000  1
  Zn  Zn7  1  0.000000  0.500000  0.500000  1
  Zn  Zn8  1  0.000000  0.500000  0.000000  1
  Zn  Zn9  1  0.500000  0.000000  0.500000  1
  Zn  Zn10  1  0.000000  0.000000  0.500000  1
  Zn  Zn11  1  0.500000  0.500000  0.000000  1
  Zn  Zn12  1  0.336744  0.336744  0.336744  1
  Zn  Zn13  1  0.663256  0.663256  0.663256  1
  Zn  Zn14  1  0.336744  0.336744  0.989768  1
  Zn  Zn15  1  0.336744  0.989768  0.336744  1
  Zn  Zn16  1  0.663256  0.663256  0.010232  1
  Zn  Zn17  1  0.663256  0.010232  0.663256  1
  Zn  Zn18  1  0.989768  0.336744  0.336744  1
  Zn  Zn19  1  0.010232  0.663256  0.663256  1
  Zn  Zn20  1  0.000000  0.000000  0.000000  1
  Si  Si21  1  0.500000  0.500000  0.500000  1
  Au  Au22  1  0.122101  0.122101  0.122101  1
  Au  Au23  1  0.877899  0.877899  0.877899  1
  Au  Au24  1  0.122101  0.122101  0.633697  1
  Au  Au25  1  0.122101  0.633697  0.122101  1
  Au  Au26  1  0.877899  0.877899  0.366303  1
  Au  Au27  1  0.877899  0.366303  0.877899  1
  Au  Au28  1  0.633697  0.122101  0.122101  1
  Au  Au29  1  0.366303  0.877899  0.877899  1
