# generated using pymatgen
data_Tb6SiBBr6
_symmetry_space_group_name_H-M   'P 1'
_cell_length_a   10.03816966
_cell_length_b   10.03816974
_cell_length_c   9.90151414
_cell_angle_alpha   109.44227564
_cell_angle_beta   109.44228202
_cell_angle_gamma   110.08101945
_symmetry_Int_Tables_number   1
_chemical_formula_structural   Tb6SiBBr6
_chemical_formula_sum   'Tb12 Si2 B2 Br12'
_cell_volume   762.74875587
_cell_formula_units_Z   2
loop_
 _symmetry_equiv_pos_site_id
 _symmetry_equiv_pos_as_xyz
  1  'x, y, z'
loop_
 _atom_site_type_symbol
 _atom_site_label
 _atom_site_symmetry_multiplicity
 _atom_site_fract_x
 _atom_site_fract_y
 _atom_site_fract_z
 _atom_site_occupancy
  Tb  Tb0  1  0.260080  0.010080  0.020161  1
  Tb  Tb1  1  0.032310  0.273579  0.004953  1
  Tb  Tb2  1  0.472644  0.731373  0.004953  1
  Tb  Tb3  1  0.769884  0.241966  0.277841  1
  Tb  Tb4  1  0.007957  0.035875  0.277841  1
  Tb  Tb5  1  0.021925  0.478075  0.750000  1
  Tb  Tb6  1  0.228075  0.271925  0.750000  1
  Tb  Tb7  1  0.258034  0.730116  0.222159  1
  Tb  Tb8  1  0.226421  0.467690  0.495047  1
  Tb  Tb9  1  0.464125  0.492043  0.222159  1
  Tb  Tb10  1  0.768627  0.027356  0.495047  1
  Tb  Tb11  1  0.489920  0.239920  0.479839  1
  Si  Si12  1  0.500591  0.999409  0.250000  1
  Si  Si13  1  0.249409  0.250591  0.250000  1
  B  B14  1  0.000143  0.250143  0.500285  1
  B  B15  1  0.249857  0.499857  0.999715  1
  Br  Br16  1  0.756371  0.743629  0.250000  1
  Br  Br17  1  0.504711  0.250831  0.993964  1
  Br  Br18  1  0.249169  0.995289  0.506036  1
  Br  Br19  1  0.513030  0.507020  0.758134  1
  Br  Br20  1  0.992980  0.986970  0.741866  1
  Br  Br21  1  0.745339  0.995339  0.990678  1
  Br  Br22  1  0.504661  0.754661  0.509322  1
  Br  Br23  1  0.756868  0.510746  0.506036  1
  Br  Br24  1  0.993629  0.506371  0.250000  1
  Br  Br25  1  0.989254  0.743132  0.993964  1
  Br  Br26  1  0.248886  0.754897  0.741866  1
  Br  Br27  1  0.745103  0.251114  0.758134  1
