# generated using pymatgen
data_Y2Sc3SnSb3
_symmetry_space_group_name_H-M   'P 1'
_cell_length_a   7.84941100
_cell_length_b   7.83597800
_cell_length_c   14.63803100
_cell_angle_alpha   90.00000000
_cell_angle_beta   90.00000000
_cell_angle_gamma   90.00308298
_symmetry_Int_Tables_number   1
_chemical_formula_structural   Y2Sc3SnSb3
_chemical_formula_sum   'Y8 Sc12 Sn4 Sb12'
_cell_volume   900.35325681
_cell_formula_units_Z   4
loop_
 _symmetry_equiv_pos_site_id
 _symmetry_equiv_pos_as_xyz
  1  'x, y, z'
loop_
 _atom_site_type_symbol
 _atom_site_label
 _atom_site_symmetry_multiplicity
 _atom_site_fract_x
 _atom_site_fract_y
 _atom_site_fract_z
 _atom_site_occupancy
  Y  Y0  1  0.523416  0.319837  0.905312  1
  Y  Y1  1  0.023428  0.180157  0.594676  1
  Y  Y2  1  0.476584  0.680163  0.405312  1
  Y  Y3  1  0.976572  0.819843  0.094676  1
  Y  Y4  1  0.476584  0.680163  0.094688  1
  Y  Y5  1  0.976572  0.819843  0.405324  1
  Y  Y6  1  0.523416  0.319837  0.594688  1
  Y  Y7  1  0.023428  0.180157  0.905324  1
  Sc  Sc8  1  0.356257  0.845762  0.874414  1
  Sc  Sc9  1  0.856272  0.654236  0.625589  1
  Sc  Sc10  1  0.643743  0.154238  0.374414  1
  Sc  Sc11  1  0.143728  0.345764  0.125589  1
  Sc  Sc12  1  0.643743  0.154238  0.125586  1
  Sc  Sc13  1  0.143728  0.345764  0.374411  1
  Sc  Sc14  1  0.356257  0.845762  0.625586  1
  Sc  Sc15  1  0.856272  0.654236  0.874411  1
  Sc  Sc16  1  0.185025  0.500365  0.750000  1
  Sc  Sc17  1  0.685049  0.999639  0.750000  1
  Sc  Sc18  1  0.814975  0.499635  0.250000  1
  Sc  Sc19  1  0.314951  0.000361  0.250000  1
  Sn  Sn20  1  0.333588  0.152451  0.750000  1
  Sn  Sn21  1  0.833597  0.347540  0.750000  1
  Sn  Sn22  1  0.666412  0.847549  0.250000  1
  Sn  Sn23  1  0.166403  0.652460  0.250000  1
  Sb  Sb24  1  0.295598  0.042801  0.045250  1
  Sb  Sb25  1  0.795595  0.457193  0.454747  1
  Sb  Sb26  1  0.704402  0.957199  0.545250  1
  Sb  Sb27  1  0.204405  0.542807  0.954747  1
  Sb  Sb28  1  0.704402  0.957199  0.954750  1
  Sb  Sb29  1  0.204405  0.542807  0.545253  1
  Sb  Sb30  1  0.295598  0.042801  0.454750  1
  Sb  Sb31  1  0.795595  0.457193  0.045253  1
  Sb  Sb32  1  0.552567  0.629523  0.750000  1
  Sb  Sb33  1  0.052564  0.870484  0.750000  1
  Sb  Sb34  1  0.447433  0.370477  0.250000  1
  Sb  Sb35  1  0.947436  0.129516  0.250000  1
