# generated using pymatgen
data_YZn10Ag
_symmetry_space_group_name_H-M   'P 1'
_cell_length_a   8.26180092
_cell_length_b   8.26180098
_cell_length_c   8.26180051
_cell_angle_alpha   100.03185491
_cell_angle_beta   100.03184335
_cell_angle_gamma   130.66300423
_symmetry_Int_Tables_number   1
_chemical_formula_structural   YZn10Ag
_chemical_formula_sum   'Y2 Zn20 Ag2'
_cell_volume   388.73172471
_cell_formula_units_Z   2
loop_
 _symmetry_equiv_pos_site_id
 _symmetry_equiv_pos_as_xyz
  1  'x, y, z'
loop_
 _atom_site_type_symbol
 _atom_site_label
 _atom_site_symmetry_multiplicity
 _atom_site_fract_x
 _atom_site_fract_y
 _atom_site_fract_z
 _atom_site_occupancy
  Y  Y0  1  0.000000  0.000000  0.000000  1
  Y  Y1  1  0.250000  0.750000  0.500000  1
  Zn  Zn2  1  0.125000  0.375000  0.750000  1
  Zn  Zn3  1  0.625000  0.875000  0.250000  1
  Zn  Zn4  1  0.625000  0.375000  0.750000  1
  Zn  Zn5  1  0.625000  0.375000  0.250000  1
  Zn  Zn6  1  0.179994  0.507965  0.086139  1
  Zn  Zn7  1  0.179994  0.093855  0.672029  1
  Zn  Zn8  1  0.757965  0.929994  0.586139  1
  Zn  Zn9  1  0.757965  0.171826  0.827971  1
  Zn  Zn10  1  0.421826  0.507965  0.327971  1
  Zn  Zn11  1  0.421826  0.093855  0.913861  1
  Zn  Zn12  1  0.343855  0.929994  0.172029  1
  Zn  Zn13  1  0.343855  0.171826  0.413861  1
  Zn  Zn14  1  0.070006  0.242035  0.413861  1
  Zn  Zn15  1  0.070006  0.656145  0.827971  1
  Zn  Zn16  1  0.492035  0.820006  0.913861  1
  Zn  Zn17  1  0.492035  0.578174  0.672029  1
  Zn  Zn18  1  0.828174  0.242035  0.172029  1
  Zn  Zn19  1  0.828174  0.656145  0.586139  1
  Zn  Zn20  1  0.906145  0.820006  0.327971  1
  Zn  Zn21  1  0.906145  0.578174  0.086139  1
  Ag  Ag22  1  0.750000  0.250000  0.500000  1
  Ag  Ag23  1  0.500000  0.500000  0.000000  1
