# generated using pymatgen
data_CaLu2ThS4
_symmetry_space_group_name_H-M   'P 1'
_cell_length_a   13.18303738
_cell_length_b   13.18303717
_cell_length_c   13.18303800
_cell_angle_alpha   16.84864424
_cell_angle_beta   16.84864726
_cell_angle_gamma   16.84864621
_symmetry_Int_Tables_number   1
_chemical_formula_structural   CaLu2ThS4
_chemical_formula_sum   'Ca1 Lu2 Th1 S4'
_cell_volume   167.89011408
_cell_formula_units_Z   1
loop_
 _symmetry_equiv_pos_site_id
 _symmetry_equiv_pos_as_xyz
  1  'x, y, z'
loop_
 _atom_site_type_symbol
 _atom_site_label
 _atom_site_symmetry_multiplicity
 _atom_site_fract_x
 _atom_site_fract_y
 _atom_site_fract_z
 _atom_site_occupancy
  Ca  Ca0  1  0.500000  0.500000  0.500000  1
  Lu  Lu1  1  0.250715  0.250715  0.250715  1
  Lu  Lu2  1  0.749285  0.749285  0.749285  1
  Th  Th3  1  0.000000  0.000000  0.000000  1
  S  S4  1  0.379512  0.379512  0.379512  1
  S  S5  1  0.123559  0.123559  0.123559  1
  S  S6  1  0.620488  0.620488  0.620488  1
  S  S7  1  0.876441  0.876441  0.876441  1
