# generated using pymatgen
data_Y3Ho(In2Pd3)4
_symmetry_space_group_name_H-M   'P 1'
_cell_length_a   4.64124900
_cell_length_b   9.79998001
_cell_length_c   10.37217201
_cell_angle_alpha   90.00475485
_cell_angle_beta   90.00000000
_cell_angle_gamma   90.00000000
_symmetry_Int_Tables_number   1
_chemical_formula_structural   Y3Ho(In2Pd3)4
_chemical_formula_sum   'Y3 Ho1 In8 Pd12'
_cell_volume   471.76939903
_cell_formula_units_Z   1
loop_
 _symmetry_equiv_pos_site_id
 _symmetry_equiv_pos_as_xyz
  1  'x, y, z'
loop_
 _atom_site_type_symbol
 _atom_site_label
 _atom_site_symmetry_multiplicity
 _atom_site_fract_x
 _atom_site_fract_y
 _atom_site_fract_z
 _atom_site_occupancy
  Y  Y0  1  0.250000  0.054363  0.224655  1
  Y  Y1  1  0.750000  0.554379  0.275294  1
  Y  Y2  1  0.750000  0.945619  0.775340  1
  Ho  Ho3  1  0.250000  0.445642  0.724077  1
  In  In4  1  0.250000  0.886327  0.513574  1
  In  In5  1  0.250000  0.613656  0.013470  1
  In  In6  1  0.750000  0.113667  0.486435  1
  In  In7  1  0.750000  0.386309  0.986403  1
  In  In8  1  0.250000  0.162716  0.893636  1
  In  In9  1  0.250000  0.337426  0.393742  1
  In  In10  1  0.750000  0.837434  0.106271  1
  In  In11  1  0.750000  0.662521  0.606328  1
  Pd  Pd12  1  0.250000  0.144518  0.623859  1
  Pd  Pd13  1  0.250000  0.355814  0.123813  1
  Pd  Pd14  1  0.750000  0.855826  0.376212  1
  Pd  Pd15  1  0.750000  0.643959  0.876065  1
  Pd  Pd16  1  0.250000  0.743506  0.740685  1
  Pd  Pd17  1  0.250000  0.755861  0.240750  1
  Pd  Pd18  1  0.750000  0.255890  0.259323  1
  Pd  Pd19  1  0.750000  0.244668  0.759262  1
  Pd  Pd20  1  0.250000  0.896049  0.973409  1
  Pd  Pd21  1  0.250000  0.603685  0.473787  1
  Pd  Pd22  1  0.750000  0.103999  0.026568  1
  Pd  Pd23  1  0.750000  0.396167  0.527043  1
