# generated using pymatgen
data_La5Nd3(CdNi)2
_symmetry_space_group_name_H-M   'P 1'
_cell_length_a   9.97049429
_cell_length_b   9.97049337
_cell_length_c   9.97049600
_cell_angle_alpha   60.00000456
_cell_angle_beta   60.00000758
_cell_angle_gamma   60.00000203
_symmetry_Int_Tables_number   1
_chemical_formula_structural   La5Nd3(CdNi)2
_chemical_formula_sum   'La10 Nd6 Cd4 Ni4'
_cell_volume   700.86625530
_cell_formula_units_Z   2
loop_
 _symmetry_equiv_pos_site_id
 _symmetry_equiv_pos_as_xyz
  1  'x, y, z'
loop_
 _atom_site_type_symbol
 _atom_site_label
 _atom_site_symmetry_multiplicity
 _atom_site_fract_x
 _atom_site_fract_y
 _atom_site_fract_z
 _atom_site_occupancy
  La  La0  1  0.597124  0.597124  0.597124  1
  La  La1  1  0.597124  0.597124  0.208628  1
  La  La2  1  0.597124  0.208628  0.597124  1
  La  La3  1  0.208628  0.597124  0.597124  1
  La  La4  1  0.057003  0.442997  0.442997  1
  La  La5  1  0.442997  0.057003  0.057003  1
  La  La6  1  0.442997  0.057003  0.442997  1
  La  La7  1  0.057003  0.442997  0.057003  1
  La  La8  1  0.442997  0.442997  0.057003  1
  La  La9  1  0.057003  0.057003  0.442997  1
  Nd  Nd10  1  0.185099  0.814901  0.814901  1
  Nd  Nd11  1  0.814901  0.185099  0.185099  1
  Nd  Nd12  1  0.814901  0.185099  0.814901  1
  Nd  Nd13  1  0.185099  0.814901  0.185099  1
  Nd  Nd14  1  0.814901  0.814901  0.185099  1
  Nd  Nd15  1  0.185099  0.185099  0.814901  1
  Cd  Cd16  1  0.830290  0.830290  0.830290  1
  Cd  Cd17  1  0.830290  0.830290  0.509131  1
  Cd  Cd18  1  0.830290  0.509131  0.830290  1
  Cd  Cd19  1  0.509131  0.830290  0.830290  1
  Ni  Ni20  1  0.391624  0.391624  0.391624  1
  Ni  Ni21  1  0.391624  0.391624  0.825127  1
  Ni  Ni22  1  0.391624  0.825127  0.391624  1
  Ni  Ni23  1  0.825127  0.391624  0.391624  1
