# generated using pymatgen
data_Zr2V2Ni10P7
_symmetry_space_group_name_H-M   'P 1'
_cell_length_a   9.04533915
_cell_length_b   9.04673005
_cell_length_c   3.60463100
_cell_angle_alpha   90.00000000
_cell_angle_beta   90.00000000
_cell_angle_gamma   120.01494841
_symmetry_Int_Tables_number   1
_chemical_formula_structural   Zr2V2Ni10P7
_chemical_formula_sum   'Zr2 V2 Ni10 P7'
_cell_volume   255.41270341
_cell_formula_units_Z   1
loop_
 _symmetry_equiv_pos_site_id
 _symmetry_equiv_pos_as_xyz
  1  'x, y, z'
loop_
 _atom_site_type_symbol
 _atom_site_label
 _atom_site_symmetry_multiplicity
 _atom_site_fract_x
 _atom_site_fract_y
 _atom_site_fract_z
 _atom_site_occupancy
  Zr  Zr0  1  0.998176  0.002224  0.000000  1
  Zr  Zr1  1  0.333327  0.666218  0.500000  1
  V  V2  1  0.884914  0.455662  0.500000  1
  V  V3  1  0.546011  0.429547  0.500000  1
  Ni  Ni4  1  0.292452  0.394168  0.000000  1
  Ni  Ni5  1  0.101172  0.707728  0.000000  1
  Ni  Ni6  1  0.384651  0.171554  0.000000  1
  Ni  Ni7  1  0.792496  0.621322  0.000000  1
  Ni  Ni8  1  0.823761  0.210251  0.000000  1
  Ni  Ni9  1  0.231640  0.947204  0.500000  1
  Ni  Ni10  1  0.053664  0.281199  0.500000  1
  Ni  Ni11  1  0.718103  0.773247  0.500000  1
  Ni  Ni12  1  0.570425  0.107753  0.500000  1
  Ni  Ni13  1  0.602629  0.895288  0.000000  1
  P  P14  1  0.665537  0.333471  0.000000  1
  P  P15  1  0.079281  0.452977  0.000000  1
  P  P16  1  0.256981  0.213718  0.500000  1
  P  P17  1  0.785898  0.045097  0.500000  1
  P  P18  1  0.957613  0.744800  0.500000  1
  P  P19  1  0.547586  0.625978  0.000000  1
  P  P20  1  0.373681  0.920595  0.000000  1
