# generated using pymatgen
data_TbLu4ZrFeTe2
_symmetry_space_group_name_H-M   'P 1'
_cell_length_a   8.08764926
_cell_length_b   8.23662915
_cell_length_c   3.89896900
_cell_angle_alpha   90.00000000
_cell_angle_beta   90.00000000
_cell_angle_gamma   120.61125201
_symmetry_Int_Tables_number   1
_chemical_formula_structural   TbLu4ZrFeTe2
_chemical_formula_sum   'Tb1 Lu4 Zr1 Fe1 Te2'
_cell_volume   223.53429424
_cell_formula_units_Z   1
loop_
 _symmetry_equiv_pos_site_id
 _symmetry_equiv_pos_as_xyz
  1  'x, y, z'
loop_
 _atom_site_type_symbol
 _atom_site_label
 _atom_site_symmetry_multiplicity
 _atom_site_fract_x
 _atom_site_fract_y
 _atom_site_fract_z
 _atom_site_occupancy
  Tb  Tb0  1  0.000000  0.591098  0.000000  1
  Lu  Lu1  1  0.771368  0.766814  0.500000  1
  Lu  Lu2  1  0.228632  0.995446  0.500000  1
  Lu  Lu3  1  0.620820  0.002939  0.000000  1
  Lu  Lu4  1  0.379180  0.382118  0.000000  1
  Zr  Zr5  1  0.000000  0.232735  0.500000  1
  Fe  Fe6  1  0.000000  0.036126  0.000000  1
  Te  Te7  1  0.663497  0.328112  0.500000  1
  Te  Te8  1  0.336503  0.664615  0.500000  1
