# generated using pymatgen
data_Er4Th(In2Ni)2
_symmetry_space_group_name_H-M   'P 1'
_cell_length_a   3.61457500
_cell_length_b   7.98367375
_cell_length_c   17.96464573
_cell_angle_alpha   90.27293672
_cell_angle_beta   90.00000000
_cell_angle_gamma   90.00000000
_symmetry_Int_Tables_number   1
_chemical_formula_structural   Er4Th(In2Ni)2
_chemical_formula_sum   'Er8 Th2 In8 Ni4'
_cell_volume   518.41045521
_cell_formula_units_Z   2
loop_
 _symmetry_equiv_pos_site_id
 _symmetry_equiv_pos_as_xyz
  1  'x, y, z'
loop_
 _atom_site_type_symbol
 _atom_site_label
 _atom_site_symmetry_multiplicity
 _atom_site_fract_x
 _atom_site_fract_y
 _atom_site_fract_z
 _atom_site_occupancy
  Er  Er0  1  0.000000  0.500000  0.500000  1
  Er  Er1  1  0.000000  0.000000  0.000000  1
  Er  Er2  1  0.000000  0.755228  0.778488  1
  Er  Er3  1  0.000000  0.244772  0.221512  1
  Er  Er4  1  0.000000  0.614958  0.086950  1
  Er  Er5  1  0.000000  0.385042  0.913050  1
  Er  Er6  1  0.000000  0.884601  0.587600  1
  Er  Er7  1  0.000000  0.115399  0.412400  1
  Th  Th8  1  0.000000  0.745083  0.277286  1
  Th  Th9  1  0.000000  0.254917  0.722714  1
  In  In10  1  0.500000  0.707069  0.931905  1
  In  In11  1  0.500000  0.292931  0.068095  1
  In  In12  1  0.500000  0.795838  0.436699  1
  In  In13  1  0.500000  0.204162  0.563301  1
  In  In14  1  0.500000  0.582840  0.650179  1
  In  In15  1  0.500000  0.417160  0.349821  1
  In  In16  1  0.500000  0.936274  0.146868  1
  In  In17  1  0.500000  0.063726  0.853132  1
  Ni  Ni18  1  0.500000  0.530907  0.197670  1
  Ni  Ni19  1  0.500000  0.469093  0.802330  1
  Ni  Ni20  1  0.500000  0.979013  0.697255  1
  Ni  Ni21  1  0.500000  0.020987  0.302745  1
