# generated using pymatgen
data_Gd2HoTm5(WO6)4
_symmetry_space_group_name_H-M   'P 1'
_cell_length_a   5.37951300
_cell_length_b   7.67607528
_cell_length_c   11.42016553
_cell_angle_alpha   75.39700801
_cell_angle_beta   90.00000000
_cell_angle_gamma   90.00000000
_symmetry_Int_Tables_number   1
_chemical_formula_structural   Gd2HoTm5(WO6)4
_chemical_formula_sum   'Gd2 Ho1 Tm5 W4 O24'
_cell_volume   456.34524955
_cell_formula_units_Z   1
loop_
 _symmetry_equiv_pos_site_id
 _symmetry_equiv_pos_as_xyz
  1  'x, y, z'
loop_
 _atom_site_type_symbol
 _atom_site_label
 _atom_site_symmetry_multiplicity
 _atom_site_fract_x
 _atom_site_fract_y
 _atom_site_fract_z
 _atom_site_occupancy
  Gd  Gd0  1  0.684322  0.500000  0.750000  1
  Gd  Gd1  1  0.315002  0.500000  0.250000  1
  Ho  Ho2  1  0.741830  0.000000  0.750000  1
  Tm  Tm3  1  0.258841  0.000000  0.250000  1
  Tm  Tm4  1  0.184974  0.795921  0.577605  1
  Tm  Tm5  1  0.815547  0.795952  0.078286  1
  Tm  Tm6  1  0.184974  0.204079  0.922395  1
  Tm  Tm7  1  0.815547  0.204048  0.421714  1
  W  W8  1  0.254714  0.725217  0.885455  1
  W  W9  1  0.745043  0.726435  0.384784  1
  W  W10  1  0.254714  0.274783  0.614545  1
  W  W11  1  0.745043  0.273565  0.115216  1
  O  O12  1  0.043459  0.941627  0.896889  1
  O  O13  1  0.536687  0.845357  0.931750  1
  O  O14  1  0.958716  0.942196  0.395408  1
  O  O15  1  0.456089  0.793488  0.725968  1
  O  O16  1  0.463056  0.847255  0.430652  1
  O  O17  1  0.982588  0.715513  0.769740  1
  O  O18  1  0.542182  0.795166  0.225760  1
  O  O19  1  0.853809  0.638529  0.547813  1
  O  O20  1  0.354583  0.489078  0.887301  1
  O  O21  1  0.017577  0.716468  0.269216  1
  O  O22  1  0.354583  0.510922  0.612699  1
  O  O23  1  0.853809  0.361471  0.952187  1
  O  O24  1  0.145057  0.636874  0.048206  1
  O  O25  1  0.645921  0.490096  0.386459  1
  O  O26  1  0.982588  0.284487  0.730260  1
  O  O27  1  0.645921  0.509904  0.113541  1
  O  O28  1  0.145057  0.363126  0.451794  1
  O  O29  1  0.456089  0.206512  0.774032  1
  O  O30  1  0.017577  0.283532  0.230784  1
  O  O31  1  0.536687  0.154643  0.568250  1
  O  O32  1  0.542182  0.204834  0.274240  1
  O  O33  1  0.043459  0.058373  0.603111  1
  O  O34  1  0.463056  0.152745  0.069348  1
  O  O35  1  0.958716  0.057804  0.104592  1
