# generated using pymatgen
data_Tb3Nd2Y(RuO7)2
_symmetry_space_group_name_H-M   'P 1'
_cell_length_a   6.47352001
_cell_length_b   6.47831196
_cell_length_c   7.51982600
_cell_angle_alpha   89.99988771
_cell_angle_beta   89.99984415
_cell_angle_gamma   110.35501768
_symmetry_Int_Tables_number   1
_chemical_formula_structural   Tb3Nd2Y(RuO7)2
_chemical_formula_sum   'Tb3 Nd2 Y1 Ru2 O14'
_cell_volume   295.66986636
_cell_formula_units_Z   1
loop_
 _symmetry_equiv_pos_site_id
 _symmetry_equiv_pos_as_xyz
  1  'x, y, z'
loop_
 _atom_site_type_symbol
 _atom_site_label
 _atom_site_symmetry_multiplicity
 _atom_site_fract_x
 _atom_site_fract_y
 _atom_site_fract_z
 _atom_site_occupancy
  Tb  Tb0  1  0.926509  0.479763  0.749999  1
  Tb  Tb1  1  0.479828  0.926593  0.749999  1
  Tb  Tb2  1  0.073479  0.520270  0.250000  1
  Nd  Nd3  1  0.000043  0.000039  0.500033  1
  Nd  Nd4  1  0.000044  0.000040  0.999966  1
  Y  Y5  1  0.519917  0.072329  0.250001  1
  Ru  Ru6  1  0.500057  0.500050  0.499926  1
  Ru  Ru7  1  0.500056  0.500049  0.000076  1
  O  O8  1  0.440247  0.182554  0.537327  1
  O  O9  1  0.817631  0.560052  0.462407  1
  O  O10  1  0.440249  0.182553  0.962672  1
  O  O11  1  0.817632  0.560052  0.037592  1
  O  O12  1  0.559955  0.817506  0.462431  1
  O  O13  1  0.182425  0.440061  0.537571  1
  O  O14  1  0.559955  0.817507  0.037569  1
  O  O15  1  0.182425  0.440062  0.962428  1
  O  O16  1  0.162538  0.886189  0.249999  1
  O  O17  1  0.114322  0.838259  0.750000  1
  O  O18  1  0.838332  0.114429  0.750001  1
  O  O19  1  0.884354  0.161745  0.250001  1
  O  O20  1  0.411759  0.411660  0.250003  1
  O  O21  1  0.588243  0.588238  0.750000  1
