# generated using pymatgen
data_MgIn4Fe(SeO3)8
_symmetry_space_group_name_H-M   'P 1'
_cell_length_a   4.89720684
_cell_length_b   8.81282947
_cell_length_c   15.58818153
_cell_angle_alpha   69.49411600
_cell_angle_beta   89.82183401
_cell_angle_gamma   89.80288598
_symmetry_Int_Tables_number   1
_chemical_formula_structural   MgIn4Fe(SeO3)8
_chemical_formula_sum   'Mg1 In4 Fe1 Se8 O24'
_cell_volume   630.12505484
_cell_formula_units_Z   1
loop_
 _symmetry_equiv_pos_site_id
 _symmetry_equiv_pos_as_xyz
  1  'x, y, z'
loop_
 _atom_site_type_symbol
 _atom_site_label
 _atom_site_symmetry_multiplicity
 _atom_site_fract_x
 _atom_site_fract_y
 _atom_site_fract_z
 _atom_site_occupancy
  Mg  Mg0  1  0.500000  0.000000  0.500000  1
  In  In1  1  0.535712  0.152874  0.787224  1
  In  In2  1  0.965592  0.152093  0.287558  1
  In  In3  1  0.464288  0.847126  0.212776  1
  In  In4  1  0.034408  0.847907  0.712442  1
  Fe  Fe5  1  0.000000  0.000000  0.000000  1
  Se  Se6  1  0.573883  0.781347  0.889801  1
  Se  Se7  1  0.923416  0.782109  0.390181  1
  Se  Se8  1  0.426117  0.218653  0.110199  1
  Se  Se9  1  0.076584  0.217891  0.609819  1
  Se  Se10  1  0.002669  0.344054  0.870814  1
  Se  Se11  1  0.496545  0.338280  0.373300  1
  Se  Se12  1  0.997331  0.655946  0.129186  1
  Se  Se13  1  0.503455  0.661720  0.626700  1
  O  O14  1  0.768065  0.356439  0.785816  1
  O  O15  1  0.730481  0.354833  0.286993  1
  O  O16  1  0.231935  0.643561  0.214184  1
  O  O17  1  0.269519  0.645167  0.713007  1
  O  O18  1  0.827749  0.711810  0.837172  1
  O  O19  1  0.672427  0.712470  0.337390  1
  O  O20  1  0.172251  0.288190  0.162828  1
  O  O21  1  0.327573  0.287530  0.662610  1
  O  O22  1  0.205957  0.173478  0.876031  1
  O  O23  1  0.294844  0.168449  0.377503  1
  O  O24  1  0.794043  0.826522  0.123969  1
  O  O25  1  0.705156  0.831551  0.622497  1
  O  O26  1  0.713897  0.952884  0.905298  1
  O  O27  1  0.784222  0.953456  0.405894  1
  O  O28  1  0.286103  0.047116  0.094702  1
  O  O29  1  0.215778  0.046544  0.594106  1
  O  O30  1  0.371777  0.905201  0.798550  1
  O  O31  1  0.127537  0.905243  0.298828  1
  O  O32  1  0.628223  0.094799  0.201450  1
  O  O33  1  0.872463  0.094757  0.701172  1
  O  O34  1  0.835191  0.238915  0.970010  1
  O  O35  1  0.666170  0.231087  0.471344  1
  O  O36  1  0.164809  0.761085  0.029990  1
  O  O37  1  0.333830  0.768913  0.528656  1
