# generated using pymatgen
data_Ho7Tm(SiPt)8
_symmetry_space_group_name_H-M   'P 1'
_cell_length_a   4.27156400
_cell_length_b   7.45112120
_cell_length_c   14.00403000
_cell_angle_alpha   89.98678935
_cell_angle_beta   90.00016096
_cell_angle_gamma   90.00059213
_symmetry_Int_Tables_number   1
_chemical_formula_structural   Ho7Tm(SiPt)8
_chemical_formula_sum   'Ho7 Tm1 Si8 Pt8'
_cell_volume   445.71942972
_cell_formula_units_Z   1
loop_
 _symmetry_equiv_pos_site_id
 _symmetry_equiv_pos_as_xyz
  1  'x, y, z'
loop_
 _atom_site_type_symbol
 _atom_site_label
 _atom_site_symmetry_multiplicity
 _atom_site_fract_x
 _atom_site_fract_y
 _atom_site_fract_z
 _atom_site_occupancy
  Ho  Ho0  1  0.000010  0.300647  0.999769  1
  Ho  Ho1  1  0.499991  0.699628  0.500268  1
  Ho  Ho2  1  0.999993  0.294665  0.500154  1
  Ho  Ho3  1  0.500005  0.705455  0.999788  1
  Ho  Ho4  1  0.000007  0.204043  0.249397  1
  Ho  Ho5  1  0.499997  0.795777  0.250642  1
  Ho  Ho6  1  0.000000  0.203595  0.750587  1
  Tm  Tm7  1  0.500002  0.795375  0.749362  1
  Si  Si8  1  0.999997  0.906498  0.592625  1
  Si  Si9  1  0.499999  0.093136  0.907517  1
  Si  Si10  1  0.999998  0.906728  0.408066  1
  Si  Si11  1  0.500002  0.093298  0.091958  1
  Si  Si12  1  0.000000  0.593432  0.148085  1
  Si  Si13  1  0.500001  0.406508  0.351985  1
  Si  Si14  1  0.000001  0.594247  0.851426  1
  Si  Si15  1  0.500000  0.406529  0.648091  1
  Pt  Pt16  1  0.500004  0.075274  0.609068  1
  Pt  Pt17  1  0.999987  0.923087  0.890965  1
  Pt  Pt18  1  0.500003  0.076383  0.391862  1
  Pt  Pt19  1  0.999996  0.923667  0.108136  1
  Pt  Pt20  1  0.500025  0.419955  0.153886  1
  Pt  Pt21  1  0.999976  0.579969  0.345999  1
  Pt  Pt22  1  0.500018  0.420828  0.845544  1
  Pt  Pt23  1  0.999986  0.581273  0.654822  1
