# generated using pymatgen
data_Tb5InBi2Cl
_symmetry_space_group_name_H-M   'P 1'
_cell_length_a   9.26856700
_cell_length_b   9.26856895
_cell_length_c   6.56022400
_cell_angle_alpha   90.00000000
_cell_angle_beta   90.00000000
_cell_angle_gamma   119.49726044
_symmetry_Int_Tables_number   1
_chemical_formula_structural   Tb5InBi2Cl
_chemical_formula_sum   'Tb10 In2 Bi4 Cl2'
_cell_volume   490.51520176
_cell_formula_units_Z   2
loop_
 _symmetry_equiv_pos_site_id
 _symmetry_equiv_pos_as_xyz
  1  'x, y, z'
loop_
 _atom_site_type_symbol
 _atom_site_label
 _atom_site_symmetry_multiplicity
 _atom_site_fract_x
 _atom_site_fract_y
 _atom_site_fract_z
 _atom_site_occupancy
  Tb  Tb0  1  0.263459  0.004925  0.250000  1
  Tb  Tb1  1  0.736541  0.995075  0.750000  1
  Tb  Tb2  1  0.004925  0.263459  0.250000  1
  Tb  Tb3  1  0.995075  0.736541  0.750000  1
  Tb  Tb4  1  0.733968  0.733968  0.250000  1
  Tb  Tb5  1  0.266032  0.266032  0.750000  1
  Tb  Tb6  1  0.336583  0.663417  0.000000  1
  Tb  Tb7  1  0.663417  0.336583  0.000000  1
  Tb  Tb8  1  0.663417  0.336583  0.500000  1
  Tb  Tb9  1  0.336583  0.663417  0.500000  1
  In  In10  1  0.391130  0.391130  0.250000  1
  In  In11  1  0.608870  0.608870  0.750000  1
  Bi  Bi12  1  0.613558  0.001255  0.250000  1
  Bi  Bi13  1  0.386442  0.998745  0.750000  1
  Bi  Bi14  1  0.001255  0.613558  0.250000  1
  Bi  Bi15  1  0.998745  0.386442  0.750000  1
  Cl  Cl16  1  0.000000  0.000000  0.000000  1
  Cl  Cl17  1  0.000000  0.000000  0.500000  1
