# generated using pymatgen
data_Tb8Hf5Zr7Si15Ni
_symmetry_space_group_name_H-M   'P 1'
_cell_length_a   7.31382850
_cell_length_b   7.34323608
_cell_length_c   13.50005474
_cell_angle_alpha   90.20659053
_cell_angle_beta   89.79817833
_cell_angle_gamma   90.10493079
_symmetry_Int_Tables_number   1
_chemical_formula_structural   Tb8Hf5Zr7Si15Ni
_chemical_formula_sum   'Tb8 Hf5 Zr7 Si15 Ni1'
_cell_volume   725.03931530
_cell_formula_units_Z   1
loop_
 _symmetry_equiv_pos_site_id
 _symmetry_equiv_pos_as_xyz
  1  'x, y, z'
loop_
 _atom_site_type_symbol
 _atom_site_label
 _atom_site_symmetry_multiplicity
 _atom_site_fract_x
 _atom_site_fract_y
 _atom_site_fract_z
 _atom_site_occupancy
  Tb  Tb0  1  0.996690  0.348413  0.214438  1
  Tb  Tb1  1  0.004496  0.653069  0.713482  1
  Tb  Tb2  1  0.159011  0.492240  0.460908  1
  Tb  Tb3  1  0.504290  0.845125  0.035336  1
  Tb  Tb4  1  0.844399  0.503389  0.965407  1
  Tb  Tb5  1  0.496465  0.152529  0.537893  1
  Tb  Tb6  1  0.345634  0.996866  0.786562  1
  Tb  Tb7  1  0.655588  0.003738  0.284934  1
  Hf  Hf8  1  0.352452  0.495543  0.874883  1
  Hf  Hf9  1  0.492483  0.350233  0.129550  1
  Hf  Hf10  1  0.640176  0.499944  0.375977  1
  Hf  Hf11  1  0.996228  0.147350  0.625721  1
  Hf  Hf12  1  0.001855  0.851507  0.124367  1
  Zr  Zr13  1  0.175683  0.177488  0.999510  1
  Zr  Zr14  1  0.825593  0.822364  0.499501  1
  Zr  Zr15  1  0.324006  0.678631  0.249922  1
  Zr  Zr16  1  0.675468  0.324134  0.750223  1
  Zr  Zr17  1  0.152700  0.006198  0.374011  1
  Zr  Zr18  1  0.851772  0.003937  0.875701  1
  Zr  Zr19  1  0.503057  0.647675  0.624821  1
  Si  Si20  1  0.638563  0.705393  0.818067  1
  Si  Si21  1  0.204616  0.860534  0.565791  1
  Si  Si22  1  0.139185  0.794007  0.933497  1
  Si  Si23  1  0.794216  0.139198  0.067575  1
  Si  Si24  1  0.858705  0.202388  0.435890  1
  Si  Si25  1  0.294113  0.359856  0.684554  1
  Si  Si26  1  0.705709  0.640760  0.182805  1
  Si  Si27  1  0.290992  0.052948  0.185141  1
  Si  Si28  1  0.706660  0.948650  0.686587  1
  Si  Si29  1  0.448944  0.794299  0.436513  1
  Si  Si30  1  0.205963  0.552496  0.062548  1
  Si  Si31  1  0.549557  0.207089  0.937934  1
  Si  Si32  1  0.795953  0.447070  0.563146  1
  Si  Si33  1  0.051345  0.295704  0.813320  1
  Si  Si34  1  0.947061  0.707446  0.312660  1
  Ni  Ni35  1  0.370370  0.291790  0.310826  1
