# generated using pymatgen
data_CaPrCo4(B2Ru)4
_symmetry_space_group_name_H-M   'P 1'
_cell_length_a   7.25356604
_cell_length_b   7.25613805
_cell_length_c   3.91403200
_cell_angle_alpha   90.00000000
_cell_angle_beta   90.00000000
_cell_angle_gamma   90.01300722
_symmetry_Int_Tables_number   1
_chemical_formula_structural   CaPrCo4(B2Ru)4
_chemical_formula_sum   'Ca1 Pr1 Co4 B8 Ru4'
_cell_volume   206.00675783
_cell_formula_units_Z   1
loop_
 _symmetry_equiv_pos_site_id
 _symmetry_equiv_pos_as_xyz
  1  'x, y, z'
loop_
 _atom_site_type_symbol
 _atom_site_label
 _atom_site_symmetry_multiplicity
 _atom_site_fract_x
 _atom_site_fract_y
 _atom_site_fract_z
 _atom_site_occupancy
  Ca  Ca0  1  0.000000  0.000000  0.084507  1
  Pr  Pr1  1  0.500000  0.500000  0.580216  1
  Co  Co2  1  0.621321  0.116166  0.377341  1
  Co  Co3  1  0.378679  0.883834  0.377341  1
  Co  Co4  1  0.616647  0.879009  0.877967  1
  Co  Co5  1  0.383353  0.120991  0.877967  1
  B  B6  1  0.339028  0.821287  0.881873  1
  B  B7  1  0.660972  0.178713  0.881873  1
  B  B8  1  0.316133  0.157578  0.379778  1
  B  B9  1  0.683867  0.842422  0.379778  1
  B  B10  1  0.172313  0.729112  0.599016  1
  B  B11  1  0.827687  0.270888  0.599016  1
  B  B12  1  0.223606  0.325079  0.097957  1
  B  B13  1  0.776394  0.674921  0.097957  1
  Ru  Ru14  1  0.842928  0.387665  0.102183  1
  Ru  Ru15  1  0.157072  0.612335  0.102183  1
  Ru  Ru16  1  0.888924  0.658738  0.601522  1
  Ru  Ru17  1  0.111076  0.341262  0.601522  1
