# generated using pymatgen
data_Nd3Cd3Hg2Au
_symmetry_space_group_name_H-M   'P 1'
_cell_length_a   8.04197100
_cell_length_b   8.04197059
_cell_length_c   4.16344500
_cell_angle_alpha   90.00000000
_cell_angle_beta   90.00000000
_cell_angle_gamma   119.99999757
_symmetry_Int_Tables_number   1
_chemical_formula_structural   Nd3Cd3Hg2Au
_chemical_formula_sum   'Nd3 Cd3 Hg2 Au1'
_cell_volume   233.18921346
_cell_formula_units_Z   1
loop_
 _symmetry_equiv_pos_site_id
 _symmetry_equiv_pos_as_xyz
  1  'x, y, z'
loop_
 _atom_site_type_symbol
 _atom_site_label
 _atom_site_symmetry_multiplicity
 _atom_site_fract_x
 _atom_site_fract_y
 _atom_site_fract_z
 _atom_site_occupancy
  Nd  Nd0  1  0.597235  0.011993  0.000000  1
  Nd  Nd1  1  0.988007  0.585242  0.000000  1
  Nd  Nd2  1  0.414758  0.402765  0.000000  1
  Cd  Cd3  1  0.264844  0.003047  0.500000  1
  Cd  Cd4  1  0.996953  0.261797  0.500000  1
  Cd  Cd5  1  0.738203  0.735156  0.500000  1
  Hg  Hg6  1  0.333333  0.666667  0.500000  1
  Hg  Hg7  1  0.000000  0.000000  0.000000  1
  Au  Au8  1  0.666667  0.333333  0.500000  1
