# generated using pymatgen
data_V13Si2Ni
_symmetry_space_group_name_H-M   'P 1'
_cell_length_a   4.73174800
_cell_length_b   4.70384200
_cell_length_c   9.39853300
_cell_angle_alpha   90.00000000
_cell_angle_beta   90.00000000
_cell_angle_gamma   90.00000000
_symmetry_Int_Tables_number   1
_chemical_formula_structural   V13Si2Ni
_chemical_formula_sum   'V13 Si2 Ni1'
_cell_volume   209.18686117
_cell_formula_units_Z   1
loop_
 _symmetry_equiv_pos_site_id
 _symmetry_equiv_pos_as_xyz
  1  'x, y, z'
loop_
 _atom_site_type_symbol
 _atom_site_label
 _atom_site_symmetry_multiplicity
 _atom_site_fract_x
 _atom_site_fract_y
 _atom_site_fract_z
 _atom_site_occupancy
  V  V0  1  0.500000  0.500000  0.498190  1
  V  V1  1  0.500000  0.000000  0.621503  1
  V  V2  1  0.500000  0.000000  0.128826  1
  V  V3  1  0.751628  0.500000  0.248130  1
  V  V4  1  0.746792  0.500000  0.750415  1
  V  V5  1  0.000000  0.749055  0.500843  1
  V  V6  1  0.000000  0.748172  0.001162  1
  V  V7  1  0.500000  0.000000  0.369426  1
  V  V8  1  0.500000  0.000000  0.879676  1
  V  V9  1  0.248372  0.500000  0.248130  1
  V  V10  1  0.253208  0.500000  0.750415  1
  V  V11  1  0.000000  0.250945  0.500843  1
  V  V12  1  0.000000  0.251828  0.001162  1
  Si  Si13  1  0.500000  0.500000  0.999165  1
  Si  Si14  1  0.000000  0.000000  0.751150  1
  Ni  Ni15  1  0.000000  0.000000  0.250963  1
