# generated using pymatgen
data_ZrPa3Sn2Sb3
_symmetry_space_group_name_H-M   'P 1'
_cell_length_a   9.25058400
_cell_length_b   9.25058422
_cell_length_c   6.18607300
_cell_angle_alpha   90.00000000
_cell_angle_beta   90.00000000
_cell_angle_gamma   119.99999921
_symmetry_Int_Tables_number   1
_chemical_formula_structural   ZrPa3Sn2Sb3
_chemical_formula_sum   'Zr2 Pa6 Sn4 Sb6'
_cell_volume   458.44156717
_cell_formula_units_Z   2
loop_
 _symmetry_equiv_pos_site_id
 _symmetry_equiv_pos_as_xyz
  1  'x, y, z'
loop_
 _atom_site_type_symbol
 _atom_site_label
 _atom_site_symmetry_multiplicity
 _atom_site_fract_x
 _atom_site_fract_y
 _atom_site_fract_z
 _atom_site_occupancy
  Zr  Zr0  1  0.000000  0.000000  0.000000  1
  Zr  Zr1  1  0.000000  0.000000  0.500000  1
  Pa  Pa2  1  0.616676  0.000000  0.250000  1
  Pa  Pa3  1  0.383324  0.000000  0.750000  1
  Pa  Pa4  1  0.000000  0.616676  0.250000  1
  Pa  Pa5  1  0.000000  0.383324  0.750000  1
  Pa  Pa6  1  0.383324  0.383324  0.250000  1
  Pa  Pa7  1  0.616676  0.616676  0.750000  1
  Sn  Sn8  1  0.333333  0.666667  0.000000  1
  Sn  Sn9  1  0.666667  0.333333  0.000000  1
  Sn  Sn10  1  0.666667  0.333333  0.500000  1
  Sn  Sn11  1  0.333333  0.666667  0.500000  1
  Sb  Sb12  1  0.275880  0.000000  0.250000  1
  Sb  Sb13  1  0.724120  0.000000  0.750000  1
  Sb  Sb14  1  0.000000  0.275880  0.250000  1
  Sb  Sb15  1  0.000000  0.724120  0.750000  1
  Sb  Sb16  1  0.724120  0.724120  0.250000  1
  Sb  Sb17  1  0.275880  0.275880  0.750000  1
