# generated using pymatgen
data_Tb5P12Ru16Rh3
_symmetry_space_group_name_H-M   'P 1'
_cell_length_a   3.98050200
_cell_length_b   12.55132542
_cell_length_c   12.55011603
_cell_angle_alpha   120.00318364
_cell_angle_beta   90.00000000
_cell_angle_gamma   90.00000000
_symmetry_Int_Tables_number   1
_chemical_formula_structural   Tb5P12Ru16Rh3
_chemical_formula_sum   'Tb5 P12 Ru16 Rh3'
_cell_volume   542.99005528
_cell_formula_units_Z   1
loop_
 _symmetry_equiv_pos_site_id
 _symmetry_equiv_pos_as_xyz
  1  'x, y, z'
loop_
 _atom_site_type_symbol
 _atom_site_label
 _atom_site_symmetry_multiplicity
 _atom_site_fract_x
 _atom_site_fract_y
 _atom_site_fract_z
 _atom_site_occupancy
  Tb  Tb0  1  0.500000  0.999962  0.183215  1
  Tb  Tb1  1  0.500000  0.183094  0.000000  1
  Tb  Tb2  1  0.500000  0.816748  0.816785  1
  Tb  Tb3  1  0.000000  0.333319  0.666634  1
  Tb  Tb4  1  0.000000  0.666685  0.333366  1
  P  P5  1  0.000000  0.000095  0.814681  1
  P  P6  1  0.000000  0.814611  0.000000  1
  P  P7  1  0.000000  0.185413  0.185319  1
  P  P8  1  0.500000  0.303250  0.478337  1
  P  P9  1  0.500000  0.175042  0.696692  1
  P  P10  1  0.500000  0.521654  0.824933  1
  P  P11  1  0.500000  0.824913  0.521663  1
  P  P12  1  0.500000  0.478349  0.303308  1
  P  P13  1  0.500000  0.696722  0.175067  1
  P  P14  1  0.000000  0.000007  0.370330  1
  P  P15  1  0.000000  0.370364  0.000000  1
  P  P16  1  0.000000  0.629678  0.629670  1
  Ru  Ru17  1  0.500000  0.000003  0.714557  1
  Ru  Ru18  1  0.500000  0.714559  0.000000  1
  Ru  Ru19  1  0.500000  0.285446  0.285443  1
  Ru  Ru20  1  0.000000  0.192259  0.377490  1
  Ru  Ru21  1  0.000000  0.185294  0.807739  1
  Ru  Ru22  1  0.000000  0.622455  0.814718  1
  Ru  Ru23  1  0.000000  0.814769  0.622510  1
  Ru  Ru24  1  0.000000  0.377555  0.192261  1
  Ru  Ru25  1  0.000000  0.807737  0.185282  1
  Ru  Ru26  1  0.500000  0.124911  0.492515  1
  Ru  Ru27  1  0.500000  0.367626  0.875039  1
  Ru  Ru28  1  0.500000  0.507373  0.632335  1
  Ru  Ru29  1  0.500000  0.632396  0.507485  1
  Ru  Ru30  1  0.500000  0.492587  0.124961  1
  Ru  Ru31  1  0.500000  0.875038  0.367665  1
  Ru  Ru32  1  0.000000  0.999969  0.000000  1
  Rh  Rh33  1  0.000000  0.000011  0.553002  1
  Rh  Rh34  1  0.000000  0.552993  0.000000  1
  Rh  Rh35  1  0.000000  0.447009  0.446998  1
