# generated using pymatgen
data_LiMgZn3(BRh2)4
_symmetry_space_group_name_H-M   'P 1'
_cell_length_a   9.50482138
_cell_length_b   9.50482257
_cell_length_c   2.88674800
_cell_angle_alpha   90.00000000
_cell_angle_beta   90.00000000
_cell_angle_gamma   126.46987254
_symmetry_Int_Tables_number   1
_chemical_formula_structural   LiMgZn3(BRh2)4
_chemical_formula_sum   'Li1 Mg1 Zn3 B4 Rh8'
_cell_volume   209.72222499
_cell_formula_units_Z   1
loop_
 _symmetry_equiv_pos_site_id
 _symmetry_equiv_pos_as_xyz
  1  'x, y, z'
loop_
 _atom_site_type_symbol
 _atom_site_label
 _atom_site_symmetry_multiplicity
 _atom_site_fract_x
 _atom_site_fract_y
 _atom_site_fract_z
 _atom_site_occupancy
  Li  Li0  1  0.205163  0.794837  0.500000  1
  Mg  Mg1  1  0.795817  0.204183  0.500000  1
  Zn  Zn2  1  0.356440  0.354188  0.500000  1
  Zn  Zn3  1  0.999275  0.000725  0.500000  1
  Zn  Zn4  1  0.645812  0.643560  0.500000  1
  B  B5  1  0.459818  0.148755  0.500000  1
  B  B6  1  0.153540  0.467531  0.500000  1
  B  B7  1  0.532469  0.846460  0.500000  1
  B  B8  1  0.851245  0.540182  0.500000  1
  Rh  Rh9  1  0.627364  0.372636  0.000000  1
  Rh  Rh10  1  0.374536  0.625464  0.000000  1
  Rh  Rh11  1  0.917572  0.734130  0.000000  1
  Rh  Rh12  1  0.084949  0.269287  0.000000  1
  Rh  Rh13  1  0.497824  0.998407  0.000000  1
  Rh  Rh14  1  0.265870  0.082428  0.000000  1
  Rh  Rh15  1  0.730713  0.915051  0.000000  1
  Rh  Rh16  1  0.001593  0.502176  0.000000  1
