# generated using pymatgen
data_KAlGa2Se5
_symmetry_space_group_name_H-M   'P 1'
_cell_length_a   13.46078348
_cell_length_b   7.58996763
_cell_length_c   11.12022813
_cell_angle_alpha   75.97721014
_cell_angle_beta   90.05788558
_cell_angle_gamma   90.09731282
_symmetry_Int_Tables_number   1
_chemical_formula_structural   KAlGa2Se5
_chemical_formula_sum   'K4 Al4 Ga8 Se20'
_cell_volume   1102.26054417
_cell_formula_units_Z   4
loop_
 _symmetry_equiv_pos_site_id
 _symmetry_equiv_pos_as_xyz
  1  'x, y, z'
loop_
 _atom_site_type_symbol
 _atom_site_label
 _atom_site_symmetry_multiplicity
 _atom_site_fract_x
 _atom_site_fract_y
 _atom_site_fract_z
 _atom_site_occupancy
  K  K0  1  0.628803  0.835268  0.372088  1
  K  K1  1  0.127923  0.164674  0.128535  1
  K  K2  1  0.372149  0.165617  0.628262  1
  K  K3  1  0.871606  0.835477  0.871031  1
  Al  Al4  1  0.662641  0.293239  0.874682  1
  Al  Al5  1  0.897197  0.436782  0.692506  1
  Al  Al6  1  0.161581  0.708227  0.624180  1
  Al  Al7  1  0.838062  0.293253  0.375289  1
  Ga  Ga8  1  0.921167  0.800573  0.400500  1
  Ga  Ga9  1  0.578723  0.801264  0.899314  1
  Ga  Ga10  1  0.421915  0.198955  0.100339  1
  Ga  Ga11  1  0.395663  0.561328  0.806576  1
  Ga  Ga12  1  0.103949  0.560539  0.307216  1
  Ga  Ga13  1  0.337371  0.708204  0.125213  1
  Ga  Ga14  1  0.604913  0.437564  0.193176  1
  Ga  Ga15  1  0.078289  0.198622  0.600932  1
  Se  Se16  1  0.825528  0.715090  0.586031  1
  Se  Se17  1  0.105509  0.816231  0.410084  1
  Se  Se18  1  0.674837  0.720566  0.085029  1
  Se  Se19  1  0.394830  0.817123  0.908782  1
  Se  Se20  1  0.324936  0.279447  0.915476  1
  Se  Se21  1  0.664780  0.342090  0.402544  1
  Se  Se22  1  0.579417  0.574283  0.767145  1
  Se  Se23  1  0.606323  0.183474  0.088873  1
  Se  Se24  1  0.894074  0.185350  0.589883  1
  Se  Se25  1  0.630480  0.075999  0.754487  1
  Se  Se26  1  0.369090  0.926963  0.246918  1
  Se  Se27  1  0.174822  0.279504  0.415835  1
  Se  Se28  1  0.078330  0.426565  0.732709  1
  Se  Se29  1  0.920367  0.575094  0.267069  1
  Se  Se30  1  0.870270  0.075458  0.256045  1
  Se  Se31  1  0.129824  0.924317  0.745328  1
  Se  Se32  1  0.836386  0.345353  0.899058  1
  Se  Se33  1  0.334796  0.656918  0.597470  1
  Se  Se34  1  0.421327  0.423108  0.233751  1
  Se  Se35  1  0.162121  0.657479  0.097645  1
