# generated using pymatgen
data_Nd16CdHg3Ir3Pd
_symmetry_space_group_name_H-M   'P 1'
_cell_length_a   9.93656230
_cell_length_b   9.95169988
_cell_length_c   9.95169990
_cell_angle_alpha   60.24804990
_cell_angle_beta   60.27366166
_cell_angle_gamma   60.27367780
_symmetry_Int_Tables_number   1
_chemical_formula_structural   Nd16CdHg3Ir3Pd
_chemical_formula_sum   'Nd16 Cd1 Hg3 Ir3 Pd1'
_cell_volume   700.02583684
_cell_formula_units_Z   1
loop_
 _symmetry_equiv_pos_site_id
 _symmetry_equiv_pos_as_xyz
  1  'x, y, z'
loop_
 _atom_site_type_symbol
 _atom_site_label
 _atom_site_symmetry_multiplicity
 _atom_site_fract_x
 _atom_site_fract_y
 _atom_site_fract_z
 _atom_site_occupancy
  Nd  Nd0  1  0.347804  0.347636  0.347636  1
  Nd  Nd1  1  0.354458  0.354064  0.945551  1
  Nd  Nd2  1  0.354458  0.945551  0.354064  1
  Nd  Nd3  1  0.943951  0.354704  0.354704  1
  Nd  Nd4  1  0.803534  0.191546  0.191546  1
  Nd  Nd5  1  0.188731  0.809267  0.809267  1
  Nd  Nd6  1  0.190564  0.804252  0.191094  1
  Nd  Nd7  1  0.808398  0.189836  0.808536  1
  Nd  Nd8  1  0.190564  0.191094  0.804252  1
  Nd  Nd9  1  0.808398  0.808536  0.189836  1
  Nd  Nd10  1  0.939200  0.562498  0.562498  1
  Nd  Nd11  1  0.562353  0.938950  0.938950  1
  Nd  Nd12  1  0.561893  0.940693  0.562152  1
  Nd  Nd13  1  0.937907  0.562572  0.939351  1
  Nd  Nd14  1  0.561893  0.562152  0.940693  1
  Nd  Nd15  1  0.937907  0.939351  0.562572  1
  Cd  Cd16  1  0.259339  0.579833  0.579833  1
  Hg  Hg17  1  0.583043  0.584966  0.584966  1
  Hg  Hg18  1  0.582799  0.584851  0.247233  1
  Hg  Hg19  1  0.582799  0.247233  0.584851  1
  Ir  Ir20  1  0.141818  0.141981  0.573476  1
  Ir  Ir21  1  0.141818  0.573476  0.141981  1
  Ir  Ir22  1  0.573510  0.141914  0.141914  1
  Pd  Pd23  1  0.142858  0.143039  0.143039  1
