# generated using pymatgen
data_Hf2Zr4Ti4Al12Rh7
_symmetry_space_group_name_H-M   'P 1'
_cell_length_a   8.78489144
_cell_length_b   8.76424998
_cell_length_c   8.77149372
_cell_angle_alpha   60.13392579
_cell_angle_beta   59.94946118
_cell_angle_gamma   59.92205683
_symmetry_Int_Tables_number   1
_chemical_formula_structural   Hf2Zr4Ti4Al12Rh7
_chemical_formula_sum   'Hf2 Zr4 Ti4 Al12 Rh7'
_cell_volume   477.55573405
_cell_formula_units_Z   1
loop_
 _symmetry_equiv_pos_site_id
 _symmetry_equiv_pos_as_xyz
  1  'x, y, z'
loop_
 _atom_site_type_symbol
 _atom_site_label
 _atom_site_symmetry_multiplicity
 _atom_site_fract_x
 _atom_site_fract_y
 _atom_site_fract_z
 _atom_site_occupancy
  Hf  Hf0  1  0.689831  0.690068  0.309488  1
  Hf  Hf1  1  0.310613  0.690068  0.309488  1
  Zr  Zr2  1  0.688006  0.312886  0.311101  1
  Zr  Zr3  1  0.307546  0.308535  0.691837  1
  Zr  Zr4  1  0.692083  0.308535  0.691837  1
  Zr  Zr5  1  0.311972  0.688355  0.687702  1
  Ti  Ti6  1  0.880338  0.880428  0.358893  1
  Ti  Ti7  1  0.879907  0.359960  0.880223  1
  Ti  Ti8  1  0.359494  0.879914  0.880319  1
  Ti  Ti9  1  0.880271  0.879914  0.880319  1
  Al  Al10  1  0.120070  0.119967  0.639892  1
  Al  Al11  1  0.119441  0.640881  0.120238  1
  Al  Al12  1  0.640395  0.119293  0.120232  1
  Al  Al13  1  0.120080  0.119293  0.120232  1
  Al  Al14  1  0.663150  0.664132  0.009565  1
  Al  Al15  1  0.663767  0.008082  0.664382  1
  Al  Al16  1  0.008884  0.663760  0.663153  1
  Al  Al17  1  0.664201  0.663760  0.663153  1
  Al  Al18  1  0.335372  0.335473  0.993783  1
  Al  Al19  1  0.336042  0.992299  0.335617  1
  Al  Al20  1  0.992954  0.335889  0.335575  1
  Al  Al21  1  0.335582  0.335889  0.335575  1
  Rh  Rh22  1  0.999963  0.000777  0.999296  1
  Rh  Rh23  1  0.998818  0.997666  0.500823  1
  Rh  Rh24  1  0.502693  0.997666  0.500823  1
  Rh  Rh25  1  0.998366  0.503376  0.499893  1
  Rh  Rh26  1  0.501026  0.502844  0.998605  1
  Rh  Rh27  1  0.997525  0.502844  0.998605  1
  Rh  Rh28  1  0.501605  0.997442  0.999348  1
