# generated using pymatgen
data_ScFe(SiRu2)2
_symmetry_space_group_name_H-M   'P 1'
_cell_length_a   7.35012972
_cell_length_b   7.35012931
_cell_length_c   7.35012840
_cell_angle_alpha   33.66644981
_cell_angle_beta   33.66645436
_cell_angle_gamma   33.66646091
_symmetry_Int_Tables_number   1
_chemical_formula_structural   ScFe(SiRu2)2
_chemical_formula_sum   'Sc1 Fe1 Si2 Ru4'
_cell_volume   108.71397305
_cell_formula_units_Z   1
loop_
 _symmetry_equiv_pos_site_id
 _symmetry_equiv_pos_as_xyz
  1  'x, y, z'
loop_
 _atom_site_type_symbol
 _atom_site_label
 _atom_site_symmetry_multiplicity
 _atom_site_fract_x
 _atom_site_fract_y
 _atom_site_fract_z
 _atom_site_occupancy
  Sc  Sc0  1  0.000000  0.000000  0.000000  1
  Fe  Fe1  1  0.500000  0.500000  0.500000  1
  Si  Si2  1  0.250247  0.250247  0.250247  1
  Si  Si3  1  0.749753  0.749753  0.749753  1
  Ru  Ru4  1  0.620976  0.620976  0.620976  1
  Ru  Ru5  1  0.129395  0.129395  0.129395  1
  Ru  Ru6  1  0.870605  0.870605  0.870605  1
  Ru  Ru7  1  0.379024  0.379024  0.379024  1
