# generated using pymatgen
data_Gd3Er7Sn8
_symmetry_space_group_name_H-M   'P 1'
_cell_length_a   8.08502200
_cell_length_b   8.17339560
_cell_length_c   15.46167400
_cell_angle_alpha   90.06076999
_cell_angle_beta   90.00000000
_cell_angle_gamma   90.00000000
_symmetry_Int_Tables_number   1
_chemical_formula_structural   Gd3Er7Sn8
_chemical_formula_sum   'Gd6 Er14 Sn16'
_cell_volume   1021.73905327
_cell_formula_units_Z   2
loop_
 _symmetry_equiv_pos_site_id
 _symmetry_equiv_pos_as_xyz
  1  'x, y, z'
loop_
 _atom_site_type_symbol
 _atom_site_label
 _atom_site_symmetry_multiplicity
 _atom_site_fract_x
 _atom_site_fract_y
 _atom_site_fract_z
 _atom_site_occupancy
  Gd  Gd0  1  0.483104  0.679220  0.404862  1
  Gd  Gd1  1  0.983104  0.820780  0.095138  1
  Gd  Gd2  1  0.483137  0.677852  0.095264  1
  Gd  Gd3  1  0.983137  0.822148  0.404736  1
  Gd  Gd4  1  0.515830  0.321111  0.596000  1
  Gd  Gd5  1  0.015830  0.178889  0.904000  1
  Er  Er6  1  0.361669  0.837496  0.876486  1
  Er  Er7  1  0.861669  0.662504  0.623514  1
  Er  Er8  1  0.636934  0.161995  0.377401  1
  Er  Er9  1  0.136934  0.338005  0.122599  1
  Er  Er10  1  0.636672  0.162350  0.122741  1
  Er  Er11  1  0.136672  0.337650  0.377259  1
  Er  Er12  1  0.363532  0.838316  0.623835  1
  Er  Er13  1  0.863532  0.661684  0.876165  1
  Er  Er14  1  0.519800  0.321223  0.901932  1
  Er  Er15  1  0.019800  0.178777  0.598068  1
  Er  Er16  1  0.194614  0.502818  0.749766  1
  Er  Er17  1  0.694614  0.997182  0.750234  1
  Er  Er18  1  0.804976  0.496505  0.249751  1
  Er  Er19  1  0.304976  0.003495  0.250249  1
  Sn  Sn20  1  0.299726  0.040274  0.041546  1
  Sn  Sn21  1  0.799726  0.459726  0.458454  1
  Sn  Sn22  1  0.704081  0.964000  0.543160  1
  Sn  Sn23  1  0.204081  0.536000  0.956840  1
  Sn  Sn24  1  0.698934  0.960223  0.957755  1
  Sn  Sn25  1  0.198934  0.539777  0.542245  1
  Sn  Sn26  1  0.297011  0.040929  0.459690  1
  Sn  Sn27  1  0.797011  0.459071  0.040310  1
  Sn  Sn28  1  0.559761  0.619379  0.750432  1
  Sn  Sn29  1  0.059761  0.880621  0.749568  1
  Sn  Sn30  1  0.439848  0.379398  0.250227  1
  Sn  Sn31  1  0.939848  0.120602  0.249773  1
  Sn  Sn32  1  0.327333  0.148259  0.750800  1
  Sn  Sn33  1  0.827333  0.351741  0.749200  1
  Sn  Sn34  1  0.673036  0.852792  0.250014  1
  Sn  Sn35  1  0.173036  0.647208  0.249986  1
