# generated using pymatgen
data_Zr6Ga7Co16
_symmetry_space_group_name_H-M   'P 1'
_cell_length_a   8.24388721
_cell_length_b   8.24254332
_cell_length_c   8.24501485
_cell_angle_alpha   60.03266546
_cell_angle_beta   60.03804997
_cell_angle_gamma   60.02795244
_symmetry_Int_Tables_number   1
_chemical_formula_structural   Zr6Ga7Co16
_chemical_formula_sum   'Zr6 Ga7 Co16'
_cell_volume   396.45452170
_cell_formula_units_Z   1
loop_
 _symmetry_equiv_pos_site_id
 _symmetry_equiv_pos_as_xyz
  1  'x, y, z'
loop_
 _atom_site_type_symbol
 _atom_site_label
 _atom_site_symmetry_multiplicity
 _atom_site_fract_x
 _atom_site_fract_y
 _atom_site_fract_z
 _atom_site_occupancy
  Zr  Zr0  1  0.711495  0.711586  0.288368  1
  Zr  Zr1  1  0.288536  0.711601  0.288383  1
  Zr  Zr2  1  0.711556  0.288491  0.288427  1
  Zr  Zr3  1  0.288505  0.288414  0.711632  1
  Zr  Zr4  1  0.711464  0.288399  0.711617  1
  Zr  Zr5  1  0.288444  0.711509  0.711573  1
  Ga  Ga6  1  0.000000  0.000000  0.000000  1
  Ga  Ga7  1  0.000000  0.000000  0.500000  1
  Ga  Ga8  1  0.500000  0.000000  0.500000  1
  Ga  Ga9  1  0.000000  0.500000  0.500000  1
  Ga  Ga10  1  0.500000  0.500000  0.000000  1
  Ga  Ga11  1  0.000000  0.500000  0.000000  1
  Ga  Ga12  1  0.500000  0.000000  0.000000  1
  Co  Co13  1  0.877197  0.877177  0.368461  1
  Co  Co14  1  0.877183  0.368486  0.877179  1
  Co  Co15  1  0.368426  0.877191  0.877205  1
  Co  Co16  1  0.877174  0.877155  0.877166  1
  Co  Co17  1  0.122803  0.122823  0.631539  1
  Co  Co18  1  0.122817  0.631514  0.122821  1
  Co  Co19  1  0.631574  0.122809  0.122795  1
  Co  Co20  1  0.122826  0.122845  0.122834  1
  Co  Co21  1  0.674495  0.674607  0.976402  1
  Co  Co22  1  0.674506  0.976326  0.674659  1
  Co  Co23  1  0.976303  0.674590  0.674630  1
  Co  Co24  1  0.674511  0.674626  0.674665  1
  Co  Co25  1  0.325505  0.325393  0.023598  1
  Co  Co26  1  0.325494  0.023674  0.325341  1
  Co  Co27  1  0.023697  0.325410  0.325370  1
  Co  Co28  1  0.325489  0.325374  0.325335  1
