# generated using pymatgen
data_Tb3YCo15Si12Ni5
_symmetry_space_group_name_H-M   'P 1'
_cell_length_a   3.71696600
_cell_length_b   6.80945227
_cell_length_c   18.38605442
_cell_angle_alpha   89.95265079
_cell_angle_beta   90.00000000
_cell_angle_gamma   90.00000000
_symmetry_Int_Tables_number   1
_chemical_formula_structural   Tb3YCo15Si12Ni5
_chemical_formula_sum   'Tb3 Y1 Co15 Si12 Ni5'
_cell_volume   465.36011909
_cell_formula_units_Z   1
loop_
 _symmetry_equiv_pos_site_id
 _symmetry_equiv_pos_as_xyz
  1  'x, y, z'
loop_
 _atom_site_type_symbol
 _atom_site_label
 _atom_site_symmetry_multiplicity
 _atom_site_fract_x
 _atom_site_fract_y
 _atom_site_fract_z
 _atom_site_occupancy
  Tb  Tb0  1  0.250000  0.623494  0.643031  1
  Tb  Tb1  1  0.750000  0.376210  0.358939  1
  Tb  Tb2  1  0.750000  0.124686  0.858541  1
  Y  Y3  1  0.250000  0.872504  0.141032  1
  Co  Co4  1  0.250000  0.125735  0.994744  1
  Co  Co5  1  0.750000  0.378835  0.989619  1
  Co  Co6  1  0.750000  0.114336  0.489962  1
  Co  Co7  1  0.250000  0.622238  0.009717  1
  Co  Co8  1  0.250000  0.362146  0.111747  1
  Co  Co9  1  0.750000  0.637344  0.889728  1
  Co  Co10  1  0.750000  0.861535  0.385050  1
  Co  Co11  1  0.250000  0.143254  0.612951  1
  Co  Co12  1  0.250000  0.059220  0.294079  1
  Co  Co13  1  0.750000  0.939914  0.706532  1
  Co  Co14  1  0.750000  0.559020  0.204008  1
  Co  Co15  1  0.250000  0.440062  0.795347  1
  Co  Co16  1  0.250000  0.373693  0.493072  1
  Co  Co17  1  0.250000  0.818715  0.799011  1
  Co  Co18  1  0.250000  0.681639  0.296855  1
  Si  Si19  1  0.250000  0.849410  0.924133  1
  Si  Si20  1  0.750000  0.150486  0.073661  1
  Si  Si21  1  0.750000  0.349271  0.572075  1
  Si  Si22  1  0.250000  0.656444  0.422728  1
  Si  Si23  1  0.750000  0.633385  0.765554  1
  Si  Si24  1  0.250000  0.373359  0.237257  1
  Si  Si25  1  0.250000  0.406538  0.918544  1
  Si  Si26  1  0.750000  0.585414  0.082184  1
  Si  Si27  1  0.750000  0.918550  0.585919  1
  Si  Si28  1  0.250000  0.088342  0.417484  1
  Si  Si29  1  0.250000  0.126973  0.737886  1
  Si  Si30  1  0.750000  0.866270  0.262768  1
  Ni  Ni31  1  0.750000  0.636143  0.505693  1
  Ni  Ni32  1  0.750000  0.179373  0.200479  1
  Ni  Ni33  1  0.750000  0.320796  0.700832  1
  Ni  Ni34  1  0.250000  0.875987  0.512993  1
  Ni  Ni35  1  0.750000  0.868684  0.005843  1
