# generated using pymatgen
data_Tm8HfZr3Ga20
_symmetry_space_group_name_H-M   'P 1'
_cell_length_a   5.92705402
_cell_length_b   9.39472200
_cell_length_c   11.29434103
_cell_angle_alpha   90.00000000
_cell_angle_beta   90.00884088
_cell_angle_gamma   90.00000000
_symmetry_Int_Tables_number   1
_chemical_formula_structural   Tm8HfZr3Ga20
_chemical_formula_sum   'Tm8 Hf1 Zr3 Ga20'
_cell_volume   628.90306410
_cell_formula_units_Z   1
loop_
 _symmetry_equiv_pos_site_id
 _symmetry_equiv_pos_as_xyz
  1  'x, y, z'
loop_
 _atom_site_type_symbol
 _atom_site_label
 _atom_site_symmetry_multiplicity
 _atom_site_fract_x
 _atom_site_fract_y
 _atom_site_fract_z
 _atom_site_occupancy
  Tm  Tm0  1  0.886420  0.506262  0.352638  1
  Tm  Tm1  1  0.613915  0.993651  0.852580  1
  Tm  Tm2  1  0.114085  0.006626  0.647083  1
  Tm  Tm3  1  0.386076  0.493488  0.147538  1
  Tm  Tm4  1  0.114085  0.493374  0.647083  1
  Tm  Tm5  1  0.386076  0.006512  0.147538  1
  Tm  Tm6  1  0.886420  0.993738  0.352638  1
  Tm  Tm7  1  0.613915  0.506349  0.852580  1
  Hf  Hf8  1  0.357265  0.250000  0.426765  1
  Zr  Zr9  1  0.858409  0.750000  0.073069  1
  Zr  Zr10  1  0.641209  0.750000  0.573107  1
  Zr  Zr11  1  0.141400  0.250000  0.926825  1
  Ga  Ga12  1  0.874769  0.053188  0.089648  1
  Ga  Ga13  1  0.625084  0.446587  0.589384  1
  Ga  Ga14  1  0.125272  0.553253  0.910408  1
  Ga  Ga15  1  0.374823  0.947571  0.410530  1
  Ga  Ga16  1  0.125272  0.946747  0.910408  1
  Ga  Ga17  1  0.374823  0.552429  0.410530  1
  Ga  Ga18  1  0.874769  0.446812  0.089648  1
  Ga  Ga19  1  0.625084  0.053413  0.589384  1
  Ga  Ga20  1  0.160058  0.750000  0.254071  1
  Ga  Ga21  1  0.339890  0.750000  0.754091  1
  Ga  Ga22  1  0.839689  0.250000  0.745742  1
  Ga  Ga23  1  0.659132  0.250000  0.246445  1
  Ga  Ga24  1  0.392943  0.750000  0.001600  1
  Ga  Ga25  1  0.107319  0.750000  0.501561  1
  Ga  Ga26  1  0.607118  0.250000  0.998424  1
  Ga  Ga27  1  0.894086  0.250000  0.498336  1
  Ga  Ga28  1  0.607193  0.750000  0.292118  1
  Ga  Ga29  1  0.892787  0.750000  0.792001  1
  Ga  Ga30  1  0.392948  0.250000  0.707776  1
  Ga  Ga31  1  0.107664  0.250000  0.208452  1
