# generated using pymatgen
data_LiEu2HC3
_symmetry_space_group_name_H-M   'P 1'
_cell_length_a   6.99775700
_cell_length_b   6.99775700
_cell_length_c   3.91926900
_cell_angle_alpha   90.00000000
_cell_angle_beta   90.00000000
_cell_angle_gamma   90.00000000
_symmetry_Int_Tables_number   1
_chemical_formula_structural   LiEu2HC3
_chemical_formula_sum   'Li2 Eu4 H2 C6'
_cell_volume   191.92112783
_cell_formula_units_Z   2
loop_
 _symmetry_equiv_pos_site_id
 _symmetry_equiv_pos_as_xyz
  1  'x, y, z'
loop_
 _atom_site_type_symbol
 _atom_site_label
 _atom_site_symmetry_multiplicity
 _atom_site_fract_x
 _atom_site_fract_y
 _atom_site_fract_z
 _atom_site_occupancy
  Li  Li0  1  0.500000  0.500000  0.000000  1
  Li  Li1  1  0.000000  0.000000  0.000000  1
  Eu  Eu2  1  0.680848  0.180848  0.500000  1
  Eu  Eu3  1  0.319152  0.819152  0.500000  1
  Eu  Eu4  1  0.180848  0.319152  0.500000  1
  Eu  Eu5  1  0.819152  0.680848  0.500000  1
  H  H6  1  0.500000  0.500000  0.500000  1
  H  H7  1  0.000000  0.000000  0.500000  1
  C  C8  1  0.134947  0.634947  0.000000  1
  C  C9  1  0.865053  0.365053  0.000000  1
  C  C10  1  0.634947  0.865053  0.000000  1
  C  C11  1  0.365053  0.134947  0.000000  1
  C  C12  1  0.500000  0.000000  0.000000  1
  C  C13  1  0.000000  0.500000  0.000000  1
