# generated using pymatgen
data_La3Ho2P12Ru15Rh4
_symmetry_space_group_name_H-M   'P 1'
_cell_length_a   12.67333615
_cell_length_b   12.64590115
_cell_length_c   4.01188000
_cell_angle_alpha   90.00000000
_cell_angle_beta   90.00000000
_cell_angle_gamma   120.08133845
_symmetry_Int_Tables_number   1
_chemical_formula_structural   La3Ho2P12Ru15Rh4
_chemical_formula_sum   'La3 Ho2 P12 Ru15 Rh4'
_cell_volume   556.36879354
_cell_formula_units_Z   1
loop_
 _symmetry_equiv_pos_site_id
 _symmetry_equiv_pos_as_xyz
  1  'x, y, z'
loop_
 _atom_site_type_symbol
 _atom_site_label
 _atom_site_symmetry_multiplicity
 _atom_site_fract_x
 _atom_site_fract_y
 _atom_site_fract_z
 _atom_site_occupancy
  La  La0  1  0.000737  0.182227  0.500000  1
  La  La1  1  0.818011  0.815981  0.500000  1
  La  La2  1  0.182224  0.999669  0.500000  1
  Ho  Ho3  1  0.666525  0.332963  0.000000  1
  Ho  Ho4  1  0.333461  0.667054  0.000000  1
  P  P5  1  0.999933  0.807695  0.000000  1
  P  P6  1  0.191403  0.191552  0.000000  1
  P  P7  1  0.809004  0.996431  0.000000  1
  P  P8  1  0.693339  0.175845  0.500000  1
  P  P9  1  0.821105  0.518547  0.500000  1
  P  P10  1  0.479651  0.302907  0.500000  1
  P  P11  1  0.180215  0.699434  0.500000  1
  P  P12  1  0.519682  0.821205  0.500000  1
  P  P13  1  0.301598  0.481324  0.500000  1
  P  P14  1  0.003867  0.376027  0.000000  1
  P  P15  1  0.626556  0.626653  0.000000  1
  P  P16  1  0.373529  0.000523  0.000000  1
  Ru  Ru17  1  0.000164  0.708100  0.500000  1
  Ru  Ru18  1  0.290878  0.291946  0.500000  1
  Ru  Ru19  1  0.710267  0.001098  0.500000  1
  Ru  Ru20  1  0.813033  0.616452  0.000000  1
  Ru  Ru21  1  0.382072  0.196602  0.000000  1
  Ru  Ru22  1  0.187031  0.802918  0.000000  1
  Ru  Ru23  1  0.616727  0.814561  0.000000  1
  Ru  Ru24  1  0.197155  0.383621  0.000000  1
  Ru  Ru25  1  0.872235  0.366239  0.500000  1
  Ru  Ru26  1  0.630596  0.505371  0.500000  1
  Ru  Ru27  1  0.492960  0.126049  0.500000  1
  Ru  Ru28  1  0.371603  0.876388  0.500000  1
  Ru  Ru29  1  0.505359  0.630408  0.500000  1
  Ru  Ru30  1  0.123901  0.494895  0.500000  1
  Ru  Ru31  1  0.000042  0.999952  0.000000  1
  Rh  Rh32  1  0.996473  0.550756  0.000000  1
  Rh  Rh33  1  0.447246  0.447329  0.000000  1
  Rh  Rh34  1  0.555013  0.004645  0.000000  1
  Rh  Rh35  1  0.806404  0.186633  0.000000  1
