# generated using pymatgen
data_Dy6Er4Si5Bi
_symmetry_space_group_name_H-M   'P 1'
_cell_length_a   8.52223600
_cell_length_b   8.55912754
_cell_length_c   6.33370000
_cell_angle_alpha   90.00000000
_cell_angle_beta   90.00000000
_cell_angle_gamma   119.85752190
_symmetry_Int_Tables_number   1
_chemical_formula_structural   Dy6Er4Si5Bi
_chemical_formula_sum   'Dy6 Er4 Si5 Bi1'
_cell_volume   400.67560818
_cell_formula_units_Z   1
loop_
 _symmetry_equiv_pos_site_id
 _symmetry_equiv_pos_as_xyz
  1  'x, y, z'
loop_
 _atom_site_type_symbol
 _atom_site_label
 _atom_site_symmetry_multiplicity
 _atom_site_fract_x
 _atom_site_fract_y
 _atom_site_fract_z
 _atom_site_occupancy
  Dy  Dy0  1  0.984786  0.744315  0.750000  1
  Dy  Dy1  1  0.998324  0.243859  0.250000  1
  Dy  Dy2  1  0.754465  0.756141  0.250000  1
  Dy  Dy3  1  0.767340  0.000000  0.750000  1
  Dy  Dy4  1  0.240471  0.255685  0.750000  1
  Dy  Dy5  1  0.240824  0.000000  0.250000  1
  Er  Er6  1  0.676824  0.346126  0.004877  1
  Er  Er7  1  0.330697  0.653874  0.495123  1
  Er  Er8  1  0.330697  0.653874  0.004877  1
  Er  Er9  1  0.676824  0.346126  0.495123  1
  Si  Si10  1  0.393409  0.390880  0.250000  1
  Si  Si11  1  0.002529  0.609120  0.250000  1
  Si  Si12  1  0.998546  0.394639  0.750000  1
  Si  Si13  1  0.603907  0.605361  0.750000  1
  Si  Si14  1  0.606724  0.000000  0.250000  1
  Bi  Bi15  1  0.393629  0.000000  0.750000  1
