# generated using pymatgen
data_Y3Sn3IrRhAu
_symmetry_space_group_name_H-M   'P 1'
_cell_length_a   7.69580200
_cell_length_b   7.69580284
_cell_length_c   3.86165700
_cell_angle_alpha   90.00000000
_cell_angle_beta   90.00000000
_cell_angle_gamma   119.99999641
_symmetry_Int_Tables_number   1
_chemical_formula_structural   Y3Sn3IrRhAu
_chemical_formula_sum   'Y3 Sn3 Ir1 Rh1 Au1'
_cell_volume   198.06701745
_cell_formula_units_Z   1
loop_
 _symmetry_equiv_pos_site_id
 _symmetry_equiv_pos_as_xyz
  1  'x, y, z'
loop_
 _atom_site_type_symbol
 _atom_site_label
 _atom_site_symmetry_multiplicity
 _atom_site_fract_x
 _atom_site_fract_y
 _atom_site_fract_z
 _atom_site_occupancy
  Y  Y0  1  0.410604  0.016300  0.500000  1
  Y  Y1  1  0.983700  0.394304  0.500000  1
  Y  Y2  1  0.605696  0.589396  0.500000  1
  Sn  Sn3  1  0.743921  0.002964  0.000000  1
  Sn  Sn4  1  0.997036  0.740957  0.000000  1
  Sn  Sn5  1  0.259043  0.256079  0.000000  1
  Ir  Ir6  1  0.666667  0.333333  0.000000  1
  Rh  Rh7  1  0.000000  0.000000  0.500000  1
  Au  Au8  1  0.333333  0.666667  0.000000  1
