# generated using pymatgen
data_PmPtF8
_symmetry_space_group_name_H-M   'P 1'
_cell_length_a   4.63460440
_cell_length_b   4.61451075
_cell_length_c   7.49320160
_cell_angle_alpha   90.65795290
_cell_angle_beta   106.97003318
_cell_angle_gamma   101.46946503
_symmetry_Int_Tables_number   1
_chemical_formula_structural   PmPtF8
_chemical_formula_sum   'Pm1 Pt1 F8'
_cell_volume   149.80055523
_cell_formula_units_Z   1
loop_
 _symmetry_equiv_pos_site_id
 _symmetry_equiv_pos_as_xyz
  1  'x, y, z'
loop_
 _atom_site_type_symbol
 _atom_site_label
 _atom_site_symmetry_multiplicity
 _atom_site_fract_x
 _atom_site_fract_y
 _atom_site_fract_z
 _atom_site_occupancy
  Pm  Pm0  1  0.339923  0.576738  0.303401  1
  Pt  Pt1  1  0.676877  0.369898  0.857017  1
  F  F2  1  0.369278  0.019782  0.765043  1
  F  F3  1  0.985105  0.722612  0.965604  1
  F  F4  1  0.913104  0.250452  0.713553  1
  F  F5  1  0.402487  0.082718  0.327560  1
  F  F6  1  0.431905  0.494728  0.002292  1
  F  F7  1  0.473394  0.554953  0.631385  1
  F  F8  1  0.870959  0.632014  0.349947  1
  F  F9  1  0.888027  0.203183  0.083555  1
