# generated using pymatgen
data_Yb7Y9(HfIr3)4
_symmetry_space_group_name_H-M   'P 1'
_cell_length_a   6.26171857
_cell_length_b   10.87552956
_cell_length_c   10.85148575
_cell_angle_alpha   90.07612505
_cell_angle_beta   89.89759423
_cell_angle_gamma   90.01907497
_symmetry_Int_Tables_number   1
_chemical_formula_structural   Yb7Y9(HfIr3)4
_chemical_formula_sum   'Yb7 Y9 Hf4 Ir12'
_cell_volume   738.97893916
_cell_formula_units_Z   1
loop_
 _symmetry_equiv_pos_site_id
 _symmetry_equiv_pos_as_xyz
  1  'x, y, z'
loop_
 _atom_site_type_symbol
 _atom_site_label
 _atom_site_symmetry_multiplicity
 _atom_site_fract_x
 _atom_site_fract_y
 _atom_site_fract_z
 _atom_site_occupancy
  Yb  Yb0  1  0.135982  0.333821  0.458682  1
  Yb  Yb1  1  0.136776  0.166308  0.042141  1
  Yb  Yb2  1  0.636963  0.331556  0.043469  1
  Yb  Yb3  1  0.136412  0.458513  0.168999  1
  Yb  Yb4  1  0.636501  0.042368  0.165808  1
  Yb  Yb5  1  0.636526  0.459606  0.330572  1
  Yb  Yb6  1  0.135816  0.041021  0.332465  1
  Y  Y7  1  0.362938  0.835099  0.536625  1
  Y  Y8  1  0.861311  0.665334  0.536563  1
  Y  Y9  1  0.861091  0.834462  0.963209  1
  Y  Y10  1  0.360834  0.665031  0.963747  1
  Y  Y11  1  0.861963  0.536276  0.835193  1
  Y  Y12  1  0.362897  0.962933  0.834179  1
  Y  Y13  1  0.362277  0.536330  0.665474  1
  Y  Y14  1  0.861538  0.962896  0.665341  1
  Y  Y15  1  0.634061  0.169796  0.454600  1
  Hf  Hf16  1  0.504384  0.750932  0.249698  1
  Hf  Hf17  1  0.003772  0.750579  0.249868  1
  Hf  Hf18  1  0.003625  0.250035  0.749339  1
  Hf  Hf19  1  0.503937  0.249643  0.751015  1
  Ir  Ir20  1  0.252274  0.884688  0.103992  1
  Ir  Ir21  1  0.752929  0.615605  0.104564  1
  Ir  Ir22  1  0.749826  0.887792  0.395634  1
  Ir  Ir23  1  0.251691  0.616318  0.394884  1
  Ir  Ir24  1  0.753127  0.105106  0.885399  1
  Ir  Ir25  1  0.250118  0.394578  0.885722  1
  Ir  Ir26  1  0.255868  0.104922  0.613902  1
  Ir  Ir27  1  0.749095  0.392013  0.612690  1
  Ir  Ir28  1  0.106902  0.749336  0.749905  1
  Ir  Ir29  1  0.607007  0.749182  0.750121  1
  Ir  Ir30  1  0.888317  0.249161  0.252830  1
  Ir  Ir31  1  0.383240  0.248763  0.253374  1
