# generated using pymatgen
data_TbCo2SiC
_symmetry_space_group_name_H-M   'P 1'
_cell_length_a   5.57393178
_cell_length_b   5.57393172
_cell_length_c   6.73013200
_cell_angle_alpha   90.00000000
_cell_angle_beta   90.00000000
_cell_angle_gamma   140.84107271
_symmetry_Int_Tables_number   1
_chemical_formula_structural   TbCo2SiC
_chemical_formula_sum   'Tb2 Co4 Si2 C2'
_cell_volume   132.03895756
_cell_formula_units_Z   2
loop_
 _symmetry_equiv_pos_site_id
 _symmetry_equiv_pos_as_xyz
  1  'x, y, z'
loop_
 _atom_site_type_symbol
 _atom_site_label
 _atom_site_symmetry_multiplicity
 _atom_site_fract_x
 _atom_site_fract_y
 _atom_site_fract_z
 _atom_site_occupancy
  Tb  Tb0  1  0.551167  0.448833  0.250000  1
  Tb  Tb1  1  0.448833  0.551167  0.750000  1
  Co  Co2  1  0.836167  0.163833  0.056468  1
  Co  Co3  1  0.163833  0.836167  0.943532  1
  Co  Co4  1  0.163833  0.836167  0.556468  1
  Co  Co5  1  0.836167  0.163833  0.443532  1
  Si  Si6  1  0.271822  0.728178  0.250000  1
  Si  Si7  1  0.728178  0.271822  0.750000  1
  C  C8  1  0.000000  0.000000  0.000000  1
  C  C9  1  0.000000  0.000000  0.500000  1
