# generated using pymatgen
data_PrEr(AlCu)5
_symmetry_space_group_name_H-M   'P 1'
_cell_length_a   4.09698300
_cell_length_b   5.31627100
_cell_length_c   9.04654200
_cell_angle_alpha   90.00000000
_cell_angle_beta   90.00000000
_cell_angle_gamma   90.00000000
_symmetry_Int_Tables_number   1
_chemical_formula_structural   PrEr(AlCu)5
_chemical_formula_sum   'Pr1 Er1 Al5 Cu5'
_cell_volume   197.03976323
_cell_formula_units_Z   1
loop_
 _symmetry_equiv_pos_site_id
 _symmetry_equiv_pos_as_xyz
  1  'x, y, z'
loop_
 _atom_site_type_symbol
 _atom_site_label
 _atom_site_symmetry_multiplicity
 _atom_site_fract_x
 _atom_site_fract_y
 _atom_site_fract_z
 _atom_site_occupancy
  Pr  Pr0  1  0.000000  0.000150  0.000000  1
  Er  Er1  1  0.000000  0.500170  0.500000  1
  Al  Al2  1  0.500000  0.499819  0.000000  1
  Al  Al3  1  0.500000  0.749521  0.263604  1
  Al  Al4  1  0.500000  0.250673  0.736201  1
  Al  Al5  1  0.500000  0.250673  0.263799  1
  Al  Al6  1  0.500000  0.749521  0.736396  1
  Cu  Cu7  1  0.000000  0.000397  0.343713  1
  Cu  Cu8  1  0.000000  0.499541  0.826815  1
  Cu  Cu9  1  0.000000  0.499541  0.173185  1
  Cu  Cu10  1  0.000000  0.000397  0.656287  1
  Cu  Cu11  1  0.500000  0.999796  0.500000  1
