# generated using pymatgen
data_Lu12In2GaOs3
_symmetry_space_group_name_H-M   'P 1'
_cell_length_a   8.37679132
_cell_length_b   8.37703760
_cell_length_c   8.37678994
_cell_angle_alpha   113.43848447
_cell_angle_beta   112.23729948
_cell_angle_gamma   102.93080171
_symmetry_Int_Tables_number   1
_chemical_formula_structural   Lu12In2GaOs3
_chemical_formula_sum   'Lu12 In2 Ga1 Os3'
_cell_volume   448.10360940
_cell_formula_units_Z   1
loop_
 _symmetry_equiv_pos_site_id
 _symmetry_equiv_pos_as_xyz
  1  'x, y, z'
loop_
 _atom_site_type_symbol
 _atom_site_label
 _atom_site_symmetry_multiplicity
 _atom_site_fract_x
 _atom_site_fract_y
 _atom_site_fract_z
 _atom_site_occupancy
  Lu  Lu0  1  0.443060  0.241086  0.201982  1
  Lu  Lu1  1  0.549340  0.757070  0.792299  1
  Lu  Lu2  1  0.039104  0.241086  0.798025  1
  Lu  Lu3  1  0.964770  0.757070  0.207729  1
  Lu  Lu4  1  0.191406  0.288148  0.466981  1
  Lu  Lu5  1  0.821168  0.724528  0.532850  1
  Lu  Lu6  1  0.191678  0.724528  0.903362  1
  Lu  Lu7  1  0.821167  0.288148  0.096739  1
  Lu  Lu8  1  0.331868  0.645880  0.314011  1
  Lu  Lu9  1  0.657314  0.345300  0.687987  1
  Lu  Lu10  1  0.331740  0.017762  0.686022  1
  Lu  Lu11  1  0.657353  0.969549  0.312197  1
  In  In12  1  0.501318  0.501059  0.999741  1
  In  In13  1  0.994906  0.994634  0.999728  1
  Ga  Ga14  1  0.875927  0.375881  0.499954  1
  Os  Os15  1  0.331035  0.003017  0.328504  1
  Os  Os16  1  0.674513  0.003017  0.671982  1
  Os  Os17  1  0.122331  0.622239  0.499907  1
