# generated using pymatgen
data_Hf2ZrAl3GaNi2
_symmetry_space_group_name_H-M   'P 1'
_cell_length_a   6.55881838
_cell_length_b   6.58960363
_cell_length_c   3.97976800
_cell_angle_alpha   90.00000000
_cell_angle_beta   90.00000000
_cell_angle_gamma   120.41474308
_symmetry_Int_Tables_number   1
_chemical_formula_structural   Hf2ZrAl3GaNi2
_chemical_formula_sum   'Hf2 Zr1 Al3 Ga1 Ni2'
_cell_volume   148.33480204
_cell_formula_units_Z   1
loop_
 _symmetry_equiv_pos_site_id
 _symmetry_equiv_pos_as_xyz
  1  'x, y, z'
loop_
 _atom_site_type_symbol
 _atom_site_label
 _atom_site_symmetry_multiplicity
 _atom_site_fract_x
 _atom_site_fract_y
 _atom_site_fract_z
 _atom_site_occupancy
  Hf  Hf0  1  0.576729  0.983410  0.500000  1
  Hf  Hf1  1  0.017975  0.594497  0.500000  1
  Zr  Zr2  1  0.411402  0.421184  0.500000  1
  Al  Al3  1  0.749953  0.764361  0.000000  1
  Al  Al4  1  0.234774  0.987863  0.000000  1
  Al  Al5  1  0.015253  0.249404  0.000000  1
  Ga  Ga6  1  0.668393  0.332549  0.000000  1
  Ni  Ni7  1  0.331216  0.672221  0.000000  1
  Ni  Ni8  1  0.994305  0.994510  0.500000  1
