# generated using pymatgen
data_Nd12CdSi4Pb
_symmetry_space_group_name_H-M   'P 1'
_cell_length_a   8.82630166
_cell_length_b   8.82672954
_cell_length_c   8.82661500
_cell_angle_alpha   112.51916010
_cell_angle_beta   110.05630439
_cell_angle_gamma   105.90809226
_symmetry_Int_Tables_number   1
_chemical_formula_structural   Nd12CdSi4Pb
_chemical_formula_sum   'Nd12 Cd1 Si4 Pb1'
_cell_volume   527.56296936
_cell_formula_units_Z   1
loop_
 _symmetry_equiv_pos_site_id
 _symmetry_equiv_pos_as_xyz
  1  'x, y, z'
loop_
 _atom_site_type_symbol
 _atom_site_label
 _atom_site_symmetry_multiplicity
 _atom_site_fract_x
 _atom_site_fract_y
 _atom_site_fract_z
 _atom_site_occupancy
  Nd  Nd0  1  0.444865  0.237983  0.206906  1
  Nd  Nd1  1  0.555135  0.762017  0.793094  1
  Nd  Nd2  1  0.031148  0.238040  0.793151  1
  Nd  Nd3  1  0.968852  0.761960  0.206849  1
  Nd  Nd4  1  0.184219  0.276588  0.460831  1
  Nd  Nd5  1  0.815781  0.723412  0.539169  1
  Nd  Nd6  1  0.184202  0.723385  0.907608  1
  Nd  Nd7  1  0.815798  0.276615  0.092392  1
  Nd  Nd8  1  0.319691  0.615214  0.295493  1
  Nd  Nd9  1  0.680309  0.384786  0.704507  1
  Nd  Nd10  1  0.319694  0.024201  0.704493  1
  Nd  Nd11  1  0.680306  0.975799  0.295507  1
  Cd  Cd12  1  0.000000  0.000000  0.000000  1
  Si  Si13  1  0.371143  0.000001  0.371145  1
  Si  Si14  1  0.628857  0.999999  0.628855  1
  Si  Si15  1  0.112559  0.612561  0.500006  1
  Si  Si16  1  0.887441  0.387439  0.499994  1
  Pb  Pb17  1  0.500000  0.500000  0.000000  1
