# generated using pymatgen
data_Lu3PaMnGa12
_symmetry_space_group_name_H-M   'P 1'
_cell_length_a   7.34608594
_cell_length_b   7.42990363
_cell_length_c   7.42990301
_cell_angle_alpha   109.69861713
_cell_angle_beta   109.24286474
_cell_angle_gamma   109.24285629
_symmetry_Int_Tables_number   1
_chemical_formula_structural   Lu3PaMnGa12
_chemical_formula_sum   'Lu3 Pa1 Mn1 Ga12'
_cell_volume   313.05209785
_cell_formula_units_Z   1
loop_
 _symmetry_equiv_pos_site_id
 _symmetry_equiv_pos_as_xyz
  1  'x, y, z'
loop_
 _atom_site_type_symbol
 _atom_site_label
 _atom_site_symmetry_multiplicity
 _atom_site_fract_x
 _atom_site_fract_y
 _atom_site_fract_z
 _atom_site_occupancy
  Lu  Lu0  1  0.000000  0.000000  0.500000  1
  Lu  Lu1  1  0.000000  0.500000  0.000000  1
  Lu  Lu2  1  0.500000  0.500000  0.500000  1
  Pa  Pa3  1  0.500000  0.000000  0.000000  1
  Mn  Mn4  1  0.000000  0.000000  0.000000  1
  Ga  Ga5  1  0.750506  0.250506  0.501012  1
  Ga  Ga6  1  0.750506  0.501012  0.250506  1
  Ga  Ga7  1  0.500000  0.250506  0.749494  1
  Ga  Ga8  1  0.249494  0.498988  0.749494  1
  Ga  Ga9  1  0.249494  0.749494  0.498988  1
  Ga  Ga10  1  0.500000  0.749494  0.250506  1
  Ga  Ga11  1  0.714009  0.713320  0.000000  1
  Ga  Ga12  1  0.285991  0.000000  0.286680  1
  Ga  Ga13  1  0.000689  0.286680  0.286680  1
  Ga  Ga14  1  0.285991  0.286680  0.000000  1
  Ga  Ga15  1  0.714009  0.000000  0.713320  1
  Ga  Ga16  1  0.999311  0.713320  0.713320  1
