# generated using pymatgen
data_Nd3Be2(AsPd5)4
_symmetry_space_group_name_H-M   'P 1'
_cell_length_a   8.91010192
_cell_length_b   8.75544614
_cell_length_c   8.75544564
_cell_angle_alpha   61.17211646
_cell_angle_beta   59.41393765
_cell_angle_gamma   59.41394492
_symmetry_Int_Tables_number   1
_chemical_formula_structural   Nd3Be2(AsPd5)4
_chemical_formula_sum   'Nd3 Be2 As4 Pd20'
_cell_volume   482.66767241
_cell_formula_units_Z   1
loop_
 _symmetry_equiv_pos_site_id
 _symmetry_equiv_pos_as_xyz
  1  'x, y, z'
loop_
 _atom_site_type_symbol
 _atom_site_label
 _atom_site_symmetry_multiplicity
 _atom_site_fract_x
 _atom_site_fract_y
 _atom_site_fract_z
 _atom_site_occupancy
  Nd  Nd0  1  0.250000  0.250000  0.250000  1
  Nd  Nd1  1  0.750000  0.750000  0.750000  1
  Nd  Nd2  1  0.000000  0.000000  0.000000  1
  Be  Be3  1  0.731237  0.268763  0.268763  1
  Be  Be4  1  0.268763  0.731237  0.731237  1
  As  As5  1  0.266267  0.733733  0.266267  1
  As  As6  1  0.733733  0.266267  0.733733  1
  As  As7  1  0.266267  0.266267  0.733733  1
  As  As8  1  0.733733  0.733733  0.266267  1
  Pd  Pd9  1  0.394301  0.379811  0.379811  1
  Pd  Pd10  1  0.605699  0.620189  0.620189  1
  Pd  Pd11  1  0.379811  0.394301  0.846078  1
  Pd  Pd12  1  0.379811  0.846078  0.394301  1
  Pd  Pd13  1  0.620189  0.605699  0.153922  1
  Pd  Pd14  1  0.620189  0.153922  0.605699  1
  Pd  Pd15  1  0.846078  0.379811  0.379811  1
  Pd  Pd16  1  0.153922  0.620189  0.620189  1
  Pd  Pd17  1  0.348503  0.000000  0.000000  1
  Pd  Pd18  1  0.651497  0.000000  0.000000  1
  Pd  Pd19  1  0.000000  0.348503  0.651497  1
  Pd  Pd20  1  0.000000  0.651497  0.348503  1
  Pd  Pd21  1  0.987566  0.345819  0.012434  1
  Pd  Pd22  1  0.654181  0.012434  0.345819  1
  Pd  Pd23  1  0.012434  0.654181  0.987566  1
  Pd  Pd24  1  0.345819  0.987566  0.654181  1
  Pd  Pd25  1  0.987566  0.012434  0.345819  1
  Pd  Pd26  1  0.012434  0.987566  0.654181  1
  Pd  Pd27  1  0.654181  0.345819  0.012434  1
  Pd  Pd28  1  0.345819  0.654181  0.987566  1
