# generated using pymatgen
data_Ac8Dy12Si15Tc
_symmetry_space_group_name_H-M   'P 1'
_cell_length_a   7.73161300
_cell_length_b   8.01990664
_cell_length_c   15.26742000
_cell_angle_alpha   90.00000000
_cell_angle_beta   90.00000000
_cell_angle_gamma   89.71154475
_symmetry_Int_Tables_number   1
_chemical_formula_structural   Ac8Dy12Si15Tc
_chemical_formula_sum   'Ac8 Dy12 Si15 Tc1'
_cell_volume   946.67208110
_cell_formula_units_Z   1
loop_
 _symmetry_equiv_pos_site_id
 _symmetry_equiv_pos_as_xyz
  1  'x, y, z'
loop_
 _atom_site_type_symbol
 _atom_site_label
 _atom_site_symmetry_multiplicity
 _atom_site_fract_x
 _atom_site_fract_y
 _atom_site_fract_z
 _atom_site_occupancy
  Ac  Ac0  1  0.969501  0.819914  0.101074  1
  Ac  Ac1  1  0.483614  0.673972  0.399144  1
  Ac  Ac2  1  0.524019  0.326430  0.900800  1
  Ac  Ac3  1  0.022513  0.171142  0.596938  1
  Ac  Ac4  1  0.022513  0.171142  0.903062  1
  Ac  Ac5  1  0.524019  0.326430  0.599200  1
  Ac  Ac6  1  0.483614  0.673972  0.100856  1
  Ac  Ac7  1  0.969501  0.819914  0.398926  1
  Dy  Dy8  1  0.650921  0.991460  0.250000  1
  Dy  Dy9  1  0.132320  0.507952  0.250000  1
  Dy  Dy10  1  0.853532  0.494138  0.750000  1
  Dy  Dy11  1  0.352487  0.001885  0.750000  1
  Dy  Dy12  1  0.681913  0.822739  0.875881  1
  Dy  Dy13  1  0.182351  0.679927  0.622041  1
  Dy  Dy14  1  0.817900  0.328942  0.125474  1
  Dy  Dy15  1  0.318982  0.177997  0.377741  1
  Dy  Dy16  1  0.318982  0.177997  0.122259  1
  Dy  Dy17  1  0.817900  0.328942  0.374526  1
  Dy  Dy18  1  0.182351  0.679927  0.877959  1
  Dy  Dy19  1  0.681913  0.822739  0.624119  1
  Si  Si20  1  0.268122  0.895957  0.250000  1
  Si  Si21  1  0.728473  0.113957  0.750000  1
  Si  Si22  1  0.226872  0.387933  0.750000  1
  Si  Si23  1  0.030194  0.124672  0.250000  1
  Si  Si24  1  0.523737  0.374938  0.250000  1
  Si  Si25  1  0.473993  0.625158  0.750000  1
  Si  Si26  1  0.975952  0.872054  0.750000  1
  Si  Si27  1  0.862928  0.531524  0.958404  1
  Si  Si28  1  0.364594  0.970019  0.541728  1
  Si  Si29  1  0.640613  0.034763  0.038286  1
  Si  Si30  1  0.142588  0.463380  0.461703  1
  Si  Si31  1  0.142588  0.463380  0.038297  1
  Si  Si32  1  0.640613  0.034763  0.461714  1
  Si  Si33  1  0.364594  0.970019  0.958272  1
  Si  Si34  1  0.862928  0.531524  0.541596  1
  Tc  Tc35  1  0.760364  0.608398  0.250000  1
