# generated using pymatgen
data_TmLu15In3HgIr4
_symmetry_space_group_name_H-M   'P 1'
_cell_length_a   9.46860587
_cell_length_b   9.46584244
_cell_length_c   9.46860600
_cell_angle_alpha   59.94350504
_cell_angle_beta   59.92085839
_cell_angle_gamma   59.94350351
_symmetry_Int_Tables_number   1
_chemical_formula_structural   TmLu15In3HgIr4
_chemical_formula_sum   'Tm1 Lu15 In3 Hg1 Ir4'
_cell_volume   599.21818609
_cell_formula_units_Z   1
loop_
 _symmetry_equiv_pos_site_id
 _symmetry_equiv_pos_as_xyz
  1  'x, y, z'
loop_
 _atom_site_type_symbol
 _atom_site_label
 _atom_site_symmetry_multiplicity
 _atom_site_fract_x
 _atom_site_fract_y
 _atom_site_fract_z
 _atom_site_occupancy
  Tm  Tm0  1  0.438377  0.063908  0.438377  1
  Lu  Lu1  1  0.439251  0.439827  0.062477  1
  Lu  Lu2  1  0.649593  0.649088  0.049690  1
  Lu  Lu3  1  0.191482  0.810142  0.191482  1
  Lu  Lu4  1  0.060462  0.439739  0.060462  1
  Lu  Lu5  1  0.192506  0.807951  0.808728  1
  Lu  Lu6  1  0.062477  0.439827  0.439251  1
  Lu  Lu7  1  0.810779  0.191446  0.191223  1
  Lu  Lu8  1  0.651406  0.651568  0.651406  1
  Lu  Lu9  1  0.808342  0.192551  0.808342  1
  Lu  Lu10  1  0.191223  0.191446  0.810779  1
  Lu  Lu11  1  0.049690  0.649088  0.649593  1
  Lu  Lu12  1  0.440055  0.059942  0.059557  1
  Lu  Lu13  1  0.059557  0.059942  0.440055  1
  Lu  Lu14  1  0.649258  0.049705  0.649258  1
  Lu  Lu15  1  0.808728  0.807951  0.192506  1
  In  In16  1  0.416341  0.416201  0.749740  1
  In  In17  1  0.416475  0.748912  0.416475  1
  In  In18  1  0.749740  0.416201  0.416341  1
  Hg  Hg19  1  0.412753  0.413594  0.412753  1
  Ir  Ir20  1  0.423318  0.859242  0.859996  1
  Ir  Ir21  1  0.858855  0.858985  0.858855  1
  Ir  Ir22  1  0.859335  0.423504  0.859335  1
  Ir  Ir23  1  0.859996  0.859242  0.423318  1
