# generated using pymatgen
data_Li8Ho8Sn5Sb3
_symmetry_space_group_name_H-M   'P 1'
_cell_length_a   9.35881100
_cell_length_b   9.35881118
_cell_length_c   7.15305000
_cell_angle_alpha   90.00000000
_cell_angle_beta   90.00000000
_cell_angle_gamma   120.00000288
_symmetry_Int_Tables_number   1
_chemical_formula_structural   Li8Ho8Sn5Sb3
_chemical_formula_sum   'Li8 Ho8 Sn5 Sb3'
_cell_volume   542.57932650
_cell_formula_units_Z   1
loop_
 _symmetry_equiv_pos_site_id
 _symmetry_equiv_pos_as_xyz
  1  'x, y, z'
loop_
 _atom_site_type_symbol
 _atom_site_label
 _atom_site_symmetry_multiplicity
 _atom_site_fract_x
 _atom_site_fract_y
 _atom_site_fract_z
 _atom_site_occupancy
  Li  Li0  1  0.166452  0.332906  0.284446  1
  Li  Li1  1  0.166452  0.833548  0.284446  1
  Li  Li2  1  0.667094  0.833548  0.284446  1
  Li  Li3  1  0.833225  0.666448  0.786334  1
  Li  Li4  1  0.833225  0.166775  0.786334  1
  Li  Li5  1  0.333552  0.166775  0.786334  1
  Li  Li6  1  0.333333  0.666667  0.675309  1
  Li  Li7  1  0.666667  0.333333  0.178867  1
  Ho  Ho8  1  0.512507  0.025013  0.490388  1
  Ho  Ho9  1  0.512507  0.487493  0.490388  1
  Ho  Ho10  1  0.974987  0.487493  0.490388  1
  Ho  Ho11  1  0.489453  0.978907  0.996367  1
  Ho  Ho12  1  0.489453  0.510547  0.996367  1
  Ho  Ho13  1  0.021093  0.510547  0.996367  1
  Ho  Ho14  1  0.000000  0.000000  0.497375  1
  Ho  Ho15  1  0.000000  0.000000  0.004986  1
  Sn  Sn16  1  0.832855  0.665709  0.231182  1
  Sn  Sn17  1  0.832855  0.167145  0.231182  1
  Sn  Sn18  1  0.334291  0.167145  0.231182  1
  Sn  Sn19  1  0.333333  0.666667  0.259809  1
  Sn  Sn20  1  0.666667  0.333333  0.760261  1
  Sb  Sb21  1  0.166838  0.333678  0.733071  1
  Sb  Sb22  1  0.166838  0.833162  0.733071  1
  Sb  Sb23  1  0.666322  0.833162  0.733071  1
