# generated using pymatgen
data_Ba5Sr3(Bi2O)2
_symmetry_space_group_name_H-M   'P 1'
_cell_length_a   9.84496863
_cell_length_b   9.84496845
_cell_length_c   7.29657300
_cell_angle_alpha   90.22606502
_cell_angle_beta   90.22605920
_cell_angle_gamma   136.47328462
_symmetry_Int_Tables_number   1
_chemical_formula_structural   Ba5Sr3(Bi2O)2
_chemical_formula_sum   'Ba5 Sr3 Bi4 O2'
_cell_volume   487.02191071
_cell_formula_units_Z   1
loop_
 _symmetry_equiv_pos_site_id
 _symmetry_equiv_pos_as_xyz
  1  'x, y, z'
loop_
 _atom_site_type_symbol
 _atom_site_label
 _atom_site_symmetry_multiplicity
 _atom_site_fract_x
 _atom_site_fract_y
 _atom_site_fract_z
 _atom_site_occupancy
  Ba  Ba0  1  0.671682  0.333410  0.998075  1
  Ba  Ba1  1  0.249883  0.250116  0.249999  1
  Ba  Ba2  1  0.166591  0.828319  0.501925  1
  Ba  Ba3  1  0.828319  0.166593  0.502902  1
  Ba  Ba4  1  0.333408  0.671682  0.997098  1
  Sr  Sr5  1  0.749891  0.750108  0.249999  1
  Sr  Sr6  1  0.250124  0.249875  0.749999  1
  Sr  Sr7  1  0.750109  0.749890  0.749999  1
  Bi  Bi8  1  0.131449  0.862387  0.996937  1
  Bi  Bi9  1  0.637614  0.368551  0.503063  1
  Bi  Bi10  1  0.368620  0.637705  0.502950  1
  Bi  Bi11  1  0.862296  0.131380  0.997050  1
  O  O12  1  0.507782  0.507766  0.992116  1
  O  O13  1  0.992234  0.992218  0.507884  1
