# generated using pymatgen
data_Ba3(CdAu)4
_symmetry_space_group_name_H-M   'P 1'
_cell_length_a   9.34604929
_cell_length_b   9.34604800
_cell_length_c   9.34604892
_cell_angle_alpha   151.39770837
_cell_angle_beta   125.93342960
_cell_angle_gamma   62.30215699
_symmetry_Int_Tables_number   1
_chemical_formula_structural   Ba3(CdAu)4
_chemical_formula_sum   'Ba3 Cd4 Au4'
_cell_volume   313.75484079
_cell_formula_units_Z   1
loop_
 _symmetry_equiv_pos_site_id
 _symmetry_equiv_pos_as_xyz
  1  'x, y, z'
loop_
 _atom_site_type_symbol
 _atom_site_label
 _atom_site_symmetry_multiplicity
 _atom_site_fract_x
 _atom_site_fract_y
 _atom_site_fract_z
 _atom_site_occupancy
  Ba  Ba0  1  0.500000  0.000000  0.500000  1
  Ba  Ba1  1  0.872724  0.872724  0.000000  1
  Ba  Ba2  1  0.127276  0.127276  0.000000  1
  Cd  Cd3  1  0.860122  0.671563  0.188559  1
  Cd  Cd4  1  0.483005  0.671563  0.811441  1
  Cd  Cd5  1  0.516995  0.328437  0.188559  1
  Cd  Cd6  1  0.139878  0.328437  0.811441  1
  Au  Au7  1  0.280354  0.780354  0.500000  1
  Au  Au8  1  0.719646  0.219646  0.500000  1
  Au  Au9  1  0.185970  0.500000  0.685970  1
  Au  Au10  1  0.814030  0.500000  0.314030  1
