# generated using pymatgen
data_Pr7Sm3(SnBi)4
_symmetry_space_group_name_H-M   'P 1'
_cell_length_a   8.42654400
_cell_length_b   8.48748322
_cell_length_c   16.19733642
_cell_angle_alpha   90.02628377
_cell_angle_beta   90.00000000
_cell_angle_gamma   90.00000000
_symmetry_Int_Tables_number   1
_chemical_formula_structural   Pr7Sm3(SnBi)4
_chemical_formula_sum   'Pr14 Sm6 Sn8 Bi8'
_cell_volume   1158.43582235
_cell_formula_units_Z   2
loop_
 _symmetry_equiv_pos_site_id
 _symmetry_equiv_pos_as_xyz
  1  'x, y, z'
loop_
 _atom_site_type_symbol
 _atom_site_label
 _atom_site_symmetry_multiplicity
 _atom_site_fract_x
 _atom_site_fract_y
 _atom_site_fract_z
 _atom_site_occupancy
  Pr  Pr0  1  0.609442  0.164406  0.379911  1
  Pr  Pr1  1  0.109442  0.335594  0.120089  1
  Pr  Pr2  1  0.608962  0.164189  0.120706  1
  Pr  Pr3  1  0.108962  0.335811  0.379294  1
  Pr  Pr4  1  0.391287  0.835816  0.620733  1
  Pr  Pr5  1  0.891287  0.664184  0.879267  1
  Pr  Pr6  1  0.549356  0.325524  0.890587  1
  Pr  Pr7  1  0.049356  0.174476  0.609413  1
  Pr  Pr8  1  0.450632  0.674676  0.390926  1
  Pr  Pr9  1  0.950632  0.825324  0.109074  1
  Pr  Pr10  1  0.450994  0.675015  0.108726  1
  Pr  Pr11  1  0.950994  0.824985  0.391274  1
  Pr  Pr12  1  0.549155  0.326090  0.609828  1
  Pr  Pr13  1  0.049155  0.173910  0.890172  1
  Sm  Sm14  1  0.389657  0.836646  0.877458  1
  Sm  Sm15  1  0.889657  0.663354  0.622542  1
  Sm  Sm16  1  0.217760  0.496145  0.749812  1
  Sm  Sm17  1  0.717760  0.003855  0.750188  1
  Sm  Sm18  1  0.782297  0.504530  0.250466  1
  Sm  Sm19  1  0.282297  0.995470  0.249534  1
  Sn  Sn20  1  0.589210  0.625195  0.750361  1
  Sn  Sn21  1  0.089210  0.874805  0.749639  1
  Sn  Sn22  1  0.410846  0.377082  0.250076  1
  Sn  Sn23  1  0.910846  0.122918  0.249924  1
  Sn  Sn24  1  0.351868  0.137329  0.750533  1
  Sn  Sn25  1  0.851868  0.362671  0.749467  1
  Sn  Sn26  1  0.648873  0.861929  0.249995  1
  Sn  Sn27  1  0.148873  0.638071  0.250005  1
  Bi  Bi28  1  0.270153  0.017683  0.044258  1
  Bi  Bi29  1  0.770153  0.482317  0.455742  1
  Bi  Bi30  1  0.732821  0.976986  0.546929  1
  Bi  Bi31  1  0.232821  0.523014  0.953071  1
  Bi  Bi32  1  0.727242  0.979092  0.953079  1
  Bi  Bi33  1  0.227242  0.520908  0.546921  1
  Bi  Bi34  1  0.269445  0.019526  0.453968  1
  Bi  Bi35  1  0.769445  0.480474  0.046032  1
