# generated using pymatgen
data_HfSc3(V3Si4)2
_symmetry_space_group_name_H-M   'P 1'
_cell_length_a   6.62052436
_cell_length_b   6.62038811
_cell_length_c   12.24593259
_cell_angle_alpha   90.01740724
_cell_angle_beta   89.92758650
_cell_angle_gamma   89.98817498
_symmetry_Int_Tables_number   1
_chemical_formula_structural   HfSc3(V3Si4)2
_chemical_formula_sum   'Hf2 Sc6 V12 Si16'
_cell_volume   536.74415771
_cell_formula_units_Z   2
loop_
 _symmetry_equiv_pos_site_id
 _symmetry_equiv_pos_as_xyz
  1  'x, y, z'
loop_
 _atom_site_type_symbol
 _atom_site_label
 _atom_site_symmetry_multiplicity
 _atom_site_fract_x
 _atom_site_fract_y
 _atom_site_fract_z
 _atom_site_occupancy
  Hf  Hf0  1  0.003818  0.660225  0.030008  1
  Hf  Hf1  1  0.839185  0.503960  0.279808  1
  Sc  Sc2  1  0.162067  0.498459  0.779549  1
  Sc  Sc3  1  0.501579  0.837646  0.720245  1
  Sc  Sc4  1  0.498567  0.162295  0.220373  1
  Sc  Sc5  1  0.998321  0.337700  0.529465  1
  Sc  Sc6  1  0.662560  0.001272  0.970440  1
  Sc  Sc7  1  0.337776  0.998197  0.470138  1
  V  V8  1  0.329920  0.333797  0.000123  1
  V  V9  1  0.166343  0.830082  0.249731  1
  V  V10  1  0.831786  0.168603  0.750280  1
  V  V11  1  0.668779  0.668064  0.499840  1
  V  V12  1  0.005400  0.157964  0.126345  1
  V  V13  1  0.343045  0.506214  0.375735  1
  V  V14  1  0.657576  0.493671  0.877242  1
  V  V15  1  0.507383  0.343688  0.623399  1
  V  V16  1  0.494618  0.656738  0.123413  1
  V  V17  1  0.992829  0.843228  0.626578  1
  V  V18  1  0.155614  0.005490  0.874097  1
  V  V19  1  0.842844  0.992794  0.372706  1
  Si  Si20  1  0.293777  0.960928  0.064820  1
  Si  Si21  1  0.538638  0.794567  0.314796  1
  Si  Si22  1  0.459697  0.206614  0.814849  1
  Si  Si23  1  0.794240  0.539816  0.685415  1
  Si  Si24  1  0.209250  0.457816  0.185576  1
  Si  Si25  1  0.706141  0.039635  0.564760  1
  Si  Si26  1  0.959061  0.292468  0.934526  1
  Si  Si27  1  0.040936  0.707444  0.436341  1
  Si  Si28  1  0.703806  0.369078  0.071060  1
  Si  Si29  1  0.129481  0.203323  0.320232  1
  Si  Si30  1  0.869291  0.796465  0.820759  1
  Si  Si31  1  0.203324  0.129483  0.680041  1
  Si  Si32  1  0.794747  0.872430  0.178700  1
  Si  Si33  1  0.296885  0.629464  0.569900  1
  Si  Si34  1  0.371670  0.704715  0.929107  1
  Si  Si35  1  0.629048  0.295666  0.429603  1
