# generated using pymatgen
data_Ti3Zn3Pd2
_symmetry_space_group_name_H-M   'P 1'
_cell_length_a   3.27412200
_cell_length_b   3.27412200
_cell_length_c   11.47579500
_cell_angle_alpha   90.00000000
_cell_angle_beta   90.00000000
_cell_angle_gamma   90.00000000
_symmetry_Int_Tables_number   1
_chemical_formula_structural   Ti3Zn3Pd2
_chemical_formula_sum   'Ti3 Zn3 Pd2'
_cell_volume   123.01908644
_cell_formula_units_Z   1
loop_
 _symmetry_equiv_pos_site_id
 _symmetry_equiv_pos_as_xyz
  1  'x, y, z'
loop_
 _atom_site_type_symbol
 _atom_site_label
 _atom_site_symmetry_multiplicity
 _atom_site_fract_x
 _atom_site_fract_y
 _atom_site_fract_z
 _atom_site_occupancy
  Ti  Ti0  1  0.500000  0.500000  0.127134  1
  Ti  Ti1  1  0.500000  0.500000  0.872866  1
  Ti  Ti2  1  0.000000  0.000000  0.500000  1
  Zn  Zn3  1  0.500000  0.500000  0.626534  1
  Zn  Zn4  1  0.500000  0.500000  0.373466  1
  Zn  Zn5  1  0.000000  0.000000  0.000000  1
  Pd  Pd6  1  0.000000  0.000000  0.251721  1
  Pd  Pd7  1  0.000000  0.000000  0.748279  1
