# generated using pymatgen
data_Tb2Lu2Sc3AlPt4
_symmetry_space_group_name_H-M   'P 1'
_cell_length_a   4.50312700
_cell_length_b   6.98978766
_cell_length_c   8.26877620
_cell_angle_alpha   86.70098236
_cell_angle_beta   90.00000000
_cell_angle_gamma   90.00000000
_symmetry_Int_Tables_number   1
_chemical_formula_structural   Tb2Lu2Sc3AlPt4
_chemical_formula_sum   'Tb2 Lu2 Sc3 Al1 Pt4'
_cell_volume   259.83587184
_cell_formula_units_Z   1
loop_
 _symmetry_equiv_pos_site_id
 _symmetry_equiv_pos_as_xyz
  1  'x, y, z'
loop_
 _atom_site_type_symbol
 _atom_site_label
 _atom_site_symmetry_multiplicity
 _atom_site_fract_x
 _atom_site_fract_y
 _atom_site_fract_z
 _atom_site_occupancy
  Tb  Tb0  1  0.250000  0.040875  0.673532  1
  Tb  Tb1  1  0.750000  0.989719  0.339829  1
  Lu  Lu2  1  0.250000  0.519857  0.816541  1
  Lu  Lu3  1  0.750000  0.466982  0.181825  1
  Sc  Sc4  1  0.250000  0.133630  0.070402  1
  Sc  Sc5  1  0.250000  0.641763  0.434454  1
  Sc  Sc6  1  0.750000  0.858091  0.930444  1
  Al  Al7  1  0.750000  0.363941  0.567009  1
  Pt  Pt8  1  0.250000  0.267477  0.381807  1
  Pt  Pt9  1  0.250000  0.739405  0.100138  1
  Pt  Pt10  1  0.750000  0.730708  0.617168  1
  Pt  Pt11  1  0.750000  0.247557  0.886854  1
