# generated using pymatgen
data_Dy2Y2BeCo3I2
_symmetry_space_group_name_H-M   'P 1'
_cell_length_a   3.94586900
_cell_length_b   3.94586906
_cell_length_c   16.94409800
_cell_angle_alpha   90.00000000
_cell_angle_beta   90.00000000
_cell_angle_gamma   120.00002463
_symmetry_Int_Tables_number   1
_chemical_formula_structural   Dy2Y2BeCo3I2
_chemical_formula_sum   'Dy2 Y2 Be1 Co3 I2'
_cell_volume   228.47269849
_cell_formula_units_Z   1
loop_
 _symmetry_equiv_pos_site_id
 _symmetry_equiv_pos_as_xyz
  1  'x, y, z'
loop_
 _atom_site_type_symbol
 _atom_site_label
 _atom_site_symmetry_multiplicity
 _atom_site_fract_x
 _atom_site_fract_y
 _atom_site_fract_z
 _atom_site_occupancy
  Dy  Dy0  1  0.000000  0.000000  0.103389  1
  Dy  Dy1  1  0.000000  0.000000  0.896658  1
  Y  Y2  1  0.000000  0.000000  0.601678  1
  Y  Y3  1  0.000000  0.000000  0.398398  1
  Be  Be4  1  0.333333  0.666667  0.500456  1
  Co  Co5  1  0.666667  0.333333  0.499014  1
  Co  Co6  1  0.666667  0.333333  0.001965  1
  Co  Co7  1  0.333333  0.666667  0.998335  1
  I  I8  1  0.333333  0.666667  0.250213  1
  I  I9  1  0.666667  0.333333  0.749893  1
