# generated using pymatgen
data_Tb16MgHg3(RuRh)2
_symmetry_space_group_name_H-M   'P 1'
_cell_length_a   9.65253143
_cell_length_b   9.65601235
_cell_length_c   9.71282800
_cell_angle_alpha   59.80517520
_cell_angle_beta   59.79315131
_cell_angle_gamma   59.64886086
_symmetry_Int_Tables_number   1
_chemical_formula_structural   Tb16MgHg3(RuRh)2
_chemical_formula_sum   'Tb16 Mg1 Hg3 Ru2 Rh2'
_cell_volume   636.48167765
_cell_formula_units_Z   1
loop_
 _symmetry_equiv_pos_site_id
 _symmetry_equiv_pos_as_xyz
  1  'x, y, z'
loop_
 _atom_site_type_symbol
 _atom_site_label
 _atom_site_symmetry_multiplicity
 _atom_site_fract_x
 _atom_site_fract_y
 _atom_site_fract_z
 _atom_site_occupancy
  Tb  Tb0  1  0.348817  0.347230  0.347561  1
  Tb  Tb1  1  0.348817  0.347230  0.956393  1
  Tb  Tb2  1  0.347962  0.958060  0.346990  1
  Tb  Tb3  1  0.947192  0.350433  0.351188  1
  Tb  Tb4  1  0.810428  0.189792  0.190835  1
  Tb  Tb5  1  0.186328  0.813422  0.811368  1
  Tb  Tb6  1  0.186328  0.813422  0.188881  1
  Tb  Tb7  1  0.810428  0.189792  0.808946  1
  Tb  Tb8  1  0.186357  0.187579  0.813031  1
  Tb  Tb9  1  0.808619  0.809055  0.191163  1
  Tb  Tb10  1  0.936697  0.560077  0.563907  1
  Tb  Tb11  1  0.560020  0.937552  0.937625  1
  Tb  Tb12  1  0.560020  0.937552  0.564804  1
  Tb  Tb13  1  0.936697  0.560077  0.939320  1
  Tb  Tb14  1  0.562370  0.564332  0.936649  1
  Tb  Tb15  1  0.938720  0.939773  0.560754  1
  Mg  Mg16  1  0.285167  0.570878  0.571978  1
  Hg  Hg17  1  0.581440  0.586693  0.587360  1
  Hg  Hg18  1  0.581440  0.586693  0.244508  1
  Hg  Hg19  1  0.581017  0.244448  0.587268  1
  Ru  Ru20  1  0.138943  0.143204  0.140120  1
  Ru  Ru21  1  0.138943  0.143204  0.577733  1
  Rh  Rh22  1  0.141417  0.575835  0.141373  1
  Rh  Rh23  1  0.575836  0.143669  0.140247  1
