# generated using pymatgen
data_MnRu2F12
_symmetry_space_group_name_H-M   'P 1'
_cell_length_a   5.32012812
_cell_length_b   5.61541015
_cell_length_c   9.22956016
_cell_angle_alpha   73.74665022
_cell_angle_beta   88.53981020
_cell_angle_gamma   62.45048938
_symmetry_Int_Tables_number   1
_chemical_formula_structural   MnRu2F12
_chemical_formula_sum   'Mn1 Ru2 F12'
_cell_volume   232.93786764
_cell_formula_units_Z   1
loop_
 _symmetry_equiv_pos_site_id
 _symmetry_equiv_pos_as_xyz
  1  'x, y, z'
loop_
 _atom_site_type_symbol
 _atom_site_label
 _atom_site_symmetry_multiplicity
 _atom_site_fract_x
 _atom_site_fract_y
 _atom_site_fract_z
 _atom_site_occupancy
  Mn  Mn0  1  0.500000  0.500000  0.500000  1
  Ru  Ru1  1  0.772557  0.001057  0.245232  1
  Ru  Ru2  1  0.227443  0.998943  0.754768  1
  F  F3  1  0.944428  0.230741  0.201009  1
  F  F4  1  0.055572  0.769259  0.798991  1
  F  F5  1  0.012824  0.767405  0.138274  1
  F  F6  1  0.468785  0.770968  0.629938  1
  F  F7  1  0.531215  0.229032  0.370062  1
  F  F8  1  0.945428  0.239220  0.573019  1
  F  F9  1  0.054572  0.760780  0.426981  1
  F  F10  1  0.405725  0.241197  0.687990  1
  F  F11  1  0.594275  0.758803  0.312010  1
  F  F12  1  0.505022  0.778634  0.920953  1
  F  F13  1  0.494978  0.221366  0.079047  1
  F  F14  1  0.987176  0.232595  0.861726  1
