# generated using pymatgen
data_La20Si9Ge2Au
_symmetry_space_group_name_H-M   'P 1'
_cell_length_a   7.91474600
_cell_length_b   7.91474600
_cell_length_c   14.55838100
_cell_angle_alpha   90.00000000
_cell_angle_beta   90.00000000
_cell_angle_gamma   90.00000000
_symmetry_Int_Tables_number   1
_chemical_formula_structural   La20Si9Ge2Au
_chemical_formula_sum   'La20 Si9 Ge2 Au1'
_cell_volume   911.98363445
_cell_formula_units_Z   1
loop_
 _symmetry_equiv_pos_site_id
 _symmetry_equiv_pos_as_xyz
  1  'x, y, z'
loop_
 _atom_site_type_symbol
 _atom_site_label
 _atom_site_symmetry_multiplicity
 _atom_site_fract_x
 _atom_site_fract_y
 _atom_site_fract_z
 _atom_site_occupancy
  La  La0  1  0.500000  0.000000  0.777153  1
  La  La1  1  0.330035  0.313388  0.105207  1
  La  La2  1  0.827877  0.816123  0.894643  1
  La  La3  1  0.000000  0.500000  0.225524  1
  La  La4  1  0.827589  0.182078  0.392889  1
  La  La5  1  0.172123  0.183877  0.894643  1
  La  La6  1  0.669965  0.686612  0.105207  1
  La  La7  1  0.000000  0.500000  0.721696  1
  La  La8  1  0.812150  0.834951  0.607945  1
  La  La9  1  0.317922  0.327589  0.392889  1
  La  La10  1  0.186612  0.830035  0.105207  1
  La  La11  1  0.187850  0.165049  0.607945  1
  La  La12  1  0.813388  0.169965  0.105207  1
  La  La13  1  0.334951  0.687850  0.607945  1
  La  La14  1  0.500000  0.000000  0.274338  1
  La  La15  1  0.683877  0.327877  0.894643  1
  La  La16  1  0.665049  0.312150  0.607945  1
  La  La17  1  0.316123  0.672123  0.894643  1
  La  La18  1  0.172411  0.817922  0.392889  1
  La  La19  1  0.682078  0.672411  0.392889  1
  Si  Si20  1  0.613674  0.387560  0.248897  1
  Si  Si21  1  0.887431  0.114067  0.751502  1
  Si  Si22  1  0.887560  0.886326  0.248897  1
  Si  Si23  1  0.112569  0.885933  0.751502  1
  Si  Si24  1  0.385933  0.387431  0.751502  1
  Si  Si25  1  0.112440  0.113674  0.248897  1
  Si  Si26  1  0.386326  0.612440  0.248897  1
  Si  Si27  1  0.614067  0.612569  0.751502  1
  Si  Si28  1  0.500000  0.000000  0.994883  1
  Ge  Ge29  1  0.500000  0.000000  0.495256  1
  Ge  Ge30  1  0.000000  0.500000  0.004833  1
  Au  Au31  1  0.000000  0.500000  0.501981  1
