# generated using pymatgen
data_Be6Ni2MoOs3
_symmetry_space_group_name_H-M   'P 1'
_cell_length_a   4.49504700
_cell_length_b   4.49504598
_cell_length_c   7.04171400
_cell_angle_alpha   90.00000000
_cell_angle_beta   90.00000000
_cell_angle_gamma   120.00000017
_symmetry_Int_Tables_number   1
_chemical_formula_structural   Be6Ni2MoOs3
_chemical_formula_sum   'Be6 Ni2 Mo1 Os3'
_cell_volume   123.21891728
_cell_formula_units_Z   1
loop_
 _symmetry_equiv_pos_site_id
 _symmetry_equiv_pos_as_xyz
  1  'x, y, z'
loop_
 _atom_site_type_symbol
 _atom_site_label
 _atom_site_symmetry_multiplicity
 _atom_site_fract_x
 _atom_site_fract_y
 _atom_site_fract_z
 _atom_site_occupancy
  Be  Be0  1  0.827183  0.172817  0.253533  1
  Be  Be1  1  0.827183  0.654364  0.253533  1
  Be  Be2  1  0.345636  0.172817  0.253533  1
  Be  Be3  1  0.170594  0.829406  0.747527  1
  Be  Be4  1  0.170594  0.341188  0.747527  1
  Be  Be5  1  0.658812  0.829406  0.747527  1
  Ni  Ni6  1  0.000000  0.000000  0.501614  1
  Ni  Ni7  1  0.000000  0.000000  0.001474  1
  Mo  Mo8  1  0.333333  0.666667  0.060598  1
  Os  Os9  1  0.333333  0.666667  0.433335  1
  Os  Os10  1  0.666667  0.333333  0.555113  1
  Os  Os11  1  0.666667  0.333333  0.944687  1
