# generated using pymatgen
data_Yb2Ga5Cu6
_symmetry_space_group_name_H-M   'P 1'
_cell_length_a   8.41649100
_cell_length_b   8.41649100
_cell_length_c   8.41649100
_cell_angle_alpha   90.00000000
_cell_angle_beta   90.00000000
_cell_angle_gamma   90.00000000
_symmetry_Int_Tables_number   1
_chemical_formula_structural   Yb2Ga5Cu6
_chemical_formula_sum   'Yb6 Ga15 Cu18'
_cell_volume   596.20167258
_cell_formula_units_Z   3
loop_
 _symmetry_equiv_pos_site_id
 _symmetry_equiv_pos_as_xyz
  1  'x, y, z'
loop_
 _atom_site_type_symbol
 _atom_site_label
 _atom_site_symmetry_multiplicity
 _atom_site_fract_x
 _atom_site_fract_y
 _atom_site_fract_z
 _atom_site_occupancy
  Yb  Yb0  1  0.806879  0.000000  0.500000  1
  Yb  Yb1  1  0.000000  0.500000  0.806879  1
  Yb  Yb2  1  0.500000  0.806879  0.000000  1
  Yb  Yb3  1  0.000000  0.500000  0.193121  1
  Yb  Yb4  1  0.500000  0.193121  0.000000  1
  Yb  Yb5  1  0.193121  0.000000  0.500000  1
  Ga  Ga6  1  0.282106  0.717894  0.282106  1
  Ga  Ga7  1  0.717894  0.282106  0.282106  1
  Ga  Ga8  1  0.282106  0.282106  0.717894  1
  Ga  Ga9  1  0.717894  0.717894  0.717894  1
  Ga  Ga10  1  0.717894  0.282106  0.717894  1
  Ga  Ga11  1  0.282106  0.717894  0.717894  1
  Ga  Ga12  1  0.717894  0.717894  0.282106  1
  Ga  Ga13  1  0.282106  0.282106  0.282106  1
  Ga  Ga14  1  0.672888  0.500000  0.000000  1
  Ga  Ga15  1  0.500000  0.000000  0.672888  1
  Ga  Ga16  1  0.000000  0.672888  0.500000  1
  Ga  Ga17  1  0.500000  0.000000  0.327112  1
  Ga  Ga18  1  0.000000  0.327112  0.500000  1
  Ga  Ga19  1  0.327112  0.500000  0.000000  1
  Ga  Ga20  1  0.000000  0.000000  0.000000  1
  Cu  Cu21  1  0.000000  0.839549  0.254975  1
  Cu  Cu22  1  0.000000  0.160451  0.745025  1
  Cu  Cu23  1  0.000000  0.839549  0.745025  1
  Cu  Cu24  1  0.160451  0.745025  0.000000  1
  Cu  Cu25  1  0.745025  0.000000  0.839549  1
  Cu  Cu26  1  0.745025  0.000000  0.160451  1
  Cu  Cu27  1  0.839549  0.254975  0.000000  1
  Cu  Cu28  1  0.254975  0.000000  0.839549  1
  Cu  Cu29  1  0.839549  0.745025  0.000000  1
  Cu  Cu30  1  0.270510  0.500000  0.500000  1
  Cu  Cu31  1  0.500000  0.270510  0.500000  1
  Cu  Cu32  1  0.500000  0.500000  0.270510  1
  Cu  Cu33  1  0.500000  0.729490  0.500000  1
  Cu  Cu34  1  0.500000  0.500000  0.729490  1
  Cu  Cu35  1  0.729490  0.500000  0.500000  1
  Cu  Cu36  1  0.000000  0.160451  0.254975  1
  Cu  Cu37  1  0.254975  0.000000  0.160451  1
  Cu  Cu38  1  0.160451  0.254975  0.000000  1
