# generated using pymatgen
data_Dy16CdIn3Rh4
_symmetry_space_group_name_H-M   'P 1'
_cell_length_a   9.66419442
_cell_length_b   9.63996213
_cell_length_c   9.66419500
_cell_angle_alpha   59.91681292
_cell_angle_beta   60.00000145
_cell_angle_gamma   59.91681640
_symmetry_Int_Tables_number   1
_chemical_formula_structural   Dy16CdIn3Rh4
_chemical_formula_sum   'Dy16 Cd1 In3 Rh4'
_cell_volume   635.83506267
_cell_formula_units_Z   1
loop_
 _symmetry_equiv_pos_site_id
 _symmetry_equiv_pos_as_xyz
  1  'x, y, z'
loop_
 _atom_site_type_symbol
 _atom_site_label
 _atom_site_symmetry_multiplicity
 _atom_site_fract_x
 _atom_site_fract_y
 _atom_site_fract_z
 _atom_site_occupancy
  Dy  Dy0  1  0.564891  0.562223  0.936443  1
  Dy  Dy1  1  0.149953  0.550141  0.149953  1
  Dy  Dy2  1  0.688461  0.311472  0.311607  1
  Dy  Dy3  1  0.936443  0.562223  0.564891  1
  Dy  Dy4  1  0.936443  0.562223  0.936443  1
  Dy  Dy5  1  0.689093  0.689219  0.310844  1
  Dy  Dy6  1  0.563306  0.936145  0.937243  1
  Dy  Dy7  1  0.150067  0.149808  0.150067  1
  Dy  Dy8  1  0.310844  0.689219  0.310844  1
  Dy  Dy9  1  0.550059  0.149808  0.150067  1
  Dy  Dy10  1  0.311607  0.311472  0.688461  1
  Dy  Dy11  1  0.310844  0.689219  0.689093  1
  Dy  Dy12  1  0.150067  0.149808  0.550059  1
  Dy  Dy13  1  0.688461  0.311472  0.688461  1
  Dy  Dy14  1  0.937243  0.936145  0.563306  1
  Dy  Dy15  1  0.563306  0.936145  0.563306  1
  Cd  Cd16  1  0.917942  0.246173  0.917942  1
  In  In17  1  0.916862  0.918529  0.916862  1
  In  In18  1  0.247746  0.918529  0.916862  1
  In  In19  1  0.916862  0.918529  0.247746  1
  Rh  Rh20  1  0.357580  0.357511  0.927329  1
  Rh  Rh21  1  0.357580  0.357511  0.357580  1
  Rh  Rh22  1  0.927329  0.357511  0.357580  1
  Rh  Rh23  1  0.357011  0.928967  0.357011  1
