# generated using pymatgen
data_Tm12Co4BiRh
_symmetry_space_group_name_H-M   'P 1'
_cell_length_a   8.19492764
_cell_length_b   8.19492670
_cell_length_c   8.19492646
_cell_angle_alpha   110.84945620
_cell_angle_beta   111.15345848
_cell_angle_gamma   106.45242726
_symmetry_Int_Tables_number   1
_chemical_formula_structural   Tm12Co4BiRh
_chemical_formula_sum   'Tm12 Co4 Bi1 Rh1'
_cell_volume   422.77670491
_cell_formula_units_Z   1
loop_
 _symmetry_equiv_pos_site_id
 _symmetry_equiv_pos_as_xyz
  1  'x, y, z'
loop_
 _atom_site_type_symbol
 _atom_site_label
 _atom_site_symmetry_multiplicity
 _atom_site_fract_x
 _atom_site_fract_y
 _atom_site_fract_z
 _atom_site_occupancy
  Tm  Tm0  1  0.286156  0.183713  0.469869  1
  Tm  Tm1  1  0.713844  0.816287  0.530131  1
  Tm  Tm2  1  0.286156  0.816287  0.102442  1
  Tm  Tm3  1  0.713844  0.183713  0.897558  1
  Tm  Tm4  1  0.620048  0.311549  0.308499  1
  Tm  Tm5  1  0.379952  0.688451  0.691501  1
  Tm  Tm6  1  0.003050  0.311549  0.691501  1
  Tm  Tm7  1  0.996950  0.688451  0.308499  1
  Tm  Tm8  1  0.212881  0.411128  0.198248  1
  Tm  Tm9  1  0.787119  0.588872  0.801752  1
  Tm  Tm10  1  0.212881  0.014633  0.801752  1
  Tm  Tm11  1  0.787119  0.985367  0.198248  1
  Co  Co12  1  0.000000  0.375087  0.375087  1
  Co  Co13  1  0.000000  0.624913  0.624913  1
  Co  Co14  1  0.388391  0.888391  0.500000  1
  Co  Co15  1  0.611609  0.111609  0.500000  1
  Bi  Bi16  1  0.500000  0.500000  0.000000  1
  Rh  Rh17  1  0.000000  0.000000  0.000000  1
