# generated using pymatgen
data_Sm2ErTm3(SiRh2)6
_symmetry_space_group_name_H-M   'P 1'
_cell_length_a   5.58104400
_cell_length_b   5.58104360
_cell_length_c   14.97253500
_cell_angle_alpha   90.00000000
_cell_angle_beta   90.00000000
_cell_angle_gamma   119.99999051
_symmetry_Int_Tables_number   1
_chemical_formula_structural   Sm2ErTm3(SiRh2)6
_chemical_formula_sum   'Sm2 Er1 Tm3 Si6 Rh12'
_cell_volume   403.88420757
_cell_formula_units_Z   1
loop_
 _symmetry_equiv_pos_site_id
 _symmetry_equiv_pos_as_xyz
  1  'x, y, z'
loop_
 _atom_site_type_symbol
 _atom_site_label
 _atom_site_symmetry_multiplicity
 _atom_site_fract_x
 _atom_site_fract_y
 _atom_site_fract_z
 _atom_site_occupancy
  Sm  Sm0  1  0.333333  0.666667  0.750008  1
  Sm  Sm1  1  0.666667  0.333333  0.249991  1
  Er  Er2  1  0.333333  0.666667  0.963298  1
  Tm  Tm3  1  0.333333  0.666667  0.536502  1
  Tm  Tm4  1  0.666667  0.333333  0.463505  1
  Tm  Tm5  1  0.666667  0.333333  0.036610  1
  Si  Si6  1  0.000000  0.000000  0.250081  1
  Si  Si7  1  0.000000  0.000000  0.749956  1
  Si  Si8  1  0.333333  0.666667  0.250014  1
  Si  Si9  1  0.666667  0.333333  0.749963  1
  Si  Si10  1  0.000000  0.000000  0.999987  1
  Si  Si11  1  0.000000  0.000000  0.500003  1
  Rh  Rh12  1  0.166986  0.333971  0.129282  1
  Rh  Rh13  1  0.832929  0.665859  0.870758  1
  Rh  Rh14  1  0.666029  0.833014  0.129282  1
  Rh  Rh15  1  0.832936  0.665873  0.629109  1
  Rh  Rh16  1  0.334141  0.167071  0.870758  1
  Rh  Rh17  1  0.167053  0.334104  0.370879  1
  Rh  Rh18  1  0.166986  0.833014  0.129282  1
  Rh  Rh19  1  0.334127  0.167064  0.629109  1
  Rh  Rh20  1  0.832929  0.167071  0.870758  1
  Rh  Rh21  1  0.665896  0.832947  0.370879  1
  Rh  Rh22  1  0.832936  0.167064  0.629109  1
  Rh  Rh23  1  0.167053  0.832947  0.370879  1
