# generated using pymatgen
data_Zr3(TiRe2)2
_symmetry_space_group_name_H-M   'P 1'
_cell_length_a   5.26514828
_cell_length_b   5.26729941
_cell_length_c   12.96101200
_cell_angle_alpha   89.94486124
_cell_angle_beta   89.89840482
_cell_angle_gamma   60.17760683
_symmetry_Int_Tables_number   1
_chemical_formula_structural   Zr3(TiRe2)2
_chemical_formula_sum   'Zr6 Ti4 Re8'
_cell_volume   311.84726754
_cell_formula_units_Z   2
loop_
 _symmetry_equiv_pos_site_id
 _symmetry_equiv_pos_as_xyz
  1  'x, y, z'
loop_
 _atom_site_type_symbol
 _atom_site_label
 _atom_site_symmetry_multiplicity
 _atom_site_fract_x
 _atom_site_fract_y
 _atom_site_fract_z
 _atom_site_occupancy
  Zr  Zr0  1  0.332361  0.332921  0.789755  1
  Zr  Zr1  1  0.999905  0.996247  0.127996  1
  Zr  Zr2  1  0.664275  0.664583  0.459279  1
  Zr  Zr3  1  0.335725  0.335417  0.540721  1
  Zr  Zr4  1  0.000095  0.003753  0.872004  1
  Zr  Zr5  1  0.667639  0.667079  0.210245  1
  Ti  Ti6  1  0.500000  0.500000  0.000000  1
  Ti  Ti7  1  0.165395  0.166016  0.332554  1
  Ti  Ti8  1  0.834605  0.833984  0.667446  1
  Ti  Ti9  1  0.000000  0.500000  0.000000  1
  Re  Re10  1  0.665159  0.167653  0.334314  1
  Re  Re11  1  0.334841  0.832347  0.665686  1
  Re  Re12  1  0.335652  0.328759  0.165280  1
  Re  Re13  1  0.000000  0.000000  0.500000  1
  Re  Re14  1  0.664348  0.671241  0.834720  1
  Re  Re15  1  0.500000  0.000000  0.000000  1
  Re  Re16  1  0.167185  0.664582  0.333251  1
  Re  Re17  1  0.832815  0.335418  0.666749  1
