# generated using pymatgen
data_Dy7Ho3In8(CoNi)2
_symmetry_space_group_name_H-M   'P 1'
_cell_length_a   3.58647700
_cell_length_b   8.01269025
_cell_length_c   17.93261549
_cell_angle_alpha   90.02781742
_cell_angle_beta   90.00000000
_cell_angle_gamma   90.00000000
_symmetry_Int_Tables_number   1
_chemical_formula_structural   Dy7Ho3In8(CoNi)2
_chemical_formula_sum   'Dy7 Ho3 In8 Co2 Ni2'
_cell_volume   515.33541587
_cell_formula_units_Z   1
loop_
 _symmetry_equiv_pos_site_id
 _symmetry_equiv_pos_as_xyz
  1  'x, y, z'
loop_
 _atom_site_type_symbol
 _atom_site_label
 _atom_site_symmetry_multiplicity
 _atom_site_fract_x
 _atom_site_fract_y
 _atom_site_fract_z
 _atom_site_occupancy
  Dy  Dy0  1  0.500000  0.759855  0.722767  1
  Dy  Dy1  1  0.500000  0.246573  0.778988  1
  Dy  Dy2  1  0.500000  0.499897  0.999797  1
  Dy  Dy3  1  0.500000  0.740521  0.222293  1
  Dy  Dy4  1  0.500000  0.253655  0.278326  1
  Dy  Dy5  1  0.500000  0.999665  0.500132  1
  Dy  Dy6  1  0.500000  0.615438  0.409944  1
  Ho  Ho7  1  0.500000  0.383011  0.589969  1
  Ho  Ho8  1  0.500000  0.884169  0.909721  1
  Ho  Ho9  1  0.500000  0.117168  0.089654  1
  In  In10  1  0.000000  0.796502  0.068132  1
  In  In11  1  0.000000  0.928387  0.347510  1
  In  In12  1  0.000000  0.068779  0.652029  1
  In  In13  1  0.000000  0.571933  0.847871  1
  In  In14  1  0.000000  0.704033  0.569060  1
  In  In15  1  0.000000  0.202898  0.931105  1
  In  In16  1  0.000000  0.295111  0.430671  1
  In  In17  1  0.000000  0.431699  0.151407  1
  Co  Co18  1  0.000000  0.980110  0.805034  1
  Co  Co19  1  0.000000  0.519846  0.304628  1
  Ni  Ni20  1  0.000000  0.480011  0.695714  1
  Ni  Ni21  1  0.000000  0.020738  0.195249  1
