# generated using pymatgen
data_Dy2YHo(Al3Ir)6
_symmetry_space_group_name_H-M   'P 1'
_cell_length_a   7.55130206
_cell_length_b   7.55209314
_cell_length_c   9.47732100
_cell_angle_alpha   90.00000000
_cell_angle_beta   90.00000000
_cell_angle_gamma   119.52147536
_symmetry_Int_Tables_number   1
_chemical_formula_structural   Dy2YHo(Al3Ir)6
_chemical_formula_sum   'Dy2 Y1 Ho1 Al18 Ir6'
_cell_volume   470.30479839
_cell_formula_units_Z   1
loop_
 _symmetry_equiv_pos_site_id
 _symmetry_equiv_pos_as_xyz
  1  'x, y, z'
loop_
 _atom_site_type_symbol
 _atom_site_label
 _atom_site_symmetry_multiplicity
 _atom_site_fract_x
 _atom_site_fract_y
 _atom_site_fract_z
 _atom_site_occupancy
  Dy  Dy0  1  0.994801  0.670674  0.250000  1
  Dy  Dy1  1  0.005216  0.329284  0.750000  1
  Y  Y2  1  0.670691  0.994754  0.250000  1
  Ho  Ho3  1  0.329251  0.005257  0.750000  1
  Al  Al4  1  0.128810  0.128660  0.250000  1
  Al  Al5  1  0.871456  0.871367  0.750000  1
  Al  Al6  1  0.001146  0.334997  0.073736  1
  Al  Al7  1  0.999062  0.665205  0.926082  1
  Al  Al8  1  0.999062  0.665205  0.573918  1
  Al  Al9  1  0.334913  0.001079  0.426477  1
  Al  Al10  1  0.001146  0.334997  0.426264  1
  Al  Al11  1  0.664870  0.998926  0.573936  1
  Al  Al12  1  0.664870  0.998926  0.926064  1
  Al  Al13  1  0.334913  0.001079  0.073523  1
  Al  Al14  1  0.333484  0.333367  0.552068  1
  Al  Al15  1  0.666521  0.666444  0.448154  1
  Al  Al16  1  0.666521  0.666444  0.051846  1
  Al  Al17  1  0.333484  0.333367  0.947932  1
  Al  Al18  1  0.339060  0.547746  0.250000  1
  Al  Al19  1  0.660660  0.451965  0.750000  1
  Al  Al20  1  0.547756  0.339058  0.250000  1
  Al  Al21  1  0.452224  0.661155  0.750000  1
  Ir  Ir22  1  0.671888  0.328043  0.999889  1
  Ir  Ir23  1  0.328007  0.671953  0.999932  1
  Ir  Ir24  1  0.328007  0.671953  0.500068  1
  Ir  Ir25  1  0.671888  0.328043  0.500111  1
  Ir  Ir26  1  0.000147  0.000025  0.999892  1
  Ir  Ir27  1  0.000147  0.000025  0.500108  1
