# generated using pymatgen
data_Er4FeOs6Ru
_symmetry_space_group_name_H-M   'P 1'
_cell_length_a   5.26324600
_cell_length_b   5.23975865
_cell_length_c   8.89889102
_cell_angle_alpha   89.99288033
_cell_angle_beta   90.00000000
_cell_angle_gamma   120.14840451
_symmetry_Int_Tables_number   1
_chemical_formula_structural   Er4FeOs6Ru
_chemical_formula_sum   'Er4 Fe1 Os6 Ru1'
_cell_volume   212.21695063
_cell_formula_units_Z   1
loop_
 _symmetry_equiv_pos_site_id
 _symmetry_equiv_pos_as_xyz
  1  'x, y, z'
loop_
 _atom_site_type_symbol
 _atom_site_label
 _atom_site_symmetry_multiplicity
 _atom_site_fract_x
 _atom_site_fract_y
 _atom_site_fract_z
 _atom_site_occupancy
  Er  Er0  1  0.332122  0.664244  0.437199  1
  Er  Er1  1  0.667224  0.334446  0.566654  1
  Er  Er2  1  0.667757  0.335512  0.933267  1
  Er  Er3  1  0.332611  0.665224  0.062629  1
  Fe  Fe4  1  0.164866  0.329730  0.751703  1
  Os  Os5  1  0.176240  0.829898  0.750513  1
  Os  Os6  1  0.345223  0.173634  0.249311  1
  Os  Os7  1  0.832639  0.665278  0.249458  1
  Os  Os8  1  0.653658  0.829898  0.750513  1
  Os  Os9  1  0.000527  0.001055  0.996746  1
  Os  Os10  1  0.828411  0.173634  0.249311  1
  Ru  Ru11  1  0.998724  0.997448  0.502696  1
