# generated using pymatgen
data_Li2La5P12Ir17
_symmetry_space_group_name_H-M   'P 1'
_cell_length_a   12.80693700
_cell_length_b   12.92604934
_cell_length_c   4.03061100
_cell_angle_alpha   90.00000000
_cell_angle_beta   90.00000000
_cell_angle_gamma   119.69564117
_symmetry_Int_Tables_number   1
_chemical_formula_structural   Li2La5P12Ir17
_chemical_formula_sum   'Li2 La5 P12 Ir17'
_cell_volume   579.61069945
_cell_formula_units_Z   1
loop_
 _symmetry_equiv_pos_site_id
 _symmetry_equiv_pos_as_xyz
  1  'x, y, z'
loop_
 _atom_site_type_symbol
 _atom_site_label
 _atom_site_symmetry_multiplicity
 _atom_site_fract_x
 _atom_site_fract_y
 _atom_site_fract_z
 _atom_site_occupancy
  Li  Li0  1  0.999007  0.439958  0.500000  1
  Li  Li1  1  0.559049  0.560042  0.500000  1
  La  La2  1  0.331844  0.662608  0.500000  1
  La  La3  1  0.669237  0.337392  0.500000  1
  La  La4  1  0.002590  0.809972  0.000000  1
  La  La5  1  0.192618  0.190028  0.000000  1
  La  La6  1  0.812151  0.000000  0.000000  1
  P  P7  1  0.997409  0.624234  0.500000  1
  P  P8  1  0.373176  0.375766  0.500000  1
  P  P9  1  0.635536  0.000000  0.500000  1
  P  P10  1  0.516270  0.684625  0.000000  1
  P  P11  1  0.305727  0.823305  0.000000  1
  P  P12  1  0.164553  0.477410  0.000000  1
  P  P13  1  0.482422  0.176695  0.000000  1
  P  P14  1  0.687143  0.522590  0.000000  1
  P  P15  1  0.831645  0.315375  0.000000  1
  P  P16  1  0.998050  0.181249  0.500000  1
  P  P17  1  0.816801  0.818751  0.500000  1
  P  P18  1  0.182294  0.000000  0.500000  1
  Ir  Ir19  1  0.505732  0.869477  0.000000  1
  Ir  Ir20  1  0.127063  0.638651  0.000000  1
  Ir  Ir21  1  0.355762  0.486398  0.000000  1
  Ir  Ir22  1  0.488413  0.361349  0.000000  1
  Ir  Ir23  1  0.869365  0.513602  0.000000  1
  Ir  Ir24  1  0.636256  0.130523  0.000000  1
  Ir  Ir25  1  0.457099  0.000000  0.500000  1
  Ir  Ir26  1  0.996344  0.280047  0.000000  1
  Ir  Ir27  1  0.716298  0.719953  0.000000  1
  Ir  Ir28  1  0.290857  0.000000  0.000000  1
  Ir  Ir29  1  0.619738  0.804608  0.500000  1
  Ir  Ir30  1  0.205488  0.825838  0.500000  1
  Ir  Ir31  1  0.176624  0.373518  0.500000  1
  Ir  Ir32  1  0.379651  0.174162  0.500000  1
  Ir  Ir33  1  0.803106  0.626482  0.500000  1
  Ir  Ir34  1  0.815131  0.195392  0.500000  1
  Ir  Ir35  1  0.999551  0.000000  0.500000  1
