# generated using pymatgen
data_EuCrNiP2
_symmetry_space_group_name_H-M   'P 1'
_cell_length_a   6.17590912
_cell_length_b   6.17590938
_cell_length_c   6.17590917
_cell_angle_alpha   144.14429911
_cell_angle_beta   144.14429824
_cell_angle_gamma   51.61156651
_symmetry_Int_Tables_number   1
_chemical_formula_structural   EuCrNiP2
_chemical_formula_sum   'Eu1 Cr1 Ni1 P2'
_cell_volume   80.37649235
_cell_formula_units_Z   1
loop_
 _symmetry_equiv_pos_site_id
 _symmetry_equiv_pos_as_xyz
  1  'x, y, z'
loop_
 _atom_site_type_symbol
 _atom_site_label
 _atom_site_symmetry_multiplicity
 _atom_site_fract_x
 _atom_site_fract_y
 _atom_site_fract_z
 _atom_site_occupancy
  Eu  Eu0  1  0.000000  0.000000  0.000000  1
  Cr  Cr1  1  0.250000  0.750000  0.500000  1
  Ni  Ni2  1  0.750000  0.250000  0.500000  1
  P  P3  1  0.638356  0.638356  0.000000  1
  P  P4  1  0.361644  0.361644  0.000000  1
