# generated using pymatgen
data_HoEr3HgIr
_symmetry_space_group_name_H-M   'P 1'
_cell_length_a   9.52767647
_cell_length_b   9.52689280
_cell_length_c   9.52689203
_cell_angle_alpha   60.00543858
_cell_angle_beta   59.99727732
_cell_angle_gamma   59.99727633
_symmetry_Int_Tables_number   1
_chemical_formula_structural   HoEr3HgIr
_chemical_formula_sum   'Ho4 Er12 Hg4 Ir4'
_cell_volume   611.46907029
_cell_formula_units_Z   4
loop_
 _symmetry_equiv_pos_site_id
 _symmetry_equiv_pos_as_xyz
  1  'x, y, z'
loop_
 _atom_site_type_symbol
 _atom_site_label
 _atom_site_symmetry_multiplicity
 _atom_site_fract_x
 _atom_site_fract_y
 _atom_site_fract_z
 _atom_site_occupancy
  Ho  Ho0  1  0.811709  0.188291  0.811709  1
  Ho  Ho1  1  0.188291  0.811709  0.188291  1
  Ho  Ho2  1  0.811709  0.811709  0.188291  1
  Ho  Ho3  1  0.188291  0.188291  0.811709  1
  Er  Er4  1  0.600575  0.600656  0.600656  1
  Er  Er5  1  0.600656  0.600575  0.198114  1
  Er  Er6  1  0.600656  0.198114  0.600575  1
  Er  Er7  1  0.198114  0.600656  0.600656  1
  Er  Er8  1  0.059936  0.440064  0.440064  1
  Er  Er9  1  0.440064  0.059936  0.059936  1
  Er  Er10  1  0.440112  0.059888  0.440112  1
  Er  Er11  1  0.059888  0.440112  0.059888  1
  Er  Er12  1  0.440112  0.440112  0.059888  1
  Er  Er13  1  0.059888  0.059888  0.440112  1
  Er  Er14  1  0.188428  0.811572  0.811572  1
  Er  Er15  1  0.811572  0.188428  0.188428  1
  Hg  Hg16  1  0.834805  0.834653  0.834653  1
  Hg  Hg17  1  0.834653  0.834805  0.495888  1
  Hg  Hg18  1  0.834653  0.495888  0.834805  1
  Hg  Hg19  1  0.495888  0.834653  0.834653  1
  Ir  Ir20  1  0.392084  0.391965  0.391965  1
  Ir  Ir21  1  0.391965  0.392084  0.823988  1
  Ir  Ir22  1  0.391965  0.823988  0.392084  1
  Ir  Ir23  1  0.823988  0.391965  0.391965  1
