# generated using pymatgen
data_Er8Si5GeRh8
_symmetry_space_group_name_H-M   'P 1'
_cell_length_a   10.70275385
_cell_length_b   10.70275338
_cell_length_c   7.68795261
_cell_angle_alpha   71.14696256
_cell_angle_beta   71.14696189
_cell_angle_gamma   29.61344078
_symmetry_Int_Tables_number   1
_chemical_formula_structural   Er8Si5GeRh8
_chemical_formula_sum   'Er8 Si5 Ge1 Rh8'
_cell_volume   410.14041956
_cell_formula_units_Z   1
loop_
 _symmetry_equiv_pos_site_id
 _symmetry_equiv_pos_as_xyz
  1  'x, y, z'
loop_
 _atom_site_type_symbol
 _atom_site_label
 _atom_site_symmetry_multiplicity
 _atom_site_fract_x
 _atom_site_fract_y
 _atom_site_fract_z
 _atom_site_occupancy
  Er  Er0  1  0.209858  0.449697  0.398319  1
  Er  Er1  1  0.550303  0.790142  0.101681  1
  Er  Er2  1  0.449182  0.209547  0.899284  1
  Er  Er3  1  0.924729  0.210595  0.332565  1
  Er  Er4  1  0.789405  0.075271  0.167435  1
  Er  Er5  1  0.077736  0.786850  0.666881  1
  Er  Er6  1  0.213150  0.922264  0.833119  1
  Er  Er7  1  0.790453  0.550818  0.600716  1
  Si  Si8  1  0.360069  0.639931  0.250000  1
  Si  Si9  1  0.295406  0.047441  0.445796  1
  Si  Si10  1  0.952559  0.704594  0.054204  1
  Si  Si11  1  0.703557  0.952339  0.553728  1
  Si  Si12  1  0.047661  0.296443  0.946272  1
  Ge  Ge13  1  0.652914  0.347086  0.750000  1
  Rh  Rh14  1  0.292776  0.580172  0.023655  1
  Rh  Rh15  1  0.571565  0.298828  0.513363  1
  Rh  Rh16  1  0.701172  0.428435  0.986637  1
  Rh  Rh17  1  0.069206  0.373156  0.192895  1
  Rh  Rh18  1  0.626844  0.930794  0.307105  1
  Rh  Rh19  1  0.419828  0.707224  0.476345  1
  Rh  Rh20  1  0.930197  0.628570  0.807701  1
  Rh  Rh21  1  0.371430  0.069803  0.692299  1
