# generated using pymatgen
data_Er8In2CoPd
_symmetry_space_group_name_H-M   'P 1'
_cell_length_a   9.54420675
_cell_length_b   9.53967371
_cell_length_c   9.53967447
_cell_angle_alpha   60.11154637
_cell_angle_beta   59.98428089
_cell_angle_gamma   59.98427725
_symmetry_Int_Tables_number   1
_chemical_formula_structural   Er8In2CoPd
_chemical_formula_sum   'Er16 In4 Co2 Pd2'
_cell_volume   614.54442202
_cell_formula_units_Z   2
loop_
 _symmetry_equiv_pos_site_id
 _symmetry_equiv_pos_as_xyz
  1  'x, y, z'
loop_
 _atom_site_type_symbol
 _atom_site_label
 _atom_site_symmetry_multiplicity
 _atom_site_fract_x
 _atom_site_fract_y
 _atom_site_fract_z
 _atom_site_occupancy
  Er  Er0  1  0.063772  0.060191  0.434205  1
  Er  Er1  1  0.653130  0.055856  0.637884  1
  Er  Er2  1  0.179794  0.809473  0.198822  1
  Er  Er3  1  0.441831  0.060191  0.434205  1
  Er  Er4  1  0.179794  0.198822  0.809473  1
  Er  Er5  1  0.662623  0.649003  0.649003  1
  Er  Er6  1  0.039374  0.649003  0.649003  1
  Er  Er7  1  0.439876  0.060124  0.060124  1
  Er  Er8  1  0.653130  0.637884  0.055856  1
  Er  Er9  1  0.190073  0.809927  0.809927  1
  Er  Er10  1  0.811910  0.198822  0.809473  1
  Er  Er11  1  0.812038  0.187962  0.187962  1
  Er  Er12  1  0.811910  0.809473  0.198822  1
  Er  Er13  1  0.066190  0.433810  0.433810  1
  Er  Er14  1  0.441831  0.434205  0.060191  1
  Er  Er15  1  0.063772  0.434205  0.060191  1
  In  In16  1  0.751259  0.417623  0.417623  1
  In  In17  1  0.416830  0.419531  0.746809  1
  In  In18  1  0.416830  0.746809  0.419531  1
  In  In19  1  0.413495  0.417623  0.417623  1
  Co  Co20  1  0.855413  0.863402  0.425774  1
  Co  Co21  1  0.855413  0.425774  0.863402  1
  Pd  Pd22  1  0.851621  0.860144  0.860144  1
  Pd  Pd23  1  0.428091  0.860144  0.860144  1
