# generated using pymatgen
data_Tb8Y2Cd3Os
_symmetry_space_group_name_H-M   'P 1'
_cell_length_a   9.64861700
_cell_length_b   9.64881620
_cell_length_c   9.92502900
_cell_angle_alpha   90.00000000
_cell_angle_beta   90.00000000
_cell_angle_gamma   120.00068222
_symmetry_Int_Tables_number   1
_chemical_formula_structural   Tb8Y2Cd3Os
_chemical_formula_sum   'Tb16 Y4 Cd6 Os2'
_cell_volume   800.19997140
_cell_formula_units_Z   2
loop_
 _symmetry_equiv_pos_site_id
 _symmetry_equiv_pos_as_xyz
  1  'x, y, z'
loop_
 _atom_site_type_symbol
 _atom_site_label
 _atom_site_symmetry_multiplicity
 _atom_site_fract_x
 _atom_site_fract_y
 _atom_site_fract_z
 _atom_site_occupancy
  Tb  Tb0  1  0.000056  0.000028  0.500069  1
  Tb  Tb1  1  0.000056  0.000028  0.999931  1
  Tb  Tb2  1  0.209717  0.790308  0.440191  1
  Tb  Tb3  1  0.209717  0.419409  0.440191  1
  Tb  Tb4  1  0.580574  0.790287  0.440189  1
  Tb  Tb5  1  0.790204  0.209717  0.559804  1
  Tb  Tb6  1  0.790204  0.580487  0.559804  1
  Tb  Tb7  1  0.419604  0.209802  0.559736  1
  Tb  Tb8  1  0.790204  0.209717  0.940196  1
  Tb  Tb9  1  0.790204  0.580487  0.940196  1
  Tb  Tb10  1  0.419604  0.209802  0.940264  1
  Tb  Tb11  1  0.209717  0.790308  0.059809  1
  Tb  Tb12  1  0.209717  0.419409  0.059809  1
  Tb  Tb13  1  0.580574  0.790287  0.059811  1
  Tb  Tb14  1  0.540264  0.459819  0.250000  1
  Tb  Tb15  1  0.540264  0.080445  0.250000  1
  Y  Y16  1  0.919413  0.459707  0.250000  1
  Y  Y17  1  0.459776  0.540224  0.750000  1
  Y  Y18  1  0.459776  0.919551  0.750000  1
  Y  Y19  1  0.080527  0.540263  0.750000  1
  Cd  Cd20  1  0.885488  0.114577  0.250000  1
  Cd  Cd21  1  0.885488  0.770913  0.250000  1
  Cd  Cd22  1  0.229020  0.114511  0.250000  1
  Cd  Cd23  1  0.114495  0.885363  0.750000  1
  Cd  Cd24  1  0.114495  0.229130  0.750000  1
  Cd  Cd25  1  0.770874  0.885436  0.750000  1
  Os  Os26  1  0.333396  0.666699  0.250000  1
  Os  Os27  1  0.666571  0.333285  0.750000  1
