# generated using pymatgen
data_YbHoGa2Co5NiB2
_symmetry_space_group_name_H-M   'P 1'
_cell_length_a   5.14338100
_cell_length_b   5.14338072
_cell_length_c   6.68285300
_cell_angle_alpha   90.00000000
_cell_angle_beta   90.00000000
_cell_angle_gamma   120.00000821
_symmetry_Int_Tables_number   1
_chemical_formula_structural   YbHoGa2Co5NiB2
_chemical_formula_sum   'Yb1 Ho1 Ga2 Co5 Ni1 B2'
_cell_volume   153.10517603
_cell_formula_units_Z   1
loop_
 _symmetry_equiv_pos_site_id
 _symmetry_equiv_pos_as_xyz
  1  'x, y, z'
loop_
 _atom_site_type_symbol
 _atom_site_label
 _atom_site_symmetry_multiplicity
 _atom_site_fract_x
 _atom_site_fract_y
 _atom_site_fract_z
 _atom_site_occupancy
  Yb  Yb0  1  0.000000  0.000000  0.498632  1
  Ho  Ho1  1  0.000000  0.000000  0.002216  1
  Ga  Ga2  1  0.669559  0.330441  0.499145  1
  Ga  Ga3  1  0.330441  0.669559  0.499145  1
  Co  Co4  1  0.500000  0.000000  0.796434  1
  Co  Co5  1  0.000000  0.500000  0.796434  1
  Co  Co6  1  0.500000  0.500000  0.203585  1
  Co  Co7  1  0.500000  0.000000  0.204096  1
  Co  Co8  1  0.000000  0.500000  0.204096  1
  Ni  Ni9  1  0.500000  0.500000  0.793853  1
  B  B10  1  0.669867  0.330133  0.001181  1
  B  B11  1  0.330133  0.669867  0.001181  1
