# generated using pymatgen
data_KSiAgF6
_symmetry_space_group_name_H-M   'P 1'
_cell_length_a   5.72281700
_cell_length_b   9.63013900
_cell_length_c   10.08746700
_cell_angle_alpha   90.00000000
_cell_angle_beta   90.00000000
_cell_angle_gamma   90.00000000
_symmetry_Int_Tables_number   1
_chemical_formula_structural   KSiAgF6
_chemical_formula_sum   'K4 Si4 Ag4 F24'
_cell_volume   555.93567141
_cell_formula_units_Z   4
loop_
 _symmetry_equiv_pos_site_id
 _symmetry_equiv_pos_as_xyz
  1  'x, y, z'
loop_
 _atom_site_type_symbol
 _atom_site_label
 _atom_site_symmetry_multiplicity
 _atom_site_fract_x
 _atom_site_fract_y
 _atom_site_fract_z
 _atom_site_occupancy
  K  K0  1  0.750000  0.987550  0.323280  1
  K  K1  1  0.250000  0.512450  0.823280  1
  K  K2  1  0.250000  0.012450  0.676720  1
  K  K3  1  0.750000  0.487550  0.176720  1
  Si  Si4  1  0.750000  0.267344  0.577804  1
  Si  Si5  1  0.250000  0.232656  0.077804  1
  Si  Si6  1  0.750000  0.767344  0.922196  1
  Si  Si7  1  0.250000  0.732656  0.422196  1
  Ag  Ag8  1  0.750000  0.121837  0.947088  1
  Ag  Ag9  1  0.750000  0.621837  0.552912  1
  Ag  Ag10  1  0.250000  0.378163  0.447088  1
  Ag  Ag11  1  0.250000  0.878163  0.052912  1
  F  F12  1  0.536587  0.167446  0.504652  1
  F  F13  1  0.962820  0.370149  0.648141  1
  F  F14  1  0.750000  0.159138  0.712459  1
  F  F15  1  0.963413  0.667446  0.995348  1
  F  F16  1  0.037180  0.629851  0.351859  1
  F  F17  1  0.963413  0.167446  0.504652  1
  F  F18  1  0.250000  0.625096  0.560929  1
  F  F19  1  0.036587  0.832554  0.495348  1
  F  F20  1  0.250000  0.840862  0.287541  1
  F  F21  1  0.250000  0.340862  0.212459  1
  F  F22  1  0.462820  0.129851  0.148141  1
  F  F23  1  0.536587  0.667446  0.995348  1
  F  F24  1  0.750000  0.659138  0.787541  1
  F  F25  1  0.037180  0.129851  0.148141  1
  F  F26  1  0.463413  0.832554  0.495348  1
  F  F27  1  0.750000  0.874904  0.060929  1
  F  F28  1  0.036587  0.332554  0.004652  1
  F  F29  1  0.462820  0.629851  0.351859  1
  F  F30  1  0.463413  0.332554  0.004652  1
  F  F31  1  0.962820  0.870149  0.851859  1
  F  F32  1  0.250000  0.125096  0.939071  1
  F  F33  1  0.750000  0.374904  0.439071  1
  F  F34  1  0.537180  0.870149  0.851859  1
  F  F35  1  0.537180  0.370149  0.648141  1
