# generated using pymatgen
data_Nd2CoNi(SbH2)2
_symmetry_space_group_name_H-M   'P 1'
_cell_length_a   4.33933800
_cell_length_b   4.33933768
_cell_length_c   8.57947900
_cell_angle_alpha   90.00000000
_cell_angle_beta   90.00000000
_cell_angle_gamma   120.00001766
_symmetry_Int_Tables_number   1
_chemical_formula_structural   Nd2CoNi(SbH2)2
_chemical_formula_sum   'Nd2 Co1 Ni1 Sb2 H4'
_cell_volume   139.90666274
_cell_formula_units_Z   1
loop_
 _symmetry_equiv_pos_site_id
 _symmetry_equiv_pos_as_xyz
  1  'x, y, z'
loop_
 _atom_site_type_symbol
 _atom_site_label
 _atom_site_symmetry_multiplicity
 _atom_site_fract_x
 _atom_site_fract_y
 _atom_site_fract_z
 _atom_site_occupancy
  Nd  Nd0  1  0.000000  0.000000  0.002024  1
  Nd  Nd1  1  0.000000  0.000000  0.497976  1
  Co  Co2  1  0.666667  0.333333  0.250000  1
  Ni  Ni3  1  0.333333  0.666667  0.750000  1
  Sb  Sb4  1  0.333333  0.666667  0.250000  1
  Sb  Sb5  1  0.666667  0.333333  0.750000  1
  H  H6  1  0.333333  0.666667  0.938867  1
  H  H7  1  0.666667  0.333333  0.064215  1
  H  H8  1  0.333333  0.666667  0.561133  1
  H  H9  1  0.666667  0.333333  0.435785  1
