# generated using pymatgen
data_La7Sm2Lu(Sn3Cl)2
_symmetry_space_group_name_H-M   'P 1'
_cell_length_a   9.54986200
_cell_length_b   9.54986142
_cell_length_c   6.80377400
_cell_angle_alpha   90.00000000
_cell_angle_beta   90.00000000
_cell_angle_gamma   119.99999509
_symmetry_Int_Tables_number   1
_chemical_formula_structural   La7Sm2Lu(Sn3Cl)2
_chemical_formula_sum   'La7 Sm2 Lu1 Sn6 Cl2'
_cell_volume   537.37158445
_cell_formula_units_Z   1
loop_
 _symmetry_equiv_pos_site_id
 _symmetry_equiv_pos_as_xyz
  1  'x, y, z'
loop_
 _atom_site_type_symbol
 _atom_site_label
 _atom_site_symmetry_multiplicity
 _atom_site_fract_x
 _atom_site_fract_y
 _atom_site_fract_z
 _atom_site_occupancy
  La  La0  1  0.333333  0.666667  0.000000  1
  La  La1  1  0.737746  0.999930  0.750354  1
  La  La2  1  0.737746  0.737816  0.249646  1
  La  La3  1  0.000070  0.262254  0.249646  1
  La  La4  1  0.000070  0.737816  0.750354  1
  La  La5  1  0.262184  0.262254  0.750354  1
  La  La6  1  0.262184  0.999930  0.249646  1
  Sm  Sm7  1  0.333333  0.666667  0.500000  1
  Sm  Sm8  1  0.666667  0.333333  0.500000  1
  Lu  Lu9  1  0.666667  0.333333  0.000000  1
  Sn  Sn10  1  0.612845  0.606948  0.751765  1
  Sn  Sn11  1  0.994103  0.606948  0.248235  1
  Sn  Sn12  1  0.612845  0.005897  0.248235  1
  Sn  Sn13  1  0.393052  0.005897  0.751765  1
  Sn  Sn14  1  0.994103  0.387155  0.751765  1
  Sn  Sn15  1  0.393052  0.387155  0.248235  1
  Cl  Cl16  1  0.000000  0.000000  0.500000  1
  Cl  Cl17  1  0.000000  0.000000  0.000000  1
