# generated using pymatgen
data_Dy3ErSc4(B6Ir)4
_symmetry_space_group_name_H-M   'P 1'
_cell_length_a   3.54563500
_cell_length_b   9.00647400
_cell_length_c   11.37283800
_cell_angle_alpha   90.00323940
_cell_angle_beta   90.00000000
_cell_angle_gamma   90.00000000
_symmetry_Int_Tables_number   1
_chemical_formula_structural   Dy3ErSc4(B6Ir)4
_chemical_formula_sum   'Dy3 Er1 Sc4 B24 Ir4'
_cell_volume   363.17644901
_cell_formula_units_Z   1
loop_
 _symmetry_equiv_pos_site_id
 _symmetry_equiv_pos_as_xyz
  1  'x, y, z'
loop_
 _atom_site_type_symbol
 _atom_site_label
 _atom_site_symmetry_multiplicity
 _atom_site_fract_x
 _atom_site_fract_y
 _atom_site_fract_z
 _atom_site_occupancy
  Dy  Dy0  1  0.500000  0.319927  0.414044  1
  Dy  Dy1  1  0.500000  0.680103  0.585903  1
  Dy  Dy2  1  0.500000  0.180078  0.914114  1
  Er  Er3  1  0.500000  0.819603  0.085877  1
  Sc  Sc4  1  0.500000  0.445337  0.124139  1
  Sc  Sc5  1  0.500000  0.555043  0.876016  1
  Sc  Sc6  1  0.500000  0.054859  0.624150  1
  Sc  Sc7  1  0.500000  0.945057  0.375761  1
  B  B8  1  0.000000  0.100200  0.472862  1
  B  B9  1  0.000000  0.899762  0.527071  1
  B  B10  1  0.000000  0.399760  0.972912  1
  B  B11  1  0.000000  0.600822  0.027279  1
  B  B12  1  0.000000  0.129785  0.318372  1
  B  B13  1  0.000000  0.870145  0.681602  1
  B  B14  1  0.000000  0.370173  0.818464  1
  B  B15  1  0.000000  0.630250  0.181312  1
  B  B16  1  0.000000  0.054328  0.065712  1
  B  B17  1  0.000000  0.944995  0.934692  1
  B  B18  1  0.000000  0.445256  0.565720  1
  B  B19  1  0.000000  0.554787  0.434203  1
  B  B20  1  0.000000  0.481845  0.284978  1
  B  B21  1  0.000000  0.518290  0.714992  1
  B  B22  1  0.000000  0.018195  0.785079  1
  B  B23  1  0.000000  0.981368  0.214688  1
  B  B24  1  0.000000  0.253937  0.080290  1
  B  B25  1  0.000000  0.746193  0.920214  1
  B  B26  1  0.000000  0.246017  0.580253  1
  B  B27  1  0.000000  0.753994  0.419639  1
  B  B28  1  0.000000  0.295676  0.235384  1
  B  B29  1  0.000000  0.704343  0.764676  1
  B  B30  1  0.000000  0.204266  0.735455  1
  B  B31  1  0.000000  0.795826  0.264137  1
  Ir  Ir32  1  0.500000  0.140951  0.181509  1
  Ir  Ir33  1  0.500000  0.858499  0.818793  1
  Ir  Ir34  1  0.500000  0.358457  0.681711  1
  Ir  Ir35  1  0.500000  0.641874  0.317996  1
