# generated using pymatgen
data_HoGaSiRh2
_symmetry_space_group_name_H-M   'P 1'
_cell_length_a   5.82056266
_cell_length_b   5.82056300
_cell_length_c   5.82056344
_cell_angle_alpha   138.31949587
_cell_angle_beta   138.31949002
_cell_angle_gamma   60.41403028
_symmetry_Int_Tables_number   1
_chemical_formula_structural   HoGaSiRh2
_chemical_formula_sum   'Ho1 Ga1 Si1 Rh2'
_cell_volume   86.27778897
_cell_formula_units_Z   1
loop_
 _symmetry_equiv_pos_site_id
 _symmetry_equiv_pos_as_xyz
  1  'x, y, z'
loop_
 _atom_site_type_symbol
 _atom_site_label
 _atom_site_symmetry_multiplicity
 _atom_site_fract_x
 _atom_site_fract_y
 _atom_site_fract_z
 _atom_site_occupancy
  Ho  Ho0  1  0.997579  0.997579  0.000000  1
  Ga  Ga1  1  0.618009  0.618009  0.000000  1
  Si  Si2  1  0.370067  0.370067  0.000000  1
  Rh  Rh3  1  0.757173  0.257173  0.500000  1
  Rh  Rh4  1  0.257173  0.757173  0.500000  1
