# generated using pymatgen
data_Pr11Sm(CCl3)4
_symmetry_space_group_name_H-M   'P 1'
_cell_length_a   9.74006594
_cell_length_b   9.72992669
_cell_length_c   9.74006726
_cell_angle_alpha   109.46752690
_cell_angle_beta   109.49168962
_cell_angle_gamma   109.46728098
_symmetry_Int_Tables_number   1
_chemical_formula_structural   Pr11Sm(CCl3)4
_chemical_formula_sum   'Pr11 Sm1 C4 Cl12'
_cell_volume   710.46501271
_cell_formula_units_Z   1
loop_
 _symmetry_equiv_pos_site_id
 _symmetry_equiv_pos_as_xyz
  1  'x, y, z'
loop_
 _atom_site_type_symbol
 _atom_site_label
 _atom_site_symmetry_multiplicity
 _atom_site_fract_x
 _atom_site_fract_y
 _atom_site_fract_z
 _atom_site_occupancy
  Pr  Pr0  1  0.483459  0.749998  0.016540  1
  Pr  Pr1  1  0.749037  0.232914  0.266909  1
  Pr  Pr2  1  0.233083  0.267081  0.750955  1
  Pr  Pr3  1  0.466390  0.482377  0.233279  1
  Pr  Pr4  1  0.266724  0.017623  0.033611  1
  Pr  Pr5  1  0.232608  0.466333  0.483669  1
  Pr  Pr6  1  0.016336  0.033677  0.267396  1
  Pr  Pr7  1  0.016293  0.482753  0.749605  1
  Pr  Pr8  1  0.483270  0.232603  0.466259  1
  Pr  Pr9  1  0.750395  0.017246  0.483701  1
  Pr  Pr10  1  0.033742  0.267395  0.016729  1
  Sm  Sm11  1  0.269608  0.749999  0.230393  1
  C  C12  1  0.249875  0.250001  0.250126  1
  C  C13  1  0.999783  0.250003  0.500216  1
  C  C14  1  0.250390  0.504563  0.004685  1
  C  C15  1  0.495316  0.995439  0.249610  1
  Cl  Cl16  1  0.993235  0.986776  0.743526  1
  Cl  Cl17  1  0.755804  0.743325  0.249847  1
  Cl  Cl18  1  0.993867  0.743500  0.000596  1
  Cl  Cl19  1  0.249185  0.988900  0.500886  1
  Cl  Cl20  1  0.743676  0.993575  0.987292  1
  Cl  Cl21  1  0.506620  0.250000  0.993378  1
  Cl  Cl22  1  0.743449  0.249999  0.756548  1
  Cl  Cl23  1  0.499410  0.756505  0.506137  1
  Cl  Cl24  1  0.756469  0.513215  0.506762  1
  Cl  Cl25  1  0.250154  0.756677  0.744199  1
  Cl  Cl26  1  0.512708  0.506424  0.756329  1
  Cl  Cl27  1  0.999113  0.511098  0.250815  1
