# generated using pymatgen
data_La5PrTeO12
_symmetry_space_group_name_H-M   'P 1'
_cell_length_a   6.86070651
_cell_length_b   6.84306930
_cell_length_c   6.84705900
_cell_angle_alpha   98.37980341
_cell_angle_beta   98.61101494
_cell_angle_gamma   98.61586956
_symmetry_Int_Tables_number   1
_chemical_formula_structural   La5PrTeO12
_chemical_formula_sum   'La5 Pr1 Te1 O12'
_cell_volume   309.56282535
_cell_formula_units_Z   1
loop_
 _symmetry_equiv_pos_site_id
 _symmetry_equiv_pos_as_xyz
  1  'x, y, z'
loop_
 _atom_site_type_symbol
 _atom_site_label
 _atom_site_symmetry_multiplicity
 _atom_site_fract_x
 _atom_site_fract_y
 _atom_site_fract_z
 _atom_site_occupancy
  La  La0  1  0.856268  0.394568  0.692699  1
  La  La1  1  0.605877  0.307801  0.144254  1
  La  La2  1  0.306992  0.144181  0.605298  1
  La  La3  1  0.692512  0.855357  0.393911  1
  La  La4  1  0.393786  0.692661  0.856202  1
  Pr  Pr5  1  0.143908  0.608279  0.307423  1
  Te  Te6  1  0.000406  0.000316  0.000572  1
  O  O7  1  0.932125  0.030408  0.715562  1
  O  O8  1  0.971980  0.286057  0.069766  1
  O  O9  1  0.595760  0.177100  0.440076  1
  O  O10  1  0.822319  0.560768  0.403776  1
  O  O11  1  0.284850  0.067638  0.969966  1
  O  O12  1  0.560514  0.404690  0.822274  1
  O  O13  1  0.438922  0.594725  0.176322  1
  O  O14  1  0.715631  0.932583  0.030217  1
  O  O15  1  0.177008  0.439723  0.593189  1
  O  O16  1  0.402567  0.822204  0.558991  1
  O  O17  1  0.030311  0.714396  0.934007  1
  O  O18  1  0.068264  0.966549  0.285495  1
