# generated using pymatgen
data_La3HoAl18(OsPd2)2
_symmetry_space_group_name_H-M   'P 1'
_cell_length_a   7.69025611
_cell_length_b   7.70825144
_cell_length_c   9.63120700
_cell_angle_alpha   90.00000000
_cell_angle_beta   90.00000000
_cell_angle_gamma   119.38571607
_symmetry_Int_Tables_number   1
_chemical_formula_structural   La3HoAl18(OsPd2)2
_chemical_formula_sum   'La3 Ho1 Al18 Os2 Pd4'
_cell_volume   497.46569098
_cell_formula_units_Z   1
loop_
 _symmetry_equiv_pos_site_id
 _symmetry_equiv_pos_as_xyz
  1  'x, y, z'
loop_
 _atom_site_type_symbol
 _atom_site_label
 _atom_site_symmetry_multiplicity
 _atom_site_fract_x
 _atom_site_fract_y
 _atom_site_fract_z
 _atom_site_occupancy
  La  La0  1  0.994969  0.671143  0.250000  1
  La  La1  1  0.003882  0.328890  0.750000  1
  La  La2  1  0.671834  0.994033  0.250000  1
  Ho  Ho3  1  0.327178  0.004935  0.750000  1
  Al  Al4  1  0.132439  0.129947  0.250000  1
  Al  Al5  1  0.873639  0.872269  0.750000  1
  Al  Al6  1  0.004603  0.330252  0.074847  1
  Al  Al7  1  0.000740  0.673495  0.920808  1
  Al  Al8  1  0.000740  0.673495  0.579192  1
  Al  Al9  1  0.330353  0.003039  0.429677  1
  Al  Al10  1  0.004603  0.330252  0.425153  1
  Al  Al11  1  0.665908  0.996951  0.578622  1
  Al  Al12  1  0.665908  0.996951  0.921378  1
  Al  Al13  1  0.330353  0.003039  0.070323  1
  Al  Al14  1  0.330510  0.327907  0.553284  1
  Al  Al15  1  0.668999  0.668855  0.457279  1
  Al  Al16  1  0.668999  0.668855  0.042721  1
  Al  Al17  1  0.330510  0.327907  0.946716  1
  Al  Al18  1  0.344449  0.544224  0.250000  1
  Al  Al19  1  0.652144  0.451182  0.750000  1
  Al  Al20  1  0.543642  0.341276  0.250000  1
  Al  Al21  1  0.454170  0.660595  0.750000  1
  Os  Os22  1  0.000666  0.000500  0.998294  1
  Os  Os23  1  0.000666  0.000500  0.501706  1
  Pd  Pd24  1  0.670581  0.328332  0.998452  1
  Pd  Pd25  1  0.328465  0.671421  0.998627  1
  Pd  Pd26  1  0.328465  0.671421  0.501373  1
  Pd  Pd27  1  0.670581  0.328332  0.501548  1
