# generated using pymatgen
data_Tb4B16IrPt3
_symmetry_space_group_name_H-M   'P 1'
_cell_length_a   7.05365666
_cell_length_b   7.05365639
_cell_length_c   7.05365601
_cell_angle_alpha   111.84689843
_cell_angle_beta   111.75487022
_cell_angle_gamma   104.90610090
_symmetry_Int_Tables_number   1
_chemical_formula_structural   Tb4B16IrPt3
_chemical_formula_sum   'Tb4 B16 Ir1 Pt3'
_cell_volume   268.88704482
_cell_formula_units_Z   1
loop_
 _symmetry_equiv_pos_site_id
 _symmetry_equiv_pos_as_xyz
  1  'x, y, z'
loop_
 _atom_site_type_symbol
 _atom_site_label
 _atom_site_symmetry_multiplicity
 _atom_site_fract_x
 _atom_site_fract_y
 _atom_site_fract_z
 _atom_site_occupancy
  Tb  Tb0  1  0.208194  0.212572  0.004378  1
  Tb  Tb1  1  0.791806  0.796184  0.004378  1
  Tb  Tb2  1  0.746137  0.242432  0.496294  1
  Tb  Tb3  1  0.253863  0.750158  0.496294  1
  B  B4  1  0.106292  0.262050  0.368343  1
  B  B5  1  0.892976  0.738245  0.631221  1
  B  B6  1  0.893708  0.262050  0.155759  1
  B  B7  1  0.107024  0.738245  0.845269  1
  B  B8  1  0.733452  0.892603  0.626055  1
  B  B9  1  0.264483  0.107056  0.371539  1
  B  B10  1  0.735517  0.107056  0.842573  1
  B  B11  1  0.266548  0.892603  0.159151  1
  B  B12  1  0.411668  0.412496  0.518214  1
  B  B13  1  0.890289  0.892742  0.477416  1
  B  B14  1  0.588332  0.106545  0.000827  1
  B  B15  1  0.109711  0.587126  0.002453  1
  B  B16  1  0.584674  0.587126  0.477416  1
  B  B17  1  0.105717  0.106545  0.518214  1
  B  B18  1  0.894283  0.412496  0.000827  1
  B  B19  1  0.415326  0.892742  0.002453  1
  Ir  Ir20  1  0.500000  0.739706  0.239706  1
  Pt  Pt21  1  0.742773  0.500477  0.243251  1
  Pt  Pt22  1  0.257227  0.500477  0.757704  1
  Pt  Pt23  1  0.500000  0.260265  0.760265  1
