# generated using pymatgen
data_Tm3Si3RuRh
_symmetry_space_group_name_H-M   'P 1'
_cell_length_a   5.67688556
_cell_length_b   5.67688508
_cell_length_c   13.58269669
_cell_angle_alpha   89.71440183
_cell_angle_beta   90.28559791
_cell_angle_gamma   137.05805821
_symmetry_Int_Tables_number   1
_chemical_formula_structural   Tm3Si3RuRh
_chemical_formula_sum   'Tm6 Si6 Ru2 Rh2'
_cell_volume   298.20226971
_cell_formula_units_Z   2
loop_
 _symmetry_equiv_pos_site_id
 _symmetry_equiv_pos_as_xyz
  1  'x, y, z'
loop_
 _atom_site_type_symbol
 _atom_site_label
 _atom_site_symmetry_multiplicity
 _atom_site_fract_x
 _atom_site_fract_y
 _atom_site_fract_z
 _atom_site_occupancy
  Tm  Tm0  1  0.924287  0.075713  0.385926  1
  Tm  Tm1  1  0.075713  0.924287  0.614074  1
  Tm  Tm2  1  0.921200  0.078800  0.115683  1
  Tm  Tm3  1  0.078800  0.921200  0.884317  1
  Tm  Tm4  1  0.644214  0.355786  0.249623  1
  Tm  Tm5  1  0.355786  0.644214  0.750377  1
  Si  Si6  1  0.615539  0.384461  0.461782  1
  Si  Si7  1  0.384461  0.615539  0.538218  1
  Si  Si8  1  0.608581  0.391419  0.038027  1
  Si  Si9  1  0.391419  0.608581  0.961973  1
  Si  Si10  1  0.334550  0.665450  0.251248  1
  Si  Si11  1  0.665450  0.334550  0.748752  1
  Ru  Ru12  1  0.788268  0.211732  0.582151  1
  Ru  Ru13  1  0.211732  0.788268  0.417849  1
  Rh  Rh14  1  0.788076  0.211924  0.918628  1
  Rh  Rh15  1  0.211924  0.788076  0.081372  1
