# generated using pymatgen
data_Nd3Cr(Ni4P3)2
_symmetry_space_group_name_H-M   'P 1'
_cell_length_a   3.83494000
_cell_length_b   10.64936200
_cell_length_c   12.45626500
_cell_angle_alpha   90.00000000
_cell_angle_beta   90.00000000
_cell_angle_gamma   90.00000000
_symmetry_Int_Tables_number   1
_chemical_formula_structural   Nd3Cr(Ni4P3)2
_chemical_formula_sum   'Nd6 Cr2 Ni16 P12'
_cell_volume   508.70968113
_cell_formula_units_Z   2
loop_
 _symmetry_equiv_pos_site_id
 _symmetry_equiv_pos_as_xyz
  1  'x, y, z'
loop_
 _atom_site_type_symbol
 _atom_site_label
 _atom_site_symmetry_multiplicity
 _atom_site_fract_x
 _atom_site_fract_y
 _atom_site_fract_z
 _atom_site_occupancy
  Nd  Nd0  1  0.000000  0.500000  0.519103  1
  Nd  Nd1  1  0.500000  0.000000  0.480897  1
  Nd  Nd2  1  0.500000  0.814699  0.205632  1
  Nd  Nd3  1  0.500000  0.185301  0.205632  1
  Nd  Nd4  1  0.000000  0.685301  0.794368  1
  Nd  Nd5  1  0.000000  0.314699  0.794368  1
  Cr  Cr6  1  0.500000  0.500000  0.150176  1
  Cr  Cr7  1  0.000000  0.000000  0.849824  1
  Ni  Ni8  1  0.500000  0.500000  0.699727  1
  Ni  Ni9  1  0.000000  0.000000  0.300273  1
  Ni  Ni10  1  0.000000  0.500000  0.981936  1
  Ni  Ni11  1  0.500000  0.000000  0.018064  1
  Ni  Ni12  1  0.500000  0.332518  0.991692  1
  Ni  Ni13  1  0.500000  0.667482  0.991692  1
  Ni  Ni14  1  0.000000  0.167482  0.008308  1
  Ni  Ni15  1  0.000000  0.832518  0.008308  1
  Ni  Ni16  1  0.500000  0.302065  0.425006  1
  Ni  Ni17  1  0.500000  0.697935  0.425006  1
  Ni  Ni18  1  0.000000  0.197935  0.574994  1
  Ni  Ni19  1  0.000000  0.802065  0.574994  1
  Ni  Ni20  1  0.500000  0.882836  0.713541  1
  Ni  Ni21  1  0.500000  0.117164  0.713541  1
  Ni  Ni22  1  0.000000  0.617164  0.286459  1
  Ni  Ni23  1  0.000000  0.382836  0.286459  1
  P  P24  1  0.500000  0.500000  0.879572  1
  P  P25  1  0.000000  0.000000  0.120428  1
  P  P26  1  0.500000  0.500000  0.339407  1
  P  P27  1  0.000000  0.000000  0.660593  1
  P  P28  1  0.500000  0.309342  0.611728  1
  P  P29  1  0.500000  0.690658  0.611728  1
  P  P30  1  0.000000  0.190658  0.388272  1
  P  P31  1  0.000000  0.809342  0.388272  1
  P  P32  1  0.500000  0.849763  0.896774  1
  P  P33  1  0.500000  0.150237  0.896774  1
  P  P34  1  0.000000  0.650237  0.103226  1
  P  P35  1  0.000000  0.349763  0.103226  1
