# generated using pymatgen
data_Y8Ge(Pd11Pt)2
_symmetry_space_group_name_H-M   'P 1'
_cell_length_a   8.36040600
_cell_length_b   8.37900700
_cell_length_c   8.37900700
_cell_angle_alpha   90.00000000
_cell_angle_beta   90.00000000
_cell_angle_gamma   90.00000000
_symmetry_Int_Tables_number   1
_chemical_formula_structural   Y8Ge(Pd11Pt)2
_chemical_formula_sum   'Y8 Ge1 Pd22 Pt2'
_cell_volume   586.96536379
_cell_formula_units_Z   1
loop_
 _symmetry_equiv_pos_site_id
 _symmetry_equiv_pos_as_xyz
  1  'x, y, z'
loop_
 _atom_site_type_symbol
 _atom_site_label
 _atom_site_symmetry_multiplicity
 _atom_site_fract_x
 _atom_site_fract_y
 _atom_site_fract_z
 _atom_site_occupancy
  Y  Y0  1  0.253117  0.253518  0.253518  1
  Y  Y1  1  0.746883  0.746482  0.746482  1
  Y  Y2  1  0.746883  0.746482  0.253518  1
  Y  Y3  1  0.746883  0.253518  0.746482  1
  Y  Y4  1  0.253117  0.253518  0.746482  1
  Y  Y5  1  0.253117  0.746482  0.253518  1
  Y  Y6  1  0.253117  0.746482  0.746482  1
  Y  Y7  1  0.746883  0.253518  0.253518  1
  Ge  Ge8  1  0.000000  0.000000  0.000000  1
  Pd  Pd9  1  0.259877  0.500000  0.000000  1
  Pd  Pd10  1  0.740123  0.500000  0.000000  1
  Pd  Pd11  1  0.000000  0.259775  0.500000  1
  Pd  Pd12  1  0.500000  0.259680  0.000000  1
  Pd  Pd13  1  0.000000  0.740225  0.500000  1
  Pd  Pd14  1  0.500000  0.740320  0.000000  1
  Pd  Pd15  1  0.500000  0.000000  0.259680  1
  Pd  Pd16  1  0.259877  0.000000  0.500000  1
  Pd  Pd17  1  0.500000  0.000000  0.740320  1
  Pd  Pd18  1  0.740123  0.000000  0.500000  1
  Pd  Pd19  1  0.000000  0.500000  0.259775  1
  Pd  Pd20  1  0.000000  0.500000  0.740225  1
  Pd  Pd21  1  0.500000  0.253104  0.500000  1
  Pd  Pd22  1  0.500000  0.746896  0.500000  1
  Pd  Pd23  1  0.500000  0.500000  0.253104  1
  Pd  Pd24  1  0.500000  0.500000  0.746896  1
  Pd  Pd25  1  0.289424  0.000000  0.000000  1
  Pd  Pd26  1  0.710576  0.000000  0.000000  1
  Pd  Pd27  1  0.000000  0.289259  0.000000  1
  Pd  Pd28  1  0.000000  0.710741  0.000000  1
  Pd  Pd29  1  0.000000  0.000000  0.289259  1
  Pd  Pd30  1  0.000000  0.000000  0.710741  1
  Pt  Pt31  1  0.252901  0.500000  0.500000  1
  Pt  Pt32  1  0.747099  0.500000  0.500000  1
