# generated using pymatgen
data_Nd2NiSn4Rh3
_symmetry_space_group_name_H-M   'P 1'
_cell_length_a   4.50932900
_cell_length_b   4.50932900
_cell_length_c   10.52902300
_cell_angle_alpha   90.00000000
_cell_angle_beta   90.00000000
_cell_angle_gamma   90.00000000
_symmetry_Int_Tables_number   1
_chemical_formula_structural   Nd2NiSn4Rh3
_chemical_formula_sum   'Nd2 Ni1 Sn4 Rh3'
_cell_volume   214.09765939
_cell_formula_units_Z   1
loop_
 _symmetry_equiv_pos_site_id
 _symmetry_equiv_pos_as_xyz
  1  'x, y, z'
loop_
 _atom_site_type_symbol
 _atom_site_label
 _atom_site_symmetry_multiplicity
 _atom_site_fract_x
 _atom_site_fract_y
 _atom_site_fract_z
 _atom_site_occupancy
  Nd  Nd0  1  0.000000  0.500000  0.753535  1
  Nd  Nd1  1  0.500000  0.000000  0.248509  1
  Ni  Ni2  1  0.000000  0.500000  0.373057  1
  Sn  Sn3  1  0.000000  0.500000  0.136643  1
  Sn  Sn4  1  0.500000  0.500000  0.492642  1
  Sn  Sn5  1  0.000000  0.000000  0.492642  1
  Sn  Sn6  1  0.500000  0.000000  0.870517  1
  Rh  Rh7  1  0.500000  0.000000  0.625601  1
  Rh  Rh8  1  0.500000  0.500000  0.003426  1
  Rh  Rh9  1  0.000000  0.000000  0.003426  1
