# generated using pymatgen
data_Co6Mo6P
_symmetry_space_group_name_H-M   'P 1'
_cell_length_a   8.83449709
_cell_length_b   8.83449729
_cell_length_c   8.83449691
_cell_angle_alpha   31.30816516
_cell_angle_beta   31.30816193
_cell_angle_gamma   31.30816256
_symmetry_Int_Tables_number   1
_chemical_formula_structural   Co6Mo6P
_chemical_formula_sum   'Co6 Mo6 P1'
_cell_volume   165.24876889
_cell_formula_units_Z   1
loop_
 _symmetry_equiv_pos_site_id
 _symmetry_equiv_pos_as_xyz
  1  'x, y, z'
loop_
 _atom_site_type_symbol
 _atom_site_label
 _atom_site_symmetry_multiplicity
 _atom_site_fract_x
 _atom_site_fract_y
 _atom_site_fract_z
 _atom_site_occupancy
  Co  Co0  1  0.091921  0.091921  0.590322  1
  Co  Co1  1  0.409678  0.908079  0.908079  1
  Co  Co2  1  0.590322  0.091921  0.091921  1
  Co  Co3  1  0.908079  0.908079  0.409678  1
  Co  Co4  1  0.908079  0.409678  0.908079  1
  Co  Co5  1  0.091921  0.590322  0.091921  1
  Mo  Mo6  1  0.831485  0.831485  0.831485  1
  Mo  Mo7  1  0.651589  0.651589  0.651589  1
  Mo  Mo8  1  0.451321  0.451321  0.451321  1
  Mo  Mo9  1  0.548679  0.548679  0.548679  1
  Mo  Mo10  1  0.168515  0.168515  0.168515  1
  Mo  Mo11  1  0.348411  0.348411  0.348411  1
  P  P12  1  0.000000  0.000000  0.000000  1
