# generated using pymatgen
data_Cs3K(ThTe3)2
_symmetry_space_group_name_H-M   'P 1'
_cell_length_a   8.34014730
_cell_length_b   8.34014750
_cell_length_c   9.34340677
_cell_angle_alpha   81.42389138
_cell_angle_beta   81.42388290
_cell_angle_gamma   119.99493299
_symmetry_Int_Tables_number   1
_chemical_formula_structural   Cs3K(ThTe3)2
_chemical_formula_sum   'Cs3 K1 Th2 Te6'
_cell_volume   537.25402014
_cell_formula_units_Z   1
loop_
 _symmetry_equiv_pos_site_id
 _symmetry_equiv_pos_as_xyz
  1  'x, y, z'
loop_
 _atom_site_type_symbol
 _atom_site_label
 _atom_site_symmetry_multiplicity
 _atom_site_fract_x
 _atom_site_fract_y
 _atom_site_fract_z
 _atom_site_occupancy
  Cs  Cs0  1  0.653754  0.346246  0.500000  1
  Cs  Cs1  1  0.346246  0.653754  0.500000  1
  Cs  Cs2  1  0.000000  0.000000  0.500000  1
  K  K3  1  0.500000  0.500000  0.000000  1
  Th  Th4  1  0.832106  0.167894  0.000000  1
  Th  Th5  1  0.167894  0.832106  0.000000  1
  Te  Te6  1  0.804429  0.804429  0.193068  1
  Te  Te7  1  0.195571  0.195571  0.806932  1
  Te  Te8  1  0.433023  0.061384  0.198674  1
  Te  Te9  1  0.566977  0.938616  0.801326  1
  Te  Te10  1  0.938616  0.566977  0.801326  1
  Te  Te11  1  0.061384  0.433023  0.198674  1
