# generated using pymatgen
data_Rb12SiGeAs6
_symmetry_space_group_name_H-M   'P 1'
_cell_length_a   13.23492160
_cell_length_b   5.52907700
_cell_length_c   13.12637857
_cell_angle_alpha   90.00000000
_cell_angle_beta   119.22160377
_cell_angle_gamma   90.00000000
_symmetry_Int_Tables_number   1
_chemical_formula_structural   Rb12SiGeAs6
_chemical_formula_sum   'Rb12 Si1 Ge1 As6'
_cell_volume   838.30654003
_cell_formula_units_Z   1
loop_
 _symmetry_equiv_pos_site_id
 _symmetry_equiv_pos_as_xyz
  1  'x, y, z'
loop_
 _atom_site_type_symbol
 _atom_site_label
 _atom_site_symmetry_multiplicity
 _atom_site_fract_x
 _atom_site_fract_y
 _atom_site_fract_z
 _atom_site_occupancy
  Rb  Rb0  1  0.389399  0.250000  0.015695  1
  Rb  Rb1  1  0.968787  0.750001  0.229389  1
  Rb  Rb2  1  0.124472  0.250000  0.112083  1
  Rb  Rb3  1  0.723726  0.250000  0.258103  1
  Rb  Rb4  1  0.481629  0.250000  0.377481  1
  Rb  Rb5  1  0.763350  0.750001  0.526892  1
  Rb  Rb6  1  0.236471  0.250000  0.472427  1
  Rb  Rb7  1  0.518316  0.750001  0.622263  1
  Rb  Rb8  1  0.275797  0.750001  0.742187  1
  Rb  Rb9  1  0.875845  0.750001  0.888155  1
  Rb  Rb10  1  0.031949  0.250000  0.770979  1
  Rb  Rb11  1  0.610372  0.750001  0.984316  1
  Si  Si12  1  0.331672  0.750001  0.169104  1
  Ge  Ge13  1  0.668196  0.250000  0.830576  1
  As  As14  1  0.192902  0.750001  0.970873  1
  As  As15  1  0.529160  0.750001  0.225169  1
  As  As16  1  0.273597  0.750001  0.311925  1
  As  As17  1  0.729045  0.250000  0.682833  1
  As  As18  1  0.463047  0.250000  0.772297  1
  As  As19  1  0.812267  0.250000  0.037252  1
