# generated using pymatgen
data_KSe23
_symmetry_space_group_name_H-M   'P 1'
_cell_length_a   6.12547855
_cell_length_b   10.34559965
_cell_length_c   16.90424100
_cell_angle_alpha   90.01344670
_cell_angle_beta   82.19265319
_cell_angle_gamma   92.58161465
_symmetry_Int_Tables_number   1
_chemical_formula_structural   KSe23
_chemical_formula_sum   'K1 Se23'
_cell_volume   1060.22537652
_cell_formula_units_Z   1
loop_
 _symmetry_equiv_pos_site_id
 _symmetry_equiv_pos_as_xyz
  1  'x, y, z'
loop_
 _atom_site_type_symbol
 _atom_site_label
 _atom_site_symmetry_multiplicity
 _atom_site_fract_x
 _atom_site_fract_y
 _atom_site_fract_z
 _atom_site_occupancy
  K  K0  1  0.485701  0.233821  0.400227  1
  Se  Se1  1  0.475965  0.792969  0.371780  1
  Se  Se2  1  0.022674  0.313154  0.132519  1
  Se  Se3  1  0.934967  0.295379  0.507705  1
  Se  Se4  1  0.277890  0.775912  0.501421  1
  Se  Se5  1  0.210211  0.268667  0.004443  1
  Se  Se6  1  0.789183  0.723535  0.019633  1
  Se  Se7  1  0.039638  0.419868  0.370830  1
  Se  Se8  1  0.618714  0.584864  0.340840  1
  Se  Se9  1  0.814114  0.121267  0.177116  1
  Se  Se10  1  0.238789  0.865182  0.130975  1
  Se  Se11  1  0.727530  0.636942  0.607259  1
  Se  Se12  1  0.355770  0.337730  0.616438  1
  Se  Se13  1  0.193536  0.873100  0.850780  1
  Se  Se14  1  0.771927  0.131448  0.884989  1
  Se  Se15  1  0.021717  0.674941  0.115080  1
  Se  Se16  1  0.525441  0.823620  0.594859  1
  Se  Se17  1  0.624417  0.177701  0.583859  1
  Se  Se18  1  0.980029  0.682878  0.891551  1
  Se  Se19  1  0.987483  0.320490  0.906404  1
  Se  Se20  1  0.361278  0.462884  0.272133  1
  Se  Se21  1  0.048474  0.984781  0.235770  1
  Se  Se22  1  0.519720  0.490193  0.698202  1
  Se  Se23  1  0.974832  0.008672  0.785192  1
