# generated using pymatgen
data_Pr2B8Os4RuRh3
_symmetry_space_group_name_H-M   'P 1'
_cell_length_a   4.01528130
_cell_length_b   7.61052054
_cell_length_c   7.60490422
_cell_angle_alpha   90.22829244
_cell_angle_beta   89.98129005
_cell_angle_gamma   89.95983893
_symmetry_Int_Tables_number   1
_chemical_formula_structural   Pr2B8Os4RuRh3
_chemical_formula_sum   'Pr2 B8 Os4 Ru1 Rh3'
_cell_volume   232.39164494
_cell_formula_units_Z   1
loop_
 _symmetry_equiv_pos_site_id
 _symmetry_equiv_pos_as_xyz
  1  'x, y, z'
loop_
 _atom_site_type_symbol
 _atom_site_label
 _atom_site_symmetry_multiplicity
 _atom_site_fract_x
 _atom_site_fract_y
 _atom_site_fract_z
 _atom_site_occupancy
  Pr  Pr0  1  0.259180  0.250434  0.249962  1
  Pr  Pr1  1  0.755777  0.749073  0.749178  1
  B  B2  1  0.360075  0.913955  0.037354  1
  B  B3  1  0.357114  0.584676  0.466951  1
  B  B4  1  0.861625  0.536808  0.085184  1
  B  B5  1  0.859259  0.961285  0.415005  1
  B  B6  1  0.642011  0.085756  0.966917  1
  B  B7  1  0.639168  0.417810  0.537106  1
  B  B8  1  0.142910  0.470053  0.907261  1
  B  B9  1  0.141219  0.037804  0.584015  1
  Os  Os10  1  0.857132  0.603154  0.357414  1
  Os  Os11  1  0.857871  0.897761  0.142240  1
  Os  Os12  1  0.357228  0.857731  0.396960  1
  Os  Os13  1  0.358463  0.642484  0.101923  1
  Ru  Ru14  1  0.137289  0.393745  0.639372  1
  Rh  Rh15  1  0.137586  0.100544  0.860768  1
  Rh  Rh16  1  0.638406  0.137826  0.601756  1
  Rh  Rh17  1  0.637686  0.359101  0.900635  1
