# generated using pymatgen
data_Pr4ErSi2Sn
_symmetry_space_group_name_H-M   'P 1'
_cell_length_a   7.79917300
_cell_length_b   9.29463932
_cell_length_c   7.79917300
_cell_angle_alpha   114.80632347
_cell_angle_beta   90.00000000
_cell_angle_gamma   114.80632347
_symmetry_Int_Tables_number   1
_chemical_formula_structural   Pr4ErSi2Sn
_chemical_formula_sum   'Pr8 Er2 Si4 Sn2'
_cell_volume   455.09388149
_cell_formula_units_Z   2
loop_
 _symmetry_equiv_pos_site_id
 _symmetry_equiv_pos_as_xyz
  1  'x, y, z'
loop_
 _atom_site_type_symbol
 _atom_site_label
 _atom_site_symmetry_multiplicity
 _atom_site_fract_x
 _atom_site_fract_y
 _atom_site_fract_z
 _atom_site_occupancy
  Pr  Pr0  1  0.537086  0.723945  0.686861  1
  Pr  Pr1  1  0.186861  0.723945  0.037086  1
  Pr  Pr2  1  0.686861  0.723945  0.186861  1
  Pr  Pr3  1  0.037086  0.723945  0.537086  1
  Pr  Pr4  1  0.462914  0.276055  0.313139  1
  Pr  Pr5  1  0.813139  0.276055  0.962914  1
  Pr  Pr6  1  0.313139  0.276055  0.813139  1
  Pr  Pr7  1  0.962914  0.276055  0.462914  1
  Er  Er8  1  0.000000  0.000000  0.000000  1
  Er  Er9  1  0.500000  0.000000  0.500000  1
  Si  Si10  1  0.879489  0.000000  0.620511  1
  Si  Si11  1  0.120511  0.000000  0.379489  1
  Si  Si12  1  0.620511  0.000000  0.120511  1
  Si  Si13  1  0.379489  0.000000  0.879489  1
  Sn  Sn14  1  0.750000  0.500000  0.750000  1
  Sn  Sn15  1  0.250000  0.500000  0.250000  1
