# generated using pymatgen
data_Dy5Er(Lu2Pb3)2
_symmetry_space_group_name_H-M   'P 1'
_cell_length_a   6.52337500
_cell_length_b   8.99743748
_cell_length_c   9.00134140
_cell_angle_alpha   120.01301504
_cell_angle_beta   89.99769780
_cell_angle_gamma   90.00231539
_symmetry_Int_Tables_number   1
_chemical_formula_structural   Dy5Er(Lu2Pb3)2
_chemical_formula_sum   'Dy5 Er1 Lu4 Pb6'
_cell_volume   457.47996171
_cell_formula_units_Z   1
loop_
 _symmetry_equiv_pos_site_id
 _symmetry_equiv_pos_as_xyz
  1  'x, y, z'
loop_
 _atom_site_type_symbol
 _atom_site_label
 _atom_site_symmetry_multiplicity
 _atom_site_fract_x
 _atom_site_fract_y
 _atom_site_fract_z
 _atom_site_occupancy
  Dy  Dy0  1  0.750003  0.237395  0.999724  1
  Dy  Dy1  1  0.750022  0.762535  0.762178  1
  Dy  Dy2  1  0.749989  0.000043  0.238315  1
  Dy  Dy3  1  0.249997  0.762348  0.999905  1
  Dy  Dy4  1  0.249999  0.237780  0.237733  1
  Er  Er5  1  0.250026  0.999964  0.762363  1
  Lu  Lu6  1  0.499904  0.333356  0.666764  1
  Lu  Lu7  1  0.499885  0.666607  0.333162  1
  Lu  Lu8  1  0.000091  0.666623  0.333125  1
  Lu  Lu9  1  0.000093  0.333390  0.666759  1
  Pb  Pb10  1  0.749980  0.603647  0.999940  1
  Pb  Pb11  1  0.750017  0.396260  0.396204  1
  Pb  Pb12  1  0.750007  0.999949  0.603452  1
  Pb  Pb13  1  0.249976  0.394914  0.999111  1
  Pb  Pb14  1  0.250016  0.605190  0.604262  1
  Pb  Pb15  1  0.249992  0.000001  0.397002  1
