# generated using pymatgen
data_Mg(UPd4)3
_symmetry_space_group_name_H-M   'P 1'
_cell_length_a   5.79371300
_cell_length_b   5.79371356
_cell_length_c   9.50350300
_cell_angle_alpha   90.00000000
_cell_angle_beta   90.00000000
_cell_angle_gamma   120.00000250
_symmetry_Int_Tables_number   1
_chemical_formula_structural   Mg(UPd4)3
_chemical_formula_sum   'Mg1 U3 Pd12'
_cell_volume   276.26656952
_cell_formula_units_Z   1
loop_
 _symmetry_equiv_pos_site_id
 _symmetry_equiv_pos_as_xyz
  1  'x, y, z'
loop_
 _atom_site_type_symbol
 _atom_site_label
 _atom_site_symmetry_multiplicity
 _atom_site_fract_x
 _atom_site_fract_y
 _atom_site_fract_z
 _atom_site_occupancy
  Mg  Mg0  1  0.333333  0.666667  0.750000  1
  U  U1  1  0.000000  0.000000  0.507749  1
  U  U2  1  0.000000  0.000000  0.992251  1
  U  U3  1  0.666667  0.333333  0.250000  1
  Pd  Pd4  1  0.499814  0.500186  0.501960  1
  Pd  Pd5  1  0.499814  0.999628  0.501960  1
  Pd  Pd6  1  0.000372  0.500186  0.501960  1
  Pd  Pd7  1  0.499814  0.500186  0.998040  1
  Pd  Pd8  1  0.499814  0.999628  0.998040  1
  Pd  Pd9  1  0.000372  0.500186  0.998040  1
  Pd  Pd10  1  0.170086  0.829914  0.250000  1
  Pd  Pd11  1  0.170086  0.340173  0.250000  1
  Pd  Pd12  1  0.659827  0.829914  0.250000  1
  Pd  Pd13  1  0.828703  0.171297  0.750000  1
  Pd  Pd14  1  0.828703  0.657404  0.750000  1
  Pd  Pd15  1  0.342596  0.171297  0.750000  1
