# generated using pymatgen
data_Hf3U3Fe16Si7
_symmetry_space_group_name_H-M   'P 1'
_cell_length_a   8.13377669
_cell_length_b   8.10420167
_cell_length_c   8.12424743
_cell_angle_alpha   60.15932191
_cell_angle_beta   59.79816006
_cell_angle_gamma   60.04252817
_symmetry_Int_Tables_number   1
_chemical_formula_structural   Hf3U3Fe16Si7
_chemical_formula_sum   'Hf3 U3 Fe16 Si7'
_cell_volume   378.67068557
_cell_formula_units_Z   1
loop_
 _symmetry_equiv_pos_site_id
 _symmetry_equiv_pos_as_xyz
  1  'x, y, z'
loop_
 _atom_site_type_symbol
 _atom_site_label
 _atom_site_symmetry_multiplicity
 _atom_site_fract_x
 _atom_site_fract_y
 _atom_site_fract_z
 _atom_site_occupancy
  Hf  Hf0  1  0.207250  0.207250  0.792750  1
  Hf  Hf1  1  0.787907  0.215739  0.784261  1
  Hf  Hf2  1  0.215739  0.787907  0.212093  1
  U  U3  1  0.215269  0.783839  0.784731  1
  U  U4  1  0.781702  0.781702  0.218298  1
  U  U5  1  0.783839  0.215269  0.216161  1
  Fe  Fe6  1  0.622939  0.621463  0.135454  1
  Fe  Fe7  1  0.171546  0.479351  0.174198  1
  Fe  Fe8  1  0.864546  0.379855  0.377061  1
  Fe  Fe9  1  0.527748  0.822647  0.824617  1
  Fe  Fe10  1  0.479351  0.171546  0.174905  1
  Fe  Fe11  1  0.825095  0.825802  0.520649  1
  Fe  Fe12  1  0.175383  0.175013  0.472252  1
  Fe  Fe13  1  0.136069  0.622293  0.621358  1
  Fe  Fe14  1  0.175013  0.175383  0.177353  1
  Fe  Fe15  1  0.378642  0.379719  0.863931  1
  Fe  Fe16  1  0.621463  0.622939  0.620145  1
  Fe  Fe17  1  0.379855  0.864546  0.378537  1
  Fe  Fe18  1  0.379719  0.378642  0.377707  1
  Fe  Fe19  1  0.825802  0.825095  0.828454  1
  Fe  Fe20  1  0.622293  0.136069  0.620281  1
  Fe  Fe21  1  0.822647  0.527748  0.824987  1
  Si  Si22  1  0.491795  0.008814  0.508205  1
  Si  Si23  1  0.498706  0.498706  0.001294  1
  Si  Si24  1  0.498612  0.498612  0.501388  1
  Si  Si25  1  0.998706  0.998706  0.501294  1
  Si  Si26  1  0.008814  0.491795  0.991186  1
  Si  Si27  1  0.009365  0.494184  0.505816  1
  Si  Si28  1  0.494184  0.009365  0.990635  1
