# generated using pymatgen
data_NaTh3(Pd3Pt)3
_symmetry_space_group_name_H-M   'P 1'
_cell_length_a   7.21223586
_cell_length_b   7.21223622
_cell_length_c   7.20261900
_cell_angle_alpha   109.63164355
_cell_angle_beta   109.63162772
_cell_angle_gamma   109.20522537
_symmetry_Int_Tables_number   1
_chemical_formula_structural   NaTh3(Pd3Pt)3
_chemical_formula_sum   'Na1 Th3 Pd9 Pt3'
_cell_volume   288.20941198
_cell_formula_units_Z   1
loop_
 _symmetry_equiv_pos_site_id
 _symmetry_equiv_pos_as_xyz
  1  'x, y, z'
loop_
 _atom_site_type_symbol
 _atom_site_label
 _atom_site_symmetry_multiplicity
 _atom_site_fract_x
 _atom_site_fract_y
 _atom_site_fract_z
 _atom_site_occupancy
  Na  Na0  1  0.749742  0.250258  0.000000  1
  Th  Th1  1  0.250304  0.250552  0.500857  1
  Th  Th2  1  0.749448  0.749696  0.499143  1
  Th  Th3  1  0.251202  0.748798  0.000000  1
  Pd  Pd4  1  0.502051  0.249447  0.248055  1
  Pd  Pd5  1  0.501703  0.753958  0.750631  1
  Pd  Pd6  1  0.996674  0.248927  0.750631  1
  Pd  Pd7  1  0.253995  0.001393  0.751945  1
  Pd  Pd8  1  0.998607  0.746005  0.248055  1
  Pd  Pd9  1  0.751073  0.003326  0.249369  1
  Pd  Pd10  1  0.246042  0.498297  0.249369  1
  Pd  Pd11  1  0.750553  0.497949  0.751945  1
  Pd  Pd12  1  0.998448  0.001552  0.000000  1
  Pt  Pt13  1  0.501248  0.001447  0.502695  1
  Pt  Pt14  1  0.998553  0.498752  0.497305  1
  Pt  Pt15  1  0.500358  0.499642  0.000000  1
