# generated using pymatgen
data_NaHoV3Ni9P7
_symmetry_space_group_name_H-M   'P 1'
_cell_length_a   9.11528200
_cell_length_b   9.11528270
_cell_length_c   3.66004900
_cell_angle_alpha   90.00000000
_cell_angle_beta   90.00000000
_cell_angle_gamma   120.00000474
_symmetry_Int_Tables_number   1
_chemical_formula_structural   NaHoV3Ni9P7
_chemical_formula_sum   'Na1 Ho1 V3 Ni9 P7'
_cell_volume   263.36481992
_cell_formula_units_Z   1
loop_
 _symmetry_equiv_pos_site_id
 _symmetry_equiv_pos_as_xyz
  1  'x, y, z'
loop_
 _atom_site_type_symbol
 _atom_site_label
 _atom_site_symmetry_multiplicity
 _atom_site_fract_x
 _atom_site_fract_y
 _atom_site_fract_z
 _atom_site_occupancy
  Na  Na0  1  0.000000  0.000000  0.000000  1
  Ho  Ho1  1  0.666667  0.333333  0.500000  1
  V  V2  1  0.454424  0.568284  0.500000  1
  V  V3  1  0.431716  0.886140  0.500000  1
  V  V4  1  0.113860  0.545576  0.500000  1
  Ni  Ni5  1  0.705743  0.605128  0.000000  1
  Ni  Ni6  1  0.394872  0.100615  0.000000  1
  Ni  Ni7  1  0.899385  0.294257  0.000000  1
  Ni  Ni8  1  0.208931  0.386489  0.000000  1
  Ni  Ni9  1  0.613511  0.822441  0.000000  1
  Ni  Ni10  1  0.177559  0.791069  0.000000  1
  Ni  Ni11  1  0.280455  0.229807  0.500000  1
  Ni  Ni12  1  0.770193  0.050647  0.500000  1
  Ni  Ni13  1  0.949353  0.719545  0.500000  1
  P  P14  1  0.447021  0.372643  0.000000  1
  P  P15  1  0.627357  0.074378  0.000000  1
  P  P16  1  0.925622  0.552979  0.000000  1
  P  P17  1  0.041674  0.259616  0.500000  1
  P  P18  1  0.740384  0.782059  0.500000  1
  P  P19  1  0.217941  0.958326  0.500000  1
  P  P20  1  0.333333  0.666667  0.000000  1
