# generated using pymatgen
data_Er2Co9P6Ru
_symmetry_space_group_name_H-M   'P 1'
_cell_length_a   3.66159000
_cell_length_b   10.30651300
_cell_length_c   11.73352900
_cell_angle_alpha   90.00000000
_cell_angle_beta   90.00000000
_cell_angle_gamma   90.00000000
_symmetry_Int_Tables_number   1
_chemical_formula_structural   Er2Co9P6Ru
_chemical_formula_sum   'Er4 Co18 P12 Ru2'
_cell_volume   442.80255669
_cell_formula_units_Z   2
loop_
 _symmetry_equiv_pos_site_id
 _symmetry_equiv_pos_as_xyz
  1  'x, y, z'
loop_
 _atom_site_type_symbol
 _atom_site_label
 _atom_site_symmetry_multiplicity
 _atom_site_fract_x
 _atom_site_fract_y
 _atom_site_fract_z
 _atom_site_occupancy
  Er  Er0  1  0.250000  0.582185  0.702163  1
  Er  Er1  1  0.250000  0.917815  0.202163  1
  Er  Er2  1  0.750000  0.414048  0.295439  1
  Er  Er3  1  0.750000  0.085952  0.795439  1
  Co  Co4  1  0.750000  0.283397  0.008127  1
  Co  Co5  1  0.750000  0.216603  0.508127  1
  Co  Co6  1  0.250000  0.406039  0.487298  1
  Co  Co7  1  0.250000  0.093961  0.987298  1
  Co  Co8  1  0.750000  0.590556  0.510795  1
  Co  Co9  1  0.750000  0.909444  0.010795  1
  Co  Co10  1  0.250000  0.220722  0.176724  1
  Co  Co11  1  0.250000  0.279278  0.676724  1
  Co  Co12  1  0.750000  0.778312  0.822951  1
  Co  Co13  1  0.750000  0.721688  0.322951  1
  Co  Co14  1  0.250000  0.886911  0.702180  1
  Co  Co15  1  0.250000  0.613089  0.202180  1
  Co  Co16  1  0.750000  0.116052  0.300523  1
  Co  Co17  1  0.750000  0.383948  0.800523  1
  Co  Co18  1  0.250000  0.464575  0.932205  1
  Co  Co19  1  0.250000  0.035425  0.432205  1
  Co  Co20  1  0.750000  0.532745  0.069328  1
  Co  Co21  1  0.750000  0.967255  0.569328  1
  P  P22  1  0.250000  0.417071  0.112426  1
  P  P23  1  0.250000  0.082929  0.612426  1
  P  P24  1  0.750000  0.578786  0.886680  1
  P  P25  1  0.750000  0.921214  0.386680  1
  P  P26  1  0.250000  0.269870  0.869059  1
  P  P27  1  0.250000  0.230130  0.369059  1
  P  P28  1  0.750000  0.729528  0.132910  1
  P  P29  1  0.750000  0.770472  0.632910  1
  P  P30  1  0.250000  0.594411  0.390318  1
  P  P31  1  0.250000  0.905589  0.890318  1
  P  P32  1  0.750000  0.397415  0.608674  1
  P  P33  1  0.750000  0.102585  0.108674  1
  Ru  Ru34  1  0.250000  0.715627  0.992201  1
  Ru  Ru35  1  0.250000  0.784373  0.492201  1
