# generated using pymatgen
data_Yb4Ce3Sm(B6Os)4
_symmetry_space_group_name_H-M   'P 1'
_cell_length_a   3.69992400
_cell_length_b   9.15885991
_cell_length_c   11.50373434
_cell_angle_alpha   90.18727481
_cell_angle_beta   90.00000000
_cell_angle_gamma   90.00000000
_symmetry_Int_Tables_number   1
_chemical_formula_structural   Yb4Ce3Sm(B6Os)4
_chemical_formula_sum   'Yb4 Ce3 Sm1 B24 Os4'
_cell_volume   389.82594785
_cell_formula_units_Z   1
loop_
 _symmetry_equiv_pos_site_id
 _symmetry_equiv_pos_as_xyz
  1  'x, y, z'
loop_
 _atom_site_type_symbol
 _atom_site_label
 _atom_site_symmetry_multiplicity
 _atom_site_fract_x
 _atom_site_fract_y
 _atom_site_fract_z
 _atom_site_occupancy
  Yb  Yb0  1  0.000000  0.945851  0.376850  1
  Yb  Yb1  1  0.000000  0.054525  0.623712  1
  Yb  Yb2  1  0.000000  0.443576  0.127118  1
  Yb  Yb3  1  0.000000  0.556170  0.872927  1
  Ce  Ce4  1  0.000000  0.321026  0.413329  1
  Ce  Ce5  1  0.000000  0.678316  0.587297  1
  Ce  Ce6  1  0.000000  0.821989  0.086983  1
  Sm  Sm7  1  0.000000  0.177406  0.912446  1
  B  B8  1  0.500000  0.554662  0.430947  1
  B  B9  1  0.500000  0.445751  0.568535  1
  B  B10  1  0.500000  0.054468  0.069381  1
  B  B11  1  0.500000  0.944745  0.931274  1
  B  B12  1  0.500000  0.749169  0.419672  1
  B  B13  1  0.500000  0.250689  0.580299  1
  B  B14  1  0.500000  0.249535  0.081696  1
  B  B15  1  0.500000  0.750834  0.919063  1
  B  B16  1  0.500000  0.791241  0.267957  1
  B  B17  1  0.500000  0.208925  0.731826  1
  B  B18  1  0.500000  0.291137  0.232469  1
  B  B19  1  0.500000  0.708953  0.767505  1
  B  B20  1  0.500000  0.631117  0.185844  1
  B  B21  1  0.500000  0.369752  0.813912  1
  B  B22  1  0.500000  0.131871  0.314835  1
  B  B23  1  0.500000  0.868261  0.685403  1
  B  B24  1  0.500000  0.983924  0.214345  1
  B  B25  1  0.500000  0.015956  0.785053  1
  B  B26  1  0.500000  0.484242  0.286133  1
  B  B27  1  0.500000  0.516013  0.713887  1
  B  B28  1  0.500000  0.603212  0.028942  1
  B  B29  1  0.500000  0.396865  0.971010  1
  B  B30  1  0.500000  0.113805  0.468558  1
  B  B31  1  0.500000  0.885920  0.531530  1
  Os  Os32  1  0.000000  0.638771  0.320897  1
  Os  Os33  1  0.000000  0.362789  0.677199  1
  Os  Os34  1  0.000000  0.138378  0.180665  1
  Os  Os35  1  0.000000  0.860158  0.820500  1
