# generated using pymatgen
data_Ac3Sb3Pt2
_symmetry_space_group_name_H-M   'P 1'
_cell_length_a   4.69345000
_cell_length_b   4.69344869
_cell_length_c   25.37456100
_cell_angle_alpha   90.00000000
_cell_angle_beta   90.00000000
_cell_angle_gamma   119.99999511
_symmetry_Int_Tables_number   1
_chemical_formula_structural   Ac3Sb3Pt2
_chemical_formula_sum   'Ac6 Sb6 Pt4'
_cell_volume   484.07589911
_cell_formula_units_Z   2
loop_
 _symmetry_equiv_pos_site_id
 _symmetry_equiv_pos_as_xyz
  1  'x, y, z'
loop_
 _atom_site_type_symbol
 _atom_site_label
 _atom_site_symmetry_multiplicity
 _atom_site_fract_x
 _atom_site_fract_y
 _atom_site_fract_z
 _atom_site_occupancy
  Ac  Ac0  1  0.666667  0.333333  0.920939  1
  Ac  Ac1  1  0.333333  0.666667  0.079061  1
  Ac  Ac2  1  0.333333  0.666667  0.420939  1
  Ac  Ac3  1  0.666667  0.333333  0.579061  1
  Ac  Ac4  1  0.333333  0.666667  0.250000  1
  Ac  Ac5  1  0.666667  0.333333  0.750000  1
  Sb  Sb6  1  0.333333  0.666667  0.662723  1
  Sb  Sb7  1  0.000000  0.000000  0.500000  1
  Sb  Sb8  1  0.666667  0.333333  0.337277  1
  Sb  Sb9  1  0.333333  0.666667  0.837277  1
  Sb  Sb10  1  0.666667  0.333333  0.162723  1
  Sb  Sb11  1  0.000000  0.000000  0.000000  1
  Pt  Pt12  1  0.000000  0.000000  0.833200  1
  Pt  Pt13  1  0.000000  0.000000  0.166800  1
  Pt  Pt14  1  0.000000  0.000000  0.333200  1
  Pt  Pt15  1  0.000000  0.000000  0.666800  1
