# generated using pymatgen
data_Ba4ReSbO10
_symmetry_space_group_name_H-M   'P 1'
_cell_length_a   5.86007900
_cell_length_b   7.54613440
_cell_length_c   11.76279300
_cell_angle_alpha   88.77592769
_cell_angle_beta   90.00000000
_cell_angle_gamma   90.00000000
_symmetry_Int_Tables_number   1
_chemical_formula_structural   Ba4ReSbO10
_chemical_formula_sum   'Ba8 Re2 Sb2 O20'
_cell_volume   520.04310402
_cell_formula_units_Z   2
loop_
 _symmetry_equiv_pos_site_id
 _symmetry_equiv_pos_as_xyz
  1  'x, y, z'
loop_
 _atom_site_type_symbol
 _atom_site_label
 _atom_site_symmetry_multiplicity
 _atom_site_fract_x
 _atom_site_fract_y
 _atom_site_fract_z
 _atom_site_occupancy
  Ba  Ba0  1  0.750000  0.477740  0.268014  1
  Ba  Ba1  1  0.250000  0.522260  0.731986  1
  Ba  Ba2  1  0.750000  0.975373  0.201268  1
  Ba  Ba3  1  0.250000  0.024627  0.798732  1
  Ba  Ba4  1  0.750000  0.190001  0.600053  1
  Ba  Ba5  1  0.250000  0.809999  0.399947  1
  Ba  Ba6  1  0.750000  0.663396  0.933433  1
  Ba  Ba7  1  0.250000  0.336604  0.066567  1
  Re  Re8  1  0.750000  0.680233  0.557069  1
  Re  Re9  1  0.250000  0.319767  0.442931  1
  Sb  Sb10  1  0.750000  0.171079  0.929856  1
  Sb  Sb11  1  0.250000  0.828921  0.070144  1
  O  O12  1  0.481162  0.176015  0.400879  1
  O  O13  1  0.981162  0.823985  0.599121  1
  O  O14  1  0.999786  0.675707  0.128802  1
  O  O15  1  0.499786  0.324293  0.871198  1
  O  O16  1  0.518838  0.823985  0.599121  1
  O  O17  1  0.018838  0.176015  0.400879  1
  O  O18  1  0.000214  0.324293  0.871198  1
  O  O19  1  0.500214  0.675707  0.128802  1
  O  O20  1  0.500000  0.500000  0.500000  1
  O  O21  1  0.000000  0.500000  0.500000  1
  O  O22  1  0.000000  0.000000  0.000000  1
  O  O23  1  0.500000  0.000000  0.000000  1
  O  O24  1  0.750000  0.288030  0.083199  1
  O  O25  1  0.250000  0.711970  0.916801  1
  O  O26  1  0.750000  0.761740  0.403189  1
  O  O27  1  0.250000  0.238260  0.596811  1
  O  O28  1  0.750000  0.016236  0.795635  1
  O  O29  1  0.250000  0.983764  0.204365  1
  O  O30  1  0.750000  0.537261  0.684765  1
  O  O31  1  0.250000  0.462739  0.315235  1
