# generated using pymatgen
data_Eu8NiRu
_symmetry_space_group_name_H-M   'P 1'
_cell_length_a   7.73055697
_cell_length_b   7.73055859
_cell_length_c   7.73055756
_cell_angle_alpha   107.96606620
_cell_angle_beta   107.96606384
_cell_angle_gamma   112.52538364
_symmetry_Int_Tables_number   1
_chemical_formula_structural   Eu8NiRu
_chemical_formula_sum   'Eu8 Ni1 Ru1'
_cell_volume   354.87771232
_cell_formula_units_Z   1
loop_
 _symmetry_equiv_pos_site_id
 _symmetry_equiv_pos_as_xyz
  1  'x, y, z'
loop_
 _atom_site_type_symbol
 _atom_site_label
 _atom_site_symmetry_multiplicity
 _atom_site_fract_x
 _atom_site_fract_y
 _atom_site_fract_z
 _atom_site_occupancy
  Eu  Eu0  1  0.825300  0.023704  0.198402  1
  Eu  Eu1  1  0.429077  0.124552  0.695476  1
  Eu  Eu2  1  0.875448  0.570923  0.304524  1
  Eu  Eu3  1  0.825300  0.626899  0.801598  1
  Eu  Eu4  1  0.373101  0.174700  0.198402  1
  Eu  Eu5  1  0.429077  0.733600  0.304524  1
  Eu  Eu6  1  0.266400  0.570923  0.695476  1
  Eu  Eu7  1  0.976296  0.174700  0.801598  1
  Ni  Ni8  1  0.500000  0.500000  0.000000  1
  Ru  Ru9  1  0.750000  0.250000  0.500000  1
