# generated using pymatgen
data_CaEuAs7Pd12
_symmetry_space_group_name_H-M   'P 1'
_cell_length_a   10.19211100
_cell_length_b   10.19211121
_cell_length_c   4.13449900
_cell_angle_alpha   90.00000000
_cell_angle_beta   90.00000000
_cell_angle_gamma   120.00000256
_symmetry_Int_Tables_number   1
_chemical_formula_structural   CaEuAs7Pd12
_chemical_formula_sum   'Ca1 Eu1 As7 Pd12'
_cell_volume   371.94764250
_cell_formula_units_Z   1
loop_
 _symmetry_equiv_pos_site_id
 _symmetry_equiv_pos_as_xyz
  1  'x, y, z'
loop_
 _atom_site_type_symbol
 _atom_site_label
 _atom_site_symmetry_multiplicity
 _atom_site_fract_x
 _atom_site_fract_y
 _atom_site_fract_z
 _atom_site_occupancy
  Ca  Ca0  1  0.666667  0.333333  0.247217  1
  Eu  Eu1  1  0.000000  0.000000  0.752046  1
  As  As2  1  0.333333  0.666667  0.477564  1
  As  As3  1  0.742467  0.783973  0.251737  1
  As  As4  1  0.041506  0.257533  0.251737  1
  As  As5  1  0.216027  0.958494  0.251737  1
  As  As6  1  0.923260  0.549915  0.745416  1
  As  As7  1  0.626655  0.076740  0.745416  1
  As  As8  1  0.450085  0.373345  0.745416  1
  Pd  Pd9  1  0.769229  0.046822  0.250125  1
  Pd  Pd10  1  0.277593  0.230771  0.250125  1
  Pd  Pd11  1  0.953178  0.722407  0.250125  1
  Pd  Pd12  1  0.897602  0.287478  0.746693  1
  Pd  Pd13  1  0.389875  0.102398  0.746693  1
  Pd  Pd14  1  0.712522  0.610125  0.746693  1
  Pd  Pd15  1  0.479195  0.555954  0.229675  1
  Pd  Pd16  1  0.076758  0.520805  0.229675  1
  Pd  Pd17  1  0.444046  0.923242  0.229675  1
  Pd  Pd18  1  0.191043  0.774206  0.767917  1
  Pd  Pd19  1  0.583162  0.808957  0.767917  1
  Pd  Pd20  1  0.225794  0.416838  0.767917  1
