# generated using pymatgen
data_Ce2SmHo(SnRu)4
_symmetry_space_group_name_H-M   'P 1'
_cell_length_a   6.25847243
_cell_length_b   6.25847167
_cell_length_c   10.14273869
_cell_angle_alpha   78.33248297
_cell_angle_beta   78.33248390
_cell_angle_gamma   45.06375651
_symmetry_Int_Tables_number   1
_chemical_formula_structural   Ce2SmHo(SnRu)4
_chemical_formula_sum   'Ce2 Sm1 Ho1 Sn4 Ru4'
_cell_volume   274.40528526
_cell_formula_units_Z   1
loop_
 _symmetry_equiv_pos_site_id
 _symmetry_equiv_pos_as_xyz
  1  'x, y, z'
loop_
 _atom_site_type_symbol
 _atom_site_label
 _atom_site_symmetry_multiplicity
 _atom_site_fract_x
 _atom_site_fract_y
 _atom_site_fract_z
 _atom_site_occupancy
  Ce  Ce0  1  0.861028  0.861028  0.912276  1
  Ce  Ce1  1  0.140319  0.140319  0.086671  1
  Sm  Sm2  1  0.878105  0.878105  0.406962  1
  Ho  Ho3  1  0.121939  0.121939  0.594488  1
  Sn  Sn4  1  0.425142  0.425142  0.158355  1
  Sn  Sn5  1  0.404565  0.404565  0.644948  1
  Sn  Sn6  1  0.574969  0.574969  0.839819  1
  Sn  Sn7  1  0.595590  0.595590  0.357536  1
  Ru  Ru8  1  0.816003  0.816003  0.148392  1
  Ru  Ru9  1  0.196042  0.196042  0.307008  1
  Ru  Ru10  1  0.182700  0.182700  0.849679  1
  Ru  Ru11  1  0.803597  0.803597  0.693864  1
