# generated using pymatgen
data_DyTm4V3(P3Ir4)4
_symmetry_space_group_name_H-M   'P 1'
_cell_length_a   12.65673400
_cell_length_b   12.65615881
_cell_length_c   3.94493900
_cell_angle_alpha   90.00000000
_cell_angle_beta   90.00000000
_cell_angle_gamma   120.00150339
_symmetry_Int_Tables_number   1
_chemical_formula_structural   DyTm4V3(P3Ir4)4
_chemical_formula_sum   'Dy1 Tm4 V3 P12 Ir16'
_cell_volume   547.25270031
_cell_formula_units_Z   1
loop_
 _symmetry_equiv_pos_site_id
 _symmetry_equiv_pos_as_xyz
  1  'x, y, z'
loop_
 _atom_site_type_symbol
 _atom_site_label
 _atom_site_symmetry_multiplicity
 _atom_site_fract_x
 _atom_site_fract_y
 _atom_site_fract_z
 _atom_site_occupancy
  Dy  Dy0  1  0.811535  0.000000  0.000000  1
  Tm  Tm1  1  0.333343  0.666669  0.500000  1
  Tm  Tm2  1  0.666675  0.333331  0.500000  1
  Tm  Tm3  1  0.999987  0.811479  0.000000  1
  Tm  Tm4  1  0.188509  0.188521  0.000000  1
  V  V5  1  0.000014  0.451130  0.500000  1
  V  V6  1  0.548884  0.548870  0.500000  1
  V  V7  1  0.451001  0.000000  0.500000  1
  P  P8  1  0.999978  0.636383  0.500000  1
  P  P9  1  0.363595  0.363617  0.500000  1
  P  P10  1  0.635980  0.000000  0.500000  1
  P  P11  1  0.516315  0.683699  0.000000  1
  P  P12  1  0.316302  0.832567  0.000000  1
  P  P13  1  0.167448  0.483821  0.000000  1
  P  P14  1  0.483735  0.167433  0.000000  1
  P  P15  1  0.683627  0.516179  0.000000  1
  P  P16  1  0.832615  0.316301  0.000000  1
  P  P17  1  0.000324  0.177067  0.500000  1
  P  P18  1  0.823257  0.822933  0.500000  1
  P  P19  1  0.176962  0.000000  0.500000  1
  Ir  Ir20  1  0.508776  0.866687  0.000000  1
  Ir  Ir21  1  0.133320  0.642216  0.000000  1
  Ir  Ir22  1  0.357803  0.491152  0.000000  1
  Ir  Ir23  1  0.491106  0.357784  0.000000  1
  Ir  Ir24  1  0.866651  0.508848  0.000000  1
  Ir  Ir25  1  0.642090  0.133313  0.000000  1
  Ir  Ir26  1  0.000230  0.285270  0.000000  1
  Ir  Ir27  1  0.714960  0.714730  0.000000  1
  Ir  Ir28  1  0.284942  0.000000  0.000000  1
  Ir  Ir29  1  0.625077  0.803830  0.500000  1
  Ir  Ir30  1  0.195242  0.821117  0.500000  1
  Ir  Ir31  1  0.178913  0.374141  0.500000  1
  Ir  Ir32  1  0.374125  0.178883  0.500000  1
  Ir  Ir33  1  0.804771  0.625859  0.500000  1
  Ir  Ir34  1  0.821247  0.196170  0.500000  1
  Ir  Ir35  1  0.000662  0.000000  0.500000  1
