# generated using pymatgen
data_Ce6TiNbSn10
_symmetry_space_group_name_H-M   'P 1'
_cell_length_a   9.34285000
_cell_length_b   9.34285085
_cell_length_c   6.17553400
_cell_angle_alpha   90.00000000
_cell_angle_beta   90.00000000
_cell_angle_gamma   119.99998992
_symmetry_Int_Tables_number   1
_chemical_formula_structural   Ce6TiNbSn10
_chemical_formula_sum   'Ce6 Ti1 Nb1 Sn10'
_cell_volume   466.83561912
_cell_formula_units_Z   1
loop_
 _symmetry_equiv_pos_site_id
 _symmetry_equiv_pos_as_xyz
  1  'x, y, z'
loop_
 _atom_site_type_symbol
 _atom_site_label
 _atom_site_symmetry_multiplicity
 _atom_site_fract_x
 _atom_site_fract_y
 _atom_site_fract_z
 _atom_site_occupancy
  Ce  Ce0  1  0.614458  0.000000  0.250015  1
  Ce  Ce1  1  0.385542  0.000000  0.749985  1
  Ce  Ce2  1  0.000000  0.614458  0.250015  1
  Ce  Ce3  1  0.000000  0.385542  0.749985  1
  Ce  Ce4  1  0.385542  0.385542  0.250015  1
  Ce  Ce5  1  0.614458  0.614458  0.749985  1
  Ti  Ti6  1  0.000000  0.000000  0.500000  1
  Nb  Nb7  1  0.000000  0.000000  0.000000  1
  Sn  Sn8  1  0.260499  0.000000  0.251407  1
  Sn  Sn9  1  0.739501  0.000000  0.748593  1
  Sn  Sn10  1  0.000000  0.260499  0.251407  1
  Sn  Sn11  1  0.000000  0.739501  0.748593  1
  Sn  Sn12  1  0.739501  0.739501  0.251407  1
  Sn  Sn13  1  0.260499  0.260499  0.748593  1
  Sn  Sn14  1  0.333333  0.666667  0.000000  1
  Sn  Sn15  1  0.666667  0.333333  0.000000  1
  Sn  Sn16  1  0.666667  0.333333  0.500000  1
  Sn  Sn17  1  0.333333  0.666667  0.500000  1
