# generated using pymatgen
data_Ti4MnBe2Co9B4
_symmetry_space_group_name_H-M   'P 1'
_cell_length_a   8.40808750
_cell_length_b   8.40808750
_cell_length_c   2.85776100
_cell_angle_alpha   90.00000000
_cell_angle_beta   90.00000000
_cell_angle_gamma   89.02635177
_symmetry_Int_Tables_number   1
_chemical_formula_structural   Ti4MnBe2Co9B4
_chemical_formula_sum   'Ti4 Mn1 Be2 Co9 B4'
_cell_volume   202.00291707
_cell_formula_units_Z   1
loop_
 _symmetry_equiv_pos_site_id
 _symmetry_equiv_pos_as_xyz
  1  'x, y, z'
loop_
 _atom_site_type_symbol
 _atom_site_label
 _atom_site_symmetry_multiplicity
 _atom_site_fract_x
 _atom_site_fract_y
 _atom_site_fract_z
 _atom_site_occupancy
  Ti  Ti0  1  0.824442  0.324442  0.000000  1
  Ti  Ti1  1  0.329181  0.170819  0.000000  1
  Ti  Ti2  1  0.670819  0.829181  0.000000  1
  Ti  Ti3  1  0.175558  0.675558  0.000000  1
  Mn  Mn4  1  0.500000  0.000000  0.500000  1
  Be  Be5  1  0.000000  0.000000  0.000000  1
  Be  Be6  1  0.500000  0.500000  0.000000  1
  Co  Co7  1  0.000000  0.500000  0.500000  1
  Co  Co8  1  0.069877  0.211993  0.500000  1
  Co  Co9  1  0.207874  0.928508  0.500000  1
  Co  Co10  1  0.792126  0.071492  0.500000  1
  Co  Co11  1  0.930123  0.788007  0.500000  1
  Co  Co12  1  0.428508  0.707874  0.500000  1
  Co  Co13  1  0.571492  0.292126  0.500000  1
  Co  Co14  1  0.711993  0.569877  0.500000  1
  Co  Co15  1  0.288007  0.430123  0.500000  1
  B  B16  1  0.625345  0.125345  0.000000  1
  B  B17  1  0.125338  0.374662  0.000000  1
  B  B18  1  0.874662  0.625338  0.000000  1
  B  B19  1  0.374655  0.874655  0.000000  1
