# generated using pymatgen
data_Tb4HoMoRhO12
_symmetry_space_group_name_H-M   'P 1'
_cell_length_a   6.86362454
_cell_length_b   6.86362397
_cell_length_c   7.49187812
_cell_angle_alpha   73.89460717
_cell_angle_beta   73.89460673
_cell_angle_gamma   49.87905032
_symmetry_Int_Tables_number   1
_chemical_formula_structural   Tb4HoMoRhO12
_chemical_formula_sum   'Tb4 Ho1 Mo1 Rh1 O12'
_cell_volume   256.94608486
_cell_formula_units_Z   1
loop_
 _symmetry_equiv_pos_site_id
 _symmetry_equiv_pos_as_xyz
  1  'x, y, z'
loop_
 _atom_site_type_symbol
 _atom_site_label
 _atom_site_symmetry_multiplicity
 _atom_site_fract_x
 _atom_site_fract_y
 _atom_site_fract_z
 _atom_site_occupancy
  Tb  Tb0  1  0.319156  0.286202  0.358698  1
  Tb  Tb1  1  0.713798  0.680844  0.641302  1
  Tb  Tb2  1  0.319474  0.305089  0.827200  1
  Tb  Tb3  1  0.694911  0.680526  0.172800  1
  Ho  Ho4  1  0.010352  0.989648  0.500000  1
  Mo  Mo5  1  0.201530  0.798470  0.000000  1
  Rh  Rh6  1  0.752628  0.247372  0.000000  1
  O  O7  1  0.911091  0.436603  0.914050  1
  O  O8  1  0.412353  0.904182  0.915693  1
  O  O9  1  0.095818  0.587647  0.084307  1
  O  O10  1  0.563397  0.088909  0.085950  1
  O  O11  1  0.110512  0.591804  0.568165  1
  O  O12  1  0.604623  0.085621  0.576215  1
  O  O13  1  0.914379  0.395377  0.423785  1
  O  O14  1  0.408196  0.889488  0.431835  1
  O  O15  1  0.995851  0.000254  0.800783  1
  O  O16  1  0.999746  0.004149  0.199217  1
  O  O17  1  0.486467  0.514281  0.821415  1
  O  O18  1  0.485719  0.513533  0.178585  1
