# generated using pymatgen
data_Hf4Al18FeRh5
_symmetry_space_group_name_H-M   'P 1'
_cell_length_a   7.41582340
_cell_length_b   7.41582420
_cell_length_c   9.19297115
_cell_angle_alpha   90.04768353
_cell_angle_beta   90.04768200
_cell_angle_gamma   119.73355303
_symmetry_Int_Tables_number   1
_chemical_formula_structural   Hf4Al18FeRh5
_chemical_formula_sum   'Hf4 Al18 Fe1 Rh5'
_cell_volume   439.00000202
_cell_formula_units_Z   1
loop_
 _symmetry_equiv_pos_site_id
 _symmetry_equiv_pos_as_xyz
  1  'x, y, z'
loop_
 _atom_site_type_symbol
 _atom_site_label
 _atom_site_symmetry_multiplicity
 _atom_site_fract_x
 _atom_site_fract_y
 _atom_site_fract_z
 _atom_site_occupancy
  Hf  Hf0  1  0.993184  0.671660  0.248710  1
  Hf  Hf1  1  0.006816  0.328340  0.751290  1
  Hf  Hf2  1  0.671660  0.993184  0.248710  1
  Hf  Hf3  1  0.328340  0.006816  0.751290  1
  Al  Al4  1  0.117796  0.117796  0.244088  1
  Al  Al5  1  0.882204  0.882204  0.755912  1
  Al  Al6  1  0.996778  0.328677  0.074692  1
  Al  Al7  1  0.003222  0.671323  0.925308  1
  Al  Al8  1  0.002586  0.665429  0.578626  1
  Al  Al9  1  0.334571  0.997414  0.421374  1
  Al  Al10  1  0.997414  0.334571  0.421374  1
  Al  Al11  1  0.665429  0.002586  0.578626  1
  Al  Al12  1  0.671323  0.003222  0.925308  1
  Al  Al13  1  0.328677  0.996778  0.074692  1
  Al  Al14  1  0.331381  0.331381  0.559171  1
  Al  Al15  1  0.668619  0.668619  0.440829  1
  Al  Al16  1  0.675782  0.675782  0.055391  1
  Al  Al17  1  0.324218  0.324218  0.944609  1
  Al  Al18  1  0.339129  0.553790  0.249076  1
  Al  Al19  1  0.660871  0.446210  0.750924  1
  Al  Al20  1  0.553790  0.339129  0.249076  1
  Al  Al21  1  0.446210  0.660871  0.750924  1
  Fe  Fe22  1  0.000000  0.000000  0.000000  1
  Rh  Rh23  1  0.673070  0.326930  0.000000  1
  Rh  Rh24  1  0.326930  0.673070  0.000000  1
  Rh  Rh25  1  0.326935  0.673065  0.500000  1
  Rh  Rh26  1  0.673065  0.326935  0.500000  1
  Rh  Rh27  1  0.000000  0.000000  0.500000  1
