# generated using pymatgen
data_Ti3NbSiBi2
_symmetry_space_group_name_H-M   'P 1'
_cell_length_a   7.87908824
_cell_length_b   7.87909749
_cell_length_c   7.88788014
_cell_angle_alpha   95.60051443
_cell_angle_beta   95.75968138
_cell_angle_gamma   143.30542110
_symmetry_Int_Tables_number   1
_chemical_formula_structural   Ti3NbSiBi2
_chemical_formula_sum   'Ti6 Nb2 Si2 Bi4'
_cell_volume   277.76727250
_cell_formula_units_Z   2
loop_
 _symmetry_equiv_pos_site_id
 _symmetry_equiv_pos_as_xyz
  1  'x, y, z'
loop_
 _atom_site_type_symbol
 _atom_site_label
 _atom_site_symmetry_multiplicity
 _atom_site_fract_x
 _atom_site_fract_y
 _atom_site_fract_z
 _atom_site_occupancy
  Ti  Ti0  1  0.804480  0.082562  0.887042  1
  Ti  Ti1  1  0.418149  0.697693  0.115845  1
  Ti  Ti2  1  0.195520  0.917438  0.112958  1
  Ti  Ti3  1  0.581851  0.302307  0.884155  1
  Ti  Ti4  1  0.698806  0.582022  0.280827  1
  Ti  Ti5  1  0.301194  0.417978  0.719173  1
  Nb  Nb6  1  0.081005  0.196280  0.277286  1
  Nb  Nb7  1  0.918995  0.803720  0.722714  1
  Si  Si8  1  0.253910  0.253910  0.000000  1
  Si  Si9  1  0.746090  0.746090  0.000000  1
  Bi  Bi10  1  0.141985  0.638357  0.780341  1
  Bi  Bi11  1  0.858015  0.361643  0.219659  1
  Bi  Bi12  1  0.361095  0.138578  0.499671  1
  Bi  Bi13  1  0.638905  0.861422  0.500329  1
