# generated using pymatgen
data_Sm10C4SBr14
_symmetry_space_group_name_H-M   'P 1'
_cell_length_a   8.81895713
_cell_length_b   10.34768773
_cell_length_c   10.79089100
_cell_angle_alpha   70.23321852
_cell_angle_beta   67.49629949
_cell_angle_gamma   69.40408354
_symmetry_Int_Tables_number   1
_chemical_formula_structural   Sm10C4SBr14
_chemical_formula_sum   'Sm10 C4 S1 Br14'
_cell_volume   827.67614491
_cell_formula_units_Z   1
loop_
 _symmetry_equiv_pos_site_id
 _symmetry_equiv_pos_as_xyz
  1  'x, y, z'
loop_
 _atom_site_type_symbol
 _atom_site_label
 _atom_site_symmetry_multiplicity
 _atom_site_fract_x
 _atom_site_fract_y
 _atom_site_fract_z
 _atom_site_occupancy
  Sm  Sm0  1  0.346522  0.727995  0.841601  1
  Sm  Sm1  1  0.653478  0.272005  0.158399  1
  Sm  Sm2  1  0.180849  0.430351  0.045533  1
  Sm  Sm3  1  0.819151  0.569649  0.954467  1
  Sm  Sm4  1  0.082957  0.194639  0.879255  1
  Sm  Sm5  1  0.917043  0.805361  0.120745  1
  Sm  Sm6  1  0.247916  0.545260  0.642604  1
  Sm  Sm7  1  0.752084  0.454740  0.357396  1
  Sm  Sm8  1  0.027179  0.114527  0.261535  1
  Sm  Sm9  1  0.972821  0.885473  0.738465  1
  C  C10  1  0.879489  0.364613  0.169856  1
  C  C11  1  0.120511  0.635387  0.830144  1
  C  C12  1  0.957603  0.301569  0.055625  1
  C  C13  1  0.042397  0.698431  0.944375  1
  S  S14  1  0.500000  0.500000  0.000000  1
  Br  Br15  1  0.127726  0.815872  0.467227  1
  Br  Br16  1  0.872274  0.184128  0.532773  1
  Br  Br17  1  0.255222  0.012041  0.660840  1
  Br  Br18  1  0.744778  0.987959  0.339160  1
  Br  Br19  1  0.343646  0.160412  0.222571  1
  Br  Br20  1  0.656354  0.839588  0.777429  1
  Br  Br21  1  0.447633  0.369479  0.416084  1
  Br  Br22  1  0.552367  0.630521  0.583916  1
  Br  Br23  1  0.947262  0.449190  0.695401  1
  Br  Br24  1  0.052738  0.550810  0.304599  1
  Br  Br25  1  0.214928  0.916809  0.059562  1
  Br  Br26  1  0.785072  0.083191  0.940438  1
  Br  Br27  1  0.394813  0.272444  0.811907  1
  Br  Br28  1  0.605187  0.727556  0.188093  1
