# generated using pymatgen
data_La6(InSn)5
_symmetry_space_group_name_H-M   'P 1'
_cell_length_a   6.74765611
_cell_length_b   6.74765484
_cell_length_c   10.59529400
_cell_angle_alpha   90.00000000
_cell_angle_beta   90.00000000
_cell_angle_gamma   102.38755932
_symmetry_Int_Tables_number   1
_chemical_formula_structural   La6(InSn)5
_chemical_formula_sum   'La6 In5 Sn5'
_cell_volume   471.18167897
_cell_formula_units_Z   1
loop_
 _symmetry_equiv_pos_site_id
 _symmetry_equiv_pos_as_xyz
  1  'x, y, z'
loop_
 _atom_site_type_symbol
 _atom_site_label
 _atom_site_symmetry_multiplicity
 _atom_site_fract_x
 _atom_site_fract_y
 _atom_site_fract_z
 _atom_site_occupancy
  La  La0  1  0.640281  0.640281  0.250000  1
  La  La1  1  0.359937  0.359937  0.750000  1
  La  La2  1  0.203538  0.796824  0.499895  1
  La  La3  1  0.203538  0.796824  0.000105  1
  La  La4  1  0.796824  0.203538  0.499895  1
  La  La5  1  0.796824  0.203538  0.000105  1
  In  In6  1  0.026636  0.026636  0.250000  1
  In  In7  1  0.309224  0.309224  0.050146  1
  In  In8  1  0.690827  0.690827  0.953574  1
  In  In9  1  0.309224  0.309224  0.449854  1
  In  In10  1  0.690827  0.690827  0.546426  1
  Sn  Sn11  1  0.973782  0.973782  0.750000  1
  Sn  Sn12  1  0.495966  0.081676  0.250000  1
  Sn  Sn13  1  0.916457  0.504438  0.750000  1
  Sn  Sn14  1  0.504438  0.916457  0.750000  1
  Sn  Sn15  1  0.081676  0.495966  0.250000  1
