# generated using pymatgen
data_Sc4Mn3Os5
_symmetry_space_group_name_H-M   'P 1'
_cell_length_a   5.12745300
_cell_length_b   5.09693511
_cell_length_c   8.52565400
_cell_angle_alpha   90.00000000
_cell_angle_beta   90.00000000
_cell_angle_gamma   120.19826982
_symmetry_Int_Tables_number   1
_chemical_formula_structural   Sc4Mn3Os5
_chemical_formula_sum   'Sc4 Mn3 Os5'
_cell_volume   192.57414566
_cell_formula_units_Z   1
loop_
 _symmetry_equiv_pos_site_id
 _symmetry_equiv_pos_as_xyz
  1  'x, y, z'
loop_
 _atom_site_type_symbol
 _atom_site_label
 _atom_site_symmetry_multiplicity
 _atom_site_fract_x
 _atom_site_fract_y
 _atom_site_fract_z
 _atom_site_occupancy
  Sc  Sc0  1  0.332244  0.664489  0.063216  1
  Sc  Sc1  1  0.666022  0.332043  0.562975  1
  Sc  Sc2  1  0.666022  0.332043  0.937025  1
  Sc  Sc3  1  0.332244  0.664489  0.436784  1
  Mn  Mn4  1  0.343353  0.178088  0.250000  1
  Mn  Mn5  1  0.834735  0.178088  0.250000  1
  Mn  Mn6  1  0.170359  0.340717  0.750000  1
  Os  Os7  1  0.999894  0.999788  0.005416  1
  Os  Os8  1  0.999894  0.999788  0.494584  1
  Os  Os9  1  0.824473  0.648947  0.250000  1
  Os  Os10  1  0.173084  0.830761  0.750000  1
  Os  Os11  1  0.657677  0.830761  0.750000  1
