# generated using pymatgen
data_CoCu2Ni(Mo3N)2
_symmetry_space_group_name_H-M   'P 1'
_cell_length_a   6.69398400
_cell_length_b   6.68694856
_cell_length_c   6.68764656
_cell_angle_alpha   89.95298819
_cell_angle_beta   90.00000000
_cell_angle_gamma   90.00000000
_symmetry_Int_Tables_number   1
_chemical_formula_structural   CoCu2Ni(Mo3N)2
_chemical_formula_sum   'Co2 Cu4 Ni2 Mo12 N4'
_cell_volume   299.35451945
_cell_formula_units_Z   2
loop_
 _symmetry_equiv_pos_site_id
 _symmetry_equiv_pos_as_xyz
  1  'x, y, z'
loop_
 _atom_site_type_symbol
 _atom_site_label
 _atom_site_symmetry_multiplicity
 _atom_site_fract_x
 _atom_site_fract_y
 _atom_site_fract_z
 _atom_site_occupancy
  Co  Co0  1  0.815745  0.318858  0.179608  1
  Co  Co1  1  0.315745  0.181142  0.820392  1
  Cu  Cu2  1  0.931342  0.568301  0.433235  1
  Cu  Cu3  1  0.181177  0.817318  0.318720  1
  Cu  Cu4  1  0.431342  0.931699  0.566765  1
  Cu  Cu5  1  0.681177  0.682682  0.681280  1
  Ni  Ni6  1  0.565172  0.432364  0.931732  1
  Ni  Ni7  1  0.065172  0.067636  0.068268  1
  Mo  Mo8  1  0.203635  0.446086  0.122177  1
  Mo  Mo9  1  0.052628  0.880807  0.710811  1
  Mo  Mo10  1  0.455794  0.130240  0.195567  1
  Mo  Mo11  1  0.300653  0.538530  0.630283  1
  Mo  Mo12  1  0.955794  0.369760  0.804433  1
  Mo  Mo13  1  0.552628  0.619193  0.289189  1
  Mo  Mo14  1  0.703635  0.053914  0.877823  1
  Mo  Mo15  1  0.622145  0.294259  0.550117  1
  Mo  Mo16  1  0.871254  0.699087  0.045721  1
  Mo  Mo17  1  0.371254  0.800913  0.954279  1
  Mo  Mo18  1  0.122145  0.205741  0.449883  1
  Mo  Mo19  1  0.800653  0.961470  0.369717  1
  N  N20  1  0.875400  0.125660  0.625562  1
  N  N21  1  0.625053  0.875636  0.124401  1
  N  N22  1  0.125053  0.624364  0.875599  1
  N  N23  1  0.375400  0.374340  0.374438  1
