# generated using pymatgen
data_Tb4NdErTa2O14
_symmetry_space_group_name_H-M   'P 1'
_cell_length_a   6.51123035
_cell_length_b   6.50433592
_cell_length_c   7.55530760
_cell_angle_alpha   90.07126840
_cell_angle_beta   89.89474609
_cell_angle_gamma   108.99233096
_symmetry_Int_Tables_number   1
_chemical_formula_structural   Tb4NdErTa2O14
_chemical_formula_sum   'Tb4 Nd1 Er1 Ta2 O14'
_cell_volume   302.55714645
_cell_formula_units_Z   1
loop_
 _symmetry_equiv_pos_site_id
 _symmetry_equiv_pos_as_xyz
  1  'x, y, z'
loop_
 _atom_site_type_symbol
 _atom_site_label
 _atom_site_symmetry_multiplicity
 _atom_site_fract_x
 _atom_site_fract_y
 _atom_site_fract_z
 _atom_site_occupancy
  Tb  Tb0  1  0.536286  0.532983  0.500003  1
  Tb  Tb1  1  0.001606  0.464929  0.744704  1
  Tb  Tb2  1  0.533788  0.001804  0.751522  1
  Tb  Tb3  1  0.464559  0.000809  0.255562  1
  Nd  Nd4  1  0.499260  0.498960  0.000943  1
  Er  Er5  1  0.002245  0.533276  0.248144  1
  Ta  Ta6  1  0.002674  0.003178  0.499403  1
  Ta  Ta7  1  0.999588  0.999650  0.000925  1
  O  O8  1  0.936347  0.065347  0.750411  1
  O  O9  1  0.064815  0.931945  0.249774  1
  O  O10  1  0.356496  0.639101  0.258254  1
  O  O11  1  0.641531  0.361644  0.743025  1
  O  O12  1  0.368548  0.632287  0.742270  1
  O  O13  1  0.637694  0.370931  0.256457  1
  O  O14  1  0.320932  0.073144  0.970450  1
  O  O15  1  0.673707  0.917890  0.472823  1
  O  O16  1  0.311729  0.059705  0.536790  1
  O  O17  1  0.680085  0.929298  0.034893  1
  O  O18  1  0.045053  0.307958  0.457915  1
  O  O19  1  0.933968  0.680820  0.965822  1
  O  O20  1  0.922499  0.674546  0.526424  1
  O  O21  1  0.066593  0.319793  0.033488  1
