# generated using pymatgen
data_HoTm11TcOs3
_symmetry_space_group_name_H-M   'P 1'
_cell_length_a   7.35957154
_cell_length_b   8.89471400
_cell_length_c   6.21894221
_cell_angle_alpha   90.00000000
_cell_angle_beta   89.98815381
_cell_angle_gamma   90.00000000
_symmetry_Int_Tables_number   1
_chemical_formula_structural   HoTm11TcOs3
_chemical_formula_sum   'Ho1 Tm11 Tc1 Os3'
_cell_volume   407.09993390
_cell_formula_units_Z   1
loop_
 _symmetry_equiv_pos_site_id
 _symmetry_equiv_pos_as_xyz
  1  'x, y, z'
loop_
 _atom_site_type_symbol
 _atom_site_label
 _atom_site_symmetry_multiplicity
 _atom_site_fract_x
 _atom_site_fract_y
 _atom_site_fract_z
 _atom_site_occupancy
  Ho  Ho0  1  0.040011  0.250000  0.626760  1
  Tm  Tm1  1  0.959625  0.750000  0.371070  1
  Tm  Tm2  1  0.460445  0.750000  0.129331  1
  Tm  Tm3  1  0.539502  0.250000  0.874976  1
  Tm  Tm4  1  0.174714  0.061997  0.163791  1
  Tm  Tm5  1  0.824508  0.937798  0.833811  1
  Tm  Tm6  1  0.325671  0.937184  0.665045  1
  Tm  Tm7  1  0.824508  0.562202  0.833811  1
  Tm  Tm8  1  0.674963  0.062381  0.334635  1
  Tm  Tm9  1  0.174714  0.438003  0.163791  1
  Tm  Tm10  1  0.674963  0.437619  0.334635  1
  Tm  Tm11  1  0.325671  0.562816  0.665045  1
  Tc  Tc12  1  0.382869  0.250000  0.463669  1
  Os  Os13  1  0.618855  0.750000  0.538563  1
  Os  Os14  1  0.117837  0.750000  0.962188  1
  Os  Os15  1  0.881140  0.250000  0.038879  1
