# generated using pymatgen
data_Y10InBi2Pb3
_symmetry_space_group_name_H-M   'P 1'
_cell_length_a   9.11150149
_cell_length_b   9.10601257
_cell_length_c   6.59426400
_cell_angle_alpha   90.00000000
_cell_angle_beta   90.00000000
_cell_angle_gamma   119.98006878
_symmetry_Int_Tables_number   1
_chemical_formula_structural   Y10InBi2Pb3
_chemical_formula_sum   'Y10 In1 Bi2 Pb3'
_cell_volume   473.91706395
_cell_formula_units_Z   1
loop_
 _symmetry_equiv_pos_site_id
 _symmetry_equiv_pos_as_xyz
  1  'x, y, z'
loop_
 _atom_site_type_symbol
 _atom_site_label
 _atom_site_symmetry_multiplicity
 _atom_site_fract_x
 _atom_site_fract_y
 _atom_site_fract_z
 _atom_site_occupancy
  Y  Y0  1  0.671164  0.337396  0.000746  1
  Y  Y1  1  0.328836  0.666232  0.000746  1
  Y  Y2  1  0.328836  0.666232  0.499254  1
  Y  Y3  1  0.671164  0.337396  0.499254  1
  Y  Y4  1  0.766431  0.759169  0.750000  1
  Y  Y5  1  0.233569  0.992739  0.750000  1
  Y  Y6  1  0.000000  0.240746  0.750000  1
  Y  Y7  1  0.238382  0.239297  0.250000  1
  Y  Y8  1  0.761618  0.000914  0.250000  1
  Y  Y9  1  0.000000  0.760955  0.250000  1
  In  In10  1  0.000000  0.603080  0.750000  1
  Bi  Bi11  1  0.393187  0.392656  0.750000  1
  Bi  Bi12  1  0.606813  0.999470  0.750000  1
  Pb  Pb13  1  0.605371  0.607582  0.250000  1
  Pb  Pb14  1  0.394629  0.002211  0.250000  1
  Pb  Pb15  1  0.000000  0.393923  0.250000  1
