# generated using pymatgen
data_ErMo2O7F
_symmetry_space_group_name_H-M   'P 1'
_cell_length_a   6.60628500
_cell_length_b   4.30083058
_cell_length_c   11.54309841
_cell_angle_alpha   89.58517926
_cell_angle_beta   90.00000000
_cell_angle_gamma   90.00000000
_symmetry_Int_Tables_number   1
_chemical_formula_structural   ErMo2O7F
_chemical_formula_sum   'Er2 Mo4 O14 F2'
_cell_volume   327.95983280
_cell_formula_units_Z   2
loop_
 _symmetry_equiv_pos_site_id
 _symmetry_equiv_pos_as_xyz
  1  'x, y, z'
loop_
 _atom_site_type_symbol
 _atom_site_label
 _atom_site_symmetry_multiplicity
 _atom_site_fract_x
 _atom_site_fract_y
 _atom_site_fract_z
 _atom_site_occupancy
  Er  Er0  1  0.797748  0.000000  0.750000  1
  Er  Er1  1  0.202252  0.000000  0.250000  1
  Mo  Mo2  1  0.330429  0.904490  0.594217  1
  Mo  Mo3  1  0.330429  0.095510  0.905783  1
  Mo  Mo4  1  0.669571  0.095510  0.405783  1
  Mo  Mo5  1  0.669571  0.904490  0.094217  1
  O  O6  1  0.341410  0.501186  0.596880  1
  O  O7  1  0.341410  0.498814  0.903120  1
  O  O8  1  0.658590  0.498814  0.403120  1
  O  O9  1  0.658590  0.501186  0.096880  1
  O  O10  1  0.074615  0.984102  0.628992  1
  O  O11  1  0.074615  0.015898  0.871008  1
  O  O12  1  0.925385  0.015898  0.371008  1
  O  O13  1  0.925385  0.984102  0.128992  1
  O  O14  1  0.651404  0.000595  0.566665  1
  O  O15  1  0.651404  0.999405  0.933335  1
  O  O16  1  0.348596  0.999405  0.433335  1
  O  O17  1  0.348596  0.000595  0.066665  1
  O  O18  1  0.441966  0.000000  0.750000  1
  O  O19  1  0.558034  0.000000  0.250000  1
  F  F20  1  0.802380  0.500000  0.750000  1
  F  F21  1  0.197620  0.500000  0.250000  1
