# generated using pymatgen
data_Dy7Ho(AlRh)2
_symmetry_space_group_name_H-M   'P 1'
_cell_length_a   9.52166699
_cell_length_b   9.52806664
_cell_length_c   9.52539531
_cell_angle_alpha   59.99071999
_cell_angle_beta   60.00199406
_cell_angle_gamma   59.97776912
_symmetry_Int_Tables_number   1
_chemical_formula_structural   Dy7Ho(AlRh)2
_chemical_formula_sum   'Dy14 Ho2 Al4 Rh4'
_cell_volume   610.92633902
_cell_formula_units_Z   2
loop_
 _symmetry_equiv_pos_site_id
 _symmetry_equiv_pos_as_xyz
  1  'x, y, z'
loop_
 _atom_site_type_symbol
 _atom_site_label
 _atom_site_symmetry_multiplicity
 _atom_site_fract_x
 _atom_site_fract_y
 _atom_site_fract_z
 _atom_site_occupancy
  Dy  Dy0  1  0.308164  0.692082  0.307671  1
  Dy  Dy1  1  0.936351  0.937359  0.562908  1
  Dy  Dy2  1  0.145954  0.147485  0.559075  1
  Dy  Dy3  1  0.563168  0.937020  0.562793  1
  Dy  Dy4  1  0.146951  0.148682  0.147272  1
  Dy  Dy5  1  0.308353  0.307587  0.692359  1
  Dy  Dy6  1  0.936351  0.563381  0.562908  1
  Dy  Dy7  1  0.563043  0.563084  0.936748  1
  Dy  Dy8  1  0.563043  0.937125  0.936748  1
  Dy  Dy9  1  0.936471  0.563212  0.937104  1
  Dy  Dy10  1  0.146951  0.557095  0.147272  1
  Dy  Dy11  1  0.308353  0.691701  0.692359  1
  Dy  Dy12  1  0.691993  0.308215  0.691577  1
  Dy  Dy13  1  0.559320  0.147323  0.146034  1
  Ho  Ho14  1  0.692554  0.307824  0.308103  1
  Ho  Ho15  1  0.692554  0.691518  0.308103  1
  Al  Al16  1  0.922730  0.922524  0.232221  1
  Al  Al17  1  0.232117  0.922514  0.922854  1
  Al  Al18  1  0.922542  0.232521  0.922711  1
  Al  Al19  1  0.922542  0.922224  0.922711  1
  Rh  Rh20  1  0.357561  0.356744  0.357246  1
  Rh  Rh21  1  0.928055  0.357306  0.357335  1
  Rh  Rh22  1  0.357317  0.357022  0.928640  1
  Rh  Rh23  1  0.357561  0.928449  0.357246  1
