# generated using pymatgen
data_Ti3Al3TcRh5
_symmetry_space_group_name_H-M   'P 1'
_cell_length_a   4.31146700
_cell_length_b   6.19097400
_cell_length_c   12.84795100
_cell_angle_alpha   90.00000000
_cell_angle_beta   90.00011550
_cell_angle_gamma   90.00000000
_symmetry_Int_Tables_number   1
_chemical_formula_structural   Ti3Al3TcRh5
_chemical_formula_sum   'Ti6 Al6 Tc2 Rh10'
_cell_volume   342.93982199
_cell_formula_units_Z   2
loop_
 _symmetry_equiv_pos_site_id
 _symmetry_equiv_pos_as_xyz
  1  'x, y, z'
loop_
 _atom_site_type_symbol
 _atom_site_label
 _atom_site_symmetry_multiplicity
 _atom_site_fract_x
 _atom_site_fract_y
 _atom_site_fract_z
 _atom_site_occupancy
  Ti  Ti0  1  0.000000  0.000000  0.000010  1
  Ti  Ti1  1  0.499999  0.500000  0.160440  1
  Ti  Ti2  1  0.999978  0.000000  0.331492  1
  Ti  Ti3  1  0.500000  0.500000  0.499991  1
  Ti  Ti4  1  0.000023  0.000000  0.668500  1
  Ti  Ti5  1  0.500003  0.500000  0.839582  1
  Al  Al6  1  0.000000  0.500000  0.000001  1
  Al  Al7  1  0.500056  0.000000  0.164543  1
  Al  Al8  1  0.000062  0.500000  0.333093  1
  Al  Al9  1  0.499998  0.000000  0.500015  1
  Al  Al10  1  0.999938  0.500000  0.666910  1
  Al  Al11  1  0.499940  0.000000  0.835451  1
  Tc  Tc12  1  0.499998  0.251020  0.000003  1
  Tc  Tc13  1  0.499998  0.748978  0.000003  1
  Rh  Rh14  1  0.000004  0.250241  0.170198  1
  Rh  Rh15  1  0.000004  0.749760  0.170198  1
  Rh  Rh16  1  0.499982  0.248950  0.335681  1
  Rh  Rh17  1  0.499982  0.751051  0.335681  1
  Rh  Rh18  1  0.999997  0.249899  0.499967  1
  Rh  Rh19  1  0.999997  0.750100  0.499967  1
  Rh  Rh20  1  0.500017  0.248966  0.664298  1
  Rh  Rh21  1  0.500017  0.751035  0.664298  1
  Rh  Rh22  1  0.999999  0.250239  0.829837  1
  Rh  Rh23  1  0.999999  0.749762  0.829837  1
