# generated using pymatgen
data_Sm4ZnGa23Pt9
_symmetry_space_group_name_H-M   'P 1'
_cell_length_a   7.56267557
_cell_length_b   7.61502400
_cell_length_c   13.36912792
_cell_angle_alpha   84.62545144
_cell_angle_beta   79.23746546
_cell_angle_gamma   60.13724836
_symmetry_Int_Tables_number   1
_chemical_formula_structural   Sm4ZnGa23Pt9
_chemical_formula_sum   'Sm4 Zn1 Ga23 Pt9'
_cell_volume   655.95171611
_cell_formula_units_Z   1
loop_
 _symmetry_equiv_pos_site_id
 _symmetry_equiv_pos_as_xyz
  1  'x, y, z'
loop_
 _atom_site_type_symbol
 _atom_site_label
 _atom_site_symmetry_multiplicity
 _atom_site_fract_x
 _atom_site_fract_y
 _atom_site_fract_z
 _atom_site_occupancy
  Sm  Sm0  1  0.393247  0.169445  0.809021  1
  Sm  Sm1  1  0.605185  0.831672  0.190484  1
  Sm  Sm2  1  0.731507  0.497576  0.809924  1
  Sm  Sm3  1  0.269176  0.500817  0.188888  1
  Zn  Zn4  1  0.687446  0.833979  0.940805  1
  Ga  Ga5  1  0.319567  0.160690  0.057887  1
  Ga  Ga6  1  0.146264  0.831582  0.560719  1
  Ga  Ga7  1  0.853582  0.168504  0.439877  1
  Ga  Ga8  1  0.480089  0.166013  0.556961  1
  Ga  Ga9  1  0.520762  0.833625  0.443014  1
  Ga  Ga10  1  0.219572  0.165088  0.325713  1
  Ga  Ga11  1  0.780669  0.834558  0.674472  1
  Ga  Ga12  1  0.436396  0.505012  0.674075  1
  Ga  Ga13  1  0.562567  0.495992  0.326532  1
  Ga  Ga14  1  0.107533  0.161359  0.672403  1
  Ga  Ga15  1  0.892322  0.838067  0.328363  1
  Ga  Ga16  1  0.357490  0.499345  0.939715  1
  Ga  Ga17  1  0.644900  0.506532  0.057519  1
  Ga  Ga18  1  0.020206  0.167714  0.947656  1
  Ga  Ga19  1  0.977648  0.831967  0.049845  1
  Ga  Ga20  1  0.186147  0.499230  0.442375  1
  Ga  Ga21  1  0.814062  0.501482  0.557875  1
  Ga  Ga22  1  0.736583  0.164872  0.182814  1
  Ga  Ga23  1  0.262611  0.836173  0.817128  1
  Ga  Ga24  1  0.053567  0.635630  0.818187  1
  Ga  Ga25  1  0.940700  0.365964  0.183379  1
  Ga  Ga26  1  0.853960  0.036172  0.818107  1
  Ga  Ga27  1  0.140803  0.960222  0.183760  1
  Pt  Pt28  1  0.119474  0.494349  0.638841  1
  Pt  Pt29  1  0.882038  0.505308  0.361112  1
  Pt  Pt30  1  0.660528  0.175669  0.000586  1
  Pt  Pt31  1  0.336036  0.830226  0.000957  1
  Pt  Pt32  1  0.540353  0.167630  0.360813  1
  Pt  Pt33  1  0.459770  0.832571  0.638817  1
  Pt  Pt34  1  0.780525  0.172537  0.637102  1
  Pt  Pt35  1  0.219711  0.828022  0.363506  1
  Pt  Pt36  1  0.007007  0.494405  0.000770  1
