# generated using pymatgen
data_Pr5(IrO6)2
_symmetry_space_group_name_H-M   'P 1'
_cell_length_a   7.15613509
_cell_length_b   7.15613493
_cell_length_c   7.60839500
_cell_angle_alpha   74.58426604
_cell_angle_beta   74.58426847
_cell_angle_gamma   51.25539465
_symmetry_Int_Tables_number   1
_chemical_formula_structural   Pr5(IrO6)2
_chemical_formula_sum   'Pr5 Ir2 O12'
_cell_volume   290.38036012
_cell_formula_units_Z   1
loop_
 _symmetry_equiv_pos_site_id
 _symmetry_equiv_pos_as_xyz
  1  'x, y, z'
loop_
 _atom_site_type_symbol
 _atom_site_label
 _atom_site_symmetry_multiplicity
 _atom_site_fract_x
 _atom_site_fract_y
 _atom_site_fract_z
 _atom_site_occupancy
  Pr  Pr0  1  0.304013  0.304013  0.358041  1
  Pr  Pr1  1  0.695987  0.695987  0.641959  1
  Pr  Pr2  1  0.693418  0.693418  0.165994  1
  Pr  Pr3  1  0.306582  0.306582  0.834006  1
  Pr  Pr4  1  0.000000  0.000000  0.500000  1
  Ir  Ir5  1  0.753798  0.246202  0.000000  1
  Ir  Ir6  1  0.246202  0.753798  0.000000  1
  O  O7  1  0.095356  0.598138  0.576421  1
  O  O8  1  0.999397  0.999397  0.170614  1
  O  O9  1  0.401862  0.904644  0.423579  1
  O  O10  1  0.500182  0.500182  0.173109  1
  O  O11  1  0.100339  0.577482  0.080056  1
  O  O12  1  0.904644  0.401862  0.423579  1
  O  O13  1  0.000603  0.000603  0.829386  1
  O  O14  1  0.598138  0.095355  0.576421  1
  O  O15  1  0.499818  0.499818  0.826891  1
  O  O16  1  0.577482  0.100339  0.080056  1
  O  O17  1  0.422518  0.899661  0.919944  1
  O  O18  1  0.899661  0.422518  0.919944  1
