# generated using pymatgen
data_EuSb12IrRu2Rh
_symmetry_space_group_name_H-M   'P 1'
_cell_length_a   8.15053986
_cell_length_b   8.16514391
_cell_length_c   8.16654059
_cell_angle_alpha   109.54056744
_cell_angle_beta   109.47399016
_cell_angle_gamma   109.48414479
_symmetry_Int_Tables_number   1
_chemical_formula_structural   EuSb12IrRu2Rh
_chemical_formula_sum   'Eu1 Sb12 Ir1 Ru2 Rh1'
_cell_volume   417.93591114
_cell_formula_units_Z   1
loop_
 _symmetry_equiv_pos_site_id
 _symmetry_equiv_pos_as_xyz
  1  'x, y, z'
loop_
 _atom_site_type_symbol
 _atom_site_label
 _atom_site_symmetry_multiplicity
 _atom_site_fract_x
 _atom_site_fract_y
 _atom_site_fract_z
 _atom_site_occupancy
  Eu  Eu0  1  0.000000  0.000000  0.000000  1
  Sb  Sb1  1  0.657620  0.841338  0.503204  1
  Sb  Sb2  1  0.342380  0.158662  0.496796  1
  Sb  Sb3  1  0.841785  0.183734  0.338765  1
  Sb  Sb4  1  0.813050  0.657371  0.154653  1
  Sb  Sb5  1  0.842071  0.503055  0.658721  1
  Sb  Sb6  1  0.186950  0.342629  0.845347  1
  Sb  Sb7  1  0.158215  0.816266  0.661235  1
  Sb  Sb8  1  0.503506  0.661889  0.841593  1
  Sb  Sb9  1  0.496494  0.338111  0.158407  1
  Sb  Sb10  1  0.157929  0.496945  0.341279  1
  Sb  Sb11  1  0.341858  0.844833  0.183318  1
  Sb  Sb12  1  0.658142  0.155167  0.816682  1
  Ir  Ir13  1  0.000000  0.000000  0.500000  1
  Ru  Ru14  1  0.500000  0.500000  0.500000  1
  Ru  Ru15  1  0.500000  0.000000  0.000000  1
  Rh  Rh16  1  0.000000  0.500000  0.000000  1
