# generated using pymatgen
data_YbCr3Br7F
_symmetry_space_group_name_H-M   'P 1'
_cell_length_a   8.20002269
_cell_length_b   7.66552869
_cell_length_c   8.20002200
_cell_angle_alpha   59.18928120
_cell_angle_beta   53.00582526
_cell_angle_gamma   59.18928585
_symmetry_Int_Tables_number   1
_chemical_formula_structural   YbCr3Br7F
_chemical_formula_sum   'Yb1 Cr3 Br7 F1'
_cell_volume   337.57679475
_cell_formula_units_Z   1
loop_
 _symmetry_equiv_pos_site_id
 _symmetry_equiv_pos_as_xyz
  1  'x, y, z'
loop_
 _atom_site_type_symbol
 _atom_site_label
 _atom_site_symmetry_multiplicity
 _atom_site_fract_x
 _atom_site_fract_y
 _atom_site_fract_z
 _atom_site_occupancy
  Yb  Yb0  1  0.150570  0.605732  0.150570  1
  Cr  Cr1  1  0.611007  0.135530  0.132052  1
  Cr  Cr2  1  0.124981  0.130666  0.124981  1
  Cr  Cr3  1  0.132052  0.135530  0.611007  1
  Br  Br4  1  0.384726  0.357127  0.873613  1
  Br  Br5  1  0.898153  0.880896  0.898153  1
  Br  Br6  1  0.863371  0.906729  0.378858  1
  Br  Br7  1  0.378858  0.906729  0.863371  1
  Br  Br8  1  0.383906  0.874791  0.383906  1
  Br  Br9  1  0.867833  0.377981  0.867833  1
  Br  Br10  1  0.873613  0.357127  0.384726  1
  F  F11  1  0.330927  0.331164  0.330927  1
