# generated using pymatgen
data_Y4Hf4Ir3Rh
_symmetry_space_group_name_H-M   'P 1'
_cell_length_a   4.54371600
_cell_length_b   7.09255252
_cell_length_c   8.31468761
_cell_angle_alpha   89.96553074
_cell_angle_beta   90.00000000
_cell_angle_gamma   90.00000000
_symmetry_Int_Tables_number   1
_chemical_formula_structural   Y4Hf4Ir3Rh
_chemical_formula_sum   'Y4 Hf4 Ir3 Rh1'
_cell_volume   267.95360040
_cell_formula_units_Z   1
loop_
 _symmetry_equiv_pos_site_id
 _symmetry_equiv_pos_as_xyz
  1  'x, y, z'
loop_
 _atom_site_type_symbol
 _atom_site_label
 _atom_site_symmetry_multiplicity
 _atom_site_fract_x
 _atom_site_fract_y
 _atom_site_fract_z
 _atom_site_occupancy
  Y  Y0  1  0.250000  0.981077  0.321716  1
  Y  Y1  1  0.250000  0.485471  0.176514  1
  Y  Y2  1  0.750000  0.015924  0.676593  1
  Y  Y3  1  0.750000  0.516357  0.822789  1
  Hf  Hf4  1  0.250000  0.358395  0.572954  1
  Hf  Hf5  1  0.250000  0.859299  0.928416  1
  Hf  Hf6  1  0.750000  0.639999  0.429487  1
  Hf  Hf7  1  0.750000  0.141921  0.069459  1
  Ir  Ir8  1  0.250000  0.230400  0.905619  1
  Ir  Ir9  1  0.250000  0.728928  0.593605  1
  Ir  Ir10  1  0.750000  0.771007  0.095034  1
  Rh  Rh11  1  0.750000  0.271221  0.407814  1
