# generated using pymatgen
data_Y3Ho17(OsAu2)4
_symmetry_space_group_name_H-M   'P 1'
_cell_length_a   7.73759608
_cell_length_b   8.77874900
_cell_length_c   12.19667300
_cell_angle_alpha   90.00000000
_cell_angle_beta   90.00846375
_cell_angle_gamma   90.00000000
_symmetry_Int_Tables_number   1
_chemical_formula_structural   Y3Ho17(OsAu2)4
_chemical_formula_sum   'Y3 Ho17 Os4 Au8'
_cell_volume   828.47624922
_cell_formula_units_Z   1
loop_
 _symmetry_equiv_pos_site_id
 _symmetry_equiv_pos_as_xyz
  1  'x, y, z'
loop_
 _atom_site_type_symbol
 _atom_site_label
 _atom_site_symmetry_multiplicity
 _atom_site_fract_x
 _atom_site_fract_y
 _atom_site_fract_z
 _atom_site_occupancy
  Y  Y0  1  0.835260  0.750000  0.778994  1
  Y  Y1  1  0.164631  0.250000  0.221127  1
  Y  Y2  1  0.335407  0.250000  0.721113  1
  Ho  Ho3  1  0.664507  0.750000  0.279435  1
  Ho  Ho4  1  0.361116  0.750000  0.686688  1
  Ho  Ho5  1  0.638894  0.250000  0.312992  1
  Ho  Ho6  1  0.860777  0.250000  0.812896  1
  Ho  Ho7  1  0.138441  0.750000  0.187315  1
  Ho  Ho8  1  0.953976  0.750000  0.495773  1
  Ho  Ho9  1  0.045510  0.250000  0.503786  1
  Ho  Ho10  1  0.454360  0.250000  0.004335  1
  Ho  Ho11  1  0.546181  0.750000  0.996689  1
  Ho  Ho12  1  0.671368  0.034519  0.582933  1
  Ho  Ho13  1  0.328479  0.965234  0.416572  1
  Ho  Ho14  1  0.171855  0.965444  0.916757  1
  Ho  Ho15  1  0.328479  0.534766  0.416572  1
  Ho  Ho16  1  0.828602  0.034367  0.083233  1
  Ho  Ho17  1  0.671368  0.465481  0.582933  1
  Ho  Ho18  1  0.828602  0.465633  0.083233  1
  Ho  Ho19  1  0.171855  0.534556  0.916757  1
  Os  Os20  1  0.572576  0.750000  0.501456  1
  Os  Os21  1  0.427279  0.250000  0.497411  1
  Os  Os22  1  0.072414  0.250000  0.997572  1
  Os  Os23  1  0.928205  0.750000  0.002312  1
  Au  Au24  1  0.562559  0.490868  0.833448  1
  Au  Au25  1  0.438592  0.510116  0.167656  1
  Au  Au26  1  0.062746  0.509498  0.666484  1
  Au  Au27  1  0.438592  0.989884  0.167656  1
  Au  Au28  1  0.936032  0.491235  0.332971  1
  Au  Au29  1  0.562559  0.009132  0.833448  1
  Au  Au30  1  0.936032  0.008765  0.332971  1
  Au  Au31  1  0.062746  0.990502  0.666484  1
