# generated using pymatgen
data_K3LuGe2O7
_symmetry_space_group_name_H-M   'P 1'
_cell_length_a   5.92093200
_cell_length_b   5.92093241
_cell_length_c   14.72257800
_cell_angle_alpha   90.00000000
_cell_angle_beta   90.00000000
_cell_angle_gamma   119.99999771
_symmetry_Int_Tables_number   1
_chemical_formula_structural   K3LuGe2O7
_chemical_formula_sum   'K6 Lu2 Ge4 O14'
_cell_volume   446.98678388
_cell_formula_units_Z   2
loop_
 _symmetry_equiv_pos_site_id
 _symmetry_equiv_pos_as_xyz
  1  'x, y, z'
loop_
 _atom_site_type_symbol
 _atom_site_label
 _atom_site_symmetry_multiplicity
 _atom_site_fract_x
 _atom_site_fract_y
 _atom_site_fract_z
 _atom_site_occupancy
  K  K0  1  0.333333  0.666667  0.411190  1
  K  K1  1  0.000000  0.000000  0.250000  1
  K  K2  1  0.666667  0.333333  0.588810  1
  K  K3  1  0.333333  0.666667  0.088810  1
  K  K4  1  0.666667  0.333333  0.911190  1
  K  K5  1  0.000000  0.000000  0.750000  1
  Lu  Lu6  1  0.000000  0.000000  0.500000  1
  Lu  Lu7  1  0.000000  0.000000  0.000000  1
  Ge  Ge8  1  0.333333  0.666667  0.628130  1
  Ge  Ge9  1  0.666667  0.333333  0.371870  1
  Ge  Ge10  1  0.666667  0.333333  0.128130  1
  Ge  Ge11  1  0.333333  0.666667  0.871870  1
  O  O12  1  0.339595  0.169797  0.407844  1
  O  O13  1  0.830203  0.169797  0.092156  1
  O  O14  1  0.169797  0.339595  0.592156  1
  O  O15  1  0.169797  0.830203  0.907844  1
  O  O16  1  0.660405  0.830203  0.907844  1
  O  O17  1  0.660405  0.830203  0.592156  1
  O  O18  1  0.339595  0.169797  0.092156  1
  O  O19  1  0.169797  0.830203  0.592156  1
  O  O20  1  0.830203  0.169797  0.407844  1
  O  O21  1  0.169797  0.339595  0.907844  1
  O  O22  1  0.830203  0.660405  0.092156  1
  O  O23  1  0.830203  0.660405  0.407844  1
  O  O24  1  0.666667  0.333333  0.250000  1
  O  O25  1  0.333333  0.666667  0.750000  1
