# generated using pymatgen
data_DyUPd6
_symmetry_space_group_name_H-M   'P 1'
_cell_length_a   5.80760000
_cell_length_b   5.80759988
_cell_length_c   9.59599600
_cell_angle_alpha   90.00000000
_cell_angle_beta   90.00000000
_cell_angle_gamma   120.00000067
_symmetry_Int_Tables_number   1
_chemical_formula_structural   DyUPd6
_chemical_formula_sum   'Dy2 U2 Pd12'
_cell_volume   280.29417435
_cell_formula_units_Z   2
loop_
 _symmetry_equiv_pos_site_id
 _symmetry_equiv_pos_as_xyz
  1  'x, y, z'
loop_
 _atom_site_type_symbol
 _atom_site_label
 _atom_site_symmetry_multiplicity
 _atom_site_fract_x
 _atom_site_fract_y
 _atom_site_fract_z
 _atom_site_occupancy
  Dy  Dy0  1  0.000000  0.000000  0.500000  1
  Dy  Dy1  1  0.000000  0.000000  0.000000  1
  U  U2  1  0.333333  0.666667  0.750000  1
  U  U3  1  0.666667  0.333333  0.250000  1
  Pd  Pd4  1  0.500000  0.500000  0.500000  1
  Pd  Pd5  1  0.500000  0.000000  0.500000  1
  Pd  Pd6  1  0.000000  0.500000  0.500000  1
  Pd  Pd7  1  0.500000  0.500000  0.000000  1
  Pd  Pd8  1  0.500000  0.000000  0.000000  1
  Pd  Pd9  1  0.000000  0.500000  0.000000  1
  Pd  Pd10  1  0.172630  0.827370  0.250000  1
  Pd  Pd11  1  0.172630  0.345262  0.250000  1
  Pd  Pd12  1  0.654738  0.827370  0.250000  1
  Pd  Pd13  1  0.827370  0.172630  0.750000  1
  Pd  Pd14  1  0.827370  0.654738  0.750000  1
  Pd  Pd15  1  0.345262  0.172630  0.750000  1
