# generated using pymatgen
data_Th4Cd2CuNi3
_symmetry_space_group_name_H-M   'P 1'
_cell_length_a   7.69419983
_cell_length_b   7.69419870
_cell_length_c   3.71402300
_cell_angle_alpha   90.00000000
_cell_angle_beta   90.00000000
_cell_angle_gamma   90.72906255
_symmetry_Int_Tables_number   1
_chemical_formula_structural   Th4Cd2CuNi3
_chemical_formula_sum   'Th4 Cd2 Cu1 Ni3'
_cell_volume   219.85496981
_cell_formula_units_Z   1
loop_
 _symmetry_equiv_pos_site_id
 _symmetry_equiv_pos_as_xyz
  1  'x, y, z'
loop_
 _atom_site_type_symbol
 _atom_site_label
 _atom_site_symmetry_multiplicity
 _atom_site_fract_x
 _atom_site_fract_y
 _atom_site_fract_z
 _atom_site_occupancy
  Th  Th0  1  0.682730  0.168008  0.500000  1
  Th  Th1  1  0.331992  0.817270  0.500000  1
  Th  Th2  1  0.161321  0.338679  0.500000  1
  Th  Th3  1  0.825509  0.674491  0.500000  1
  Cd  Cd4  1  0.007517  0.998772  0.000000  1
  Cd  Cd5  1  0.501228  0.492483  0.000000  1
  Cu  Cu6  1  0.375650  0.124350  0.000000  1
  Ni  Ni7  1  0.122034  0.626954  0.000000  1
  Ni  Ni8  1  0.873046  0.377966  0.000000  1
  Ni  Ni9  1  0.618972  0.881028  0.000000  1
