# generated using pymatgen
data_Tm(Ga3Pt)3
_symmetry_space_group_name_H-M   'P 1'
_cell_length_a   10.45833791
_cell_length_b   10.45833731
_cell_length_c   10.45833698
_cell_angle_alpha   42.45760913
_cell_angle_beta   42.45761436
_cell_angle_gamma   42.45760702
_symmetry_Int_Tables_number   1
_chemical_formula_structural   Tm(Ga3Pt)3
_chemical_formula_sum   'Tm2 Ga18 Pt6'
_cell_volume   471.94890374
_cell_formula_units_Z   2
loop_
 _symmetry_equiv_pos_site_id
 _symmetry_equiv_pos_as_xyz
  1  'x, y, z'
loop_
 _atom_site_type_symbol
 _atom_site_label
 _atom_site_symmetry_multiplicity
 _atom_site_fract_x
 _atom_site_fract_y
 _atom_site_fract_z
 _atom_site_occupancy
  Tm  Tm0  1  0.166875  0.166875  0.166875  1
  Tm  Tm1  1  0.833125  0.833125  0.833125  1
  Ga  Ga2  1  0.107995  0.439573  0.771231  1
  Ga  Ga3  1  0.439573  0.771231  0.107995  1
  Ga  Ga4  1  0.560427  0.892005  0.228769  1
  Ga  Ga5  1  0.950855  0.950855  0.950855  1
  Ga  Ga6  1  0.049145  0.049145  0.049145  1
  Ga  Ga7  1  0.295931  0.704069  0.500000  1
  Ga  Ga8  1  0.892005  0.228769  0.560427  1
  Ga  Ga9  1  0.384321  0.384321  0.384321  1
  Ga  Ga10  1  0.500000  0.295931  0.704069  1
  Ga  Ga11  1  0.228769  0.560427  0.892005  1
  Ga  Ga12  1  0.715115  0.715115  0.715115  1
  Ga  Ga13  1  0.615679  0.615679  0.615679  1
  Ga  Ga14  1  0.333904  0.000000  0.666096  1
  Ga  Ga15  1  0.704069  0.500000  0.295931  1
  Ga  Ga16  1  0.666096  0.333904  0.000000  1
  Ga  Ga17  1  0.284885  0.284885  0.284885  1
  Ga  Ga18  1  0.000000  0.666096  0.333904  1
  Ga  Ga19  1  0.771231  0.107995  0.439573  1
  Pt  Pt20  1  0.418875  0.078497  0.759987  1
  Pt  Pt21  1  0.581125  0.240013  0.921503  1
  Pt  Pt22  1  0.078497  0.759987  0.418875  1
  Pt  Pt23  1  0.759987  0.418875  0.078497  1
  Pt  Pt24  1  0.921503  0.581125  0.240013  1
  Pt  Pt25  1  0.240013  0.921503  0.581125  1
