# generated using pymatgen
data_Pr3Th5S12
_symmetry_space_group_name_H-M   'P 1'
_cell_length_a   4.01666300
_cell_length_b   10.74406899
_cell_length_c   10.96127696
_cell_angle_alpha   89.95139124
_cell_angle_beta   90.00000000
_cell_angle_gamma   90.00000000
_symmetry_Int_Tables_number   1
_chemical_formula_structural   Pr3Th5S12
_chemical_formula_sum   'Pr3 Th5 S12'
_cell_volume   473.03707350
_cell_formula_units_Z   1
loop_
 _symmetry_equiv_pos_site_id
 _symmetry_equiv_pos_as_xyz
  1  'x, y, z'
loop_
 _atom_site_type_symbol
 _atom_site_label
 _atom_site_symmetry_multiplicity
 _atom_site_fract_x
 _atom_site_fract_y
 _atom_site_fract_z
 _atom_site_occupancy
  Pr  Pr0  1  0.250000  0.008476  0.307175  1
  Pr  Pr1  1  0.750000  0.989271  0.692285  1
  Pr  Pr2  1  0.750000  0.506553  0.193241  1
  Th  Th3  1  0.250000  0.495748  0.804779  1
  Th  Th4  1  0.250000  0.685225  0.485994  1
  Th  Th5  1  0.750000  0.314593  0.515665  1
  Th  Th6  1  0.750000  0.184562  0.015491  1
  Th  Th7  1  0.250000  0.813206  0.985855  1
  S  S8  1  0.250000  0.055607  0.878799  1
  S  S9  1  0.750000  0.943400  0.120152  1
  S  S10  1  0.750000  0.556445  0.622787  1
  S  S11  1  0.250000  0.444164  0.380002  1
  S  S12  1  0.250000  0.128834  0.550715  1
  S  S13  1  0.750000  0.870468  0.450828  1
  S  S14  1  0.750000  0.626527  0.946981  1
  S  S15  1  0.250000  0.373860  0.044566  1
  S  S16  1  0.250000  0.705125  0.224718  1
  S  S17  1  0.750000  0.301306  0.778620  1
  S  S18  1  0.750000  0.207879  0.274089  1
  S  S19  1  0.250000  0.788749  0.727259  1
