# generated using pymatgen
data_TbYb3Y2(MnC3)4
_symmetry_space_group_name_H-M   'P 1'
_cell_length_a   8.07583536
_cell_length_b   8.07444382
_cell_length_c   4.98586400
_cell_angle_alpha   90.00000000
_cell_angle_beta   90.00000000
_cell_angle_gamma   120.08473149
_symmetry_Int_Tables_number   1
_chemical_formula_structural   TbYb3Y2(MnC3)4
_chemical_formula_sum   'Tb1 Yb3 Y2 Mn4 C12'
_cell_volume   281.31940789
_cell_formula_units_Z   1
loop_
 _symmetry_equiv_pos_site_id
 _symmetry_equiv_pos_as_xyz
  1  'x, y, z'
loop_
 _atom_site_type_symbol
 _atom_site_label
 _atom_site_symmetry_multiplicity
 _atom_site_fract_x
 _atom_site_fract_y
 _atom_site_fract_z
 _atom_site_occupancy
  Tb  Tb0  1  0.067993  0.384849  0.750000  1
  Yb  Yb1  1  0.613641  0.686294  0.750000  1
  Yb  Yb2  1  0.926810  0.615014  0.250000  1
  Yb  Yb3  1  0.682727  0.071573  0.250000  1
  Y  Y4  1  0.312579  0.932072  0.750000  1
  Y  Y5  1  0.383819  0.315616  0.250000  1
  Mn  Mn6  1  0.996361  0.997735  0.501046  1
  Mn  Mn7  1  0.996361  0.997735  0.998954  1
  Mn  Mn8  1  0.666998  0.330507  0.750000  1
  Mn  Mn9  1  0.333233  0.663689  0.250000  1
  C  C10  1  0.957725  0.771541  0.750000  1
  C  C11  1  0.195097  0.963737  0.250000  1
  C  C12  1  0.774729  0.819896  0.250000  1
  C  C13  1  0.228684  0.192591  0.750000  1
  C  C14  1  0.821115  0.043835  0.750000  1
  C  C15  1  0.039936  0.223519  0.250000  1
  C  C16  1  0.857886  0.577821  0.750000  1
  C  C17  1  0.279794  0.854941  0.250000  1
  C  C18  1  0.581945  0.720695  0.250000  1
  C  C19  1  0.423699  0.281875  0.750000  1
  C  C20  1  0.138938  0.417724  0.250000  1
  C  C21  1  0.719930  0.136741  0.750000  1
