# generated using pymatgen
data_SrBi3Pt4F28
_symmetry_space_group_name_H-M   'P 1'
_cell_length_a   5.68101810
_cell_length_b   9.28665169
_cell_length_c   12.37042894
_cell_angle_alpha   61.71880799
_cell_angle_beta   90.21203512
_cell_angle_gamma   90.02988500
_symmetry_Int_Tables_number   1
_chemical_formula_structural   SrBi3Pt4F28
_chemical_formula_sum   'Sr1 Bi3 Pt4 F28'
_cell_volume   574.72701577
_cell_formula_units_Z   1
loop_
 _symmetry_equiv_pos_site_id
 _symmetry_equiv_pos_as_xyz
  1  'x, y, z'
loop_
 _atom_site_type_symbol
 _atom_site_label
 _atom_site_symmetry_multiplicity
 _atom_site_fract_x
 _atom_site_fract_y
 _atom_site_fract_z
 _atom_site_occupancy
  Sr  Sr0  1  0.737229  0.809135  0.264585  1
  Bi  Bi1  1  0.763616  0.816153  0.762502  1
  Bi  Bi2  1  0.263750  0.183841  0.737210  1
  Bi  Bi3  1  0.226535  0.176262  0.239569  1
  Pt  Pt4  1  0.760942  0.275850  0.954007  1
  Pt  Pt5  1  0.258910  0.726006  0.547419  1
  Pt  Pt6  1  0.244689  0.728728  0.036519  1
  Pt  Pt7  1  0.742824  0.267399  0.462109  1
  F  F8  1  0.430377  0.708989  0.909540  1
  F  F9  1  0.932574  0.287980  0.588514  1
  F  F10  1  0.574946  0.295644  0.078378  1
  F  F11  1  0.077624  0.703897  0.422680  1
  F  F12  1  0.445714  0.274709  0.544414  1
  F  F13  1  0.944341  0.723520  0.955641  1
  F  F14  1  0.549987  0.715813  0.469248  1
  F  F15  1  0.055822  0.282331  0.037187  1
  F  F16  1  0.771578  0.515190  0.859235  1
  F  F17  1  0.265934  0.486915  0.643891  1
  F  F18  1  0.234251  0.492409  0.132113  1
  F  F19  1  0.733307  0.503366  0.366371  1
  F  F20  1  0.757749  0.039133  0.042207  1
  F  F21  1  0.260152  0.967536  0.453657  1
  F  F22  1  0.243883  0.971360  0.944920  1
  F  F23  1  0.743206  0.025341  0.554507  1
  F  F24  1  0.965838  0.730438  0.631825  1
  F  F25  1  0.471106  0.273118  0.866826  1
  F  F26  1  0.032079  0.268327  0.376043  1
  F  F27  1  0.533734  0.727929  0.120355  1
  F  F28  1  0.066608  0.742433  0.165155  1
  F  F29  1  0.557442  0.253091  0.333860  1
  F  F30  1  0.944001  0.259289  0.824711  1
  F  F31  1  0.439060  0.744358  0.677407  1
  F  F32  1  0.381012  0.977513  0.225549  1
  F  F33  1  0.905404  0.045574  0.271986  1
  F  F34  1  0.591350  0.028586  0.769962  1
  F  F35  1  0.092426  0.971837  0.729899  1
