# generated using pymatgen
data_CeSc2Co9
_symmetry_space_group_name_H-M   'P 1'
_cell_length_a   8.48060322
_cell_length_b   8.48060284
_cell_length_c   8.48060270
_cell_angle_alpha   33.39649434
_cell_angle_beta   33.39649651
_cell_angle_gamma   33.39649562
_symmetry_Int_Tables_number   1
_chemical_formula_structural   CeSc2Co9
_chemical_formula_sum   'Ce1 Sc2 Co9'
_cell_volume   164.55542241
_cell_formula_units_Z   1
loop_
 _symmetry_equiv_pos_site_id
 _symmetry_equiv_pos_as_xyz
  1  'x, y, z'
loop_
 _atom_site_type_symbol
 _atom_site_label
 _atom_site_symmetry_multiplicity
 _atom_site_fract_x
 _atom_site_fract_y
 _atom_site_fract_z
 _atom_site_occupancy
  Ce  Ce0  1  0.000000  0.000000  0.000000  1
  Sc  Sc1  1  0.858359  0.858359  0.858359  1
  Sc  Sc2  1  0.141641  0.141641  0.141641  1
  Co  Co3  1  0.335399  0.335399  0.335399  1
  Co  Co4  1  0.412312  0.412312  0.921073  1
  Co  Co5  1  0.587688  0.587688  0.078927  1
  Co  Co6  1  0.664601  0.664601  0.664601  1
  Co  Co7  1  0.078927  0.587688  0.587688  1
  Co  Co8  1  0.412312  0.921073  0.412312  1
  Co  Co9  1  0.921073  0.412312  0.412312  1
  Co  Co10  1  0.500000  0.500000  0.500000  1
  Co  Co11  1  0.587688  0.078927  0.587688  1
