# generated using pymatgen
data_Lu2Al(SiW)3
_symmetry_space_group_name_H-M   'P 1'
_cell_length_a   6.77080300
_cell_length_b   6.90647600
_cell_length_c   12.88637900
_cell_angle_alpha   90.00000000
_cell_angle_beta   90.00000000
_cell_angle_gamma   90.00000000
_symmetry_Int_Tables_number   1
_chemical_formula_structural   Lu2Al(SiW)3
_chemical_formula_sum   'Lu8 Al4 Si12 W12'
_cell_volume   602.59786013
_cell_formula_units_Z   4
loop_
 _symmetry_equiv_pos_site_id
 _symmetry_equiv_pos_as_xyz
  1  'x, y, z'
loop_
 _atom_site_type_symbol
 _atom_site_label
 _atom_site_symmetry_multiplicity
 _atom_site_fract_x
 _atom_site_fract_y
 _atom_site_fract_z
 _atom_site_occupancy
  Lu  Lu0  1  0.496257  0.673868  0.590589  1
  Lu  Lu1  1  0.996257  0.826132  0.909411  1
  Lu  Lu2  1  0.503743  0.326132  0.090589  1
  Lu  Lu3  1  0.003743  0.173868  0.409411  1
  Lu  Lu4  1  0.503743  0.326132  0.409411  1
  Lu  Lu5  1  0.003743  0.173868  0.090589  1
  Lu  Lu6  1  0.496257  0.673868  0.909411  1
  Lu  Lu7  1  0.996257  0.826132  0.590589  1
  Al  Al8  1  0.470006  0.379642  0.750000  1
  Al  Al9  1  0.970006  0.120358  0.750000  1
  Al  Al10  1  0.529994  0.620358  0.250000  1
  Al  Al11  1  0.029994  0.879642  0.250000  1
  Si  Si12  1  0.666468  0.955653  0.454433  1
  Si  Si13  1  0.166468  0.544347  0.045567  1
  Si  Si14  1  0.333532  0.044347  0.954433  1
  Si  Si15  1  0.833532  0.455653  0.545567  1
  Si  Si16  1  0.333532  0.044347  0.545567  1
  Si  Si17  1  0.833532  0.455653  0.954433  1
  Si  Si18  1  0.666468  0.955653  0.045567  1
  Si  Si19  1  0.166468  0.544347  0.454433  1
  Si  Si20  1  0.701913  0.860926  0.750000  1
  Si  Si21  1  0.201913  0.639074  0.750000  1
  Si  Si22  1  0.298087  0.139074  0.250000  1
  Si  Si23  1  0.798087  0.360926  0.250000  1
  W  W24  1  0.667230  0.158260  0.622793  1
  W  W25  1  0.167230  0.341740  0.877207  1
  W  W26  1  0.332770  0.841740  0.122793  1
  W  W27  1  0.832770  0.658260  0.377207  1
  W  W28  1  0.332770  0.841740  0.377207  1
  W  W29  1  0.832770  0.658260  0.122793  1
  W  W30  1  0.667230  0.158260  0.877207  1
  W  W31  1  0.167230  0.341740  0.622793  1
  W  W32  1  0.844859  0.496698  0.750000  1
  W  W33  1  0.344859  0.003302  0.750000  1
  W  W34  1  0.155141  0.503302  0.250000  1
  W  W35  1  0.655141  0.996698  0.250000  1
