# generated using pymatgen
data_ZrSc3(Co5As3)4
_symmetry_space_group_name_H-M   'P 1'
_cell_length_a   3.71823100
_cell_length_b   10.58888277
_cell_length_c   12.09560746
_cell_angle_alpha   90.09288924
_cell_angle_beta   90.00000000
_cell_angle_gamma   90.00000000
_symmetry_Int_Tables_number   1
_chemical_formula_structural   ZrSc3(Co5As3)4
_chemical_formula_sum   'Zr1 Sc3 Co20 As12'
_cell_volume   476.22656848
_cell_formula_units_Z   1
loop_
 _symmetry_equiv_pos_site_id
 _symmetry_equiv_pos_as_xyz
  1  'x, y, z'
loop_
 _atom_site_type_symbol
 _atom_site_label
 _atom_site_symmetry_multiplicity
 _atom_site_fract_x
 _atom_site_fract_y
 _atom_site_fract_z
 _atom_site_occupancy
  Zr  Zr0  1  0.250000  0.579031  0.701509  1
  Sc  Sc1  1  0.250000  0.920837  0.201168  1
  Sc  Sc2  1  0.750000  0.420497  0.298572  1
  Sc  Sc3  1  0.750000  0.079007  0.798685  1
  Co  Co4  1  0.250000  0.714913  0.992525  1
  Co  Co5  1  0.250000  0.784092  0.492456  1
  Co  Co6  1  0.750000  0.285039  0.007061  1
  Co  Co7  1  0.750000  0.214304  0.507246  1
  Co  Co8  1  0.250000  0.409419  0.487014  1
  Co  Co9  1  0.250000  0.091596  0.986257  1
  Co  Co10  1  0.750000  0.591840  0.514449  1
  Co  Co11  1  0.750000  0.907997  0.013478  1
  Co  Co12  1  0.250000  0.216540  0.177705  1
  Co  Co13  1  0.250000  0.283335  0.677975  1
  Co  Co14  1  0.750000  0.782125  0.821705  1
  Co  Co15  1  0.750000  0.716496  0.322740  1
  Co  Co16  1  0.250000  0.883772  0.698198  1
  Co  Co17  1  0.250000  0.616352  0.198154  1
  Co  Co18  1  0.750000  0.116203  0.301895  1
  Co  Co19  1  0.750000  0.385341  0.801289  1
  Co  Co20  1  0.250000  0.467544  0.931105  1
  Co  Co21  1  0.250000  0.032795  0.431491  1
  Co  Co22  1  0.750000  0.532472  0.069147  1
  Co  Co23  1  0.750000  0.968231  0.568341  1
  As  As24  1  0.250000  0.415809  0.116822  1
  As  As25  1  0.250000  0.084044  0.616729  1
  As  As26  1  0.750000  0.584268  0.884730  1
  As  As27  1  0.750000  0.916174  0.383249  1
  As  As28  1  0.250000  0.263892  0.868695  1
  As  As29  1  0.250000  0.236057  0.368841  1
  As  As30  1  0.750000  0.736105  0.131677  1
  As  As31  1  0.750000  0.765855  0.630380  1
  As  As32  1  0.250000  0.597697  0.388462  1
  As  As33  1  0.250000  0.902239  0.888933  1
  As  As34  1  0.750000  0.400535  0.610351  1
  As  As35  1  0.750000  0.097549  0.110965  1
