# generated using pymatgen
data_Tb5Sm(Sn6Ru)2
_symmetry_space_group_name_H-M   'P 1'
_cell_length_a   8.61774815
_cell_length_b   8.61774701
_cell_length_c   13.23333703
_cell_angle_alpha   90.00754992
_cell_angle_beta   89.99244962
_cell_angle_gamma   148.71435340
_symmetry_Int_Tables_number   1
_chemical_formula_structural   Tb5Sm(Sn6Ru)2
_chemical_formula_sum   'Tb5 Sm1 Sn12 Ru2'
_cell_volume   510.36331098
_cell_formula_units_Z   1
loop_
 _symmetry_equiv_pos_site_id
 _symmetry_equiv_pos_as_xyz
  1  'x, y, z'
loop_
 _atom_site_type_symbol
 _atom_site_label
 _atom_site_symmetry_multiplicity
 _atom_site_fract_x
 _atom_site_fract_y
 _atom_site_fract_z
 _atom_site_occupancy
  Tb  Tb0  1  0.600996  0.399004  0.249707  1
  Tb  Tb1  1  0.399145  0.600855  0.750107  1
  Tb  Tb2  1  0.602485  0.397515  0.598378  1
  Tb  Tb3  1  0.397531  0.602469  0.097927  1
  Tb  Tb4  1  0.602433  0.397567  0.901743  1
  Sm  Sm5  1  0.398445  0.601555  0.402287  1
  Sn  Sn6  1  0.925780  0.074220  0.926608  1
  Sn  Sn7  1  0.074445  0.925555  0.073277  1
  Sn  Sn8  1  0.925879  0.074121  0.574620  1
  Sn  Sn9  1  0.074349  0.925651  0.426437  1
  Sn  Sn10  1  0.961350  0.038650  0.248868  1
  Sn  Sn11  1  0.038761  0.961239  0.750146  1
  Sn  Sn12  1  0.741806  0.258195  0.432466  1
  Sn  Sn13  1  0.257560  0.742440  0.567884  1
  Sn  Sn14  1  0.741877  0.258124  0.067316  1
  Sn  Sn15  1  0.257970  0.742030  0.932497  1
  Sn  Sn16  1  0.230558  0.769442  0.249772  1
  Sn  Sn17  1  0.769073  0.230927  0.750217  1
  Ru  Ru18  1  0.802666  0.197334  0.249541  1
  Ru  Ru19  1  0.196893  0.803107  0.750200  1
