# generated using pymatgen
data_Li2Ho3Si2AgPb
_symmetry_space_group_name_H-M   'P 1'
_cell_length_a   7.15622200
_cell_length_b   7.09727031
_cell_length_c   4.32821200
_cell_angle_alpha   90.00000000
_cell_angle_beta   90.00000000
_cell_angle_gamma   120.27515098
_symmetry_Int_Tables_number   1
_chemical_formula_structural   Li2Ho3Si2AgPb
_chemical_formula_sum   'Li2 Ho3 Si2 Ag1 Pb1'
_cell_volume   189.84689192
_cell_formula_units_Z   1
loop_
 _symmetry_equiv_pos_site_id
 _symmetry_equiv_pos_as_xyz
  1  'x, y, z'
loop_
 _atom_site_type_symbol
 _atom_site_label
 _atom_site_symmetry_multiplicity
 _atom_site_fract_x
 _atom_site_fract_y
 _atom_site_fract_z
 _atom_site_occupancy
  Li  Li0  1  0.755142  0.751999  0.500000  1
  Li  Li1  1  0.003142  0.248001  0.500000  1
  Ho  Ho2  1  0.001699  0.559333  0.000000  1
  Ho  Ho3  1  0.552173  0.000000  0.000000  1
  Ho  Ho4  1  0.442366  0.440667  0.000000  1
  Si  Si5  1  0.331877  0.661872  0.500000  1
  Si  Si6  1  0.670005  0.338128  0.500000  1
  Ag  Ag7  1  0.257386  0.000000  0.500000  1
  Pb  Pb8  1  0.986210  0.000000  0.000000  1
