# generated using pymatgen
data_Sm12B3PBr12
_symmetry_space_group_name_H-M   'P 1'
_cell_length_a   10.05860907
_cell_length_b   10.05861063
_cell_length_c   10.05860925
_cell_angle_alpha   109.77112395
_cell_angle_beta   109.77112268
_cell_angle_gamma   109.77111792
_symmetry_Int_Tables_number   1
_chemical_formula_structural   Sm12B3PBr12
_chemical_formula_sum   'Sm12 B3 P1 Br12'
_cell_volume   774.59441651
_cell_formula_units_Z   1
loop_
 _symmetry_equiv_pos_site_id
 _symmetry_equiv_pos_as_xyz
  1  'x, y, z'
loop_
 _atom_site_type_symbol
 _atom_site_label
 _atom_site_symmetry_multiplicity
 _atom_site_fract_x
 _atom_site_fract_y
 _atom_site_fract_z
 _atom_site_occupancy
  Sm  Sm0  1  0.468493  0.493000  0.226857  1
  Sm  Sm1  1  0.750000  0.229701  0.270299  1
  Sm  Sm2  1  0.750000  0.018536  0.481464  1
  Sm  Sm3  1  0.226857  0.468493  0.493000  1
  Sm  Sm4  1  0.270299  0.750000  0.229701  1
  Sm  Sm5  1  0.031507  0.273143  0.007000  1
  Sm  Sm6  1  0.007000  0.031507  0.273143  1
  Sm  Sm7  1  0.481464  0.750000  0.018536  1
  Sm  Sm8  1  0.493000  0.226857  0.468493  1
  Sm  Sm9  1  0.018536  0.481464  0.750000  1
  Sm  Sm10  1  0.273143  0.007000  0.031507  1
  Sm  Sm11  1  0.229701  0.270299  0.750000  1
  B  B12  1  0.499201  0.000799  0.250000  1
  B  B13  1  0.000799  0.250000  0.499201  1
  B  B14  1  0.250000  0.499201  0.000799  1
  P  P15  1  0.250000  0.250000  0.250000  1
  Br  Br16  1  0.250000  0.758285  0.741715  1
  Br  Br17  1  0.513784  0.506910  0.757068  1
  Br  Br18  1  0.986216  0.742932  0.993090  1
  Br  Br19  1  0.741715  0.250000  0.758285  1
  Br  Br20  1  0.993090  0.986216  0.742932  1
  Br  Br21  1  0.250000  0.993648  0.506352  1
  Br  Br22  1  0.757068  0.513784  0.506910  1
  Br  Br23  1  0.506352  0.250000  0.993648  1
  Br  Br24  1  0.758285  0.741715  0.250000  1
  Br  Br25  1  0.742932  0.993090  0.986216  1
  Br  Br26  1  0.993648  0.506352  0.250000  1
  Br  Br27  1  0.506910  0.757068  0.513784  1
