# generated using pymatgen
data_Dy12InNi5
_symmetry_space_group_name_H-M   'P 1'
_cell_length_a   8.31331888
_cell_length_b   8.31331975
_cell_length_c   8.31331888
_cell_angle_alpha   111.81048829
_cell_angle_beta   109.61068388
_cell_angle_gamma   107.02775921
_symmetry_Int_Tables_number   1
_chemical_formula_structural   Dy12InNi5
_chemical_formula_sum   'Dy12 In1 Ni5'
_cell_volume   441.51375579
_cell_formula_units_Z   1
loop_
 _symmetry_equiv_pos_site_id
 _symmetry_equiv_pos_as_xyz
  1  'x, y, z'
loop_
 _atom_site_type_symbol
 _atom_site_label
 _atom_site_symmetry_multiplicity
 _atom_site_fract_x
 _atom_site_fract_y
 _atom_site_fract_z
 _atom_site_occupancy
  Dy  Dy0  1  0.401671  0.211496  0.190176  1
  Dy  Dy1  1  0.598329  0.788504  0.809824  1
  Dy  Dy2  1  0.021320  0.211496  0.809824  1
  Dy  Dy3  1  0.978680  0.788504  0.190176  1
  Dy  Dy4  1  0.182763  0.295796  0.478559  1
  Dy  Dy5  1  0.817237  0.704204  0.521441  1
  Dy  Dy6  1  0.182763  0.704204  0.886967  1
  Dy  Dy7  1  0.817237  0.295796  0.113033  1
  Dy  Dy8  1  0.321625  0.627320  0.305694  1
  Dy  Dy9  1  0.678375  0.372680  0.694306  1
  Dy  Dy10  1  0.321625  0.015931  0.694306  1
  Dy  Dy11  1  0.678375  0.984069  0.305694  1
  In  In12  1  0.500000  0.500000  0.000000  1
  Ni  Ni13  1  0.364987  0.000000  0.364987  1
  Ni  Ni14  1  0.635013  0.000000  0.635013  1
  Ni  Ni15  1  0.124523  0.624523  0.500000  1
  Ni  Ni16  1  0.875477  0.375477  0.500000  1
  Ni  Ni17  1  0.000000  0.000000  0.000000  1
