# generated using pymatgen
data_Dy8Ga2Pd23
_symmetry_space_group_name_H-M   'P 1'
_cell_length_a   8.20272000
_cell_length_b   8.34011400
_cell_length_c   8.48497900
_cell_angle_alpha   90.00000000
_cell_angle_beta   90.00000000
_cell_angle_gamma   90.00000000
_symmetry_Int_Tables_number   1
_chemical_formula_structural   Dy8Ga2Pd23
_chemical_formula_sum   'Dy8 Ga2 Pd23'
_cell_volume   580.47115829
_cell_formula_units_Z   1
loop_
 _symmetry_equiv_pos_site_id
 _symmetry_equiv_pos_as_xyz
  1  'x, y, z'
loop_
 _atom_site_type_symbol
 _atom_site_label
 _atom_site_symmetry_multiplicity
 _atom_site_fract_x
 _atom_site_fract_y
 _atom_site_fract_z
 _atom_site_occupancy
  Dy  Dy0  1  0.250964  0.244384  0.264296  1
  Dy  Dy1  1  0.747624  0.746740  0.748026  1
  Dy  Dy2  1  0.747624  0.746740  0.251974  1
  Dy  Dy3  1  0.747624  0.253260  0.748026  1
  Dy  Dy4  1  0.250964  0.244384  0.735704  1
  Dy  Dy5  1  0.250964  0.755616  0.264296  1
  Dy  Dy6  1  0.250964  0.755616  0.735704  1
  Dy  Dy7  1  0.747624  0.253260  0.251974  1
  Ga  Ga8  1  0.995736  0.000000  0.000000  1
  Ga  Ga9  1  0.276160  0.500000  0.000000  1
  Pd  Pd10  1  0.744156  0.500000  0.000000  1
  Pd  Pd11  1  0.996171  0.257279  0.500000  1
  Pd  Pd12  1  0.490004  0.263510  0.000000  1
  Pd  Pd13  1  0.996171  0.742721  0.500000  1
  Pd  Pd14  1  0.490004  0.736490  0.000000  1
  Pd  Pd15  1  0.500973  0.000000  0.259645  1
  Pd  Pd16  1  0.257159  0.000000  0.500000  1
  Pd  Pd17  1  0.500973  0.000000  0.740355  1
  Pd  Pd18  1  0.740630  0.000000  0.500000  1
  Pd  Pd19  1  0.004415  0.500000  0.260717  1
  Pd  Pd20  1  0.004415  0.500000  0.739283  1
  Pd  Pd21  1  0.252233  0.500000  0.500000  1
  Pd  Pd22  1  0.746613  0.500000  0.500000  1
  Pd  Pd23  1  0.502445  0.253168  0.500000  1
  Pd  Pd24  1  0.502445  0.746832  0.500000  1
  Pd  Pd25  1  0.492454  0.500000  0.252298  1
  Pd  Pd26  1  0.492454  0.500000  0.747702  1
  Pd  Pd27  1  0.289399  0.000000  0.000000  1
  Pd  Pd28  1  0.701988  0.000000  0.000000  1
  Pd  Pd29  1  0.018289  0.295721  0.000000  1
  Pd  Pd30  1  0.018289  0.704279  0.000000  1
  Pd  Pd31  1  0.996036  0.000000  0.285883  1
  Pd  Pd32  1  0.996036  0.000000  0.714117  1
