# generated using pymatgen
data_TbDy8TmS10
_symmetry_space_group_name_H-M   'P 1'
_cell_length_a   6.73355621
_cell_length_b   7.78955334
_cell_length_c   8.74381300
_cell_angle_alpha   103.17938848
_cell_angle_beta   97.18076842
_cell_angle_gamma   106.80599906
_symmetry_Int_Tables_number   1
_chemical_formula_structural   TbDy8TmS10
_chemical_formula_sum   'Tb1 Dy8 Tm1 S10'
_cell_volume   418.40915190
_cell_formula_units_Z   1
loop_
 _symmetry_equiv_pos_site_id
 _symmetry_equiv_pos_as_xyz
  1  'x, y, z'
loop_
 _atom_site_type_symbol
 _atom_site_label
 _atom_site_symmetry_multiplicity
 _atom_site_fract_x
 _atom_site_fract_y
 _atom_site_fract_z
 _atom_site_occupancy
  Tb  Tb0  1  0.799986  0.600104  0.598767  1
  Dy  Dy1  1  0.597997  0.198930  0.200822  1
  Dy  Dy2  1  0.402207  0.801058  0.799181  1
  Dy  Dy3  1  0.600139  0.701525  0.201975  1
  Dy  Dy4  1  0.199980  0.399990  0.401284  1
  Dy  Dy5  1  0.400380  0.298763  0.798374  1
  Dy  Dy6  1  0.999866  0.999872  0.999955  1
  Dy  Dy7  1  0.201025  0.900829  0.401416  1
  Dy  Dy8  1  0.798449  0.098916  0.598420  1
  Tm  Tm9  1  0.999973  0.500022  0.999786  1
  S  S10  1  0.701820  0.648292  0.902060  1
  S  S11  1  0.499205  0.249391  0.499547  1
  S  S12  1  0.702868  0.153567  0.901435  1
  S  S13  1  0.297217  0.846406  0.098548  1
  S  S14  1  0.498794  0.749925  0.499792  1
  S  S15  1  0.099634  0.450062  0.703358  1
  S  S16  1  0.297946  0.351923  0.098908  1
  S  S17  1  0.900932  0.050485  0.299832  1
  S  S18  1  0.100033  0.950779  0.700538  1
  S  S19  1  0.901546  0.549161  0.296003  1
