# generated using pymatgen
data_Y3Pa(VB4)4
_symmetry_space_group_name_H-M   'P 1'
_cell_length_a   3.48497800
_cell_length_b   5.99674645
_cell_length_c   11.60689782
_cell_angle_alpha   89.92019866
_cell_angle_beta   90.00000000
_cell_angle_gamma   90.00000000
_symmetry_Int_Tables_number   1
_chemical_formula_structural   Y3Pa(VB4)4
_chemical_formula_sum   'Y3 Pa1 V4 B16'
_cell_volume   242.56686069
_cell_formula_units_Z   1
loop_
 _symmetry_equiv_pos_site_id
 _symmetry_equiv_pos_as_xyz
  1  'x, y, z'
loop_
 _atom_site_type_symbol
 _atom_site_label
 _atom_site_symmetry_multiplicity
 _atom_site_fract_x
 _atom_site_fract_y
 _atom_site_fract_z
 _atom_site_occupancy
  Y  Y0  1  0.000000  0.374364  0.651924  1
  Y  Y1  1  0.000000  0.123612  0.149590  1
  Y  Y2  1  0.000000  0.875383  0.849258  1
  Pa  Pa3  1  0.000000  0.625896  0.348781  1
  V  V4  1  0.000000  0.626109  0.084253  1
  V  V5  1  0.000000  0.372875  0.917761  1
  V  V6  1  0.000000  0.127642  0.416277  1
  V  V7  1  0.000000  0.872080  0.581458  1
  B  B8  1  0.500000  0.784705  0.185326  1
  B  B9  1  0.500000  0.214201  0.814340  1
  B  B10  1  0.500000  0.285470  0.315244  1
  B  B11  1  0.500000  0.715645  0.686055  1
  B  B12  1  0.500000  0.864730  0.032337  1
  B  B13  1  0.500000  0.135610  0.967410  1
  B  B14  1  0.500000  0.364658  0.467183  1
  B  B15  1  0.500000  0.636964  0.532424  1
  B  B16  1  0.500000  0.887489  0.453305  1
  B  B17  1  0.500000  0.114114  0.547362  1
  B  B18  1  0.500000  0.385965  0.046541  1
  B  B19  1  0.500000  0.614463  0.952689  1
  B  B20  1  0.500000  0.974873  0.308661  1
  B  B21  1  0.500000  0.022618  0.692637  1
  B  B22  1  0.500000  0.477341  0.191419  1
  B  B23  1  0.500000  0.523192  0.807765  1
