# generated using pymatgen
data_Rb8HfZr5BBr20
_symmetry_space_group_name_H-M   'P 1'
_cell_length_a   12.08277698
_cell_length_b   12.08277700
_cell_length_c   12.07759900
_cell_angle_alpha   60.01417238
_cell_angle_beta   60.01417232
_cell_angle_gamma   59.97164843
_symmetry_Int_Tables_number   1
_chemical_formula_structural   Rb8HfZr5BBr20
_chemical_formula_sum   'Rb8 Hf1 Zr5 B1 Br20'
_cell_volume   1246.80617974
_cell_formula_units_Z   1
loop_
 _symmetry_equiv_pos_site_id
 _symmetry_equiv_pos_as_xyz
  1  'x, y, z'
loop_
 _atom_site_type_symbol
 _atom_site_label
 _atom_site_symmetry_multiplicity
 _atom_site_fract_x
 _atom_site_fract_y
 _atom_site_fract_z
 _atom_site_occupancy
  Rb  Rb0  1  0.360835  0.360835  0.360837  1
  Rb  Rb1  1  0.639077  0.639077  0.639547  1
  Rb  Rb2  1  0.360835  0.360835  0.917496  1
  Rb  Rb3  1  0.360453  0.917704  0.360923  1
  Rb  Rb4  1  0.639077  0.639077  0.082296  1
  Rb  Rb5  1  0.639163  0.082504  0.639165  1
  Rb  Rb6  1  0.917704  0.360453  0.360923  1
  Rb  Rb7  1  0.082504  0.639163  0.639165  1
  Hf  Hf8  1  0.864053  0.864053  0.135947  1
  Zr  Zr9  1  0.864246  0.136692  0.135754  1
  Zr  Zr10  1  0.136692  0.864246  0.863308  1
  Zr  Zr11  1  0.136692  0.864246  0.135754  1
  Zr  Zr12  1  0.864246  0.136692  0.863308  1
  Zr  Zr13  1  0.135437  0.135437  0.864563  1
  B  B14  1  0.998156  0.998156  0.001844  1
  Br  Br15  1  0.318563  0.999995  0.000005  1
  Br  Br16  1  0.683876  0.997237  0.002763  1
  Br  Br17  1  0.999995  0.318563  0.681437  1
  Br  Br18  1  0.997237  0.683876  0.316124  1
  Br  Br19  1  0.999995  0.318563  0.000005  1
  Br  Br20  1  0.683876  0.997237  0.316124  1
  Br  Br21  1  0.997237  0.683876  0.002763  1
  Br  Br22  1  0.318563  0.999995  0.681437  1
  Br  Br23  1  0.999993  0.999993  0.318633  1
  Br  Br24  1  0.999993  0.999993  0.681381  1
  Br  Br25  1  0.681367  0.318619  0.000007  1
  Br  Br26  1  0.318619  0.681367  0.000007  1
  Br  Br27  1  0.691312  0.308431  0.308688  1
  Br  Br28  1  0.308431  0.691312  0.691569  1
  Br  Br29  1  0.308431  0.691312  0.308688  1
  Br  Br30  1  0.691312  0.308431  0.691569  1
  Br  Br31  1  0.308575  0.308575  0.691425  1
  Br  Br32  1  0.693374  0.693374  0.306626  1
  Br  Br33  1  0.250040  0.250040  0.249960  1
  Br  Br34  1  0.750040  0.750040  0.749960  1
