# generated using pymatgen
data_LiHo16In2AgIr4
_symmetry_space_group_name_H-M   'P 1'
_cell_length_a   9.60917318
_cell_length_b   9.60917273
_cell_length_c   9.61389502
_cell_angle_alpha   59.67579287
_cell_angle_beta   59.67579460
_cell_angle_gamma   59.69631688
_symmetry_Int_Tables_number   1
_chemical_formula_structural   LiHo16In2AgIr4
_chemical_formula_sum   'Li1 Ho16 In2 Ag1 Ir4'
_cell_volume   623.18055105
_cell_formula_units_Z   1
loop_
 _symmetry_equiv_pos_site_id
 _symmetry_equiv_pos_as_xyz
  1  'x, y, z'
loop_
 _atom_site_type_symbol
 _atom_site_label
 _atom_site_symmetry_multiplicity
 _atom_site_fract_x
 _atom_site_fract_y
 _atom_site_fract_z
 _atom_site_occupancy
  Li  Li0  1  0.427723  0.427723  0.434463  1
  Ho  Ho1  1  0.440928  0.440928  0.055347  1
  Ho  Ho2  1  0.651085  0.651085  0.047099  1
  Ho  Ho3  1  0.189267  0.812927  0.189735  1
  Ho  Ho4  1  0.067293  0.439711  0.055804  1
  Ho  Ho5  1  0.190892  0.809152  0.808009  1
  Ho  Ho6  1  0.061012  0.439168  0.435973  1
  Ho  Ho7  1  0.812927  0.189267  0.189735  1
  Ho  Ho8  1  0.649775  0.649775  0.647946  1
  Ho  Ho9  1  0.809152  0.190892  0.808009  1
  Ho  Ho10  1  0.186653  0.186653  0.816529  1
  Ho  Ho11  1  0.044763  0.650792  0.650888  1
  Ho  Ho12  1  0.439711  0.067293  0.055804  1
  Ho  Ho13  1  0.063363  0.063363  0.434563  1
  Ho  Ho14  1  0.650792  0.044763  0.650888  1
  Ho  Ho15  1  0.808147  0.808147  0.191972  1
  Ho  Ho16  1  0.439168  0.061012  0.435973  1
  In  In17  1  0.415561  0.743973  0.421150  1
  In  In18  1  0.743973  0.415561  0.421150  1
  Ag  Ag19  1  0.414756  0.414756  0.752192  1
  Ir  Ir20  1  0.424233  0.854964  0.857201  1
  Ir  Ir21  1  0.857114  0.857114  0.858727  1
  Ir  Ir22  1  0.854964  0.424233  0.857201  1
  Ir  Ir23  1  0.856745  0.856745  0.423648  1
