# generated using pymatgen
data_Tb3Eu(HgO4)2
_symmetry_space_group_name_H-M   'P 1'
_cell_length_a   7.17126697
_cell_length_b   7.17126840
_cell_length_c   10.14271948
_cell_angle_alpha   59.14956224
_cell_angle_beta   59.14955552
_cell_angle_gamma   29.95851192
_symmetry_Int_Tables_number   1
_chemical_formula_structural   Tb3Eu(HgO4)2
_chemical_formula_sum   'Tb3 Eu1 Hg2 O8'
_cell_volume   220.74836834
_cell_formula_units_Z   1
loop_
 _symmetry_equiv_pos_site_id
 _symmetry_equiv_pos_as_xyz
  1  'x, y, z'
loop_
 _atom_site_type_symbol
 _atom_site_label
 _atom_site_symmetry_multiplicity
 _atom_site_fract_x
 _atom_site_fract_y
 _atom_site_fract_z
 _atom_site_occupancy
  Tb  Tb0  1  0.616041  0.616041  0.538991  1
  Tb  Tb1  1  0.159236  0.159236  0.201123  1
  Tb  Tb2  1  0.841907  0.841907  0.798993  1
  Eu  Eu3  1  0.378473  0.378473  0.459491  1
  Hg  Hg4  1  0.886298  0.886298  0.160538  1
  Hg  Hg5  1  0.115311  0.115311  0.837881  1
  O  O6  1  0.227517  0.227517  0.388403  1
  O  O7  1  0.796242  0.796242  0.055695  1
  O  O8  1  0.035921  0.035921  0.717747  1
  O  O9  1  0.583592  0.583592  0.344969  1
  O  O10  1  0.419854  0.419854  0.654925  1
  O  O11  1  0.966999  0.966999  0.278790  1
  O  O12  1  0.205097  0.205097  0.943906  1
  O  O13  1  0.767513  0.767513  0.618549  1
