# generated using pymatgen
data_CePrZr4F22
_symmetry_space_group_name_H-M   'P 1'
_cell_length_a   8.52887350
_cell_length_b   8.52887405
_cell_length_c   8.52887325
_cell_angle_alpha   124.70796181
_cell_angle_beta   106.34836823
_cell_angle_gamma   98.57647254
_symmetry_Int_Tables_number   1
_chemical_formula_structural   CePrZr4F22
_chemical_formula_sum   'Ce1 Pr1 Zr4 F22'
_cell_volume   450.17601158
_cell_formula_units_Z   1
loop_
 _symmetry_equiv_pos_site_id
 _symmetry_equiv_pos_as_xyz
  1  'x, y, z'
loop_
 _atom_site_type_symbol
 _atom_site_label
 _atom_site_symmetry_multiplicity
 _atom_site_fract_x
 _atom_site_fract_y
 _atom_site_fract_z
 _atom_site_occupancy
  Ce  Ce0  1  0.250000  0.250000  0.000000  1
  Pr  Pr1  1  0.750000  0.750000  0.000000  1
  Zr  Zr2  1  0.819120  0.633357  0.452698  1
  Zr  Zr3  1  0.180660  0.366424  0.547302  1
  Zr  Zr4  1  0.319340  0.866643  0.185764  1
  Zr  Zr5  1  0.680880  0.133576  0.814236  1
  F  F6  1  0.321632  0.034183  0.082669  1
  F  F7  1  0.719396  0.870446  0.589802  1
  F  F8  1  0.951515  0.238963  0.917331  1
  F  F9  1  0.946415  0.105573  0.311816  1
  F  F10  1  0.219357  0.629554  0.848952  1
  F  F11  1  0.793757  0.634598  0.688184  1
  F  F12  1  0.548485  0.465817  0.287449  1
  F  F13  1  0.446567  0.134535  0.840641  1
  F  F14  1  0.780604  0.370406  0.151048  1
  F  F15  1  0.293894  0.605926  0.159359  1
  F  F16  1  0.452162  0.534665  0.713362  1
  F  F17  1  0.706243  0.394427  0.840842  1
  F  F18  1  0.553585  0.865402  0.159158  1
  F  F19  1  0.047838  0.761200  0.082504  1
  F  F20  1  0.000022  0.500022  0.500000  1
  F  F21  1  0.821303  0.738800  0.286638  1
  F  F22  1  0.206106  0.365465  0.312032  1
  F  F23  1  0.678697  0.965335  0.917496  1
  F  F24  1  0.178368  0.261037  0.712551  1
  F  F25  1  0.280643  0.129594  0.410198  1
  F  F26  1  0.053433  0.894074  0.687968  1
  F  F27  1  0.499978  0.999978  0.500000  1
