# generated using pymatgen
data_Hf2Be2Ga
_symmetry_space_group_name_H-M   'P 1'
_cell_length_a   6.21116400
_cell_length_b   6.21116400
_cell_length_c   3.90343800
_cell_angle_alpha   90.00000000
_cell_angle_beta   90.00000000
_cell_angle_gamma   90.00000000
_symmetry_Int_Tables_number   1
_chemical_formula_structural   Hf2Be2Ga
_chemical_formula_sum   'Hf4 Be4 Ga2'
_cell_volume   150.58901020
_cell_formula_units_Z   2
loop_
 _symmetry_equiv_pos_site_id
 _symmetry_equiv_pos_as_xyz
  1  'x, y, z'
loop_
 _atom_site_type_symbol
 _atom_site_label
 _atom_site_symmetry_multiplicity
 _atom_site_fract_x
 _atom_site_fract_y
 _atom_site_fract_z
 _atom_site_occupancy
  Hf  Hf0  1  0.669225  0.169225  0.499999  1
  Hf  Hf1  1  0.169225  0.330775  0.499999  1
  Hf  Hf2  1  0.830775  0.669225  0.499999  1
  Hf  Hf3  1  0.330775  0.830775  0.499999  1
  Be  Be4  1  0.376974  0.123026  0.000000  1
  Be  Be5  1  0.876974  0.376974  0.000000  1
  Be  Be6  1  0.123026  0.623026  0.000000  1
  Be  Be7  1  0.623026  0.876974  0.000000  1
  Ga  Ga8  1  0.000000  0.000000  0.000000  1
  Ga  Ga9  1  0.500000  0.500000  0.000000  1
