# generated using pymatgen
data_Tb4Y4Tc3B24Os
_symmetry_space_group_name_H-M   'P 1'
_cell_length_a   3.68706200
_cell_length_b   9.17949942
_cell_length_c   11.57270202
_cell_angle_alpha   89.95372801
_cell_angle_beta   90.00000000
_cell_angle_gamma   90.00000000
_symmetry_Int_Tables_number   1
_chemical_formula_structural   Tb4Y4Tc3B24Os
_chemical_formula_sum   'Tb4 Y4 Tc3 B24 Os1'
_cell_volume   391.68240997
_cell_formula_units_Z   1
loop_
 _symmetry_equiv_pos_site_id
 _symmetry_equiv_pos_as_xyz
  1  'x, y, z'
loop_
 _atom_site_type_symbol
 _atom_site_label
 _atom_site_symmetry_multiplicity
 _atom_site_fract_x
 _atom_site_fract_y
 _atom_site_fract_z
 _atom_site_occupancy
  Tb  Tb0  1  0.000000  0.323787  0.413921  1
  Tb  Tb1  1  0.000000  0.675288  0.584543  1
  Tb  Tb2  1  0.000000  0.823304  0.087138  1
  Tb  Tb3  1  0.000000  0.177704  0.914454  1
  Y  Y4  1  0.000000  0.942648  0.370162  1
  Y  Y5  1  0.000000  0.058277  0.629954  1
  Y  Y6  1  0.000000  0.442791  0.130061  1
  Y  Y7  1  0.000000  0.556933  0.869500  1
  Tc  Tc8  1  0.000000  0.638334  0.320617  1
  Tc  Tc9  1  0.000000  0.361649  0.679930  1
  Tc  Tc10  1  0.000000  0.137861  0.178260  1
  B  B11  1  0.500000  0.553205  0.432627  1
  B  B12  1  0.500000  0.446667  0.567175  1
  B  B13  1  0.500000  0.053226  0.067244  1
  B  B14  1  0.500000  0.946158  0.932592  1
  B  B15  1  0.500000  0.748140  0.418465  1
  B  B16  1  0.500000  0.251604  0.581644  1
  B  B17  1  0.500000  0.248596  0.081637  1
  B  B18  1  0.500000  0.751778  0.918102  1
  B  B19  1  0.500000  0.791362  0.265650  1
  B  B20  1  0.500000  0.208985  0.734807  1
  B  B21  1  0.500000  0.291223  0.234539  1
  B  B22  1  0.500000  0.709555  0.765470  1
  B  B23  1  0.500000  0.631182  0.185900  1
  B  B24  1  0.500000  0.368735  0.814509  1
  B  B25  1  0.500000  0.130753  0.313740  1
  B  B26  1  0.500000  0.868848  0.686119  1
  B  B27  1  0.500000  0.982304  0.211745  1
  B  B28  1  0.500000  0.016492  0.788307  1
  B  B29  1  0.500000  0.482521  0.288092  1
  B  B30  1  0.500000  0.517096  0.711674  1
  B  B31  1  0.500000  0.602325  0.028261  1
  B  B32  1  0.500000  0.398693  0.971546  1
  B  B33  1  0.500000  0.102155  0.471663  1
  B  B34  1  0.500000  0.897964  0.528804  1
  Os  Os35  1  0.000000  0.861856  0.821153  1
