# generated using pymatgen
data_CaHf(Ga3Ni)6
_symmetry_space_group_name_H-M   'P 1'
_cell_length_a   10.16401957
_cell_length_b   10.16402001
_cell_length_c   10.16401800
_cell_angle_alpha   41.99710085
_cell_angle_beta   41.99709805
_cell_angle_gamma   41.99710513
_symmetry_Int_Tables_number   1
_chemical_formula_structural   CaHf(Ga3Ni)6
_chemical_formula_sum   'Ca1 Hf1 Ga18 Ni6'
_cell_volume   425.21569171
_cell_formula_units_Z   1
loop_
 _symmetry_equiv_pos_site_id
 _symmetry_equiv_pos_as_xyz
  1  'x, y, z'
loop_
 _atom_site_type_symbol
 _atom_site_label
 _atom_site_symmetry_multiplicity
 _atom_site_fract_x
 _atom_site_fract_y
 _atom_site_fract_z
 _atom_site_occupancy
  Ca  Ca0  1  0.167007  0.167017  0.167012  1
  Hf  Hf1  1  0.832621  0.832626  0.832647  1
  Ga  Ga2  1  0.052126  0.052166  0.052123  1
  Ga  Ga3  1  0.707172  0.512121  0.280897  1
  Ga  Ga4  1  0.667158  0.334652  0.998221  1
  Ga  Ga5  1  0.103494  0.435989  0.766531  1
  Ga  Ga6  1  0.436034  0.766511  0.103468  1
  Ga  Ga7  1  0.385735  0.385716  0.385708  1
  Ga  Ga8  1  0.334652  0.998199  0.667156  1
  Ga  Ga9  1  0.613120  0.613103  0.613148  1
  Ga  Ga10  1  0.232022  0.565749  0.896431  1
  Ga  Ga11  1  0.565781  0.896407  0.232014  1
  Ga  Ga12  1  0.512126  0.280884  0.707173  1
  Ga  Ga13  1  0.766490  0.103538  0.435991  1
  Ga  Ga14  1  0.948799  0.948816  0.948820  1
  Ga  Ga15  1  0.280904  0.707153  0.512138  1
  Ga  Ga16  1  0.998201  0.667135  0.334646  1
  Ga  Ga17  1  0.717580  0.717574  0.717619  1
  Ga  Ga18  1  0.282404  0.282396  0.282390  1
  Ga  Ga19  1  0.896406  0.232012  0.565788  1
  Ni  Ni20  1  0.241760  0.920211  0.584103  1
  Ni  Ni21  1  0.920250  0.584050  0.241770  1
  Ni  Ni22  1  0.756701  0.419945  0.077545  1
  Ni  Ni23  1  0.077611  0.756697  0.419782  1
  Ni  Ni24  1  0.419762  0.077699  0.756602  1
  Ni  Ni25  1  0.584090  0.241633  0.920282  1
