# generated using pymatgen
data_Ho20Si11Rh5
_symmetry_space_group_name_H-M   'P 1'
_cell_length_a   7.09137912
_cell_length_b   14.49444985
_cell_length_c   7.93615884
_cell_angle_alpha   90.55460759
_cell_angle_beta   89.88550624
_cell_angle_gamma   90.24640020
_symmetry_Int_Tables_number   1
_chemical_formula_structural   Ho20Si11Rh5
_chemical_formula_sum   'Ho20 Si11 Rh5'
_cell_volume   815.67583780
_cell_formula_units_Z   1
loop_
 _symmetry_equiv_pos_site_id
 _symmetry_equiv_pos_as_xyz
  1  'x, y, z'
loop_
 _atom_site_type_symbol
 _atom_site_label
 _atom_site_symmetry_multiplicity
 _atom_site_fract_x
 _atom_site_fract_y
 _atom_site_fract_z
 _atom_site_occupancy
  Ho  Ho0  1  0.666886  0.748728  0.009770  1
  Ho  Ho1  1  0.832171  0.250370  0.511817  1
  Ho  Ho2  1  0.166599  0.746584  0.486277  1
  Ho  Ho3  1  0.332392  0.251407  0.992576  1
  Ho  Ho4  1  0.191332  0.379800  0.339116  1
  Ho  Ho5  1  0.308542  0.623451  0.823549  1
  Ho  Ho6  1  0.693430  0.127259  0.168831  1
  Ho  Ho7  1  0.807468  0.871983  0.668305  1
  Ho  Ho8  1  0.810834  0.624928  0.666314  1
  Ho  Ho9  1  0.693140  0.372996  0.172854  1
  Ho  Ho10  1  0.307504  0.871127  0.827096  1
  Ho  Ho11  1  0.192760  0.127819  0.330427  1
  Ho  Ho12  1  0.010961  0.406622  0.813218  1
  Ho  Ho13  1  0.486154  0.593610  0.316745  1
  Ho  Ho14  1  0.510663  0.092359  0.686144  1
  Ho  Ho15  1  0.987425  0.906196  0.187515  1
  Ho  Ho16  1  0.989417  0.594987  0.189578  1
  Ho  Ho17  1  0.509952  0.407328  0.686992  1
  Ho  Ho18  1  0.486688  0.907841  0.313325  1
  Ho  Ho19  1  0.012132  0.093478  0.812466  1
  Si  Si20  1  0.764128  0.752248  0.360824  1
  Si  Si21  1  0.735614  0.249392  0.865179  1
  Si  Si22  1  0.265729  0.751544  0.131922  1
  Si  Si23  1  0.235455  0.248959  0.639009  1
  Si  Si24  1  0.348874  0.460933  0.032437  1
  Si  Si25  1  0.653316  0.959698  0.969272  1
  Si  Si26  1  0.841473  0.038602  0.467912  1
  Si  Si27  1  0.840290  0.460352  0.473725  1
  Si  Si28  1  0.655893  0.537837  0.971141  1
  Si  Si29  1  0.343253  0.038590  0.031282  1
  Si  Si30  1  0.156419  0.962100  0.530339  1
  Rh  Rh31  1  0.018346  0.748040  0.899451  1
  Rh  Rh32  1  0.481294  0.249346  0.406368  1
  Rh  Rh33  1  0.518965  0.748896  0.594316  1
  Rh  Rh34  1  0.983858  0.252204  0.095209  1
  Rh  Rh35  1  0.160648  0.542386  0.528701  1
