# generated using pymatgen
data_Er10PdPtPb6
_symmetry_space_group_name_H-M   'P 1'
_cell_length_a   9.15630100
_cell_length_b   9.15630138
_cell_length_c   6.77878700
_cell_angle_alpha   90.00000000
_cell_angle_beta   90.00000000
_cell_angle_gamma   119.99999501
_symmetry_Int_Tables_number   1
_chemical_formula_structural   Er10PdPtPb6
_chemical_formula_sum   'Er10 Pd1 Pt1 Pb6'
_cell_volume   492.17866237
_cell_formula_units_Z   1
loop_
 _symmetry_equiv_pos_site_id
 _symmetry_equiv_pos_as_xyz
  1  'x, y, z'
loop_
 _atom_site_type_symbol
 _atom_site_label
 _atom_site_symmetry_multiplicity
 _atom_site_fract_x
 _atom_site_fract_y
 _atom_site_fract_z
 _atom_site_occupancy
  Er  Er0  1  0.000000  0.754903  0.749021  1
  Er  Er1  1  0.245097  0.000000  0.250979  1
  Er  Er2  1  0.754903  0.000000  0.749021  1
  Er  Er3  1  0.333333  0.666667  0.500000  1
  Er  Er4  1  0.000000  0.245097  0.250979  1
  Er  Er5  1  0.666667  0.333333  0.500000  1
  Er  Er6  1  0.754903  0.754903  0.250979  1
  Er  Er7  1  0.245097  0.245097  0.749021  1
  Er  Er8  1  0.333333  0.666667  0.000000  1
  Er  Er9  1  0.666667  0.333333  0.000000  1
  Pd  Pd10  1  0.000000  0.000000  0.500000  1
  Pt  Pt11  1  0.000000  0.000000  0.000000  1
  Pb  Pb12  1  0.400562  0.400562  0.250890  1
  Pb  Pb13  1  0.000000  0.400562  0.749110  1
  Pb  Pb14  1  0.000000  0.599438  0.250890  1
  Pb  Pb15  1  0.599438  0.000000  0.250890  1
  Pb  Pb16  1  0.400562  0.000000  0.749110  1
  Pb  Pb17  1  0.599438  0.599438  0.749110  1
