# generated using pymatgen
data_Er4Tm4B24Ir3Ru
_symmetry_space_group_name_H-M   'P 1'
_cell_length_a   3.61614600
_cell_length_b   9.12695402
_cell_length_c   11.44993103
_cell_angle_alpha   90.00826375
_cell_angle_beta   90.00000000
_cell_angle_gamma   90.00000000
_symmetry_Int_Tables_number   1
_chemical_formula_structural   Er4Tm4B24Ir3Ru
_chemical_formula_sum   'Er4 Tm4 B24 Ir3 Ru1'
_cell_volume   377.89808011
_cell_formula_units_Z   1
loop_
 _symmetry_equiv_pos_site_id
 _symmetry_equiv_pos_as_xyz
  1  'x, y, z'
loop_
 _atom_site_type_symbol
 _atom_site_label
 _atom_site_symmetry_multiplicity
 _atom_site_fract_x
 _atom_site_fract_y
 _atom_site_fract_z
 _atom_site_occupancy
  Er  Er0  1  0.000000  0.320099  0.413318  1
  Er  Er1  1  0.000000  0.681103  0.587968  1
  Er  Er2  1  0.000000  0.820268  0.084846  1
  Er  Er3  1  0.000000  0.177876  0.912977  1
  Tm  Tm4  1  0.000000  0.943889  0.373963  1
  Tm  Tm5  1  0.000000  0.054489  0.627028  1
  Tm  Tm6  1  0.000000  0.443906  0.125833  1
  Tm  Tm7  1  0.000000  0.557759  0.874260  1
  B  B8  1  0.500000  0.554028  0.434983  1
  B  B9  1  0.500000  0.446307  0.565354  1
  B  B10  1  0.500000  0.053482  0.065391  1
  B  B11  1  0.500000  0.945935  0.933688  1
  B  B12  1  0.500000  0.750310  0.421204  1
  B  B13  1  0.500000  0.249791  0.578962  1
  B  B14  1  0.500000  0.249818  0.078953  1
  B  B15  1  0.500000  0.751248  0.920041  1
  B  B16  1  0.500000  0.793210  0.264750  1
  B  B17  1  0.500000  0.206914  0.734575  1
  B  B18  1  0.500000  0.293672  0.235409  1
  B  B19  1  0.500000  0.707673  0.765588  1
  B  B20  1  0.500000  0.631458  0.183570  1
  B  B21  1  0.500000  0.368520  0.816326  1
  B  B22  1  0.500000  0.131996  0.316317  1
  B  B23  1  0.500000  0.868597  0.684856  1
  B  B24  1  0.500000  0.981237  0.213276  1
  B  B25  1  0.500000  0.017185  0.786454  1
  B  B26  1  0.500000  0.481519  0.286280  1
  B  B27  1  0.500000  0.518535  0.714112  1
  B  B28  1  0.500000  0.608467  0.030004  1
  B  B29  1  0.500000  0.391036  0.970333  1
  B  B30  1  0.500000  0.108399  0.470171  1
  B  B31  1  0.500000  0.891695  0.529477  1
  Ir  Ir32  1  0.000000  0.638283  0.321576  1
  Ir  Ir33  1  0.000000  0.362085  0.678816  1
  Ir  Ir34  1  0.000000  0.137431  0.178221  1
  Ru  Ru35  1  0.000000  0.861778  0.821120  1
