# generated using pymatgen
data_Sc4NbRe24
_symmetry_space_group_name_H-M   'P 1'
_cell_length_a   8.44243357
_cell_length_b   8.44243396
_cell_length_c   8.44243130
_cell_angle_alpha   109.43788736
_cell_angle_beta   109.43789452
_cell_angle_gamma   109.43787890
_symmetry_Int_Tables_number   1
_chemical_formula_structural   Sc4NbRe24
_chemical_formula_sum   'Sc4 Nb1 Re24'
_cell_volume   463.78403743
_cell_formula_units_Z   1
loop_
 _symmetry_equiv_pos_site_id
 _symmetry_equiv_pos_as_xyz
  1  'x, y, z'
loop_
 _atom_site_type_symbol
 _atom_site_label
 _atom_site_symmetry_multiplicity
 _atom_site_fract_x
 _atom_site_fract_y
 _atom_site_fract_z
 _atom_site_occupancy
  Sc  Sc0  1  0.999341  0.999341  0.999341  1
  Sc  Sc1  1  0.000270  0.000270  0.633314  1
  Sc  Sc2  1  0.633314  0.000270  0.000270  1
  Sc  Sc3  1  0.000270  0.633314  0.000270  1
  Nb  Nb4  1  0.368340  0.368340  0.368340  1
  Re  Re5  1  0.323129  0.323129  0.720871  1
  Re  Re6  1  0.395994  0.676073  0.997797  1
  Re  Re7  1  0.676073  0.395994  0.997797  1
  Re  Re8  1  0.599273  0.281245  0.599273  1
  Re  Re9  1  0.395994  0.997797  0.676073  1
  Re  Re10  1  0.997797  0.395994  0.676073  1
  Re  Re11  1  0.281245  0.599273  0.599273  1
  Re  Re12  1  0.720871  0.323129  0.323129  1
  Re  Re13  1  0.323129  0.720871  0.323129  1
  Re  Re14  1  0.676073  0.997797  0.395994  1
  Re  Re15  1  0.997797  0.676073  0.395994  1
  Re  Re16  1  0.599273  0.599273  0.281245  1
  Re  Re17  1  0.809242  0.809242  0.186344  1
  Re  Re18  1  0.377722  0.193909  0.000383  1
  Re  Re19  1  0.193909  0.377722  0.000383  1
  Re  Re20  1  0.623222  0.816517  0.623222  1
  Re  Re21  1  0.377722  0.000383  0.193909  1
  Re  Re22  1  0.000383  0.377722  0.193909  1
  Re  Re23  1  0.816517  0.623222  0.623222  1
  Re  Re24  1  0.186344  0.809242  0.809242  1
  Re  Re25  1  0.809242  0.186344  0.809242  1
  Re  Re26  1  0.193909  0.000383  0.377722  1
  Re  Re27  1  0.000383  0.193909  0.377722  1
  Re  Re28  1  0.623222  0.623222  0.816517  1
