# generated using pymatgen
data_TbLu2Ta7B20
_symmetry_space_group_name_H-M   'P 1'
_cell_length_a   6.20129063
_cell_length_b   7.07347975
_cell_length_c   7.48513600
_cell_angle_alpha   94.31367506
_cell_angle_beta   102.00682162
_cell_angle_gamma   115.98704918
_symmetry_Int_Tables_number   1
_chemical_formula_structural   TbLu2Ta7B20
_chemical_formula_sum   'Tb1 Lu2 Ta7 B20'
_cell_volume   283.46465507
_cell_formula_units_Z   1
loop_
 _symmetry_equiv_pos_site_id
 _symmetry_equiv_pos_as_xyz
  1  'x, y, z'
loop_
 _atom_site_type_symbol
 _atom_site_label
 _atom_site_symmetry_multiplicity
 _atom_site_fract_x
 _atom_site_fract_y
 _atom_site_fract_z
 _atom_site_occupancy
  Tb  Tb0  1  0.001715  0.003540  0.999973  1
  Lu  Lu1  1  0.497874  0.796331  0.400348  1
  Lu  Lu2  1  0.999505  0.399127  0.200037  1
  Ta  Ta3  1  0.500220  0.003151  0.998659  1
  Ta  Ta4  1  0.499781  0.199103  0.600451  1
  Ta  Ta5  1  0.996562  0.795185  0.400104  1
  Ta  Ta6  1  0.499470  0.599187  0.796550  1
  Ta  Ta7  1  0.502921  0.400213  0.202747  1
  Ta  Ta8  1  0.000200  0.199858  0.601817  1
  Ta  Ta9  1  0.001669  0.603344  0.799295  1
  B  B10  1  0.336930  0.237170  0.862074  1
  B  B11  1  0.334670  0.635029  0.062367  1
  B  B12  1  0.170373  0.373426  0.927761  1
  B  B13  1  0.336467  0.033748  0.272155  1
  B  B14  1  0.168249  0.766157  0.131675  1
  B  B15  1  0.831035  0.237706  0.859512  1
  B  B16  1  0.168945  0.165279  0.341337  1
  B  B17  1  0.829164  0.630914  0.064814  1
  B  B18  1  0.334548  0.429813  0.471465  1
  B  B19  1  0.664730  0.369322  0.929030  1
  B  B20  1  0.833325  0.031661  0.272298  1
  B  B21  1  0.664023  0.763883  0.132918  1
  B  B22  1  0.332115  0.833602  0.667123  1
  B  B23  1  0.165776  0.564847  0.538376  1
  B  B24  1  0.665286  0.166062  0.337259  1
  B  B25  1  0.832228  0.430922  0.470089  1
  B  B26  1  0.168536  0.967989  0.729194  1
  B  B27  1  0.833890  0.831404  0.663868  1
  B  B28  1  0.667504  0.564064  0.535861  1
  B  B29  1  0.662288  0.967962  0.730841  1
