# generated using pymatgen
data_Sc5Nb3(Co4As3)4
_symmetry_space_group_name_H-M   'P 1'
_cell_length_a   12.51975500
_cell_length_b   12.51975399
_cell_length_c   3.74138400
_cell_angle_alpha   90.00000000
_cell_angle_beta   90.00000000
_cell_angle_gamma   120.00000003
_symmetry_Int_Tables_number   1
_chemical_formula_structural   Sc5Nb3(Co4As3)4
_chemical_formula_sum   'Sc5 Nb3 Co16 As12'
_cell_volume   507.87231762
_cell_formula_units_Z   1
loop_
 _symmetry_equiv_pos_site_id
 _symmetry_equiv_pos_as_xyz
  1  'x, y, z'
loop_
 _atom_site_type_symbol
 _atom_site_label
 _atom_site_symmetry_multiplicity
 _atom_site_fract_x
 _atom_site_fract_y
 _atom_site_fract_z
 _atom_site_occupancy
  Sc  Sc0  1  0.819094  0.000000  0.500000  1
  Sc  Sc1  1  0.000000  0.819094  0.500000  1
  Sc  Sc2  1  0.180906  0.180906  0.500000  1
  Sc  Sc3  1  0.333333  0.666667  0.000000  1
  Sc  Sc4  1  0.666667  0.333333  0.000000  1
  Nb  Nb5  1  0.445030  0.000000  0.000000  1
  Nb  Nb6  1  0.000000  0.445030  0.000000  1
  Nb  Nb7  1  0.554970  0.554970  0.000000  1
  Co  Co8  1  0.282655  0.000000  0.500000  1
  Co  Co9  1  0.000000  0.282655  0.500000  1
  Co  Co10  1  0.717345  0.717345  0.500000  1
  Co  Co11  1  0.626940  0.802415  0.000000  1
  Co  Co12  1  0.197585  0.824524  0.000000  1
  Co  Co13  1  0.175476  0.373060  0.000000  1
  Co  Co14  1  0.373060  0.175476  0.000000  1
  Co  Co15  1  0.802415  0.626940  0.000000  1
  Co  Co16  1  0.824524  0.197585  0.000000  1
  Co  Co17  1  0.520867  0.874686  0.500000  1
  Co  Co18  1  0.125314  0.646180  0.500000  1
  Co  Co19  1  0.353820  0.479133  0.500000  1
  Co  Co20  1  0.479133  0.353820  0.500000  1
  Co  Co21  1  0.874686  0.520867  0.500000  1
  Co  Co22  1  0.646180  0.125314  0.500000  1
  Co  Co23  1  0.000000  0.000000  0.000000  1
  As  As24  1  0.174912  0.000000  0.000000  1
  As  As25  1  0.000000  0.174912  0.000000  1
  As  As26  1  0.825088  0.825088  0.000000  1
  As  As27  1  0.513425  0.685740  0.500000  1
  As  As28  1  0.314260  0.827685  0.500000  1
  As  As29  1  0.172315  0.486575  0.500000  1
  As  As30  1  0.486575  0.172315  0.500000  1
  As  As31  1  0.685740  0.513425  0.500000  1
  As  As32  1  0.827685  0.314260  0.500000  1
  As  As33  1  0.651190  0.000000  0.000000  1
  As  As34  1  0.000000  0.651190  0.000000  1
  As  As35  1  0.348810  0.348810  0.000000  1
