# generated using pymatgen
data_Lu16MgIn3NiRh3
_symmetry_space_group_name_H-M   'P 1'
_cell_length_a   9.46758045
_cell_length_b   9.46758129
_cell_length_c   9.46758020
_cell_angle_alpha   59.78304141
_cell_angle_beta   59.78304216
_cell_angle_gamma   59.78304183
_symmetry_Int_Tables_number   1
_chemical_formula_structural   Lu16MgIn3NiRh3
_chemical_formula_sum   'Lu16 Mg1 In3 Ni1 Rh3'
_cell_volume   597.11443619
_cell_formula_units_Z   1
loop_
 _symmetry_equiv_pos_site_id
 _symmetry_equiv_pos_as_xyz
  1  'x, y, z'
loop_
 _atom_site_type_symbol
 _atom_site_label
 _atom_site_symmetry_multiplicity
 _atom_site_fract_x
 _atom_site_fract_y
 _atom_site_fract_z
 _atom_site_occupancy
  Lu  Lu0  1  0.599035  0.599035  0.599035  1
  Lu  Lu1  1  0.598021  0.598021  0.203306  1
  Lu  Lu2  1  0.598021  0.203306  0.598021  1
  Lu  Lu3  1  0.203306  0.598021  0.598021  1
  Lu  Lu4  1  0.062709  0.438883  0.438883  1
  Lu  Lu5  1  0.438888  0.062008  0.062008  1
  Lu  Lu6  1  0.438883  0.062709  0.438883  1
  Lu  Lu7  1  0.062008  0.438888  0.062008  1
  Lu  Lu8  1  0.438883  0.438883  0.062709  1
  Lu  Lu9  1  0.062008  0.062008  0.438888  1
  Lu  Lu10  1  0.188013  0.812261  0.812261  1
  Lu  Lu11  1  0.811914  0.187975  0.187975  1
  Lu  Lu12  1  0.812261  0.188013  0.812261  1
  Lu  Lu13  1  0.187975  0.811914  0.187975  1
  Lu  Lu14  1  0.812261  0.812261  0.188013  1
  Lu  Lu15  1  0.187975  0.187975  0.811914  1
  Mg  Mg16  1  0.830390  0.830390  0.830390  1
  In  In17  1  0.834028  0.834028  0.500054  1
  In  In18  1  0.834028  0.500054  0.834028  1
  In  In19  1  0.500054  0.834028  0.834028  1
  Ni  Ni20  1  0.391928  0.391928  0.391928  1
  Rh  Rh21  1  0.392598  0.392598  0.822216  1
  Rh  Rh22  1  0.392598  0.822216  0.392598  1
  Rh  Rh23  1  0.822216  0.392598  0.392598  1
