# generated using pymatgen
data_Y2ErIn3AgRh2
_symmetry_space_group_name_H-M   'P 1'
_cell_length_a   7.80467067
_cell_length_b   7.79996149
_cell_length_c   3.80222400
_cell_angle_alpha   90.00000000
_cell_angle_beta   90.00000000
_cell_angle_gamma   120.11470506
_symmetry_Int_Tables_number   1
_chemical_formula_structural   Y2ErIn3AgRh2
_chemical_formula_sum   'Y2 Er1 In3 Ag1 Rh2'
_cell_volume   200.22220172
_cell_formula_units_Z   1
loop_
 _symmetry_equiv_pos_site_id
 _symmetry_equiv_pos_as_xyz
  1  'x, y, z'
loop_
 _atom_site_type_symbol
 _atom_site_label
 _atom_site_symmetry_multiplicity
 _atom_site_fract_x
 _atom_site_fract_y
 _atom_site_fract_z
 _atom_site_occupancy
  Y  Y0  1  0.026592  0.613554  0.500000  1
  Y  Y1  1  0.386468  0.413038  0.500000  1
  Er  Er2  1  0.586695  0.970638  0.500000  1
  In  In3  1  0.261305  0.003999  0.000000  1
  In  In4  1  0.742246  0.738258  0.000000  1
  In  In5  1  0.995816  0.257702  0.000000  1
  Ag  Ag6  1  0.665803  0.330700  0.000000  1
  Rh  Rh7  1  0.337539  0.671770  0.000000  1
  Rh  Rh8  1  0.997536  0.000340  0.500000  1
