# generated using pymatgen
data_TbHo2Zn2In3Rh
_symmetry_space_group_name_H-M   'P 1'
_cell_length_a   7.74907787
_cell_length_b   7.73700785
_cell_length_c   3.85945600
_cell_angle_alpha   90.00000000
_cell_angle_beta   90.00000000
_cell_angle_gamma   119.99724667
_symmetry_Int_Tables_number   1
_chemical_formula_structural   TbHo2Zn2In3Rh
_chemical_formula_sum   'Tb1 Ho2 Zn2 In3 Rh1'
_cell_volume   200.39728667
_cell_formula_units_Z   1
loop_
 _symmetry_equiv_pos_site_id
 _symmetry_equiv_pos_as_xyz
  1  'x, y, z'
loop_
 _atom_site_type_symbol
 _atom_site_label
 _atom_site_symmetry_multiplicity
 _atom_site_fract_x
 _atom_site_fract_y
 _atom_site_fract_z
 _atom_site_occupancy
  Tb  Tb0  1  0.976328  0.392318  0.500000  1
  Ho  Ho1  1  0.608394  0.583369  0.500000  1
  Ho  Ho2  1  0.416447  0.025203  0.500000  1
  Zn  Zn3  1  0.334336  0.667222  0.000000  1
  Zn  Zn4  1  0.000032  0.999755  0.500000  1
  In  In5  1  0.261953  0.267321  0.000000  1
  In  In6  1  0.005869  0.738999  0.000000  1
  In  In7  1  0.731814  0.993158  0.000000  1
  Rh  Rh8  1  0.664827  0.332654  0.000000  1
