# generated using pymatgen
data_Dy5Tm(BO3)6
_symmetry_space_group_name_H-M   'P 1'
_cell_length_a   6.57420387
_cell_length_b   6.58167881
_cell_length_c   9.61824501
_cell_angle_alpha   70.35293186
_cell_angle_beta   70.35374808
_cell_angle_gamma   60.03270019
_symmetry_Int_Tables_number   1
_chemical_formula_structural   Dy5Tm(BO3)6
_chemical_formula_sum   'Dy5 Tm1 B6 O18'
_cell_volume   332.24699254
_cell_formula_units_Z   1
loop_
 _symmetry_equiv_pos_site_id
 _symmetry_equiv_pos_as_xyz
  1  'x, y, z'
loop_
 _atom_site_type_symbol
 _atom_site_label
 _atom_site_symmetry_multiplicity
 _atom_site_fract_x
 _atom_site_fract_y
 _atom_site_fract_z
 _atom_site_occupancy
  Dy  Dy0  1  0.000241  0.499878  0.499997  1
  Dy  Dy1  1  0.500068  0.000011  0.999992  1
  Dy  Dy2  1  0.170662  0.657660  0.999378  1
  Dy  Dy3  1  0.342832  0.829017  0.500642  1
  Dy  Dy4  1  0.829353  0.342284  0.000628  1
  Tm  Tm5  1  0.657215  0.170997  0.499403  1
  B  B6  1  0.917353  0.843677  0.746016  1
  B  B7  1  0.158304  0.082269  0.752735  1
  B  B8  1  0.081161  0.157074  0.253974  1
  B  B9  1  0.842389  0.918441  0.247498  1
  B  B10  1  0.676557  0.323045  0.749351  1
  B  B11  1  0.324252  0.675489  0.250430  1
  O  O12  1  0.964529  0.784370  0.602084  1
  O  O13  1  0.217836  0.033765  0.896909  1
  O  O14  1  0.031816  0.217420  0.397907  1
  O  O15  1  0.782253  0.966252  0.103492  1
  O  O16  1  0.870019  0.685988  0.888316  1
  O  O17  1  0.317327  0.130183  0.610946  1
  O  O18  1  0.129646  0.314248  0.111705  1
  O  O19  1  0.684937  0.871683  0.389675  1
  O  O20  1  0.518518  0.384612  0.891664  1
  O  O21  1  0.615164  0.480131  0.607148  1
  O  O22  1  0.481701  0.615123  0.107925  1
  O  O23  1  0.387644  0.515481  0.392187  1
  O  O24  1  0.917014  0.299508  0.751595  1
  O  O25  1  0.699703  0.083930  0.746476  1
  O  O26  1  0.083405  0.700269  0.248445  1
  O  O27  1  0.299506  0.916098  0.252573  1
  O  O28  1  0.134914  0.865847  0.749424  1
  O  O29  1  0.863680  0.135250  0.251485  1
