# generated using pymatgen
data_Sr2Ni12P5
_symmetry_space_group_name_H-M   'P 1'
_cell_length_a   3.71727200
_cell_length_b   11.10745913
_cell_length_c   13.25945900
_cell_angle_alpha   72.12240275
_cell_angle_beta   90.00000000
_cell_angle_gamma   90.00000000
_symmetry_Int_Tables_number   1
_chemical_formula_structural   Sr2Ni12P5
_chemical_formula_sum   'Sr4 Ni24 P10'
_cell_volume   521.04059228
_cell_formula_units_Z   2
loop_
 _symmetry_equiv_pos_site_id
 _symmetry_equiv_pos_as_xyz
  1  'x, y, z'
loop_
 _atom_site_type_symbol
 _atom_site_label
 _atom_site_symmetry_multiplicity
 _atom_site_fract_x
 _atom_site_fract_y
 _atom_site_fract_z
 _atom_site_occupancy
  Sr  Sr0  1  0.250000  0.749725  0.187063  1
  Sr  Sr1  1  0.750000  0.250275  0.812937  1
  Sr  Sr2  1  0.250000  0.780438  0.684106  1
  Sr  Sr3  1  0.750000  0.219562  0.315894  1
  Ni  Ni4  1  0.250000  0.575521  0.011379  1
  Ni  Ni5  1  0.250000  0.568070  0.449911  1
  Ni  Ni6  1  0.750000  0.508791  0.341360  1
  Ni  Ni7  1  0.250000  0.491209  0.658640  1
  Ni  Ni8  1  0.750000  0.514082  0.149067  1
  Ni  Ni9  1  0.250000  0.485918  0.850933  1
  Ni  Ni10  1  0.750000  0.431930  0.550089  1
  Ni  Ni11  1  0.250000  0.355397  0.131146  1
  Ni  Ni12  1  0.750000  0.649774  0.562202  1
  Ni  Ni13  1  0.250000  0.350226  0.437798  1
  Ni  Ni14  1  0.750000  0.903480  0.306616  1
  Ni  Ni15  1  0.250000  0.096520  0.693384  1
  Ni  Ni16  1  0.750000  0.918690  0.990683  1
  Ni  Ni17  1  0.250000  0.081310  0.009317  1
  Ni  Ni18  1  0.750000  0.925218  0.489306  1
  Ni  Ni19  1  0.250000  0.074782  0.510694  1
  Ni  Ni20  1  0.750000  0.946660  0.795194  1
  Ni  Ni21  1  0.250000  0.053340  0.204806  1
  Ni  Ni22  1  0.250000  0.785972  0.439762  1
  Ni  Ni23  1  0.750000  0.214028  0.560238  1
  Ni  Ni24  1  0.250000  0.799695  0.918069  1
  Ni  Ni25  1  0.750000  0.200305  0.081931  1
  Ni  Ni26  1  0.750000  0.644603  0.868854  1
  Ni  Ni27  1  0.750000  0.424479  0.988621  1
  P  P28  1  0.250000  0.006853  0.871025  1
  P  P29  1  0.750000  0.993147  0.128975  1
  P  P30  1  0.250000  0.297209  0.987623  1
  P  P31  1  0.750000  0.702791  0.012377  1
  P  P32  1  0.250000  0.453363  0.259647  1
  P  P33  1  0.750000  0.546637  0.740353  1
  P  P34  1  0.250000  0.989025  0.379750  1
  P  P35  1  0.750000  0.010975  0.620250  1
  P  P36  1  0.250000  0.310617  0.610339  1
  P  P37  1  0.750000  0.689383  0.389661  1
