# generated using pymatgen
data_V2Ag(P2O7)2
_symmetry_space_group_name_H-M   'P 1'
_cell_length_a   4.88425307
_cell_length_b   7.12180102
_cell_length_c   8.03815575
_cell_angle_alpha   91.46286518
_cell_angle_beta   93.56262913
_cell_angle_gamma   104.96367639
_symmetry_Int_Tables_number   1
_chemical_formula_structural   V2Ag(P2O7)2
_chemical_formula_sum   'V2 Ag1 P4 O14'
_cell_volume   269.35045397
_cell_formula_units_Z   1
loop_
 _symmetry_equiv_pos_site_id
 _symmetry_equiv_pos_as_xyz
  1  'x, y, z'
loop_
 _atom_site_type_symbol
 _atom_site_label
 _atom_site_symmetry_multiplicity
 _atom_site_fract_x
 _atom_site_fract_y
 _atom_site_fract_z
 _atom_site_occupancy
  V  V0  1  0.500000  0.500000  0.500000  1
  V  V1  1  0.000000  0.000000  0.000000  1
  Ag  Ag2  1  0.000000  0.000000  0.500000  1
  P  P3  1  0.011740  0.623142  0.255962  1
  P  P4  1  0.988260  0.376858  0.744038  1
  P  P5  1  0.624159  0.234469  0.200134  1
  P  P6  1  0.375841  0.765531  0.799866  1
  O  O7  1  0.803244  0.448308  0.146049  1
  O  O8  1  0.196756  0.551692  0.853951  1
  O  O9  1  0.540796  0.263907  0.380578  1
  O  O10  1  0.459204  0.736093  0.619422  1
  O  O11  1  0.272822  0.551989  0.316249  1
  O  O12  1  0.727178  0.448011  0.683751  1
  O  O13  1  0.848696  0.663590  0.408189  1
  O  O14  1  0.176809  0.900270  0.799493  1
  O  O15  1  0.823191  0.099730  0.200507  1
  O  O16  1  0.902257  0.203494  0.848441  1
  O  O17  1  0.097743  0.796506  0.151559  1
  O  O18  1  0.625980  0.818148  0.927605  1
  O  O19  1  0.374020  0.181852  0.072395  1
  O  O20  1  0.151304  0.336410  0.591811  1
