# generated using pymatgen
data_CeTm3(CdNi2)2
_symmetry_space_group_name_H-M   'P 1'
_cell_length_a   7.40068032
_cell_length_b   7.40067990
_cell_length_c   3.54312200
_cell_angle_alpha   90.00000000
_cell_angle_beta   90.00000000
_cell_angle_gamma   91.72968308
_symmetry_Int_Tables_number   1
_chemical_formula_structural   CeTm3(CdNi2)2
_chemical_formula_sum   'Ce1 Tm3 Cd2 Ni4'
_cell_volume   193.96860534
_cell_formula_units_Z   1
loop_
 _symmetry_equiv_pos_site_id
 _symmetry_equiv_pos_as_xyz
  1  'x, y, z'
loop_
 _atom_site_type_symbol
 _atom_site_label
 _atom_site_symmetry_multiplicity
 _atom_site_fract_x
 _atom_site_fract_y
 _atom_site_fract_z
 _atom_site_occupancy
  Ce  Ce0  1  0.326599  0.826599  0.500000  1
  Tm  Tm1  1  0.827953  0.671107  0.500000  1
  Tm  Tm2  1  0.171107  0.327953  0.500000  1
  Tm  Tm3  1  0.673873  0.173873  0.500000  1
  Cd  Cd4  1  0.992682  0.004339  0.000000  1
  Cd  Cd5  1  0.504339  0.492682  0.000000  1
  Ni  Ni6  1  0.374395  0.114774  0.000000  1
  Ni  Ni7  1  0.884171  0.384171  0.000000  1
  Ni  Ni8  1  0.130107  0.630107  0.000000  1
  Ni  Ni9  1  0.614774  0.874395  0.000000  1
