# generated using pymatgen
data_Y5Ho(Co3P2)6
_symmetry_space_group_name_H-M   'P 1'
_cell_length_a   3.70136100
_cell_length_b   10.51952606
_cell_length_c   12.18615700
_cell_angle_alpha   90.00673838
_cell_angle_beta   90.00000000
_cell_angle_gamma   90.00000000
_symmetry_Int_Tables_number   1
_chemical_formula_structural   Y5Ho(Co3P2)6
_chemical_formula_sum   'Y5 Ho1 Co18 P12'
_cell_volume   474.48707251
_cell_formula_units_Z   1
loop_
 _symmetry_equiv_pos_site_id
 _symmetry_equiv_pos_as_xyz
  1  'x, y, z'
loop_
 _atom_site_type_symbol
 _atom_site_label
 _atom_site_symmetry_multiplicity
 _atom_site_fract_x
 _atom_site_fract_y
 _atom_site_fract_z
 _atom_site_occupancy
  Y  Y0  1  0.000000  0.500050  0.521627  1
  Y  Y1  1  0.500000  0.999835  0.478170  1
  Y  Y2  1  0.500000  0.182589  0.205790  1
  Y  Y3  1  0.000000  0.682784  0.794058  1
  Y  Y4  1  0.000000  0.317292  0.794421  1
  Ho  Ho5  1  0.500000  0.817455  0.205876  1
  Co  Co6  1  0.500000  0.500235  0.158450  1
  Co  Co7  1  0.000000  0.999790  0.841539  1
  Co  Co8  1  0.500000  0.500087  0.703306  1
  Co  Co9  1  0.000000  0.999332  0.296557  1
  Co  Co10  1  0.000000  0.500326  0.986585  1
  Co  Co11  1  0.500000  0.999764  0.014157  1
  Co  Co12  1  0.500000  0.333482  0.994865  1
  Co  Co13  1  0.500000  0.666956  0.995035  1
  Co  Co14  1  0.000000  0.166294  0.005460  1
  Co  Co15  1  0.000000  0.833401  0.005558  1
  Co  Co16  1  0.500000  0.297343  0.430525  1
  Co  Co17  1  0.500000  0.702586  0.429984  1
  Co  Co18  1  0.000000  0.202515  0.569511  1
  Co  Co19  1  0.000000  0.797366  0.569074  1
  Co  Co20  1  0.500000  0.879543  0.709714  1
  Co  Co21  1  0.500000  0.120407  0.709997  1
  Co  Co22  1  0.000000  0.620881  0.289686  1
  Co  Co23  1  0.000000  0.379652  0.290126  1
  P  P24  1  0.500000  0.500174  0.883046  1
  P  P25  1  0.000000  0.999458  0.117422  1
  P  P26  1  0.500000  0.499997  0.343015  1
  P  P27  1  0.000000  0.999986  0.656819  1
  P  P28  1  0.500000  0.310261  0.615920  1
  P  P29  1  0.500000  0.689786  0.615556  1
  P  P30  1  0.000000  0.189602  0.384128  1
  P  P31  1  0.000000  0.810111  0.383467  1
  P  P32  1  0.500000  0.847725  0.893410  1
  P  P33  1  0.500000  0.152174  0.893742  1
  P  P34  1  0.000000  0.653163  0.106842  1
  P  P35  1  0.000000  0.347601  0.106563  1
