# generated using pymatgen
data_Tb19ErIr7Ru5
_symmetry_space_group_name_H-M   'P 1'
_cell_length_a   10.89564005
_cell_length_b   10.89672411
_cell_length_c   6.42916300
_cell_angle_alpha   89.96746582
_cell_angle_beta   89.96404681
_cell_angle_gamma   90.02044953
_symmetry_Int_Tables_number   1
_chemical_formula_structural   Tb19ErIr7Ru5
_chemical_formula_sum   'Tb19 Er1 Ir7 Ru5'
_cell_volume   763.31352261
_cell_formula_units_Z   1
loop_
 _symmetry_equiv_pos_site_id
 _symmetry_equiv_pos_as_xyz
  1  'x, y, z'
loop_
 _atom_site_type_symbol
 _atom_site_label
 _atom_site_symmetry_multiplicity
 _atom_site_fract_x
 _atom_site_fract_y
 _atom_site_fract_z
 _atom_site_occupancy
  Tb  Tb0  1  0.293397  0.086302  0.377805  1
  Tb  Tb1  1  0.292719  0.913553  0.877882  1
  Tb  Tb2  1  0.707448  0.086691  0.878149  1
  Tb  Tb3  1  0.707107  0.913878  0.376947  1
  Tb  Tb4  1  0.586350  0.793242  0.877733  1
  Tb  Tb5  1  0.587141  0.207205  0.378102  1
  Tb  Tb6  1  0.413625  0.792940  0.377942  1
  Tb  Tb7  1  0.413467  0.206679  0.877092  1
  Tb  Tb8  1  0.206922  0.413726  0.622063  1
  Tb  Tb9  1  0.206887  0.586433  0.122267  1
  Tb  Tb10  1  0.792990  0.412812  0.122080  1
  Tb  Tb11  1  0.793145  0.586491  0.622702  1
  Tb  Tb12  1  0.913709  0.706663  0.122171  1
  Tb  Tb13  1  0.913259  0.292589  0.621879  1
  Tb  Tb14  1  0.086455  0.707202  0.622119  1
  Tb  Tb15  1  0.086078  0.292856  0.123047  1
  Tb  Tb16  1  0.999527  0.001040  0.499445  1
  Tb  Tb17  1  0.998932  0.000466  0.000612  1
  Tb  Tb18  1  0.500177  0.500085  0.000124  1
  Er  Er19  1  0.499904  0.499870  0.499868  1
  Ir  Ir20  1  0.846756  0.846526  0.749813  1
  Ir  Ir21  1  0.153549  0.153182  0.750196  1
  Ir  Ir22  1  0.153171  0.846811  0.250027  1
  Ir  Ir23  1  0.651650  0.348277  0.749142  1
  Ir  Ir24  1  0.652674  0.652281  0.250592  1
  Ir  Ir25  1  0.347646  0.347381  0.251105  1
  Ir  Ir26  1  0.347799  0.652261  0.749139  1
  Ru  Ru27  1  0.847712  0.152354  0.249959  1
  Ru  Ru28  1  0.500182  0.000212  0.121608  1
  Ru  Ru29  1  0.499852  0.000041  0.621628  1
  Ru  Ru30  1  0.999955  0.500129  0.878272  1
  Ru  Ru31  1  0.999818  0.499823  0.378490  1
