# generated using pymatgen
data_K2Cu3(P2O7)2
_symmetry_space_group_name_H-M   'P 1'
_cell_length_a   10.77066900
_cell_length_b   7.69517917
_cell_length_c   7.81490200
_cell_angle_alpha   75.93669420
_cell_angle_beta   90.00000000
_cell_angle_gamma   90.00000000
_symmetry_Int_Tables_number   1
_chemical_formula_structural   K2Cu3(P2O7)2
_chemical_formula_sum   'K4 Cu6 P8 O28'
_cell_volume   628.30302269
_cell_formula_units_Z   2
loop_
 _symmetry_equiv_pos_site_id
 _symmetry_equiv_pos_as_xyz
  1  'x, y, z'
loop_
 _atom_site_type_symbol
 _atom_site_label
 _atom_site_symmetry_multiplicity
 _atom_site_fract_x
 _atom_site_fract_y
 _atom_site_fract_z
 _atom_site_occupancy
  K  K0  1  0.683549  0.452814  0.756729  1
  K  K1  1  0.816451  0.952814  0.756729  1
  K  K2  1  0.316451  0.547186  0.243271  1
  K  K3  1  0.183549  0.047186  0.243271  1
  Cu  Cu4  1  0.898342  0.730102  0.273419  1
  Cu  Cu5  1  0.500000  0.000000  0.000000  1
  Cu  Cu6  1  0.398342  0.769898  0.726581  1
  Cu  Cu7  1  0.601658  0.230102  0.273419  1
  Cu  Cu8  1  0.000000  0.500000  0.000000  1
  Cu  Cu9  1  0.101658  0.269898  0.726581  1
  P  P10  1  0.951017  0.326863  0.385414  1
  P  P11  1  0.337887  0.345361  0.879538  1
  P  P12  1  0.048983  0.673137  0.614586  1
  P  P13  1  0.451017  0.173137  0.614586  1
  P  P14  1  0.837887  0.154639  0.120462  1
  P  P15  1  0.162113  0.845361  0.879538  1
  P  P16  1  0.548983  0.826863  0.385414  1
  P  P17  1  0.662113  0.654639  0.120462  1
  O  O18  1  0.102092  0.699039  0.026017  1
  O  O19  1  0.597894  0.476311  0.132701  1
  O  O20  1  0.651664  0.708060  0.309583  1
  O  O21  1  0.120634  0.513882  0.578262  1
  O  O22  1  0.803163  0.652855  0.088473  1
  O  O23  1  0.946521  0.627324  0.755656  1
  O  O24  1  0.097894  0.023689  0.867299  1
  O  O25  1  0.397908  0.199039  0.026017  1
  O  O26  1  0.696837  0.152855  0.088473  1
  O  O27  1  0.553479  0.127324  0.755656  1
  O  O28  1  0.348336  0.291940  0.690417  1
  O  O29  1  0.303163  0.847145  0.911527  1
  O  O30  1  0.196837  0.347145  0.911527  1
  O  O31  1  0.505576  0.696298  0.556176  1
  O  O32  1  0.379366  0.013882  0.578262  1
  O  O33  1  0.005576  0.803702  0.443824  1
  O  O34  1  0.620634  0.986118  0.421738  1
  O  O35  1  0.897908  0.300961  0.973983  1
  O  O36  1  0.848336  0.208060  0.309583  1
  O  O37  1  0.053479  0.372676  0.244344  1
  O  O38  1  0.402106  0.523689  0.867299  1
  O  O39  1  0.902106  0.976311  0.132701  1
  O  O40  1  0.446521  0.872676  0.244344  1
  O  O41  1  0.151664  0.791940  0.690417  1
  O  O42  1  0.494424  0.303702  0.443824  1
  O  O43  1  0.994424  0.196298  0.556176  1
  O  O44  1  0.879366  0.486118  0.421738  1
  O  O45  1  0.602092  0.800961  0.973983  1
