# generated using pymatgen
data_Ca20MgCd2Ag9
_symmetry_space_group_name_H-M   'P 1'
_cell_length_a   8.18255700
_cell_length_b   8.18255700
_cell_length_c   14.79728800
_cell_angle_alpha   90.00000000
_cell_angle_beta   90.00000000
_cell_angle_gamma   90.00000000
_symmetry_Int_Tables_number   1
_chemical_formula_structural   Ca20MgCd2Ag9
_chemical_formula_sum   'Ca20 Mg1 Cd2 Ag9'
_cell_volume   990.74115817
_cell_formula_units_Z   1
loop_
 _symmetry_equiv_pos_site_id
 _symmetry_equiv_pos_as_xyz
  1  'x, y, z'
loop_
 _atom_site_type_symbol
 _atom_site_label
 _atom_site_symmetry_multiplicity
 _atom_site_fract_x
 _atom_site_fract_y
 _atom_site_fract_z
 _atom_site_occupancy
  Ca  Ca0  1  0.673360  0.158234  0.106522  1
  Ca  Ca1  1  0.167411  0.666163  0.608342  1
  Ca  Ca2  1  0.326640  0.841766  0.106522  1
  Ca  Ca3  1  0.832589  0.333837  0.608342  1
  Ca  Ca4  1  0.841766  0.673360  0.106522  1
  Ca  Ca5  1  0.333837  0.167411  0.608342  1
  Ca  Ca6  1  0.158234  0.326640  0.106522  1
  Ca  Ca7  1  0.666163  0.832589  0.608342  1
  Ca  Ca8  1  0.841766  0.326640  0.893478  1
  Ca  Ca9  1  0.333837  0.832589  0.391658  1
  Ca  Ca10  1  0.158234  0.673360  0.893478  1
  Ca  Ca11  1  0.666163  0.167411  0.391658  1
  Ca  Ca12  1  0.673360  0.841766  0.893478  1
  Ca  Ca13  1  0.167411  0.333837  0.391658  1
  Ca  Ca14  1  0.326640  0.158234  0.893478  1
  Ca  Ca15  1  0.832589  0.666163  0.391658  1
  Ca  Ca16  1  0.500000  0.500000  0.752709  1
  Ca  Ca17  1  0.000000  0.000000  0.251020  1
  Ca  Ca18  1  0.000000  0.000000  0.748980  1
  Ca  Ca19  1  0.500000  0.500000  0.247291  1
  Mg  Mg20  1  0.500000  0.500000  0.000000  1
  Cd  Cd21  1  0.500000  0.500000  0.500000  1
  Cd  Cd22  1  0.000000  0.000000  0.500000  1
  Ag  Ag23  1  0.625418  0.126475  0.751047  1
  Ag  Ag24  1  0.126475  0.625418  0.248953  1
  Ag  Ag25  1  0.873525  0.374582  0.248953  1
  Ag  Ag26  1  0.374582  0.873525  0.751047  1
  Ag  Ag27  1  0.873525  0.625418  0.751047  1
  Ag  Ag28  1  0.374582  0.126475  0.248953  1
  Ag  Ag29  1  0.126475  0.374582  0.751047  1
  Ag  Ag30  1  0.625418  0.873525  0.248953  1
  Ag  Ag31  1  0.000000  0.000000  0.000000  1
