# generated using pymatgen
data_YHo7Tc3B24Os
_symmetry_space_group_name_H-M   'P 1'
_cell_length_a   3.66827600
_cell_length_b   9.14286739
_cell_length_c   11.52673800
_cell_angle_alpha   89.95219287
_cell_angle_beta   90.00000000
_cell_angle_gamma   90.00000000
_symmetry_Int_Tables_number   1
_chemical_formula_structural   YHo7Tc3B24Os
_chemical_formula_sum   'Y1 Ho7 Tc3 B24 Os1'
_cell_volume   386.59007145
_cell_formula_units_Z   1
loop_
 _symmetry_equiv_pos_site_id
 _symmetry_equiv_pos_as_xyz
  1  'x, y, z'
loop_
 _atom_site_type_symbol
 _atom_site_label
 _atom_site_symmetry_multiplicity
 _atom_site_fract_x
 _atom_site_fract_y
 _atom_site_fract_z
 _atom_site_occupancy
  Y  Y0  1  0.000000  0.323661  0.413816  1
  Ho  Ho1  1  0.000000  0.675335  0.584269  1
  Ho  Ho2  1  0.000000  0.823021  0.087298  1
  Ho  Ho3  1  0.000000  0.177804  0.914606  1
  Ho  Ho4  1  0.000000  0.942467  0.370067  1
  Ho  Ho5  1  0.000000  0.058088  0.630043  1
  Ho  Ho6  1  0.000000  0.442977  0.130073  1
  Ho  Ho7  1  0.000000  0.556970  0.869545  1
  Tc  Tc8  1  0.000000  0.638695  0.320552  1
  Tc  Tc9  1  0.000000  0.361635  0.680132  1
  Tc  Tc10  1  0.000000  0.137772  0.178080  1
  B  B11  1  0.500000  0.553451  0.432986  1
  B  B12  1  0.500000  0.447063  0.567044  1
  B  B13  1  0.500000  0.053031  0.066804  1
  B  B14  1  0.500000  0.946314  0.932992  1
  B  B15  1  0.500000  0.748698  0.418870  1
  B  B16  1  0.500000  0.250993  0.581553  1
  B  B17  1  0.500000  0.249139  0.081103  1
  B  B18  1  0.500000  0.751345  0.918549  1
  B  B19  1  0.500000  0.791784  0.265519  1
  B  B20  1  0.500000  0.208390  0.735064  1
  B  B21  1  0.500000  0.291565  0.234330  1
  B  B22  1  0.500000  0.709074  0.765369  1
  B  B23  1  0.500000  0.631192  0.185521  1
  B  B24  1  0.500000  0.368809  0.814963  1
  B  B25  1  0.500000  0.130374  0.313925  1
  B  B26  1  0.500000  0.868887  0.685749  1
  B  B27  1  0.500000  0.981710  0.211769  1
  B  B28  1  0.500000  0.017054  0.788228  1
  B  B29  1  0.500000  0.482462  0.287786  1
  B  B30  1  0.500000  0.517792  0.711856  1
  B  B31  1  0.500000  0.602080  0.028166  1
  B  B32  1  0.500000  0.398922  0.971637  1
  B  B33  1  0.500000  0.101369  0.471865  1
  B  B34  1  0.500000  0.898243  0.528690  1
  Os  Os35  1  0.000000  0.861835  0.821181  1
