# generated using pymatgen
data_Tb3DyAl18(Pt2Rh)2
_symmetry_space_group_name_H-M   'P 1'
_cell_length_a   7.62802697
_cell_length_b   7.62816762
_cell_length_c   9.43332100
_cell_angle_alpha   90.00000000
_cell_angle_beta   90.00000000
_cell_angle_gamma   119.75318125
_symmetry_Int_Tables_number   1
_chemical_formula_structural   Tb3DyAl18(Pt2Rh)2
_chemical_formula_sum   'Tb3 Dy1 Al18 Pt4 Rh2'
_cell_volume   476.54340719
_cell_formula_units_Z   1
loop_
 _symmetry_equiv_pos_site_id
 _symmetry_equiv_pos_as_xyz
  1  'x, y, z'
loop_
 _atom_site_type_symbol
 _atom_site_label
 _atom_site_symmetry_multiplicity
 _atom_site_fract_x
 _atom_site_fract_y
 _atom_site_fract_z
 _atom_site_occupancy
  Tb  Tb0  1  0.993902  0.666463  0.750000  1
  Tb  Tb1  1  0.006129  0.333456  0.250000  1
  Tb  Tb2  1  0.666394  0.993738  0.750000  1
  Dy  Dy3  1  0.333377  0.006153  0.250000  1
  Al  Al4  1  0.123452  0.123329  0.750000  1
  Al  Al5  1  0.876722  0.876586  0.250000  1
  Al  Al6  1  0.999998  0.329746  0.575708  1
  Al  Al7  1  0.000331  0.670436  0.423757  1
  Al  Al8  1  0.000331  0.670436  0.076243  1
  Al  Al9  1  0.329761  0.000017  0.924485  1
  Al  Al10  1  0.999998  0.329746  0.924292  1
  Al  Al11  1  0.669974  0.000098  0.076242  1
  Al  Al12  1  0.669974  0.000098  0.423758  1
  Al  Al13  1  0.329761  0.000017  0.575515  1
  Al  Al14  1  0.329268  0.329107  0.056187  1
  Al  Al15  1  0.670913  0.670875  0.944796  1
  Al  Al16  1  0.670913  0.670875  0.555204  1
  Al  Al17  1  0.329268  0.329107  0.443813  1
  Al  Al18  1  0.339976  0.544868  0.750000  1
  Al  Al19  1  0.659731  0.454485  0.250000  1
  Al  Al20  1  0.544936  0.339891  0.750000  1
  Al  Al21  1  0.454610  0.660059  0.250000  1
  Pt  Pt22  1  0.672286  0.327555  0.499958  1
  Pt  Pt23  1  0.327649  0.672460  0.499997  1
  Pt  Pt24  1  0.327649  0.672460  0.000003  1
  Pt  Pt25  1  0.672286  0.327555  0.000042  1
  Rh  Rh26  1  0.000205  0.000190  0.499726  1
  Rh  Rh27  1  0.000205  0.000190  0.000274  1
