# generated using pymatgen
data_Sm4Lu6Ga3Sn5
_symmetry_space_group_name_H-M   'P 1'
_cell_length_a   7.65668700
_cell_length_b   8.12107100
_cell_length_c   15.27620700
_cell_angle_alpha   90.00000000
_cell_angle_beta   90.00000000
_cell_angle_gamma   90.00000000
_symmetry_Int_Tables_number   1
_chemical_formula_structural   Sm4Lu6Ga3Sn5
_chemical_formula_sum   'Sm8 Lu12 Ga6 Sn10'
_cell_volume   949.88217030
_cell_formula_units_Z   2
loop_
 _symmetry_equiv_pos_site_id
 _symmetry_equiv_pos_as_xyz
  1  'x, y, z'
loop_
 _atom_site_type_symbol
 _atom_site_label
 _atom_site_symmetry_multiplicity
 _atom_site_fract_x
 _atom_site_fract_y
 _atom_site_fract_z
 _atom_site_occupancy
  Sm  Sm0  1  0.503206  0.317149  0.899164  1
  Sm  Sm1  1  0.003206  0.182851  0.600836  1
  Sm  Sm2  1  0.497223  0.678037  0.405391  1
  Sm  Sm3  1  0.997223  0.821963  0.094609  1
  Sm  Sm4  1  0.497223  0.678037  0.094609  1
  Sm  Sm5  1  0.997223  0.821963  0.405391  1
  Sm  Sm6  1  0.503206  0.317149  0.600836  1
  Sm  Sm7  1  0.003206  0.182851  0.899164  1
  Lu  Lu8  1  0.341162  0.830442  0.866808  1
  Lu  Lu9  1  0.841162  0.669558  0.633192  1
  Lu  Lu10  1  0.659295  0.172605  0.371691  1
  Lu  Lu11  1  0.159295  0.327395  0.128309  1
  Lu  Lu12  1  0.659295  0.172605  0.128309  1
  Lu  Lu13  1  0.159295  0.327395  0.371691  1
  Lu  Lu14  1  0.341162  0.830442  0.633192  1
  Lu  Lu15  1  0.841162  0.669558  0.866808  1
  Lu  Lu16  1  0.184103  0.488482  0.750000  1
  Lu  Lu17  1  0.684103  0.011518  0.750000  1
  Lu  Lu18  1  0.812589  0.495671  0.250000  1
  Lu  Lu19  1  0.312589  0.004329  0.250000  1
  Ga  Ga20  1  0.543950  0.609722  0.750000  1
  Ga  Ga21  1  0.043950  0.890278  0.750000  1
  Ga  Ga22  1  0.457593  0.376828  0.250000  1
  Ga  Ga23  1  0.957593  0.123172  0.250000  1
  Ga  Ga24  1  0.296615  0.128566  0.750000  1
  Ga  Ga25  1  0.796615  0.371434  0.750000  1
  Sn  Sn26  1  0.320066  0.038025  0.036811  1
  Sn  Sn27  1  0.820066  0.461975  0.463189  1
  Sn  Sn28  1  0.682400  0.960191  0.539779  1
  Sn  Sn29  1  0.182400  0.539809  0.960221  1
  Sn  Sn30  1  0.682400  0.960191  0.960221  1
  Sn  Sn31  1  0.182400  0.539809  0.539779  1
  Sn  Sn32  1  0.320066  0.038025  0.463189  1
  Sn  Sn33  1  0.820066  0.461975  0.036811  1
  Sn  Sn34  1  0.698447  0.864927  0.250000  1
  Sn  Sn35  1  0.198447  0.635073  0.250000  1
