# generated using pymatgen
data_Tm3GaSiRh2
_symmetry_space_group_name_H-M   'P 1'
_cell_length_a   5.45315600
_cell_length_b   7.87594300
_cell_length_c   13.07153800
_cell_angle_alpha   90.00000000
_cell_angle_beta   90.00000000
_cell_angle_gamma   90.00000000
_symmetry_Int_Tables_number   1
_chemical_formula_structural   Tm3GaSiRh2
_chemical_formula_sum   'Tm12 Ga4 Si4 Rh8'
_cell_volume   561.40616312
_cell_formula_units_Z   4
loop_
 _symmetry_equiv_pos_site_id
 _symmetry_equiv_pos_as_xyz
  1  'x, y, z'
loop_
 _atom_site_type_symbol
 _atom_site_label
 _atom_site_symmetry_multiplicity
 _atom_site_fract_x
 _atom_site_fract_y
 _atom_site_fract_z
 _atom_site_occupancy
  Tm  Tm0  1  0.634072  0.260903  0.250000  1
  Tm  Tm1  1  0.365928  0.739097  0.750000  1
  Tm  Tm2  1  0.365928  0.760903  0.250000  1
  Tm  Tm3  1  0.634072  0.239097  0.750000  1
  Tm  Tm4  1  0.150413  0.400082  0.101914  1
  Tm  Tm5  1  0.849587  0.599918  0.898086  1
  Tm  Tm6  1  0.849587  0.599918  0.601914  1
  Tm  Tm7  1  0.849587  0.900082  0.398086  1
  Tm  Tm8  1  0.150413  0.400082  0.398086  1
  Tm  Tm9  1  0.150413  0.099918  0.601914  1
  Tm  Tm10  1  0.150413  0.099918  0.898086  1
  Tm  Tm11  1  0.849587  0.900082  0.101914  1
  Ga  Ga12  1  0.643560  0.250000  0.000000  1
  Ga  Ga13  1  0.356440  0.750000  0.000000  1
  Ga  Ga14  1  0.356440  0.750000  0.500000  1
  Ga  Ga15  1  0.643560  0.250000  0.500000  1
  Si  Si16  1  0.132110  0.115195  0.250000  1
  Si  Si17  1  0.867890  0.884805  0.750000  1
  Si  Si18  1  0.867890  0.615195  0.250000  1
  Si  Si19  1  0.132110  0.384805  0.750000  1
  Rh  Rh20  1  0.356843  0.032717  0.095999  1
  Rh  Rh21  1  0.643157  0.967283  0.904001  1
  Rh  Rh22  1  0.643157  0.967283  0.595999  1
  Rh  Rh23  1  0.643157  0.532717  0.404001  1
  Rh  Rh24  1  0.356843  0.032717  0.404001  1
  Rh  Rh25  1  0.356843  0.467283  0.595999  1
  Rh  Rh26  1  0.356843  0.467283  0.904001  1
  Rh  Rh27  1  0.643157  0.532717  0.095999  1
