# generated using pymatgen
data_DyEr2Si3Ru2
_symmetry_space_group_name_H-M   'P 1'
_cell_length_a   5.70879131
_cell_length_b   5.70879099
_cell_length_c   13.72890200
_cell_angle_alpha   90.00000000
_cell_angle_beta   90.00000000
_cell_angle_gamma   137.22951139
_symmetry_Int_Tables_number   1
_chemical_formula_structural   DyEr2Si3Ru2
_chemical_formula_sum   'Dy2 Er4 Si6 Ru4'
_cell_volume   303.83259965
_cell_formula_units_Z   2
loop_
 _symmetry_equiv_pos_site_id
 _symmetry_equiv_pos_as_xyz
  1  'x, y, z'
loop_
 _atom_site_type_symbol
 _atom_site_label
 _atom_site_symmetry_multiplicity
 _atom_site_fract_x
 _atom_site_fract_y
 _atom_site_fract_z
 _atom_site_occupancy
  Dy  Dy0  1  0.640330  0.359670  0.250000  1
  Dy  Dy1  1  0.359670  0.640330  0.750000  1
  Er  Er2  1  0.922892  0.077108  0.114307  1
  Er  Er3  1  0.077108  0.922892  0.885693  1
  Er  Er4  1  0.077108  0.922892  0.614307  1
  Er  Er5  1  0.922892  0.077108  0.385693  1
  Si  Si6  1  0.329473  0.670527  0.250000  1
  Si  Si7  1  0.670527  0.329473  0.750000  1
  Si  Si8  1  0.616628  0.383372  0.038142  1
  Si  Si9  1  0.383372  0.616628  0.961858  1
  Si  Si10  1  0.383372  0.616628  0.538142  1
  Si  Si11  1  0.616628  0.383372  0.461858  1
  Ru  Ru12  1  0.787191  0.212809  0.581294  1
  Ru  Ru13  1  0.212809  0.787191  0.418706  1
  Ru  Ru14  1  0.212809  0.787191  0.081294  1
  Ru  Ru15  1  0.787191  0.212809  0.918706  1
