# generated using pymatgen
data_Dy5Tm11Tl3In(PdRh)2
_symmetry_space_group_name_H-M   'P 1'
_cell_length_a   9.58661756
_cell_length_b   9.58326996
_cell_length_c   9.58127200
_cell_angle_alpha   60.01142474
_cell_angle_beta   59.91301861
_cell_angle_gamma   59.93939984
_symmetry_Int_Tables_number   1
_chemical_formula_structural   Dy5Tm11Tl3In(PdRh)2
_chemical_formula_sum   'Dy5 Tm11 Tl3 In1 Pd2 Rh2'
_cell_volume   621.78373862
_cell_formula_units_Z   1
loop_
 _symmetry_equiv_pos_site_id
 _symmetry_equiv_pos_as_xyz
  1  'x, y, z'
loop_
 _atom_site_type_symbol
 _atom_site_label
 _atom_site_symmetry_multiplicity
 _atom_site_fract_x
 _atom_site_fract_y
 _atom_site_fract_z
 _atom_site_occupancy
  Dy  Dy0  1  0.061115  0.061275  0.438551  1
  Dy  Dy1  1  0.434471  0.064450  0.437646  1
  Dy  Dy2  1  0.062865  0.435828  0.061312  1
  Dy  Dy3  1  0.059104  0.641516  0.649153  1
  Dy  Dy4  1  0.435265  0.435424  0.064589  1
  Tm  Tm5  1  0.641363  0.058954  0.647773  1
  Tm  Tm6  1  0.191898  0.811882  0.184048  1
  Tm  Tm7  1  0.187577  0.186964  0.813641  1
  Tm  Tm8  1  0.811919  0.811559  0.188707  1
  Tm  Tm9  1  0.439152  0.058894  0.057607  1
  Tm  Tm10  1  0.811955  0.191829  0.184126  1
  Tm  Tm11  1  0.060779  0.437293  0.440836  1
  Tm  Tm12  1  0.810787  0.192644  0.812936  1
  Tm  Tm13  1  0.192136  0.811701  0.813698  1
  Tm  Tm14  1  0.646306  0.645101  0.053816  1
  Tm  Tm15  1  0.647886  0.649664  0.655708  1
  Tl  Tl16  1  0.413894  0.413294  0.414277  1
  Tl  Tl17  1  0.757319  0.415100  0.415705  1
  Tl  Tl18  1  0.416160  0.756779  0.414399  1
  In  In19  1  0.419148  0.415749  0.749907  1
  Pd  Pd20  1  0.857028  0.857695  0.430244  1
  Pd  Pd21  1  0.853412  0.857852  0.856554  1
  Rh  Rh22  1  0.429923  0.859897  0.858018  1
  Rh  Rh23  1  0.858537  0.428654  0.856747  1
