# generated using pymatgen
data_Er4Th6IrOs5
_symmetry_space_group_name_H-M   'P 1'
_cell_length_a   6.33084500
_cell_length_b   8.37400001
_cell_length_c   8.37774500
_cell_angle_alpha   120.01655695
_cell_angle_beta   89.99989319
_cell_angle_gamma   89.99964784
_symmetry_Int_Tables_number   1
_chemical_formula_structural   Er4Th6IrOs5
_chemical_formula_sum   'Er4 Th6 Ir1 Os5'
_cell_volume   384.57400563
_cell_formula_units_Z   1
loop_
 _symmetry_equiv_pos_site_id
 _symmetry_equiv_pos_as_xyz
  1  'x, y, z'
loop_
 _atom_site_type_symbol
 _atom_site_label
 _atom_site_symmetry_multiplicity
 _atom_site_fract_x
 _atom_site_fract_y
 _atom_site_fract_z
 _atom_site_occupancy
  Er  Er0  1  0.500751  0.333774  0.667184  1
  Er  Er1  1  0.500757  0.666204  0.333345  1
  Er  Er2  1  0.999252  0.666210  0.333337  1
  Er  Er3  1  0.999258  0.333782  0.667184  1
  Th  Th4  1  0.750000  0.254506  0.999472  1
  Th  Th5  1  0.750002  0.745469  0.744921  1
  Th  Th6  1  0.749999  0.000016  0.255178  1
  Th  Th7  1  0.250006  0.741507  0.995998  1
  Th  Th8  1  0.249996  0.258530  0.254542  1
  Th  Th9  1  0.250000  0.999991  0.746642  1
  Ir  Ir10  1  0.250002  0.000003  0.385070  1
  Os  Os11  1  0.749993  0.617706  0.001178  1
  Os  Os12  1  0.750001  0.382312  0.383502  1
  Os  Os13  1  0.749998  0.999999  0.617849  1
  Os  Os14  1  0.249995  0.384154  0.999386  1
  Os  Os15  1  0.249996  0.615838  0.615213  1
