# generated using pymatgen
data_Ho4Sn2Sb4Rh7
_symmetry_space_group_name_H-M   'P 1'
_cell_length_a   7.59627361
_cell_length_b   7.59627489
_cell_length_c   7.60200476
_cell_angle_alpha   109.49197551
_cell_angle_beta   109.49197798
_cell_angle_gamma   109.39913166
_symmetry_Int_Tables_number   1
_chemical_formula_structural   Ho4Sn2Sb4Rh7
_chemical_formula_sum   'Ho4 Sn2 Sb4 Rh7'
_cell_volume   337.80883915
_cell_formula_units_Z   1
loop_
 _symmetry_equiv_pos_site_id
 _symmetry_equiv_pos_as_xyz
  1  'x, y, z'
loop_
 _atom_site_type_symbol
 _atom_site_label
 _atom_site_symmetry_multiplicity
 _atom_site_fract_x
 _atom_site_fract_y
 _atom_site_fract_z
 _atom_site_occupancy
  Ho  Ho0  1  0.507337  0.999296  0.000000  1
  Ho  Ho1  1  0.000704  0.492663  0.000000  1
  Ho  Ho2  1  0.001131  0.998869  0.500000  1
  Ho  Ho3  1  0.501131  0.498869  0.500000  1
  Sn  Sn4  1  0.311060  0.996997  0.308056  1
  Sn  Sn5  1  0.003003  0.688940  0.691944  1
  Sb  Sb6  1  0.687198  0.681581  0.000000  1
  Sb  Sb7  1  0.675991  0.996852  0.672843  1
  Sb  Sb8  1  0.003148  0.324009  0.327157  1
  Sb  Sb9  1  0.318419  0.312802  0.000000  1
  Rh  Rh10  1  0.253572  0.501771  0.755343  1
  Rh  Rh11  1  0.498348  0.249146  0.747494  1
  Rh  Rh12  1  0.748603  0.251397  0.500000  1
  Rh  Rh13  1  0.498229  0.746428  0.244657  1
  Rh  Rh14  1  0.992670  0.007330  0.000000  1
  Rh  Rh15  1  0.248603  0.751397  0.500000  1
  Rh  Rh16  1  0.750854  0.501652  0.252506  1
