# generated using pymatgen
data_Ac3Nd(InSi2)2
_symmetry_space_group_name_H-M   'P 1'
_cell_length_a   4.50215500
_cell_length_b   7.95470193
_cell_length_c   15.17548484
_cell_angle_alpha   90.86798920
_cell_angle_beta   90.00000000
_cell_angle_gamma   90.00000000
_symmetry_Int_Tables_number   1
_chemical_formula_structural   Ac3Nd(InSi2)2
_chemical_formula_sum   'Ac6 Nd2 In4 Si8'
_cell_volume   543.42184343
_cell_formula_units_Z   2
loop_
 _symmetry_equiv_pos_site_id
 _symmetry_equiv_pos_as_xyz
  1  'x, y, z'
loop_
 _atom_site_type_symbol
 _atom_site_label
 _atom_site_symmetry_multiplicity
 _atom_site_fract_x
 _atom_site_fract_y
 _atom_site_fract_z
 _atom_site_occupancy
  Ac  Ac0  1  0.500000  0.749251  0.037471  1
  Ac  Ac1  1  0.500000  0.250749  0.962529  1
  Ac  Ac2  1  0.500000  0.247390  0.466735  1
  Ac  Ac3  1  0.500000  0.752610  0.533265  1
  Ac  Ac4  1  0.500000  0.615319  0.280923  1
  Ac  Ac5  1  0.500000  0.384681  0.719077  1
  Nd  Nd6  1  0.500000  0.116584  0.214809  1
  Nd  Nd7  1  0.500000  0.883416  0.785191  1
  In  In8  1  0.000000  0.947988  0.368746  1
  In  In9  1  0.000000  0.052012  0.631254  1
  In  In10  1  0.000000  0.423289  0.126247  1
  In  In11  1  0.000000  0.576711  0.873753  1
  Si  Si12  1  0.000000  0.542093  0.423222  1
  Si  Si13  1  0.000000  0.457907  0.576778  1
  Si  Si14  1  0.000000  0.056630  0.076695  1
  Si  Si15  1  0.000000  0.943370  0.923305  1
  Si  Si16  1  0.000000  0.845559  0.187502  1
  Si  Si17  1  0.000000  0.154441  0.812498  1
  Si  Si18  1  0.000000  0.315596  0.313774  1
  Si  Si19  1  0.000000  0.684404  0.686226  1
