# generated using pymatgen
data_Pr11Lu(Si7Br3)2
_symmetry_space_group_name_H-M   'P 1'
_cell_length_a   4.08890100
_cell_length_b   11.82867400
_cell_length_c   16.59672700
_cell_angle_alpha   90.00000000
_cell_angle_beta   90.00000000
_cell_angle_gamma   90.00000000
_symmetry_Int_Tables_number   1
_chemical_formula_structural   Pr11Lu(Si7Br3)2
_chemical_formula_sum   'Pr11 Lu1 Si14 Br6'
_cell_volume   802.72189450
_cell_formula_units_Z   1
loop_
 _symmetry_equiv_pos_site_id
 _symmetry_equiv_pos_as_xyz
  1  'x, y, z'
loop_
 _atom_site_type_symbol
 _atom_site_label
 _atom_site_symmetry_multiplicity
 _atom_site_fract_x
 _atom_site_fract_y
 _atom_site_fract_z
 _atom_site_occupancy
  Pr  Pr0  1  0.500000  0.342560  0.500000  1
  Pr  Pr1  1  0.000000  0.658358  0.000000  1
  Pr  Pr2  1  0.500000  0.360386  0.754862  1
  Pr  Pr3  1  0.000000  0.640706  0.741665  1
  Pr  Pr4  1  0.500000  0.360386  0.245138  1
  Pr  Pr5  1  0.000000  0.640706  0.258335  1
  Pr  Pr6  1  0.500000  0.065273  0.879875  1
  Pr  Pr7  1  0.000000  0.932124  0.618806  1
  Pr  Pr8  1  0.500000  0.065273  0.120125  1
  Pr  Pr9  1  0.000000  0.932124  0.381194  1
  Pr  Pr10  1  0.500000  0.356110  0.000000  1
  Lu  Lu11  1  0.000000  0.645953  0.500000  1
  Si  Si12  1  0.000000  0.151636  0.000000  1
  Si  Si13  1  0.500000  0.845042  0.500000  1
  Si  Si14  1  0.500000  0.567800  0.875769  1
  Si  Si15  1  0.000000  0.436751  0.620868  1
  Si  Si16  1  0.500000  0.567800  0.124231  1
  Si  Si17  1  0.000000  0.436751  0.379132  1
  Si  Si18  1  0.000000  0.253580  0.873598  1
  Si  Si19  1  0.500000  0.743477  0.623300  1
  Si  Si20  1  0.000000  0.253580  0.126402  1
  Si  Si21  1  0.500000  0.743477  0.376700  1
  Si  Si22  1  0.000000  0.457987  0.876475  1
  Si  Si23  1  0.500000  0.543660  0.617986  1
  Si  Si24  1  0.500000  0.543660  0.382014  1
  Si  Si25  1  0.000000  0.457987  0.123525  1
  Br  Br26  1  0.500000  0.108847  0.692097  1
  Br  Br27  1  0.000000  0.889731  0.806786  1
  Br  Br28  1  0.000000  0.138535  0.500000  1
  Br  Br29  1  0.500000  0.861161  0.000000  1
  Br  Br30  1  0.500000  0.108847  0.307903  1
  Br  Br31  1  0.000000  0.889731  0.193214  1
