# generated using pymatgen
data_Ti10BeSiSb4
_symmetry_space_group_name_H-M   'P 1'
_cell_length_a   5.08456542
_cell_length_b   7.79112342
_cell_length_c   7.79112405
_cell_angle_alpha   83.88785321
_cell_angle_beta   70.95534812
_cell_angle_gamma   70.95535044
_symmetry_Int_Tables_number   1
_chemical_formula_structural   Ti10BeSiSb4
_chemical_formula_sum   'Ti10 Be1 Si1 Sb4'
_cell_volume   275.77875419
_cell_formula_units_Z   1
loop_
 _symmetry_equiv_pos_site_id
 _symmetry_equiv_pos_as_xyz
  1  'x, y, z'
loop_
 _atom_site_type_symbol
 _atom_site_label
 _atom_site_symmetry_multiplicity
 _atom_site_fract_x
 _atom_site_fract_y
 _atom_site_fract_z
 _atom_site_occupancy
  Ti  Ti0  1  0.250000  0.500000  0.500000  1
  Ti  Ti1  1  0.750000  0.500000  0.500000  1
  Ti  Ti2  1  0.074173  0.135814  0.720343  1
  Ti  Ti3  1  0.930329  0.864186  0.279657  1
  Ti  Ti4  1  0.794516  0.279657  0.135814  1
  Ti  Ti5  1  0.425827  0.279657  0.864186  1
  Ti  Ti6  1  0.209986  0.720343  0.864186  1
  Ti  Ti7  1  0.569671  0.720343  0.135814  1
  Ti  Ti8  1  0.705484  0.864186  0.720343  1
  Ti  Ti9  1  0.290014  0.135814  0.279657  1
  Be  Be10  1  0.250000  0.000000  0.000000  1
  Si  Si11  1  0.750000  0.000000  0.000000  1
  Sb  Sb12  1  0.164431  0.500000  0.171137  1
  Sb  Sb13  1  0.835569  0.500000  0.828863  1
  Sb  Sb14  1  0.335569  0.828863  0.500000  1
  Sb  Sb15  1  0.664431  0.171137  0.500000  1
