# generated using pymatgen
data_PAuIF3
_symmetry_space_group_name_H-M   'P 1'
_cell_length_a   5.11649500
_cell_length_b   6.11999400
_cell_length_c   19.71006700
_cell_angle_alpha   90.00000000
_cell_angle_beta   90.00000000
_cell_angle_gamma   90.00000000
_symmetry_Int_Tables_number   1
_chemical_formula_structural   PAuIF3
_chemical_formula_sum   'P4 Au4 I4 F12'
_cell_volume   617.17972556
_cell_formula_units_Z   4
loop_
 _symmetry_equiv_pos_site_id
 _symmetry_equiv_pos_as_xyz
  1  'x, y, z'
loop_
 _atom_site_type_symbol
 _atom_site_label
 _atom_site_symmetry_multiplicity
 _atom_site_fract_x
 _atom_site_fract_y
 _atom_site_fract_z
 _atom_site_occupancy
  P  P0  1  0.523579  0.750000  0.649057  1
  P  P1  1  0.023579  0.250000  0.850943  1
  P  P2  1  0.976421  0.750000  0.149057  1
  P  P3  1  0.476421  0.250000  0.350943  1
  Au  Au4  1  0.143967  0.250000  0.959632  1
  Au  Au5  1  0.643967  0.750000  0.540368  1
  Au  Au6  1  0.856033  0.750000  0.040368  1
  Au  Au7  1  0.356033  0.250000  0.459632  1
  I  I8  1  0.142070  0.250000  0.578241  1
  I  I9  1  0.857930  0.750000  0.421759  1
  I  I10  1  0.357930  0.250000  0.078241  1
  I  I11  1  0.642070  0.750000  0.921759  1
  F  F12  1  0.129181  0.444661  0.806966  1
  F  F13  1  0.731317  0.250000  0.827073  1
  F  F14  1  0.370819  0.055339  0.306966  1
  F  F15  1  0.370819  0.444661  0.306966  1
  F  F16  1  0.629181  0.555339  0.693034  1
  F  F17  1  0.629181  0.944661  0.693034  1
  F  F18  1  0.768683  0.250000  0.327073  1
  F  F19  1  0.268683  0.750000  0.172927  1
  F  F20  1  0.870819  0.555339  0.193034  1
  F  F21  1  0.870819  0.944661  0.193034  1
  F  F22  1  0.231317  0.750000  0.672927  1
  F  F23  1  0.129181  0.055339  0.806966  1
