# generated using pymatgen
data_Yb6Pa2Pd7PtPb4
_symmetry_space_group_name_H-M   'P 1'
_cell_length_a   7.89905113
_cell_length_b   7.89905101
_cell_length_c   7.33748950
_cell_angle_alpha   90.08207469
_cell_angle_beta   89.91792293
_cell_angle_gamma   92.74571403
_symmetry_Int_Tables_number   1
_chemical_formula_structural   Yb6Pa2Pd7PtPb4
_chemical_formula_sum   'Yb6 Pa2 Pd7 Pt1 Pb4'
_cell_volume   457.29622631
_cell_formula_units_Z   1
loop_
 _symmetry_equiv_pos_site_id
 _symmetry_equiv_pos_as_xyz
  1  'x, y, z'
loop_
 _atom_site_type_symbol
 _atom_site_label
 _atom_site_symmetry_multiplicity
 _atom_site_fract_x
 _atom_site_fract_y
 _atom_site_fract_z
 _atom_site_occupancy
  Yb  Yb0  1  0.664298  0.666951  0.999186  1
  Yb  Yb1  1  0.833168  0.166832  0.499197  1
  Yb  Yb2  1  0.333049  0.335702  0.999186  1
  Yb  Yb3  1  0.168471  0.831529  0.500946  1
  Yb  Yb4  1  0.828772  0.171228  0.000858  1
  Yb  Yb5  1  0.174654  0.825346  0.996856  1
  Pa  Pa6  1  0.321832  0.326922  0.501697  1
  Pa  Pa7  1  0.673078  0.678168  0.501697  1
  Pd  Pd8  1  0.868453  0.868599  0.743033  1
  Pd  Pd9  1  0.131401  0.131547  0.743033  1
  Pd  Pd10  1  0.628312  0.371688  0.729818  1
  Pd  Pd11  1  0.621141  0.378859  0.274414  1
  Pd  Pd12  1  0.376816  0.623184  0.268375  1
  Pd  Pd13  1  0.132810  0.131305  0.257790  1
  Pd  Pd14  1  0.868695  0.867190  0.257790  1
  Pt  Pt15  1  0.382117  0.617883  0.723209  1
  Pb  Pb16  1  0.499850  0.005294  0.752539  1
  Pb  Pb17  1  0.499459  0.001083  0.248919  1
  Pb  Pb18  1  0.994706  0.500150  0.752539  1
  Pb  Pb19  1  0.998917  0.500541  0.248919  1
