# generated using pymatgen
data_Pr3Nd5Cd2CoPt
_symmetry_space_group_name_H-M   'P 1'
_cell_length_a   9.98228466
_cell_length_b   9.98228482
_cell_length_c   9.98325800
_cell_angle_alpha   59.99677497
_cell_angle_beta   59.99677444
_cell_angle_gamma   60.23421706
_symmetry_Int_Tables_number   1
_chemical_formula_structural   Pr3Nd5Cd2CoPt
_chemical_formula_sum   'Pr6 Nd10 Cd4 Co2 Pt2'
_cell_volume   704.62622910
_cell_formula_units_Z   2
loop_
 _symmetry_equiv_pos_site_id
 _symmetry_equiv_pos_as_xyz
  1  'x, y, z'
loop_
 _atom_site_type_symbol
 _atom_site_label
 _atom_site_symmetry_multiplicity
 _atom_site_fract_x
 _atom_site_fract_y
 _atom_site_fract_z
 _atom_site_occupancy
  Pr  Pr0  1  0.937530  0.561374  0.563092  1
  Pr  Pr1  1  0.561374  0.937530  0.938004  1
  Pr  Pr2  1  0.561374  0.937530  0.563092  1
  Pr  Pr3  1  0.937530  0.561374  0.938004  1
  Pr  Pr4  1  0.559779  0.559779  0.940221  1
  Pr  Pr5  1  0.935971  0.935971  0.564029  1
  Nd  Nd6  1  0.344518  0.344518  0.357530  1
  Nd  Nd7  1  0.344518  0.344518  0.953436  1
  Nd  Nd8  1  0.340182  0.958866  0.350476  1
  Nd  Nd9  1  0.958866  0.340182  0.350476  1
  Nd  Nd10  1  0.819709  0.189412  0.189212  1
  Nd  Nd11  1  0.189412  0.819709  0.801666  1
  Nd  Nd12  1  0.189412  0.819709  0.189212  1
  Nd  Nd13  1  0.819709  0.189412  0.801666  1
  Nd  Nd14  1  0.188304  0.188304  0.811696  1
  Nd  Nd15  1  0.808409  0.808409  0.191591  1
  Cd  Cd16  1  0.579658  0.579658  0.578931  1
  Cd  Cd17  1  0.579658  0.579658  0.261750  1
  Cd  Cd18  1  0.580879  0.260073  0.579523  1
  Cd  Cd19  1  0.260073  0.580879  0.579523  1
  Co  Co20  1  0.142347  0.142347  0.141330  1
  Co  Co21  1  0.142347  0.142347  0.573975  1
  Pt  Pt22  1  0.144806  0.573632  0.140781  1
  Pt  Pt23  1  0.573632  0.144806  0.140781  1
