# generated using pymatgen
data_Dy4TcOs5Ru2
_symmetry_space_group_name_H-M   'P 1'
_cell_length_a   5.35209639
_cell_length_b   5.21461421
_cell_length_c   9.07464400
_cell_angle_alpha   90.00000000
_cell_angle_beta   90.00000000
_cell_angle_gamma   120.61744447
_symmetry_Int_Tables_number   1
_chemical_formula_structural   Dy4TcOs5Ru2
_chemical_formula_sum   'Dy4 Tc1 Os5 Ru2'
_cell_volume   217.95683358
_cell_formula_units_Z   1
loop_
 _symmetry_equiv_pos_site_id
 _symmetry_equiv_pos_as_xyz
  1  'x, y, z'
loop_
 _atom_site_type_symbol
 _atom_site_label
 _atom_site_symmetry_multiplicity
 _atom_site_fract_x
 _atom_site_fract_y
 _atom_site_fract_z
 _atom_site_occupancy
  Dy  Dy0  1  0.668768  0.336485  0.565599  1
  Dy  Dy1  1  0.332498  0.665634  0.433841  1
  Dy  Dy2  1  0.332498  0.665634  0.066159  1
  Dy  Dy3  1  0.668768  0.336485  0.934401  1
  Tc  Tc4  1  0.167116  0.332858  0.750000  1
  Os  Os5  1  0.170532  0.828595  0.750000  1
  Os  Os6  1  0.655602  0.827055  0.750000  1
  Os  Os7  1  0.830363  0.660336  0.250000  1
  Os  Os8  1  0.829339  0.168325  0.250000  1
  Os  Os9  1  0.342475  0.169935  0.250000  1
  Ru  Ru10  1  0.001020  0.004329  0.499253  1
  Ru  Ru11  1  0.001020  0.004329  0.000747  1
