# generated using pymatgen
data_TbDy(Al2Co)2
_symmetry_space_group_name_H-M   'P 1'
_cell_length_a   5.43940606
_cell_length_b   5.43940571
_cell_length_c   7.04223400
_cell_angle_alpha   90.00000000
_cell_angle_beta   90.00000000
_cell_angle_gamma   136.96138347
_symmetry_Int_Tables_number   1
_chemical_formula_structural   TbDy(Al2Co)2
_chemical_formula_sum   'Tb1 Dy1 Al4 Co2'
_cell_volume   142.20353566
_cell_formula_units_Z   1
loop_
 _symmetry_equiv_pos_site_id
 _symmetry_equiv_pos_as_xyz
  1  'x, y, z'
loop_
 _atom_site_type_symbol
 _atom_site_label
 _atom_site_symmetry_multiplicity
 _atom_site_fract_x
 _atom_site_fract_y
 _atom_site_fract_z
 _atom_site_occupancy
  Tb  Tb0  1  0.940989  0.059011  0.750000  1
  Dy  Dy1  1  0.059001  0.940999  0.250000  1
  Al  Al2  1  0.661200  0.338800  0.944902  1
  Al  Al3  1  0.338855  0.661145  0.055977  1
  Al  Al4  1  0.338855  0.661145  0.444023  1
  Al  Al5  1  0.661200  0.338800  0.555098  1
  Co  Co6  1  0.217479  0.782521  0.750000  1
  Co  Co7  1  0.782421  0.217579  0.250000  1
