# generated using pymatgen
data_Gd3Dy2(TcO6)2
_symmetry_space_group_name_H-M   'P 1'
_cell_length_a   6.88606843
_cell_length_b   6.88606810
_cell_length_c   7.61311522
_cell_angle_alpha   73.75104330
_cell_angle_beta   73.75104330
_cell_angle_gamma   48.83324807
_symmetry_Int_Tables_number   1
_chemical_formula_structural   Gd3Dy2(TcO6)2
_chemical_formula_sum   'Gd3 Dy2 Tc2 O12'
_cell_volume   258.60917190
_cell_formula_units_Z   1
loop_
 _symmetry_equiv_pos_site_id
 _symmetry_equiv_pos_as_xyz
  1  'x, y, z'
loop_
 _atom_site_type_symbol
 _atom_site_label
 _atom_site_symmetry_multiplicity
 _atom_site_fract_x
 _atom_site_fract_y
 _atom_site_fract_z
 _atom_site_occupancy
  Gd  Gd0  1  0.194361  0.194361  0.643253  1
  Gd  Gd1  1  0.184818  0.184818  0.174040  1
  Gd  Gd2  1  0.499886  0.499886  0.500126  1
  Dy  Dy3  1  0.805500  0.805500  0.357130  1
  Dy  Dy4  1  0.815260  0.815260  0.824836  1
  Tc  Tc5  1  0.713702  0.286037  0.999979  1
  Tc  Tc6  1  0.286037  0.713702  0.999979  1
  O  O7  1  0.415941  0.911259  0.917001  1
  O  O8  1  0.911259  0.415941  0.917001  1
  O  O9  1  0.906104  0.406063  0.424634  1
  O  O10  1  0.406063  0.906104  0.424634  1
  O  O11  1  0.500878  0.500878  0.202208  1
  O  O12  1  0.997665  0.997665  0.176113  1
  O  O13  1  0.999726  0.999726  0.824823  1
  O  O14  1  0.498342  0.498342  0.798198  1
  O  O15  1  0.084165  0.589137  0.082896  1
  O  O16  1  0.589137  0.084165  0.082896  1
  O  O17  1  0.090417  0.600739  0.575127  1
  O  O18  1  0.600739  0.090417  0.575127  1
