# generated using pymatgen
data_La2InHg3Pd2
_symmetry_space_group_name_H-M   'P 1'
_cell_length_a   5.59516287
_cell_length_b   5.59516264
_cell_length_c   8.60692697
_cell_angle_alpha   90.13216326
_cell_angle_beta   89.86783702
_cell_angle_gamma   134.50885445
_symmetry_Int_Tables_number   1
_chemical_formula_structural   La2InHg3Pd2
_chemical_formula_sum   'La2 In1 Hg3 Pd2'
_cell_volume   192.15349900
_cell_formula_units_Z   1
loop_
 _symmetry_equiv_pos_site_id
 _symmetry_equiv_pos_as_xyz
  1  'x, y, z'
loop_
 _atom_site_type_symbol
 _atom_site_label
 _atom_site_symmetry_multiplicity
 _atom_site_fract_x
 _atom_site_fract_y
 _atom_site_fract_z
 _atom_site_occupancy
  La  La0  1  0.429267  0.570733  0.262631  1
  La  La1  1  0.568347  0.431653  0.743783  1
  In  In2  1  0.149541  0.850459  0.047550  1
  Hg  Hg3  1  0.855682  0.144318  0.548038  1
  Hg  Hg4  1  0.139901  0.860099  0.451665  1
  Hg  Hg5  1  0.867864  0.132136  0.950789  1
  Pd  Pd6  1  0.275839  0.724161  0.753856  1
  Pd  Pd7  1  0.713560  0.286440  0.241687  1
