# generated using pymatgen
data_Ho3Lu(Si2Tc)2
_symmetry_space_group_name_H-M   'P 1'
_cell_length_a   5.75743848
_cell_length_b   5.75743870
_cell_length_c   10.01276804
_cell_angle_alpha   63.80535273
_cell_angle_beta   63.80535326
_cell_angle_gamma   42.54287768
_symmetry_Int_Tables_number   1
_chemical_formula_structural   Ho3Lu(Si2Tc)2
_chemical_formula_sum   'Ho3 Lu1 Si4 Tc2'
_cell_volume   197.63935773
_cell_formula_units_Z   1
loop_
 _symmetry_equiv_pos_site_id
 _symmetry_equiv_pos_as_xyz
  1  'x, y, z'
loop_
 _atom_site_type_symbol
 _atom_site_label
 _atom_site_symmetry_multiplicity
 _atom_site_fract_x
 _atom_site_fract_y
 _atom_site_fract_z
 _atom_site_occupancy
  Ho  Ho0  1  0.995075  0.995075  0.676886  1
  Ho  Ho1  1  0.811751  0.811751  0.109678  1
  Ho  Ho2  1  0.187939  0.187939  0.891318  1
  Lu  Lu3  1  0.003494  0.003494  0.324229  1
  Si  Si4  1  0.641233  0.641233  0.439182  1
  Si  Si5  1  0.358921  0.358921  0.559769  1
  Si  Si6  1  0.502370  0.502370  0.123220  1
  Si  Si7  1  0.498396  0.498396  0.878223  1
  Tc  Tc8  1  0.728768  0.728768  0.628575  1
  Tc  Tc9  1  0.272050  0.272050  0.368919  1
