# generated using pymatgen
data_TbLuAs4O9
_symmetry_space_group_name_H-M   'P 1'
_cell_length_a   6.69994860
_cell_length_b   7.49849187
_cell_length_c   9.80535240
_cell_angle_alpha   94.22903003
_cell_angle_beta   103.87089910
_cell_angle_gamma   105.10468916
_symmetry_Int_Tables_number   1
_chemical_formula_structural   TbLuAs4O9
_chemical_formula_sum   'Tb2 Lu2 As8 O18'
_cell_volume   456.82583729
_cell_formula_units_Z   2
loop_
 _symmetry_equiv_pos_site_id
 _symmetry_equiv_pos_as_xyz
  1  'x, y, z'
loop_
 _atom_site_type_symbol
 _atom_site_label
 _atom_site_symmetry_multiplicity
 _atom_site_fract_x
 _atom_site_fract_y
 _atom_site_fract_z
 _atom_site_occupancy
  Tb  Tb0  1  0.241579  0.937779  0.613795  1
  Tb  Tb1  1  0.758421  0.062221  0.386205  1
  Lu  Lu2  1  0.719392  0.527550  0.409836  1
  Lu  Lu3  1  0.280608  0.472450  0.590164  1
  As  As4  1  0.683743  0.772351  0.081165  1
  As  As5  1  0.316257  0.227649  0.918835  1
  As  As6  1  0.170220  0.750589  0.913203  1
  As  As7  1  0.829780  0.249411  0.086797  1
  As  As8  1  0.741963  0.911579  0.709990  1
  As  As9  1  0.258037  0.088421  0.290010  1
  As  As10  1  0.810115  0.353491  0.700343  1
  As  As11  1  0.189885  0.646509  0.299657  1
  O  O12  1  0.718831  0.742179  0.261076  1
  O  O13  1  0.281169  0.257821  0.738924  1
  O  O14  1  0.315021  0.979404  0.868554  1
  O  O15  1  0.684979  0.020596  0.131446  1
  O  O16  1  0.607568  0.326387  0.985032  1
  O  O17  1  0.392432  0.673613  0.014968  1
  O  O18  1  0.127534  0.643111  0.739298  1
  O  O19  1  0.872466  0.356889  0.260702  1
  O  O20  1  0.847559  0.872074  0.560702  1
  O  O21  1  0.152441  0.127926  0.439298  1
  O  O22  1  0.479361  0.762743  0.666267  1
  O  O23  1  0.520639  0.237257  0.333733  1
  O  O24  1  0.375051  0.533881  0.384674  1
  O  O25  1  0.624949  0.466119  0.615326  1
  O  O26  1  0.084429  0.664775  0.453673  1
  O  O27  1  0.915571  0.335225  0.546327  1
  O  O28  1  0.376198  0.900742  0.359557  1
  O  O29  1  0.623802  0.099258  0.640443  1
