# generated using pymatgen
data_Er16MgAg3IrRh3
_symmetry_space_group_name_H-M   'P 1'
_cell_length_a   9.47280452
_cell_length_b   9.49851928
_cell_length_c   9.49831739
_cell_angle_alpha   60.06068015
_cell_angle_beta   60.03123577
_cell_angle_gamma   60.03063500
_symmetry_Int_Tables_number   1
_chemical_formula_structural   Er16MgAg3IrRh3
_chemical_formula_sum   'Er16 Mg1 Ag3 Ir1 Rh3'
_cell_volume   604.87833582
_cell_formula_units_Z   1
loop_
 _symmetry_equiv_pos_site_id
 _symmetry_equiv_pos_as_xyz
  1  'x, y, z'
loop_
 _atom_site_type_symbol
 _atom_site_label
 _atom_site_symmetry_multiplicity
 _atom_site_fract_x
 _atom_site_fract_y
 _atom_site_fract_z
 _atom_site_occupancy
  Er  Er0  1  0.352280  0.349563  0.349609  1
  Er  Er1  1  0.350221  0.349057  0.952643  1
  Er  Er2  1  0.350192  0.952661  0.349085  1
  Er  Er3  1  0.939799  0.353309  0.353395  1
  Er  Er4  1  0.809859  0.188566  0.188565  1
  Er  Er5  1  0.185169  0.812802  0.812738  1
  Er  Er6  1  0.185485  0.813169  0.187007  1
  Er  Er7  1  0.809697  0.188125  0.810569  1
  Er  Er8  1  0.185498  0.186992  0.813151  1
  Er  Er9  1  0.809670  0.810588  0.188157  1
  Er  Er10  1  0.932914  0.564514  0.564508  1
  Er  Er11  1  0.563535  0.935902  0.935847  1
  Er  Er12  1  0.563607  0.935842  0.565308  1
  Er  Er13  1  0.934030  0.562678  0.937150  1
  Er  Er14  1  0.563601  0.565312  0.935819  1
  Er  Er15  1  0.934030  0.937180  0.562681  1
  Mg  Mg16  1  0.284973  0.572250  0.572291  1
  Ag  Ag17  1  0.582611  0.584512  0.584504  1
  Ag  Ag18  1  0.583398  0.584521  0.249034  1
  Ag  Ag19  1  0.583395  0.249036  0.584520  1
  Ir  Ir20  1  0.139984  0.143716  0.143704  1
  Rh  Rh21  1  0.141655  0.145591  0.571101  1
  Rh  Rh22  1  0.141645  0.571103  0.145601  1
  Rh  Rh23  1  0.572750  0.143009  0.143007  1
