# generated using pymatgen
data_Ca5La15(Ir5Ru)2
_symmetry_space_group_name_H-M   'P 1'
_cell_length_a   11.30331537
_cell_length_b   11.39166274
_cell_length_c   6.57875508
_cell_angle_alpha   90.12163993
_cell_angle_beta   90.28658161
_cell_angle_gamma   90.10157146
_symmetry_Int_Tables_number   1
_chemical_formula_structural   Ca5La15(Ir5Ru)2
_chemical_formula_sum   'Ca5 La15 Ir10 Ru2'
_cell_volume   847.09004914
_cell_formula_units_Z   1
loop_
 _symmetry_equiv_pos_site_id
 _symmetry_equiv_pos_as_xyz
  1  'x, y, z'
loop_
 _atom_site_type_symbol
 _atom_site_label
 _atom_site_symmetry_multiplicity
 _atom_site_fract_x
 _atom_site_fract_y
 _atom_site_fract_z
 _atom_site_occupancy
  Ca  Ca0  1  0.290059  0.088411  0.387441  1
  Ca  Ca1  1  0.004255  0.001287  0.496460  1
  Ca  Ca2  1  0.999530  0.000019  0.997562  1
  Ca  Ca3  1  0.500236  0.499915  0.994143  1
  Ca  Ca4  1  0.498640  0.501317  0.493729  1
  La  La5  1  0.293774  0.914707  0.892799  1
  La  La6  1  0.707498  0.087701  0.893446  1
  La  La7  1  0.707051  0.912832  0.395131  1
  La  La8  1  0.588451  0.791404  0.890846  1
  La  La9  1  0.582298  0.205632  0.392656  1
  La  La10  1  0.409162  0.797248  0.392047  1
  La  La11  1  0.409340  0.206652  0.893100  1
  La  La12  1  0.211340  0.407016  0.610037  1
  La  La13  1  0.212495  0.591418  0.109538  1
  La  La14  1  0.788719  0.407918  0.110365  1
  La  La15  1  0.788633  0.590561  0.609242  1
  La  La16  1  0.909316  0.711088  0.111348  1
  La  La17  1  0.907676  0.287935  0.612213  1
  La  La18  1  0.090875  0.711602  0.610820  1
  La  La19  1  0.093010  0.287716  0.111605  1
  Ir  Ir20  1  0.843172  0.159291  0.250447  1
  Ir  Ir21  1  0.846567  0.838940  0.746299  1
  Ir  Ir22  1  0.154812  0.162170  0.755549  1
  Ir  Ir23  1  0.154073  0.837165  0.244514  1
  Ir  Ir24  1  0.657178  0.341934  0.747549  1
  Ir  Ir25  1  0.659584  0.656593  0.248956  1
  Ir  Ir26  1  0.340514  0.348455  0.243358  1
  Ir  Ir27  1  0.340617  0.660158  0.746427  1
  Ir  Ir28  1  0.000232  0.499575  0.880918  1
  Ir  Ir29  1  0.999658  0.498786  0.382393  1
  Ru  Ru30  1  0.504882  0.997634  0.121058  1
  Ru  Ru31  1  0.506353  0.996919  0.627998  1
