# generated using pymatgen
data_DyTeRhO6
_symmetry_space_group_name_H-M   'P 1'
_cell_length_a   5.25916100
_cell_length_b   5.25916656
_cell_length_c   9.74730700
_cell_angle_alpha   90.00349318
_cell_angle_beta   89.99837989
_cell_angle_gamma   119.99985489
_symmetry_Int_Tables_number   1
_chemical_formula_structural   DyTeRhO6
_chemical_formula_sum   'Dy2 Te2 Rh2 O12'
_cell_volume   233.47979443
_cell_formula_units_Z   2
loop_
 _symmetry_equiv_pos_site_id
 _symmetry_equiv_pos_as_xyz
  1  'x, y, z'
loop_
 _atom_site_type_symbol
 _atom_site_label
 _atom_site_symmetry_multiplicity
 _atom_site_fract_x
 _atom_site_fract_y
 _atom_site_fract_z
 _atom_site_occupancy
  Dy  Dy0  1  0.000020  0.000039  0.999984  1
  Dy  Dy1  1  0.999983  0.000020  0.499985  1
  Te  Te2  1  0.666721  0.333324  0.249927  1
  Te  Te3  1  0.333286  0.666622  0.749944  1
  Rh  Rh4  1  0.333426  0.666554  0.250100  1
  Rh  Rh5  1  0.666543  0.333119  0.750110  1
  O  O6  1  0.649636  0.638249  0.138444  1
  O  O7  1  0.988563  0.350324  0.138428  1
  O  O8  1  0.361813  0.011513  0.138415  1
  O  O9  1  0.988563  0.638190  0.361580  1
  O  O10  1  0.361823  0.350467  0.361552  1
  O  O11  1  0.649640  0.011430  0.361573  1
  O  O12  1  0.350364  0.988615  0.638434  1
  O  O13  1  0.638196  0.649692  0.638414  1
  O  O14  1  0.011433  0.361769  0.638422  1
  O  O15  1  0.011444  0.649642  0.861573  1
  O  O16  1  0.638186  0.988633  0.861549  1
  O  O17  1  0.350362  0.361795  0.861566  1
