# generated using pymatgen
data_Y5Tm3Ta11Si16Ag
_symmetry_space_group_name_H-M   'P 1'
_cell_length_a   7.06303038
_cell_length_b   7.06382915
_cell_length_c   13.01756600
_cell_angle_alpha   89.77599379
_cell_angle_beta   90.22066501
_cell_angle_gamma   89.70977879
_symmetry_Int_Tables_number   1
_chemical_formula_structural   Y5Tm3Ta11Si16Ag
_chemical_formula_sum   'Y5 Tm3 Ta11 Si16 Ag1'
_cell_volume   649.45476005
_cell_formula_units_Z   1
loop_
 _symmetry_equiv_pos_site_id
 _symmetry_equiv_pos_as_xyz
  1  'x, y, z'
loop_
 _atom_site_type_symbol
 _atom_site_label
 _atom_site_symmetry_multiplicity
 _atom_site_fract_x
 _atom_site_fract_y
 _atom_site_fract_z
 _atom_site_occupancy
  Y  Y0  1  0.998073  0.658653  0.032767  1
  Y  Y1  1  0.999029  0.343894  0.532174  1
  Y  Y2  1  0.658420  0.998058  0.967281  1
  Y  Y3  1  0.159114  0.503549  0.782316  1
  Y  Y4  1  0.841440  0.496350  0.283498  1
  Tm  Tm5  1  0.502252  0.158344  0.217676  1
  Tm  Tm6  1  0.497245  0.842546  0.716640  1
  Tm  Tm7  1  0.344326  0.998337  0.467717  1
  Ta  Ta8  1  0.347484  0.502361  0.376967  1
  Ta  Ta9  1  0.849694  0.992188  0.375775  1
  Ta  Ta10  1  0.008645  0.152615  0.127165  1
  Ta  Ta11  1  0.992169  0.850371  0.623976  1
  Ta  Ta12  1  0.502117  0.346510  0.622637  1
  Ta  Ta13  1  0.153051  0.008132  0.872891  1
  Ta  Ta14  1  0.828666  0.172707  0.749835  1
  Ta  Ta15  1  0.173738  0.829646  0.250193  1
  Ta  Ta16  1  0.329032  0.328491  0.000135  1
  Ta  Ta17  1  0.494510  0.651271  0.123650  1
  Ta  Ta18  1  0.650917  0.494436  0.876429  1
  Si  Si19  1  0.059449  0.711448  0.435050  1
  Si  Si20  1  0.955047  0.294396  0.936680  1
  Si  Si21  1  0.708698  0.057087  0.565048  1
  Si  Si22  1  0.207649  0.454941  0.187526  1
  Si  Si23  1  0.792665  0.544780  0.689827  1
  Si  Si24  1  0.455907  0.205743  0.812264  1
  Si  Si25  1  0.543262  0.795530  0.310242  1
  Si  Si26  1  0.295300  0.955804  0.063775  1
  Si  Si27  1  0.797580  0.864992  0.183319  1
  Si  Si28  1  0.283543  0.631356  0.571281  1
  Si  Si29  1  0.704127  0.364182  0.068878  1
  Si  Si30  1  0.628096  0.280373  0.428375  1
  Si  Si31  1  0.365373  0.705402  0.931473  1
  Si  Si32  1  0.136427  0.201938  0.319170  1
  Si  Si33  1  0.204119  0.133514  0.680803  1
  Si  Si34  1  0.862999  0.798649  0.816302  1
  Ag  Ag35  1  0.669834  0.671407  0.500260  1
