# generated using pymatgen
data_Dy3YCo8(PIr)12
_symmetry_space_group_name_H-M   'P 1'
_cell_length_a   3.86409100
_cell_length_b   10.59803719
_cell_length_c   12.20356823
_cell_angle_alpha   90.02183326
_cell_angle_beta   90.00000000
_cell_angle_gamma   90.00000000
_symmetry_Int_Tables_number   1
_chemical_formula_structural   Dy3YCo8(PIr)12
_chemical_formula_sum   'Dy3 Y1 Co8 P12 Ir12'
_cell_volume   499.75780636
_cell_formula_units_Z   1
loop_
 _symmetry_equiv_pos_site_id
 _symmetry_equiv_pos_as_xyz
  1  'x, y, z'
loop_
 _atom_site_type_symbol
 _atom_site_label
 _atom_site_symmetry_multiplicity
 _atom_site_fract_x
 _atom_site_fract_y
 _atom_site_fract_z
 _atom_site_occupancy
  Dy  Dy0  1  0.250000  0.916238  0.210761  1
  Dy  Dy1  1  0.750000  0.083683  0.789194  1
  Dy  Dy2  1  0.750000  0.416327  0.289190  1
  Y  Y3  1  0.250000  0.583606  0.710906  1
  Co  Co4  1  0.250000  0.616355  0.197053  1
  Co  Co5  1  0.750000  0.383414  0.803145  1
  Co  Co6  1  0.750000  0.116478  0.303064  1
  Co  Co7  1  0.250000  0.883539  0.696848  1
  Co  Co8  1  0.250000  0.036623  0.433461  1
  Co  Co9  1  0.750000  0.963429  0.566468  1
  Co  Co10  1  0.750000  0.536508  0.066673  1
  Co  Co11  1  0.250000  0.463348  0.933733  1
  P  P12  1  0.250000  0.067475  0.610815  1
  P  P13  1  0.750000  0.932497  0.389127  1
  P  P14  1  0.750000  0.567551  0.889451  1
  P  P15  1  0.250000  0.432458  0.110936  1
  P  P16  1  0.250000  0.225671  0.370049  1
  P  P17  1  0.750000  0.774347  0.629790  1
  P  P18  1  0.750000  0.725689  0.129821  1
  P  P19  1  0.250000  0.274331  0.870072  1
  P  P20  1  0.250000  0.901879  0.876884  1
  P  P21  1  0.750000  0.098121  0.123115  1
  P  P22  1  0.750000  0.401844  0.622941  1
  P  P23  1  0.250000  0.598083  0.376966  1
  Ir  Ir24  1  0.250000  0.776867  0.490528  1
  Ir  Ir25  1  0.750000  0.223284  0.509166  1
  Ir  Ir26  1  0.750000  0.276711  0.009306  1
  Ir  Ir27  1  0.250000  0.723506  0.991096  1
  Ir  Ir28  1  0.250000  0.089766  0.976321  1
  Ir  Ir29  1  0.750000  0.910402  0.023645  1
  Ir  Ir30  1  0.750000  0.589771  0.523261  1
  Ir  Ir31  1  0.250000  0.410147  0.476318  1
  Ir  Ir32  1  0.250000  0.272448  0.678173  1
  Ir  Ir33  1  0.750000  0.727518  0.321606  1
  Ir  Ir34  1  0.750000  0.772686  0.821908  1
  Ir  Ir35  1  0.250000  0.227395  0.178209  1
