# generated using pymatgen
data_TiRe5As14
_symmetry_space_group_name_H-M   'P 1'
_cell_length_a   7.67611862
_cell_length_b   7.67611829
_cell_length_c   7.67611863
_cell_angle_alpha   110.26385577
_cell_angle_beta   109.07636568
_cell_angle_gamma   109.07636151
_symmetry_Int_Tables_number   1
_chemical_formula_structural   TiRe5As14
_chemical_formula_sum   'Ti1 Re5 As14'
_cell_volume   348.12937791
_cell_formula_units_Z   1
loop_
 _symmetry_equiv_pos_site_id
 _symmetry_equiv_pos_as_xyz
  1  'x, y, z'
loop_
 _atom_site_type_symbol
 _atom_site_label
 _atom_site_symmetry_multiplicity
 _atom_site_fract_x
 _atom_site_fract_y
 _atom_site_fract_z
 _atom_site_occupancy
  Ti  Ti0  1  0.000000  0.344818  0.344818  1
  Re  Re1  1  0.000000  0.663437  0.663437  1
  Re  Re2  1  0.340402  0.000981  0.341383  1
  Re  Re3  1  0.340402  0.341383  0.000981  1
  Re  Re4  1  0.659597  0.000981  0.660578  1
  Re  Re5  1  0.659597  0.660578  0.000981  1
  As  As6  1  0.332226  0.331931  0.331931  1
  As  As7  1  0.000000  0.998996  0.668074  1
  As  As8  1  0.667776  0.999705  0.999705  1
  As  As9  1  0.000000  0.668074  0.998996  1
  As  As10  1  0.669078  0.668074  0.668074  1
  As  As11  1  0.000000  0.999705  0.331931  1
  As  As12  1  0.000000  0.331931  0.999705  1
  As  As13  1  0.330924  0.998996  0.998996  1
  As  As14  1  0.500000  0.752010  0.252010  1
  As  As15  1  0.500000  0.252010  0.752010  1
  As  As16  1  0.252864  0.496599  0.749463  1
  As  As17  1  0.747138  0.243737  0.496599  1
  As  As18  1  0.747138  0.496599  0.243737  1
  As  As19  1  0.252864  0.749463  0.496599  1
