# generated using pymatgen
data_DyHo3ReRu7
_symmetry_space_group_name_H-M   'P 1'
_cell_length_a   5.20422376
_cell_length_b   5.43675800
_cell_length_c   8.97316801
_cell_angle_alpha   89.99999893
_cell_angle_beta   90.00485927
_cell_angle_gamma   121.48942480
_symmetry_Int_Tables_number   1
_chemical_formula_structural   DyHo3ReRu7
_chemical_formula_sum   'Dy1 Ho3 Re1 Ru7'
_cell_volume   216.49938089
_cell_formula_units_Z   1
loop_
 _symmetry_equiv_pos_site_id
 _symmetry_equiv_pos_as_xyz
  1  'x, y, z'
loop_
 _atom_site_type_symbol
 _atom_site_label
 _atom_site_symmetry_multiplicity
 _atom_site_fract_x
 _atom_site_fract_y
 _atom_site_fract_z
 _atom_site_occupancy
  Dy  Dy0  1  0.327492  0.663746  0.433319  1
  Ho  Ho1  1  0.653881  0.326940  0.565325  1
  Ho  Ho2  1  0.653900  0.326949  0.934849  1
  Ho  Ho3  1  0.327797  0.663899  0.066709  1
  Re  Re4  1  0.687886  0.843942  0.750248  1
  Ru  Ru5  1  0.974870  0.987435  0.499670  1
  Ru  Ru6  1  0.974754  0.987377  0.000380  1
  Ru  Ru7  1  0.837520  0.167360  0.249622  1
  Ru  Ru8  1  0.837520  0.670161  0.249622  1
  Ru  Ru9  1  0.356509  0.178255  0.249710  1
  Ru  Ru10  1  0.183935  0.829152  0.750273  1
  Ru  Ru11  1  0.183935  0.354782  0.750273  1
