# generated using pymatgen
data_EuEr7(CuP)12
_symmetry_space_group_name_H-M   'P 1'
_cell_length_a   3.86063200
_cell_length_b   10.65723810
_cell_length_c   12.90672654
_cell_angle_alpha   89.92808540
_cell_angle_beta   90.00000000
_cell_angle_gamma   90.00000000
_symmetry_Int_Tables_number   1
_chemical_formula_structural   EuEr7(CuP)12
_chemical_formula_sum   'Eu1 Er7 Cu12 P12'
_cell_volume   531.02973656
_cell_formula_units_Z   1
loop_
 _symmetry_equiv_pos_site_id
 _symmetry_equiv_pos_as_xyz
  1  'x, y, z'
loop_
 _atom_site_type_symbol
 _atom_site_label
 _atom_site_symmetry_multiplicity
 _atom_site_fract_x
 _atom_site_fract_y
 _atom_site_fract_z
 _atom_site_occupancy
  Eu  Eu0  1  0.250000  0.932004  0.792487  1
  Er  Er1  1  0.750000  0.431282  0.708790  1
  Er  Er2  1  0.250000  0.568704  0.292747  1
  Er  Er3  1  0.750000  0.069311  0.206773  1
  Er  Er4  1  0.250000  0.841193  0.501255  1
  Er  Er5  1  0.750000  0.341620  0.997112  1
  Er  Er6  1  0.250000  0.657482  0.003429  1
  Er  Er7  1  0.750000  0.157552  0.496682  1
  Cu  Cu8  1  0.250000  0.406361  0.514730  1
  Cu  Cu9  1  0.750000  0.903838  0.987338  1
  Cu  Cu10  1  0.250000  0.097590  0.014556  1
  Cu  Cu11  1  0.750000  0.594776  0.487259  1
  Cu  Cu12  1  0.250000  0.273068  0.330560  1
  Cu  Cu13  1  0.750000  0.772928  0.167376  1
  Cu  Cu14  1  0.250000  0.227081  0.833621  1
  Cu  Cu15  1  0.750000  0.729513  0.669949  1
  Cu  Cu16  1  0.250000  0.859381  0.278720  1
  Cu  Cu17  1  0.750000  0.359036  0.219064  1
  Cu  Cu18  1  0.250000  0.638019  0.782244  1
  Cu  Cu19  1  0.750000  0.141930  0.718993  1
  P  P20  1  0.250000  0.243240  0.643250  1
  P  P21  1  0.750000  0.735144  0.859517  1
  P  P22  1  0.250000  0.258501  0.142443  1
  P  P23  1  0.750000  0.756704  0.356407  1
  P  P24  1  0.250000  0.606547  0.602076  1
  P  P25  1  0.750000  0.107324  0.901060  1
  P  P26  1  0.250000  0.895558  0.099726  1
  P  P27  1  0.750000  0.394841  0.399153  1
  P  P28  1  0.250000  0.057082  0.367870  1
  P  P29  1  0.750000  0.556393  0.131262  1
  P  P30  1  0.250000  0.442093  0.869936  1
  P  P31  1  0.750000  0.943903  0.623615  1
