# generated using pymatgen
data_Sr8AlTc3O16
_symmetry_space_group_name_H-M   'P 1'
_cell_length_a   5.51691386
_cell_length_b   8.89787210
_cell_length_c   8.89791621
_cell_angle_alpha   87.78352264
_cell_angle_beta   71.95341227
_cell_angle_gamma   108.04779333
_symmetry_Int_Tables_number   1
_chemical_formula_structural   Sr8AlTc3O16
_chemical_formula_sum   'Sr8 Al1 Tc3 O16'
_cell_volume   390.46208998
_cell_formula_units_Z   1
loop_
 _symmetry_equiv_pos_site_id
 _symmetry_equiv_pos_as_xyz
  1  'x, y, z'
loop_
 _atom_site_type_symbol
 _atom_site_label
 _atom_site_symmetry_multiplicity
 _atom_site_fract_x
 _atom_site_fract_y
 _atom_site_fract_z
 _atom_site_occupancy
  Sr  Sr0  1  0.255294  0.401886  0.890434  1
  Sr  Sr1  1  0.999950  0.644698  0.644703  1
  Sr  Sr2  1  0.744625  0.890318  0.402006  1
  Sr  Sr3  1  0.500051  0.152221  0.152096  1
  Sr  Sr4  1  0.000045  0.355285  0.355307  1
  Sr  Sr5  1  0.744715  0.598113  0.109561  1
  Sr  Sr6  1  0.499959  0.847780  0.847906  1
  Sr  Sr7  1  0.255348  0.109657  0.598021  1
  Al  Al8  1  0.500008  0.500000  0.499986  1
  Tc  Tc9  1  0.248149  0.748055  0.252020  1
  Tc  Tc10  1  0.000006  0.000010  0.000000  1
  Tc  Tc11  1  0.751829  0.251924  0.748003  1
  O  O12  1  0.249480  0.587636  0.088841  1
  O  O13  1  0.999757  0.837297  0.837731  1
  O  O14  1  0.750911  0.089127  0.587292  1
  O  O15  1  0.499781  0.344688  0.344912  1
  O  O16  1  0.000274  0.162743  0.162241  1
  O  O17  1  0.750520  0.412382  0.911126  1
  O  O18  1  0.500214  0.655301  0.655084  1
  O  O19  1  0.249097  0.910870  0.412731  1
  O  O20  1  0.878160  0.126545  0.873249  1
  O  O21  1  0.619619  0.376149  0.623933  1
  O  O22  1  0.380378  0.623833  0.376056  1
  O  O23  1  0.121846  0.873478  0.126760  1
  O  O24  1  0.376956  0.124607  0.875131  1
  O  O25  1  0.129922  0.378333  0.621853  1
  O  O26  1  0.870055  0.621660  0.378142  1
  O  O27  1  0.623048  0.875404  0.124873  1
