# generated using pymatgen
data_HoTh3Co12(CuB3)2
_symmetry_space_group_name_H-M   'P 1'
_cell_length_a   5.06373207
_cell_length_b   5.06435634
_cell_length_c   12.94977901
_cell_angle_alpha   90.00008257
_cell_angle_beta   89.99988824
_cell_angle_gamma   120.00446341
_symmetry_Int_Tables_number   1
_chemical_formula_structural   HoTh3Co12(CuB3)2
_chemical_formula_sum   'Ho1 Th3 Co12 Cu2 B6'
_cell_volume   287.58645576
_cell_formula_units_Z   1
loop_
 _symmetry_equiv_pos_site_id
 _symmetry_equiv_pos_as_xyz
  1  'x, y, z'
loop_
 _atom_site_type_symbol
 _atom_site_label
 _atom_site_symmetry_multiplicity
 _atom_site_fract_x
 _atom_site_fract_y
 _atom_site_fract_z
 _atom_site_occupancy
  Ho  Ho0  1  0.999995  0.000001  0.500011  1
  Th  Th1  1  0.999996  0.999999  0.260576  1
  Th  Th2  1  0.999999  0.000006  0.739407  1
  Th  Th3  1  0.999991  0.999994  0.000015  1
  Co  Co4  1  0.499997  0.000002  0.385964  1
  Co  Co5  1  0.999995  0.499999  0.385973  1
  Co  Co6  1  0.499997  0.500000  0.385974  1
  Co  Co7  1  0.499997  0.000005  0.614029  1
  Co  Co8  1  0.499997  0.500004  0.614005  1
  Co  Co9  1  0.999995  0.500004  0.614025  1
  Co  Co10  1  0.499993  0.999994  0.159076  1
  Co  Co11  1  0.999995  0.499994  0.159089  1
  Co  Co12  1  0.499994  0.499996  0.159054  1
  Co  Co13  1  0.499996  0.000003  0.840902  1
  Co  Co14  1  0.499997  0.500002  0.840942  1
  Co  Co15  1  0.999994  0.500001  0.840923  1
  Cu  Cu16  1  0.333296  0.666759  0.000003  1
  Cu  Cu17  1  0.666697  0.333235  0.000003  1
  B  B18  1  0.333211  0.666614  0.269027  1
  B  B19  1  0.666778  0.333380  0.269029  1
  B  B20  1  0.666685  0.333378  0.730963  1
  B  B21  1  0.333310  0.666628  0.730967  1
  B  B22  1  0.333257  0.666656  0.500020  1
  B  B23  1  0.666734  0.333348  0.500020  1
