# generated using pymatgen
data_SmTi2GaAu3
_symmetry_space_group_name_H-M   'P 1'
_cell_length_a   5.71000359
_cell_length_b   5.71000295
_cell_length_c   5.63373139
_cell_angle_alpha   101.83922974
_cell_angle_beta   101.83922894
_cell_angle_gamma   126.52322301
_symmetry_Int_Tables_number   1
_chemical_formula_structural   SmTi2GaAu3
_chemical_formula_sum   'Sm1 Ti2 Ga1 Au3'
_cell_volume   131.36971589
_cell_formula_units_Z   1
loop_
 _symmetry_equiv_pos_site_id
 _symmetry_equiv_pos_as_xyz
  1  'x, y, z'
loop_
 _atom_site_type_symbol
 _atom_site_label
 _atom_site_symmetry_multiplicity
 _atom_site_fract_x
 _atom_site_fract_y
 _atom_site_fract_z
 _atom_site_occupancy
  Sm  Sm0  1  0.003644  0.996356  0.000000  1
  Ti  Ti1  1  0.247631  0.752369  0.500000  1
  Ti  Ti2  1  0.747631  0.252369  0.500000  1
  Ga  Ga3  1  0.304595  0.695405  0.000000  1
  Au  Au4  1  0.705055  0.294945  0.000000  1
  Au  Au5  1  0.683620  0.692176  0.375798  1
  Au  Au6  1  0.307824  0.316380  0.624202  1
