# generated using pymatgen
data_LiLa3In4Ru
_symmetry_space_group_name_H-M   'P 1'
_cell_length_a   8.14611900
_cell_length_b   8.14611975
_cell_length_c   4.02794700
_cell_angle_alpha   90.00000000
_cell_angle_beta   90.00000000
_cell_angle_gamma   120.00000912
_symmetry_Int_Tables_number   1
_chemical_formula_structural   LiLa3In4Ru
_chemical_formula_sum   'Li1 La3 In4 Ru1'
_cell_volume   231.48128229
_cell_formula_units_Z   1
loop_
 _symmetry_equiv_pos_site_id
 _symmetry_equiv_pos_as_xyz
  1  'x, y, z'
loop_
 _atom_site_type_symbol
 _atom_site_label
 _atom_site_symmetry_multiplicity
 _atom_site_fract_x
 _atom_site_fract_y
 _atom_site_fract_z
 _atom_site_occupancy
  Li  Li0  1  0.666667  0.333333  0.500000  1
  La  La1  1  0.058169  0.294690  0.500000  1
  La  La2  1  0.705310  0.763478  0.500000  1
  La  La3  1  0.236522  0.941831  0.500000  1
  In  In4  1  0.668686  0.081286  0.000000  1
  In  In5  1  0.918714  0.587401  0.000000  1
  In  In6  1  0.412599  0.331314  0.000000  1
  In  In7  1  0.333333  0.666667  0.000000  1
  Ru  Ru8  1  0.000000  0.000000  0.000000  1
