# generated using pymatgen
data_Pr4Y2CoBr10
_symmetry_space_group_name_H-M   'P 1'
_cell_length_a   7.51387386
_cell_length_b   9.44785605
_cell_length_c   9.59867130
_cell_angle_alpha   108.69274129
_cell_angle_beta   95.10008390
_cell_angle_gamma   105.05271825
_symmetry_Int_Tables_number   1
_chemical_formula_structural   Pr4Y2CoBr10
_chemical_formula_sum   'Pr4 Y2 Co1 Br10'
_cell_volume   612.18327836
_cell_formula_units_Z   1
loop_
 _symmetry_equiv_pos_site_id
 _symmetry_equiv_pos_as_xyz
  1  'x, y, z'
loop_
 _atom_site_type_symbol
 _atom_site_label
 _atom_site_symmetry_multiplicity
 _atom_site_fract_x
 _atom_site_fract_y
 _atom_site_fract_z
 _atom_site_occupancy
  Pr  Pr0  1  0.468311  0.786870  0.592585  1
  Pr  Pr1  1  0.531689  0.213130  0.407415  1
  Pr  Pr2  1  0.366118  0.450840  0.746850  1
  Pr  Pr3  1  0.633882  0.549160  0.253150  1
  Y  Y4  1  0.850094  0.625839  0.669196  1
  Y  Y5  1  0.149906  0.374161  0.330804  1
  Co  Co6  1  0.500000  0.500000  0.500000  1
  Br  Br7  1  0.413651  0.131367  0.671707  1
  Br  Br8  1  0.586349  0.868633  0.328293  1
  Br  Br9  1  0.050555  0.674791  0.419994  1
  Br  Br10  1  0.949445  0.325209  0.580006  1
  Br  Br11  1  0.253986  0.747522  0.839888  1
  Br  Br12  1  0.746014  0.252478  0.160112  1
  Br  Br13  1  0.250819  0.418134  0.059667  1
  Br  Br14  1  0.749181  0.581866  0.940333  1
  Br  Br15  1  0.854144  0.937928  0.765879  1
  Br  Br16  1  0.145856  0.062072  0.234121  1
