# generated using pymatgen
data_Ti24P7S
_symmetry_space_group_name_H-M   'P 1'
_cell_length_a   9.93527299
_cell_length_b   9.94378544
_cell_length_c   4.97493801
_cell_angle_alpha   90.02448789
_cell_angle_beta   90.10003169
_cell_angle_gamma   90.02349668
_symmetry_Int_Tables_number   1
_chemical_formula_structural   Ti24P7S
_chemical_formula_sum   'Ti24 P7 S1'
_cell_volume   491.49429923
_cell_formula_units_Z   1
loop_
 _symmetry_equiv_pos_site_id
 _symmetry_equiv_pos_as_xyz
  1  'x, y, z'
loop_
 _atom_site_type_symbol
 _atom_site_label
 _atom_site_symmetry_multiplicity
 _atom_site_fract_x
 _atom_site_fract_y
 _atom_site_fract_z
 _atom_site_occupancy
  Ti  Ti0  1  0.143133  0.666846  0.214285  1
  Ti  Ti1  1  0.356637  0.833104  0.213871  1
  Ti  Ti2  1  0.332983  0.643174  0.713970  1
  Ti  Ti3  1  0.166731  0.856722  0.713700  1
  Ti  Ti4  1  0.857069  0.333164  0.785490  1
  Ti  Ti5  1  0.643538  0.167025  0.785915  1
  Ti  Ti6  1  0.667039  0.356594  0.286129  1
  Ti  Ti7  1  0.833535  0.143282  0.286237  1
  Ti  Ti8  1  0.110581  0.221942  0.531518  1
  Ti  Ti9  1  0.389445  0.278143  0.531068  1
  Ti  Ti10  1  0.778526  0.610233  0.031191  1
  Ti  Ti11  1  0.722114  0.889733  0.030933  1
  Ti  Ti12  1  0.889776  0.778317  0.469092  1
  Ti  Ti13  1  0.610466  0.721858  0.468859  1
  Ti  Ti14  1  0.221240  0.389075  0.968123  1
  Ti  Ti15  1  0.277417  0.110716  0.968858  1
  Ti  Ti16  1  0.533618  0.069026  0.259960  1
  Ti  Ti17  1  0.966435  0.430370  0.260865  1
  Ti  Ti18  1  0.931608  0.034069  0.761395  1
  Ti  Ti19  1  0.568940  0.466454  0.760249  1
  Ti  Ti20  1  0.466378  0.931165  0.739829  1
  Ti  Ti21  1  0.033696  0.569076  0.739158  1
  Ti  Ti22  1  0.068796  0.966423  0.239839  1
  Ti  Ti23  1  0.430852  0.533542  0.239624  1
  P  P24  1  0.456731  0.291355  0.036117  1
  P  P25  1  0.791433  0.542995  0.536395  1
  P  P26  1  0.708905  0.956908  0.536392  1
  P  P27  1  0.956861  0.791391  0.963535  1
  P  P28  1  0.543221  0.708617  0.963629  1
  P  P29  1  0.208756  0.456734  0.463814  1
  P  P30  1  0.291166  0.043247  0.463661  1
  S  S31  1  0.042373  0.208701  0.036290  1
