# generated using pymatgen
data_Tb6Y2TaTi11Si16
_symmetry_space_group_name_H-M   'P 1'
_cell_length_a   7.06101574
_cell_length_b   7.06076118
_cell_length_c   12.98935522
_cell_angle_alpha   90.01768708
_cell_angle_beta   90.00512687
_cell_angle_gamma   90.00674957
_symmetry_Int_Tables_number   1
_chemical_formula_structural   Tb6Y2TaTi11Si16
_chemical_formula_sum   'Tb6 Y2 Ta1 Ti11 Si16'
_cell_volume   647.59915008
_cell_formula_units_Z   1
loop_
 _symmetry_equiv_pos_site_id
 _symmetry_equiv_pos_as_xyz
  1  'x, y, z'
loop_
 _atom_site_type_symbol
 _atom_site_label
 _atom_site_symmetry_multiplicity
 _atom_site_fract_x
 _atom_site_fract_y
 _atom_site_fract_z
 _atom_site_occupancy
  Tb  Tb0  1  0.502520  0.159690  0.216468  1
  Tb  Tb1  1  0.839549  0.497033  0.283278  1
  Tb  Tb2  1  0.159682  0.502567  0.783553  1
  Tb  Tb3  1  0.659826  0.997597  0.966688  1
  Tb  Tb4  1  0.002763  0.339670  0.533295  1
  Tb  Tb5  1  0.997550  0.659843  0.033263  1
  Y  Y6  1  0.339799  0.002534  0.466753  1
  Y  Y7  1  0.497308  0.839727  0.716722  1
  Ta  Ta8  1  0.326983  0.326851  0.999945  1
  Ti  Ti9  1  0.173348  0.826989  0.249975  1
  Ti  Ti10  1  0.826882  0.173363  0.750004  1
  Ti  Ti11  1  0.672822  0.672754  0.499993  1
  Ti  Ti12  1  0.154171  0.009284  0.876760  1
  Ti  Ti13  1  0.490928  0.652213  0.125658  1
  Ti  Ti14  1  0.508641  0.347931  0.626486  1
  Ti  Ti15  1  0.652093  0.490810  0.874347  1
  Ti  Ti16  1  0.347717  0.508783  0.373626  1
  Ti  Ti17  1  0.847073  0.991510  0.376506  1
  Ti  Ti18  1  0.009486  0.154196  0.123221  1
  Ti  Ti19  1  0.991470  0.846997  0.623592  1
  Si  Si20  1  0.202133  0.129323  0.684907  1
  Si  Si21  1  0.370643  0.702037  0.934976  1
  Si  Si22  1  0.629047  0.297867  0.435219  1
  Si  Si23  1  0.702035  0.370626  0.064914  1
  Si  Si24  1  0.298049  0.629358  0.564826  1
  Si  Si25  1  0.797691  0.870652  0.185134  1
  Si  Si26  1  0.129362  0.201906  0.315076  1
  Si  Si27  1  0.870381  0.797690  0.814815  1
  Si  Si28  1  0.290823  0.953472  0.064958  1
  Si  Si29  1  0.546689  0.791034  0.315037  1
  Si  Si30  1  0.453885  0.208293  0.814092  1
  Si  Si31  1  0.790936  0.546852  0.685005  1
  Si  Si32  1  0.208417  0.453711  0.185843  1
  Si  Si33  1  0.709273  0.046417  0.564749  1
  Si  Si34  1  0.953379  0.290828  0.935084  1
  Si  Si35  1  0.046645  0.709589  0.435230  1
