# generated using pymatgen
data_Pr2TcC2
_symmetry_space_group_name_H-M   'P 1'
_cell_length_a   5.39029600
_cell_length_b   6.74783900
_cell_length_c   10.32053700
_cell_angle_alpha   90.00000000
_cell_angle_beta   90.00000000
_cell_angle_gamma   90.00000000
_symmetry_Int_Tables_number   1
_chemical_formula_structural   Pr2TcC2
_chemical_formula_sum   'Pr8 Tc4 C8'
_cell_volume   375.38733979
_cell_formula_units_Z   4
loop_
 _symmetry_equiv_pos_site_id
 _symmetry_equiv_pos_as_xyz
  1  'x, y, z'
loop_
 _atom_site_type_symbol
 _atom_site_label
 _atom_site_symmetry_multiplicity
 _atom_site_fract_x
 _atom_site_fract_y
 _atom_site_fract_z
 _atom_site_occupancy
  Pr  Pr0  1  0.750000  0.525449  0.787719  1
  Pr  Pr1  1  0.250000  0.974551  0.287719  1
  Pr  Pr2  1  0.750000  0.686996  0.448192  1
  Pr  Pr3  1  0.250000  0.813004  0.948192  1
  Pr  Pr4  1  0.750000  0.186996  0.051808  1
  Pr  Pr5  1  0.250000  0.313004  0.551808  1
  Pr  Pr6  1  0.250000  0.474551  0.212281  1
  Pr  Pr7  1  0.750000  0.025449  0.712281  1
  Tc  Tc8  1  0.250000  0.270301  0.856477  1
  Tc  Tc9  1  0.250000  0.770301  0.643523  1
  Tc  Tc10  1  0.750000  0.229699  0.356477  1
  Tc  Tc11  1  0.750000  0.729699  0.143523  1
  C  C12  1  0.250000  0.689264  0.466187  1
  C  C13  1  0.250000  0.534084  0.756894  1
  C  C14  1  0.750000  0.465916  0.243106  1
  C  C15  1  0.750000  0.810736  0.966187  1
  C  C16  1  0.250000  0.034084  0.743106  1
  C  C17  1  0.250000  0.189264  0.033813  1
  C  C18  1  0.750000  0.310736  0.533813  1
  C  C19  1  0.750000  0.965916  0.256894  1
