# generated using pymatgen
data_Sr2Hg(IO)2
_symmetry_space_group_name_H-M   'P 1'
_cell_length_a   6.48253357
_cell_length_b   6.48253381
_cell_length_c   8.70252111
_cell_angle_alpha   59.34540925
_cell_angle_beta   59.34540533
_cell_angle_gamma   38.55998059
_symmetry_Int_Tables_number   1
_chemical_formula_structural   Sr2Hg(IO)2
_chemical_formula_sum   'Sr2 Hg1 I2 O2'
_cell_volume   191.84171633
_cell_formula_units_Z   1
loop_
 _symmetry_equiv_pos_site_id
 _symmetry_equiv_pos_as_xyz
  1  'x, y, z'
loop_
 _atom_site_type_symbol
 _atom_site_label
 _atom_site_symmetry_multiplicity
 _atom_site_fract_x
 _atom_site_fract_y
 _atom_site_fract_z
 _atom_site_occupancy
  Sr  Sr0  1  0.200171  0.200171  0.710612  1
  Sr  Sr1  1  0.799829  0.799829  0.289388  1
  Hg  Hg2  1  0.000000  0.000000  0.500000  1
  I  I3  1  0.575755  0.575755  0.140219  1
  I  I4  1  0.424245  0.424245  0.859781  1
  O  O5  1  0.810188  0.810188  0.568490  1
  O  O6  1  0.189812  0.189812  0.431510  1
