# generated using pymatgen
data_AcHg(PdAu)2
_symmetry_space_group_name_H-M   'P 1'
_cell_length_a   5.63988404
_cell_length_b   5.56712787
_cell_length_c   5.56712700
_cell_angle_alpha   59.61368150
_cell_angle_beta   59.56672919
_cell_angle_gamma   59.56673534
_symmetry_Int_Tables_number   1
_chemical_formula_structural   AcHg(PdAu)2
_chemical_formula_sum   'Ac1 Hg1 Pd2 Au2'
_cell_volume   122.42633753
_cell_formula_units_Z   1
loop_
 _symmetry_equiv_pos_site_id
 _symmetry_equiv_pos_as_xyz
  1  'x, y, z'
loop_
 _atom_site_type_symbol
 _atom_site_label
 _atom_site_symmetry_multiplicity
 _atom_site_fract_x
 _atom_site_fract_y
 _atom_site_fract_z
 _atom_site_occupancy
  Ac  Ac0  1  0.247872  0.252128  0.252128  1
  Hg  Hg1  1  0.000656  0.999344  0.999344  1
  Pd  Pd2  1  0.123459  0.625240  0.625240  1
  Pd  Pd3  1  0.626060  0.625240  0.625240  1
  Au  Au4  1  0.625976  0.624928  0.123118  1
  Au  Au5  1  0.625976  0.123118  0.624928  1
