# generated using pymatgen
data_Tb8Hf9Zr3Si15As
_symmetry_space_group_name_H-M   'P 1'
_cell_length_a   7.29992370
_cell_length_b   7.30893063
_cell_length_c   13.42856869
_cell_angle_alpha   89.73300944
_cell_angle_beta   89.93847446
_cell_angle_gamma   89.93320692
_symmetry_Int_Tables_number   1
_chemical_formula_structural   Tb8Hf9Zr3Si15As
_chemical_formula_sum   'Tb8 Hf9 Zr3 Si15 As1'
_cell_volume   716.46771826
_cell_formula_units_Z   1
loop_
 _symmetry_equiv_pos_site_id
 _symmetry_equiv_pos_as_xyz
  1  'x, y, z'
loop_
 _atom_site_type_symbol
 _atom_site_label
 _atom_site_symmetry_multiplicity
 _atom_site_fract_x
 _atom_site_fract_y
 _atom_site_fract_z
 _atom_site_occupancy
  Tb  Tb0  1  0.996062  0.345339  0.215019  1
  Tb  Tb1  1  0.004758  0.656189  0.715214  1
  Tb  Tb2  1  0.152782  0.499443  0.466599  1
  Tb  Tb3  1  0.506514  0.842644  0.033855  1
  Tb  Tb4  1  0.844296  0.503268  0.964750  1
  Tb  Tb5  1  0.496489  0.154841  0.535714  1
  Tb  Tb6  1  0.344890  0.996039  0.785177  1
  Tb  Tb7  1  0.654351  0.003939  0.284340  1
  Hf  Hf8  1  0.674724  0.325220  0.750038  1
  Hf  Hf9  1  0.149118  0.995124  0.373128  1
  Hf  Hf10  1  0.850940  0.004291  0.874799  1
  Hf  Hf11  1  0.503714  0.649940  0.624921  1
  Hf  Hf12  1  0.351266  0.495989  0.875289  1
  Hf  Hf13  1  0.494604  0.348223  0.125090  1
  Hf  Hf14  1  0.652977  0.506864  0.376747  1
  Hf  Hf15  1  0.996169  0.149868  0.625486  1
  Hf  Hf16  1  0.001541  0.848452  0.124180  1
  Zr  Zr17  1  0.174509  0.175128  0.999927  1
  Zr  Zr18  1  0.826074  0.826399  0.500168  1
  Zr  Zr19  1  0.325012  0.677071  0.249931  1
  Si  Si20  1  0.637108  0.705132  0.816525  1
  Si  Si21  1  0.205139  0.864076  0.566324  1
  Si  Si22  1  0.136803  0.793664  0.932471  1
  Si  Si23  1  0.793840  0.137632  0.067177  1
  Si  Si24  1  0.863325  0.205573  0.432791  1
  Si  Si25  1  0.295744  0.362565  0.683032  1
  Si  Si26  1  0.704433  0.635263  0.183707  1
  Si  Si27  1  0.293632  0.039897  0.180556  1
  Si  Si28  1  0.705241  0.951599  0.686595  1
  Si  Si29  1  0.450623  0.795787  0.436666  1
  Si  Si30  1  0.204740  0.548920  0.063649  1
  Si  Si31  1  0.550425  0.205241  0.935720  1
  Si  Si32  1  0.794087  0.450088  0.565267  1
  Si  Si33  1  0.048749  0.295327  0.813269  1
  Si  Si34  1  0.950708  0.705319  0.313881  1
  As  As35  1  0.364613  0.299648  0.321995  1
