# generated using pymatgen
data_Cd4(AgAu3)3
_symmetry_space_group_name_H-M   'P 1'
_cell_length_a   5.94666089
_cell_length_b   5.91338298
_cell_length_c   9.76490800
_cell_angle_alpha   90.00000000
_cell_angle_beta   90.00000000
_cell_angle_gamma   119.33602955
_symmetry_Int_Tables_number   1
_chemical_formula_structural   Cd4(AgAu3)3
_chemical_formula_sum   'Cd4 Ag3 Au9'
_cell_volume   299.34702850
_cell_formula_units_Z   1
loop_
 _symmetry_equiv_pos_site_id
 _symmetry_equiv_pos_as_xyz
  1  'x, y, z'
loop_
 _atom_site_type_symbol
 _atom_site_label
 _atom_site_symmetry_multiplicity
 _atom_site_fract_x
 _atom_site_fract_y
 _atom_site_fract_z
 _atom_site_occupancy
  Cd  Cd0  1  0.330204  0.666345  0.000000  1
  Cd  Cd1  1  0.000570  0.001843  0.749223  1
  Cd  Cd2  1  0.000570  0.001843  0.250777  1
  Cd  Cd3  1  0.669438  0.330927  0.500000  1
  Ag  Ag4  1  0.172013  0.828705  0.500000  1
  Ag  Ag5  1  0.828424  0.168499  0.000000  1
  Ag  Ag6  1  0.828764  0.664114  0.000000  1
  Au  Au7  1  0.170968  0.332371  0.500000  1
  Au  Au8  1  0.667880  0.829906  0.500000  1
  Au  Au9  1  0.328253  0.167569  0.000000  1
  Au  Au10  1  0.999155  0.501515  0.750532  1
  Au  Au11  1  0.502654  0.502405  0.751080  1
  Au  Au12  1  0.499650  0.000017  0.751606  1
  Au  Au13  1  0.999155  0.501515  0.249468  1
  Au  Au14  1  0.502654  0.502405  0.248920  1
  Au  Au15  1  0.499650  0.000017  0.248394  1
