# generated using pymatgen
data_YbPr3(Ga12Pd)2
_symmetry_space_group_name_H-M   'P 1'
_cell_length_a   6.19514288
_cell_length_b   6.19514288
_cell_length_c   15.49328900
_cell_angle_alpha   90.00000000
_cell_angle_beta   90.00000000
_cell_angle_gamma   89.72469038
_symmetry_Int_Tables_number   1
_chemical_formula_structural   YbPr3(Ga12Pd)2
_chemical_formula_sum   'Yb1 Pr3 Ga24 Pd2'
_cell_volume   594.62239577
_cell_formula_units_Z   1
loop_
 _symmetry_equiv_pos_site_id
 _symmetry_equiv_pos_as_xyz
  1  'x, y, z'
loop_
 _atom_site_type_symbol
 _atom_site_label
 _atom_site_symmetry_multiplicity
 _atom_site_fract_x
 _atom_site_fract_y
 _atom_site_fract_z
 _atom_site_occupancy
  Yb  Yb0  1  0.750000  0.250000  0.244608  1
  Pr  Pr1  1  0.250000  0.750000  0.242710  1
  Pr  Pr2  1  0.250000  0.750000  0.755892  1
  Pr  Pr3  1  0.750000  0.250000  0.756659  1
  Ga  Ga4  1  0.250000  0.250000  0.186287  1
  Ga  Ga5  1  0.750000  0.750000  0.186287  1
  Ga  Ga6  1  0.750000  0.750000  0.813502  1
  Ga  Ga7  1  0.250000  0.250000  0.813502  1
  Ga  Ga8  1  0.250000  0.250000  0.346045  1
  Ga  Ga9  1  0.750000  0.750000  0.346045  1
  Ga  Ga10  1  0.750000  0.750000  0.653045  1
  Ga  Ga11  1  0.250000  0.250000  0.653045  1
  Ga  Ga12  1  0.498838  0.998838  0.912592  1
  Ga  Ga13  1  0.000998  0.999002  0.911589  1
  Ga  Ga14  1  0.499002  0.500998  0.911589  1
  Ga  Ga15  1  0.001162  0.501162  0.912592  1
  Ga  Ga16  1  0.502388  0.002388  0.089194  1
  Ga  Ga17  1  0.997650  0.002350  0.089888  1
  Ga  Ga18  1  0.502350  0.497650  0.089888  1
  Ga  Ga19  1  0.997612  0.497612  0.089194  1
  Ga  Ga20  1  0.581992  0.081992  0.430549  1
  Ga  Ga21  1  0.079119  0.920881  0.431309  1
  Ga  Ga22  1  0.420881  0.579119  0.431309  1
  Ga  Ga23  1  0.918008  0.418008  0.430549  1
  Ga  Ga24  1  0.416038  0.916038  0.567921  1
  Ga  Ga25  1  0.916161  0.083839  0.568595  1
  Ga  Ga26  1  0.583839  0.416161  0.568595  1
  Ga  Ga27  1  0.083962  0.583962  0.567921  1
  Pd  Pd28  1  0.750000  0.250000  0.998734  1
  Pd  Pd29  1  0.250000  0.750000  0.000362  1
