# generated using pymatgen
data_Ho4ErMn4(P4Ir5)3
_symmetry_space_group_name_H-M   'P 1'
_cell_length_a   12.46251983
_cell_length_b   12.53533471
_cell_length_c   3.94215000
_cell_angle_alpha   90.00000000
_cell_angle_beta   90.00000000
_cell_angle_gamma   119.76379714
_symmetry_Int_Tables_number   1
_chemical_formula_structural   Ho4ErMn4(P4Ir5)3
_chemical_formula_sum   'Ho4 Er1 Mn4 P12 Ir15'
_cell_volume   534.60663089
_cell_formula_units_Z   1
loop_
 _symmetry_equiv_pos_site_id
 _symmetry_equiv_pos_as_xyz
  1  'x, y, z'
loop_
 _atom_site_type_symbol
 _atom_site_label
 _atom_site_symmetry_multiplicity
 _atom_site_fract_x
 _atom_site_fract_y
 _atom_site_fract_z
 _atom_site_occupancy
  Ho  Ho0  1  0.672636  0.335510  0.000000  1
  Ho  Ho1  1  0.331023  0.665331  0.000000  1
  Ho  Ho2  1  0.816951  0.816439  0.500000  1
  Ho  Ho3  1  0.181981  0.999845  0.500000  1
  Er  Er4  1  0.998753  0.183853  0.500000  1
  Mn  Mn5  1  0.291422  0.291835  0.500000  1
  Mn  Mn6  1  0.707927  0.000542  0.500000  1
  Mn  Mn7  1  0.998225  0.706834  0.500000  1
  Mn  Mn8  1  0.876380  0.360088  0.500000  1
  P  P9  1  0.699597  0.177426  0.500000  1
  P  P10  1  0.839607  0.514732  0.500000  1
  P  P11  1  0.478454  0.311445  0.500000  1
  P  P12  1  0.164429  0.688216  0.500000  1
  P  P13  1  0.523482  0.834998  0.500000  1
  P  P14  1  0.308940  0.476112  0.500000  1
  P  P15  1  0.640430  0.639655  0.000000  1
  P  P16  1  0.360492  0.000894  0.000000  1
  P  P17  1  0.990365  0.360185  0.000000  1
  P  P18  1  0.181856  0.183339  0.000000  1
  P  P19  1  0.816683  0.999627  0.000000  1
  P  P20  1  0.998058  0.816586  0.000000  1
  Ir  Ir21  1  0.802859  0.177478  0.000000  1
  Ir  Ir22  1  0.820136  0.626071  0.000000  1
  Ir  Ir23  1  0.375377  0.196135  0.000000  1
  Ir  Ir24  1  0.178923  0.805886  0.000000  1
  Ir  Ir25  1  0.624691  0.819918  0.000000  1
  Ir  Ir26  1  0.190482  0.372803  0.000000  1
  Ir  Ir27  1  0.453623  0.453891  0.000000  1
  Ir  Ir28  1  0.545143  0.998521  0.000000  1
  Ir  Ir29  1  0.998998  0.548683  0.000000  1
  Ir  Ir30  1  0.640850  0.506967  0.500000  1
  Ir  Ir31  1  0.495172  0.131697  0.500000  1
  Ir  Ir32  1  0.360265  0.868666  0.500000  1
  Ir  Ir33  1  0.507786  0.638133  0.500000  1
  Ir  Ir34  1  0.127610  0.491136  0.500000  1
  Ir  Ir35  1  0.000392  0.000523  0.000000  1
