# generated using pymatgen
data_NdTa4(NbCl9)2
_symmetry_space_group_name_H-M   'P 1'
_cell_length_a   10.28225184
_cell_length_b   10.28182517
_cell_length_c   10.27932931
_cell_angle_alpha   55.88996529
_cell_angle_beta   55.90326833
_cell_angle_gamma   55.89116568
_symmetry_Int_Tables_number   1
_chemical_formula_structural   NdTa4(NbCl9)2
_chemical_formula_sum   'Nd1 Ta4 Nb2 Cl18'
_cell_volume   695.31982103
_cell_formula_units_Z   1
loop_
 _symmetry_equiv_pos_site_id
 _symmetry_equiv_pos_as_xyz
  1  'x, y, z'
loop_
 _atom_site_type_symbol
 _atom_site_label
 _atom_site_symmetry_multiplicity
 _atom_site_fract_x
 _atom_site_fract_y
 _atom_site_fract_z
 _atom_site_occupancy
  Nd  Nd0  1  0.999592  0.999416  0.001010  1
  Ta  Ta1  1  0.412131  0.302367  0.646608  1
  Ta  Ta2  1  0.353380  0.588304  0.697293  1
  Ta  Ta3  1  0.698693  0.352586  0.588051  1
  Ta  Ta4  1  0.302112  0.647563  0.410926  1
  Nb  Nb5  1  0.648084  0.411641  0.300721  1
  Nb  Nb6  1  0.589021  0.698759  0.351754  1
  Cl  Cl7  1  0.567372  0.165062  0.443141  1
  Cl  Cl8  1  0.227425  0.370907  0.902638  1
  Cl  Cl9  1  0.904395  0.225959  0.372776  1
  Cl  Cl10  1  0.367896  0.903705  0.227226  1
  Cl  Cl11  1  0.774118  0.630333  0.094335  1
  Cl  Cl12  1  0.097249  0.772408  0.629093  1
  Cl  Cl13  1  0.696871  0.957105  0.164712  1
  Cl  Cl14  1  0.952124  0.165177  0.697611  1
  Cl  Cl15  1  0.166611  0.695549  0.952323  1
  Cl  Cl16  1  0.302920  0.048643  0.834182  1
  Cl  Cl17  1  0.046197  0.832862  0.305277  1
  Cl  Cl18  1  0.836534  0.301962  0.043378  1
  Cl  Cl19  1  0.559545  0.430680  0.833328  1
  Cl  Cl20  1  0.166659  0.440894  0.568969  1
  Cl  Cl21  1  0.437664  0.570909  0.166592  1
  Cl  Cl22  1  0.429142  0.833270  0.562089  1
  Cl  Cl23  1  0.835115  0.556636  0.432968  1
  Cl  Cl24  1  0.629149  0.097303  0.773002  1
