# generated using pymatgen
data_Er12CuTc2Ni
_symmetry_space_group_name_H-M   'P 1'
_cell_length_a   6.29117006
_cell_length_b   7.09433804
_cell_length_c   9.21782900
_cell_angle_alpha   90.00000000
_cell_angle_beta   90.00000000
_cell_angle_gamma   89.84085168
_symmetry_Int_Tables_number   1
_chemical_formula_structural   Er12CuTc2Ni
_chemical_formula_sum   'Er12 Cu1 Tc2 Ni1'
_cell_volume   411.40567193
_cell_formula_units_Z   1
loop_
 _symmetry_equiv_pos_site_id
 _symmetry_equiv_pos_as_xyz
  1  'x, y, z'
loop_
 _atom_site_type_symbol
 _atom_site_label
 _atom_site_symmetry_multiplicity
 _atom_site_fract_x
 _atom_site_fract_y
 _atom_site_fract_z
 _atom_site_occupancy
  Er  Er0  1  0.329689  0.681030  0.062187  1
  Er  Er1  1  0.170431  0.182318  0.443718  1
  Er  Er2  1  0.669628  0.320846  0.562029  1
  Er  Er3  1  0.823727  0.817234  0.933798  1
  Er  Er4  1  0.669628  0.320846  0.937971  1
  Er  Er5  1  0.823727  0.817234  0.566202  1
  Er  Er6  1  0.329689  0.681030  0.437813  1
  Er  Er7  1  0.170431  0.182318  0.056282  1
  Er  Er8  1  0.871170  0.527356  0.250000  1
  Er  Er9  1  0.624200  0.038568  0.250000  1
  Er  Er10  1  0.136243  0.463349  0.750000  1
  Er  Er11  1  0.375364  0.961170  0.750000  1
  Cu  Cu12  1  0.044494  0.892367  0.250000  1
  Tc  Tc13  1  0.453670  0.392458  0.250000  1
  Tc  Tc14  1  0.963485  0.108462  0.750000  1
  Ni  Ni15  1  0.544423  0.613412  0.750000  1
