# generated using pymatgen
data_Na4Yb2SiP4
_symmetry_space_group_name_H-M   'P 1'
_cell_length_a   9.11528211
_cell_length_b   9.11528141
_cell_length_c   6.95807977
_cell_angle_alpha   89.00990001
_cell_angle_beta   89.00989384
_cell_angle_gamma   119.59004920
_symmetry_Int_Tables_number   1
_chemical_formula_structural   Na4Yb2SiP4
_chemical_formula_sum   'Na8 Yb4 Si2 P8'
_cell_volume   502.43880168
_cell_formula_units_Z   2
loop_
 _symmetry_equiv_pos_site_id
 _symmetry_equiv_pos_as_xyz
  1  'x, y, z'
loop_
 _atom_site_type_symbol
 _atom_site_label
 _atom_site_symmetry_multiplicity
 _atom_site_fract_x
 _atom_site_fract_y
 _atom_site_fract_z
 _atom_site_occupancy
  Na  Na0  1  0.473621  0.943533  0.389381  1
  Na  Na1  1  0.943533  0.473621  0.889381  1
  Na  Na2  1  0.862524  0.719347  0.185372  1
  Na  Na3  1  0.287227  0.135979  0.220376  1
  Na  Na4  1  0.850076  0.139923  0.204125  1
  Na  Na5  1  0.135979  0.287227  0.720376  1
  Na  Na6  1  0.719347  0.862524  0.685372  1
  Na  Na7  1  0.139923  0.850076  0.704125  1
  Yb  Yb8  1  0.051604  0.527799  0.388612  1
  Yb  Yb9  1  0.479971  0.529588  0.385080  1
  Yb  Yb10  1  0.527799  0.051604  0.888612  1
  Yb  Yb11  1  0.529588  0.479971  0.885080  1
  Si  Si12  1  0.662827  0.330060  0.501467  1
  Si  Si13  1  0.330060  0.662827  0.001467  1
  P  P14  1  0.659047  0.335576  0.171304  1
  P  P15  1  0.335576  0.659047  0.671304  1
  P  P16  1  0.202377  0.392119  0.123564  1
  P  P17  1  0.607971  0.801370  0.090346  1
  P  P18  1  0.201117  0.806461  0.104367  1
  P  P19  1  0.801370  0.607971  0.590346  1
  P  P20  1  0.392119  0.202377  0.623564  1
  P  P21  1  0.806461  0.201117  0.604367  1
