# generated using pymatgen
data_Gd6TaO12
_symmetry_space_group_name_H-M   'P 1'
_cell_length_a   6.56660471
_cell_length_b   6.56660382
_cell_length_c   6.56660346
_cell_angle_alpha   98.70371528
_cell_angle_beta   98.70370801
_cell_angle_gamma   98.70371683
_symmetry_Int_Tables_number   1
_chemical_formula_structural   Gd6TaO12
_chemical_formula_sum   'Gd6 Ta1 O12'
_cell_volume   272.23618261
_cell_formula_units_Z   1
loop_
 _symmetry_equiv_pos_site_id
 _symmetry_equiv_pos_as_xyz
  1  'x, y, z'
loop_
 _atom_site_type_symbol
 _atom_site_label
 _atom_site_symmetry_multiplicity
 _atom_site_fract_x
 _atom_site_fract_y
 _atom_site_fract_z
 _atom_site_occupancy
  Gd  Gd0  1  0.861187  0.390631  0.698534  1
  Gd  Gd1  1  0.609369  0.301466  0.138813  1
  Gd  Gd2  1  0.301466  0.138813  0.609369  1
  Gd  Gd3  1  0.698534  0.861187  0.390631  1
  Gd  Gd4  1  0.390631  0.698534  0.861187  1
  Gd  Gd5  1  0.138813  0.609369  0.301466  1
  Ta  Ta6  1  0.000000  0.000000  0.000000  1
  O  O7  1  0.927965  0.040535  0.699636  1
  O  O8  1  0.959465  0.300364  0.072035  1
  O  O9  1  0.589021  0.177051  0.435551  1
  O  O10  1  0.822949  0.564449  0.410979  1
  O  O11  1  0.300364  0.072035  0.959465  1
  O  O12  1  0.564449  0.410979  0.822949  1
  O  O13  1  0.435551  0.589021  0.177051  1
  O  O14  1  0.699636  0.927965  0.040535  1
  O  O15  1  0.177051  0.435551  0.589021  1
  O  O16  1  0.410979  0.822949  0.564449  1
  O  O17  1  0.040535  0.699636  0.927965  1
  O  O18  1  0.072035  0.959465  0.300364  1
