# generated using pymatgen
data_Hf16Co4HgRu3
_symmetry_space_group_name_H-M   'P 1'
_cell_length_a   8.63432603
_cell_length_b   8.64680839
_cell_length_c   8.64650906
_cell_angle_alpha   60.00165410
_cell_angle_beta   59.95455721
_cell_angle_gamma   59.95647091
_symmetry_Int_Tables_number   1
_chemical_formula_structural   Hf16Co4HgRu3
_chemical_formula_sum   'Hf16 Co4 Hg1 Ru3'
_cell_volume   456.16625350
_cell_formula_units_Z   1
loop_
 _symmetry_equiv_pos_site_id
 _symmetry_equiv_pos_as_xyz
  1  'x, y, z'
loop_
 _atom_site_type_symbol
 _atom_site_label
 _atom_site_symmetry_multiplicity
 _atom_site_fract_x
 _atom_site_fract_y
 _atom_site_fract_z
 _atom_site_occupancy
  Hf  Hf0  1  0.057068  0.647648  0.647631  1
  Hf  Hf1  1  0.643215  0.059294  0.648734  1
  Hf  Hf2  1  0.643211  0.648743  0.059296  1
  Hf  Hf3  1  0.643220  0.648755  0.648738  1
  Hf  Hf4  1  0.804995  0.811768  0.191630  1
  Hf  Hf5  1  0.196686  0.196632  0.803346  1
  Hf  Hf6  1  0.804989  0.191621  0.811761  1
  Hf  Hf7  1  0.196666  0.803353  0.196642  1
  Hf  Hf8  1  0.196676  0.803350  0.803344  1
  Hf  Hf9  1  0.804994  0.191607  0.191642  1
  Hf  Hf10  1  0.438834  0.436555  0.062303  1
  Hf  Hf11  1  0.078205  0.049537  0.436129  1
  Hf  Hf12  1  0.438828  0.062307  0.436551  1
  Hf  Hf13  1  0.078216  0.436133  0.049519  1
  Hf  Hf14  1  0.078217  0.436139  0.436138  1
  Hf  Hf15  1  0.438820  0.062312  0.062320  1
  Co  Co16  1  0.428067  0.857313  0.857310  1
  Co  Co17  1  0.854956  0.426716  0.859166  1
  Co  Co18  1  0.854953  0.859160  0.426732  1
  Co  Co19  1  0.854954  0.859159  0.859157  1
  Hg  Hg20  1  0.742676  0.419116  0.419108  1
  Ru  Ru21  1  0.407187  0.758968  0.416914  1
  Ru  Ru22  1  0.407182  0.416910  0.758985  1
  Ru  Ru23  1  0.407186  0.416905  0.416907  1
