# generated using pymatgen
data_TaMn4B4W3
_symmetry_space_group_name_H-M   'P 1'
_cell_length_a   3.17435200
_cell_length_b   5.89701166
_cell_length_c   6.98716727
_cell_angle_alpha   90.28565254
_cell_angle_beta   90.00000000
_cell_angle_gamma   90.00000000
_symmetry_Int_Tables_number   1
_chemical_formula_structural   TaMn4B4W3
_chemical_formula_sum   'Ta1 Mn4 B4 W3'
_cell_volume   130.79249144
_cell_formula_units_Z   1
loop_
 _symmetry_equiv_pos_site_id
 _symmetry_equiv_pos_as_xyz
  1  'x, y, z'
loop_
 _atom_site_type_symbol
 _atom_site_label
 _atom_site_symmetry_multiplicity
 _atom_site_fract_x
 _atom_site_fract_y
 _atom_site_fract_z
 _atom_site_occupancy
  Ta  Ta0  1  0.250000  0.030069  0.827161  1
  Mn  Mn1  1  0.250000  0.142287  0.440168  1
  Mn  Mn2  1  0.250000  0.640032  0.059214  1
  Mn  Mn3  1  0.750000  0.858375  0.557970  1
  Mn  Mn4  1  0.750000  0.360634  0.942443  1
  B  B5  1  0.250000  0.265535  0.136575  1
  B  B6  1  0.250000  0.766698  0.364939  1
  B  B7  1  0.750000  0.728860  0.864707  1
  B  B8  1  0.750000  0.237258  0.632061  1
  W  W9  1  0.250000  0.528165  0.672426  1
  W  W10  1  0.750000  0.971124  0.175311  1
  W  W11  1  0.750000  0.470963  0.327026  1
