# generated using pymatgen
data_Nd2Zn2HgPb
_symmetry_space_group_name_H-M   'P 1'
_cell_length_a   4.73861200
_cell_length_b   4.73861031
_cell_length_c   15.53228300
_cell_angle_alpha   90.00000000
_cell_angle_beta   90.00000000
_cell_angle_gamma   119.99999782
_symmetry_Int_Tables_number   1
_chemical_formula_structural   Nd2Zn2HgPb
_chemical_formula_sum   'Nd4 Zn4 Hg2 Pb2'
_cell_volume   302.04251740
_cell_formula_units_Z   2
loop_
 _symmetry_equiv_pos_site_id
 _symmetry_equiv_pos_as_xyz
  1  'x, y, z'
loop_
 _atom_site_type_symbol
 _atom_site_label
 _atom_site_symmetry_multiplicity
 _atom_site_fract_x
 _atom_site_fract_y
 _atom_site_fract_z
 _atom_site_occupancy
  Nd  Nd0  1  0.000000  0.000000  0.014162  1
  Nd  Nd1  1  0.000000  0.000000  0.250000  1
  Nd  Nd2  1  0.000000  0.000000  0.485838  1
  Nd  Nd3  1  0.000000  0.000000  0.750000  1
  Zn  Zn4  1  0.333334  0.666668  0.121134  1
  Zn  Zn5  1  0.333334  0.666668  0.378866  1
  Zn  Zn6  1  0.666668  0.333334  0.658201  1
  Zn  Zn7  1  0.666668  0.333334  0.841799  1
  Hg  Hg8  1  0.666668  0.333334  0.137578  1
  Hg  Hg9  1  0.666668  0.333334  0.362422  1
  Pb  Pb10  1  0.333334  0.666668  0.605058  1
  Pb  Pb11  1  0.333334  0.666668  0.894942  1
