# generated using pymatgen
data_Er5In4HgPt
_symmetry_space_group_name_H-M   'P 1'
_cell_length_a   3.67121100
_cell_length_b   8.18045371
_cell_length_c   18.30844329
_cell_angle_alpha   89.74818195
_cell_angle_beta   90.00000000
_cell_angle_gamma   90.00000000
_symmetry_Int_Tables_number   1
_chemical_formula_structural   Er5In4HgPt
_chemical_formula_sum   'Er10 In8 Hg2 Pt2'
_cell_volume   549.83700128
_cell_formula_units_Z   2
loop_
 _symmetry_equiv_pos_site_id
 _symmetry_equiv_pos_as_xyz
  1  'x, y, z'
loop_
 _atom_site_type_symbol
 _atom_site_label
 _atom_site_symmetry_multiplicity
 _atom_site_fract_x
 _atom_site_fract_y
 _atom_site_fract_z
 _atom_site_occupancy
  Er  Er0  1  0.000000  0.121230  0.422994  1
  Er  Er1  1  0.000000  0.878770  0.577006  1
  Er  Er2  1  0.000000  0.384066  0.916634  1
  Er  Er3  1  0.000000  0.615934  0.083366  1
  Er  Er4  1  0.000000  0.262330  0.212697  1
  Er  Er5  1  0.000000  0.737670  0.787303  1
  Er  Er6  1  0.000000  0.284684  0.721533  1
  Er  Er7  1  0.000000  0.715316  0.278467  1
  Er  Er8  1  0.000000  0.000000  0.000000  1
  Er  Er9  1  0.000000  0.500000  0.500000  1
  In  In10  1  0.500000  0.418152  0.353144  1
  In  In11  1  0.500000  0.581848  0.646856  1
  In  In12  1  0.500000  0.080860  0.854666  1
  In  In13  1  0.500000  0.919140  0.145334  1
  In  In14  1  0.500000  0.292973  0.063255  1
  In  In15  1  0.500000  0.707027  0.936745  1
  In  In16  1  0.500000  0.212682  0.567655  1
  In  In17  1  0.500000  0.787318  0.432345  1
  Hg  Hg18  1  0.500000  0.026368  0.300312  1
  Hg  Hg19  1  0.500000  0.973632  0.699688  1
  Pt  Pt20  1  0.500000  0.473609  0.805417  1
  Pt  Pt21  1  0.500000  0.526391  0.194583  1
