# generated using pymatgen
data_KNiIr3F18
_symmetry_space_group_name_H-M   'P 1'
_cell_length_a   10.10366300
_cell_length_b   11.06102000
_cell_length_c   14.81444800
_cell_angle_alpha   90.00000000
_cell_angle_beta   90.00000000
_cell_angle_gamma   90.00000000
_symmetry_Int_Tables_number   1
_chemical_formula_structural   KNiIr3F18
_chemical_formula_sum   'K4 Ni4 Ir12 F72'
_cell_volume   1655.61557655
_cell_formula_units_Z   4
loop_
 _symmetry_equiv_pos_site_id
 _symmetry_equiv_pos_as_xyz
  1  'x, y, z'
loop_
 _atom_site_type_symbol
 _atom_site_label
 _atom_site_symmetry_multiplicity
 _atom_site_fract_x
 _atom_site_fract_y
 _atom_site_fract_z
 _atom_site_occupancy
  K  K0  1  0.973920  0.571581  0.250000  1
  K  K1  1  0.026080  0.428419  0.750000  1
  K  K2  1  0.526080  0.071581  0.250000  1
  K  K3  1  0.473920  0.928419  0.750000  1
  Ni  Ni4  1  0.500000  0.500000  0.000000  1
  Ni  Ni5  1  0.000000  0.000000  0.000000  1
  Ni  Ni6  1  0.500000  0.500000  0.500000  1
  Ni  Ni7  1  0.000000  0.000000  0.500000  1
  Ir  Ir8  1  0.801728  0.294026  0.047462  1
  Ir  Ir9  1  0.198272  0.705974  0.547462  1
  Ir  Ir10  1  0.301728  0.205974  0.547462  1
  Ir  Ir11  1  0.301728  0.205974  0.952538  1
  Ir  Ir12  1  0.198272  0.705974  0.952538  1
  Ir  Ir13  1  0.698272  0.794026  0.452538  1
  Ir  Ir14  1  0.897810  0.020792  0.750000  1
  Ir  Ir15  1  0.698272  0.794026  0.047462  1
  Ir  Ir16  1  0.102190  0.979208  0.250000  1
  Ir  Ir17  1  0.602190  0.520792  0.750000  1
  Ir  Ir18  1  0.801728  0.294026  0.452538  1
  Ir  Ir19  1  0.397810  0.479208  0.250000  1
  F  F20  1  0.786474  0.561033  0.750000  1
  F  F21  1  0.563020  0.666297  0.454448  1
  F  F22  1  0.103604  0.976520  0.382688  1
  F  F23  1  0.299767  0.791474  0.038764  1
  F  F24  1  0.902932  0.381217  0.364861  1
  F  F25  1  0.936980  0.166297  0.454448  1
  F  F26  1  0.832601  0.922777  0.446364  1
  F  F27  1  0.896396  0.023480  0.617312  1
  F  F28  1  0.892623  0.377543  0.954467  1
  F  F29  1  0.213526  0.438967  0.250000  1
  F  F30  1  0.392623  0.122457  0.045533  1
  F  F31  1  0.832601  0.922777  0.053636  1
  F  F32  1  0.843588  0.857752  0.750000  1
  F  F33  1  0.552304  0.686896  0.750000  1
  F  F34  1  0.419807  0.479581  0.750000  1
  F  F35  1  0.597068  0.881217  0.135139  1
  F  F36  1  0.896396  0.023480  0.882688  1
  F  F37  1  0.713526  0.061033  0.750000  1
  F  F38  1  0.892623  0.377543  0.545533  1
  F  F39  1  0.200233  0.291474  0.461236  1
  F  F40  1  0.919807  0.020419  0.250000  1
  F  F41  1  0.710611  0.210242  0.359040  1
  F  F42  1  0.710611  0.210242  0.140960  1
  F  F43  1  0.667399  0.422777  0.446364  1
  F  F44  1  0.107377  0.622457  0.045533  1
  F  F45  1  0.656412  0.357752  0.750000  1
  F  F46  1  0.063020  0.833703  0.545552  1
  F  F47  1  0.436980  0.333703  0.954448  1
  F  F48  1  0.299767  0.791474  0.461236  1
  F  F49  1  0.396396  0.476520  0.382688  1
  F  F50  1  0.392623  0.122457  0.454467  1
  F  F51  1  0.396396  0.476520  0.117312  1
  F  F52  1  0.097068  0.618783  0.864861  1
  F  F53  1  0.700233  0.208526  0.538764  1
  F  F54  1  0.947696  0.186896  0.750000  1
  F  F55  1  0.597068  0.881217  0.364861  1
  F  F56  1  0.167399  0.077223  0.553636  1
  F  F57  1  0.580193  0.520419  0.250000  1
  F  F58  1  0.052304  0.813104  0.250000  1
  F  F59  1  0.607377  0.877543  0.954467  1
  F  F60  1  0.563020  0.666297  0.045552  1
  F  F61  1  0.936980  0.166297  0.045552  1
  F  F62  1  0.289389  0.789758  0.640960  1
  F  F63  1  0.603604  0.523480  0.617312  1
  F  F64  1  0.402932  0.118783  0.864861  1
  F  F65  1  0.210611  0.289758  0.640960  1
  F  F66  1  0.332601  0.577223  0.946364  1
  F  F67  1  0.799767  0.708526  0.538764  1
  F  F68  1  0.799767  0.708526  0.961236  1
  F  F69  1  0.286474  0.938967  0.250000  1
  F  F70  1  0.332601  0.577223  0.553636  1
  F  F71  1  0.210611  0.289758  0.859040  1
  F  F72  1  0.402932  0.118783  0.635139  1
  F  F73  1  0.603604  0.523480  0.882688  1
  F  F74  1  0.289389  0.789758  0.859040  1
  F  F75  1  0.902932  0.381217  0.135139  1
  F  F76  1  0.200233  0.291474  0.038764  1
  F  F77  1  0.607377  0.877543  0.545533  1
  F  F78  1  0.343588  0.642248  0.250000  1
  F  F79  1  0.167399  0.077223  0.946364  1
  F  F80  1  0.447696  0.313104  0.250000  1
  F  F81  1  0.700233  0.208526  0.961236  1
  F  F82  1  0.097068  0.618783  0.635139  1
  F  F83  1  0.789389  0.710242  0.359040  1
  F  F84  1  0.080193  0.979581  0.750000  1
  F  F85  1  0.103604  0.976520  0.117312  1
  F  F86  1  0.667399  0.422777  0.053636  1
  F  F87  1  0.789389  0.710242  0.140960  1
  F  F88  1  0.436980  0.333703  0.545552  1
  F  F89  1  0.107377  0.622457  0.454467  1
  F  F90  1  0.156412  0.142248  0.250000  1
  F  F91  1  0.063020  0.833703  0.954448  1
