# generated using pymatgen
data_MgFe4PbBr16
_symmetry_space_group_name_H-M   'P 1'
_cell_length_a   10.84321473
_cell_length_b   10.84321451
_cell_length_c   13.02443581
_cell_angle_alpha   55.51522212
_cell_angle_beta   55.51522293
_cell_angle_gamma   49.65915729
_symmetry_Int_Tables_number   1
_chemical_formula_structural   MgFe4PbBr16
_chemical_formula_sum   'Mg1 Fe4 Pb1 Br16'
_cell_volume   912.21840816
_cell_formula_units_Z   1
loop_
 _symmetry_equiv_pos_site_id
 _symmetry_equiv_pos_as_xyz
  1  'x, y, z'
loop_
 _atom_site_type_symbol
 _atom_site_label
 _atom_site_symmetry_multiplicity
 _atom_site_fract_x
 _atom_site_fract_y
 _atom_site_fract_z
 _atom_site_occupancy
  Mg  Mg0  1  0.009899  0.990101  0.250000  1
  Fe  Fe1  1  0.157208  0.674387  0.522684  1
  Fe  Fe2  1  0.325613  0.842792  0.977316  1
  Fe  Fe3  1  0.843161  0.326911  0.458043  1
  Fe  Fe4  1  0.673089  0.156839  0.041957  1
  Pb  Pb5  1  0.001330  0.998670  0.750000  1
  Br  Br6  1  0.299266  0.394758  0.536136  1
  Br  Br7  1  0.605242  0.700734  0.963864  1
  Br  Br8  1  0.698054  0.608108  0.441960  1
  Br  Br9  1  0.391892  0.301946  0.058040  1
  Br  Br10  1  0.879597  0.829743  0.503138  1
  Br  Br11  1  0.170257  0.120403  0.996862  1
  Br  Br12  1  0.121286  0.195252  0.464186  1
  Br  Br13  1  0.804748  0.878714  0.035814  1
  Br  Br14  1  0.149912  0.664986  0.713296  1
  Br  Br15  1  0.335014  0.850088  0.786704  1
  Br  Br16  1  0.863814  0.297438  0.279292  1
  Br  Br17  1  0.702562  0.136186  0.220708  1
  Br  Br18  1  0.282635  0.840299  0.323042  1
  Br  Br19  1  0.159701  0.717365  0.176958  1
  Br  Br20  1  0.702978  0.177258  0.660979  1
  Br  Br21  1  0.822742  0.297022  0.839021  1
